# generated using pymatgen
data_BaSmHf4O12
_symmetry_space_group_name_H-M   'P 1'
_cell_length_a   5.81479984
_cell_length_b   5.81479984
_cell_length_c   8.17123368
_cell_angle_alpha   90.00000000
_cell_angle_beta   90.00000000
_cell_angle_gamma   89.70407867
_symmetry_Int_Tables_number   1
_chemical_formula_structural   BaSmHf4O12
_chemical_formula_sum   'Ba1 Sm1 Hf4 O12'
_cell_volume   276.28122763
_cell_formula_units_Z   1
loop_
 _symmetry_equiv_pos_site_id
 _symmetry_equiv_pos_as_xyz
  1  'x, y, z'
loop_
 _atom_site_type_symbol
 _atom_site_label
 _atom_site_symmetry_multiplicity
 _atom_site_fract_x
 _atom_site_fract_y
 _atom_site_fract_z
 _atom_site_occupancy
  Ba  Ba0  1  0.52063104  0.52063104  0.00000000  1
  Sm  Sm1  1  0.97010973  0.97010973  0.50000000  1
  Hf  Hf2  1  0.48898465  0.00802240  0.74607941  1
  Hf  Hf3  1  0.48898465  0.00802240  0.25392059  1
  Hf  Hf4  1  0.00802240  0.48898465  0.25392059  1
  Hf  Hf5  1  0.00802240  0.48898465  0.74607941  1
  O  O6  1  0.73025254  0.26993391  0.74388739  1
  O  O7  1  0.26993391  0.73025254  0.74388739  1
  O  O8  1  0.26993391  0.73025254  0.25611261  1
  O  O9  1  0.73025254  0.26993391  0.25611261  1
  O  O10  1  0.77139453  0.77139453  0.75512937  1
  O  O11  1  0.20534007  0.20534007  0.69187132  1
  O  O12  1  0.20534007  0.20534007  0.30812868  1
  O  O13  1  0.77139453  0.77139453  0.24487063  1
  O  O14  1  0.48328066  0.02402035  0.00000000  1
  O  O15  1  0.57146699  0.98403502  0.50000000  1
  O  O16  1  0.02402035  0.48328066  0.00000000  1
  O  O17  1  0.98403502  0.57146699  0.50000000  1
