# generated using pymatgen
data_BaTb2SmO6
_symmetry_space_group_name_H-M   'P 1'
_cell_length_a   5.99216223
_cell_length_b   6.20063415
_cell_length_c   8.64888883
_cell_angle_alpha   90.00000000
_cell_angle_beta   90.00000000
_cell_angle_gamma   90.00000000
_symmetry_Int_Tables_number   1
_chemical_formula_structural   BaTb2SmO6
_chemical_formula_sum   'Ba2 Tb4 Sm2 O12'
_cell_volume   321.35124404
_cell_formula_units_Z   2
loop_
 _symmetry_equiv_pos_site_id
 _symmetry_equiv_pos_as_xyz
  1  'x, y, z'
loop_
 _atom_site_type_symbol
 _atom_site_label
 _atom_site_symmetry_multiplicity
 _atom_site_fract_x
 _atom_site_fract_y
 _atom_site_fract_z
 _atom_site_occupancy
  Ba  Ba0  1  0.74752973  0.97550671  0.50000000  1
  Ba  Ba1  1  0.25247027  0.47550671  0.50000000  1
  Tb  Tb2  1  0.74339038  0.51237329  0.76137550  1
  Tb  Tb3  1  0.25660962  0.01237329  0.76137550  1
  Tb  Tb4  1  0.74339038  0.51237329  0.23862450  1
  Tb  Tb5  1  0.25660962  0.01237329  0.23862450  1
  Sm  Sm6  1  0.23668697  0.57278121  0.00000000  1
  Sm  Sm7  1  0.76331303  0.07278121  0.00000000  1
  O  O8  1  0.40071736  0.93218982  0.00000000  1
  O  O9  1  0.80745267  0.53616189  0.50000000  1
  O  O10  1  0.19254733  0.03616189  0.50000000  1
  O  O11  1  0.59928264  0.43218982  0.00000000  1
  O  O12  1  0.59005137  0.17515040  0.73529604  1
  O  O13  1  0.04649908  0.30415650  0.83722942  1
  O  O14  1  0.95350092  0.80415650  0.16277058  1
  O  O15  1  0.40994863  0.67515040  0.26470396  1
  O  O16  1  0.95350092  0.80415650  0.83722942  1
  O  O17  1  0.40994863  0.67515040  0.73529604  1
  O  O18  1  0.59005137  0.17515040  0.26470396  1
  O  O19  1  0.04649908  0.30415650  0.16277058  1
