# generated using pymatgen
data_NaSrNdWO6
_symmetry_space_group_name_H-M   'P 1'
_cell_length_a   8.40387917
_cell_length_b   8.39212389
_cell_length_c   8.43633063
_cell_angle_alpha   90.00000000
_cell_angle_beta   90.00000000
_cell_angle_gamma   90.00000000
_symmetry_Int_Tables_number   1
_chemical_formula_structural   NaSrNdWO6
_chemical_formula_sum   'Na4 Sr4 Nd4 W4 O24'
_cell_volume   594.98398764
_cell_formula_units_Z   4
loop_
 _symmetry_equiv_pos_site_id
 _symmetry_equiv_pos_as_xyz
  1  'x, y, z'
loop_
 _atom_site_type_symbol
 _atom_site_label
 _atom_site_symmetry_multiplicity
 _atom_site_fract_x
 _atom_site_fract_y
 _atom_site_fract_z
 _atom_site_occupancy
  Na  Na0  1  -0.00000000  -0.00000000  -0.00000000  1
  Na  Na1  1  0.50000000  0.50000000  0.50000000  1
  Na  Na2  1  -0.00000000  0.50000000  0.50000000  1
  Na  Na3  1  0.50000000  0.00000000  -0.00000000  1
  Sr  Sr4  1  0.50000000  -0.00000000  0.50000000  1
  Sr  Sr5  1  0.50000000  0.50000000  -0.00000000  1
  Sr  Sr6  1  -0.00000000  0.50000000  -0.00000000  1
  Sr  Sr7  1  -0.00000000  -0.00000000  0.50000000  1
  Nd  Nd8  1  0.75000000  0.75000000  0.75000000  1
  Nd  Nd9  1  0.25000000  0.25000000  0.75000000  1
  Nd  Nd10  1  0.25000000  0.75000000  0.25000000  1
  Nd  Nd11  1  0.75000000  0.25000000  0.25000000  1
  W  W12  1  0.25000000  0.25000000  0.25000000  1
  W  W13  1  0.75000000  0.75000000  0.25000000  1
  W  W14  1  0.75000000  0.25000000  0.75000000  1
  W  W15  1  0.25000000  0.75000000  0.75000000  1
  O  O16  1  0.02371103  0.20061597  0.27209199  1
  O  O17  1  0.97628897  0.79938403  0.27209199  1
  O  O18  1  0.97628897  0.20061597  0.72790801  1
  O  O19  1  0.02371103  0.79938403  0.72790801  1
  O  O20  1  0.29613989  0.02492066  0.21561876  1
  O  O21  1  0.29613989  0.97507934  0.78438124  1
  O  O22  1  0.70386011  0.97507934  0.21561876  1
  O  O23  1  0.70386011  0.02492066  0.78438124  1
  O  O24  1  0.22149818  0.29064144  0.02213457  1
  O  O25  1  0.77850182  0.29064144  0.97786543  1
  O  O26  1  0.22149818  0.70935856  0.97786543  1
  O  O27  1  0.77850182  0.70935856  0.02213457  1
  O  O28  1  0.47628897  0.29938403  0.22790801  1
  O  O29  1  0.52371103  0.70061597  0.22790801  1
  O  O30  1  0.52371103  0.29938403  0.77209199  1
  O  O31  1  0.47628897  0.70061597  0.77209199  1
  O  O32  1  0.20386011  0.47507934  0.28438124  1
  O  O33  1  0.20386011  0.52492066  0.71561876  1
  O  O34  1  0.79613989  0.52492066  0.28438124  1
  O  O35  1  0.79613989  0.47507934  0.71561876  1
  O  O36  1  0.27850182  0.20935856  0.47786543  1
  O  O37  1  0.72149818  0.20935856  0.52213457  1
  O  O38  1  0.27850182  0.79064144  0.52213457  1
  O  O39  1  0.72149818  0.79064144  0.47786543  1
