# generated using pymatgen
data_SrLaEuSbO6
_symmetry_space_group_name_H-M   'P 1'
_cell_length_a   5.98407923
_cell_length_b   5.98407923
_cell_length_c   8.68068811
_cell_angle_alpha   90.00000000
_cell_angle_beta   90.00000000
_cell_angle_gamma   90.00000000
_symmetry_Int_Tables_number   1
_chemical_formula_structural   SrLaEuSbO6
_chemical_formula_sum   'Sr2 La2 Eu2 Sb2 O12'
_cell_volume   310.84853340
_cell_formula_units_Z   2
loop_
 _symmetry_equiv_pos_site_id
 _symmetry_equiv_pos_as_xyz
  1  'x, y, z'
loop_
 _atom_site_type_symbol
 _atom_site_label
 _atom_site_symmetry_multiplicity
 _atom_site_fract_x
 _atom_site_fract_y
 _atom_site_fract_z
 _atom_site_occupancy
  Sr  Sr0  1  0.50000000  -0.00000000  0.25000000  1
  Sr  Sr1  1  0.00000000  0.50000000  0.75000000  1
  La  La2  1  -0.00000000  -0.00000000  0.00000000  1
  La  La3  1  0.50000000  0.50000000  0.50000000  1
  Eu  Eu4  1  -0.00000000  0.50000000  0.25000000  1
  Eu  Eu5  1  0.50000000  0.00000000  0.75000000  1
  Sb  Sb6  1  0.00000000  0.00000000  0.50000000  1
  Sb  Sb7  1  0.50000000  0.50000000  0.00000000  1
  O  O8  1  -0.00000000  0.00000000  0.26829684  1
  O  O9  1  0.50000000  0.50000000  0.23170316  1
  O  O10  1  0.00000000  0.00000000  0.73170316  1
  O  O11  1  0.50000000  0.50000000  0.76829684  1
  O  O12  1  0.34371442  0.20158483  0.99825962  1
  O  O13  1  0.65628558  0.79841517  0.99825962  1
  O  O14  1  0.79841517  0.34371442  0.00174038  1
  O  O15  1  0.20158483  0.65628558  0.00174038  1
  O  O16  1  0.84371442  0.29841517  0.49825962  1
  O  O17  1  0.15628558  0.70158483  0.49825962  1
  O  O18  1  0.29841517  0.15628558  0.50174038  1
  O  O19  1  0.70158483  0.84371442  0.50174038  1
