# generated using pymatgen
data_CaNdEuSbO6
_symmetry_space_group_name_H-M   'P 1'
_cell_length_a   5.89890880
_cell_length_b   5.89890880
_cell_length_c   8.56825294
_cell_angle_alpha   90.00000000
_cell_angle_beta   90.00000000
_cell_angle_gamma   90.00000000
_symmetry_Int_Tables_number   1
_chemical_formula_structural   CaNdEuSbO6
_chemical_formula_sum   'Ca2 Nd2 Eu2 Sb2 O12'
_cell_volume   298.15056885
_cell_formula_units_Z   2
loop_
 _symmetry_equiv_pos_site_id
 _symmetry_equiv_pos_as_xyz
  1  'x, y, z'
loop_
 _atom_site_type_symbol
 _atom_site_label
 _atom_site_symmetry_multiplicity
 _atom_site_fract_x
 _atom_site_fract_y
 _atom_site_fract_z
 _atom_site_occupancy
  Ca  Ca0  1  -0.00000000  0.50000000  0.25000000  1
  Ca  Ca1  1  0.50000000  0.00000000  0.75000000  1
  Nd  Nd2  1  0.00000000  0.00000000  0.00000000  1
  Nd  Nd3  1  0.50000000  0.50000000  0.50000000  1
  Eu  Eu4  1  0.50000000  -0.00000000  0.25000000  1
  Eu  Eu5  1  -0.00000000  0.50000000  0.75000000  1
  Sb  Sb6  1  0.00000000  -0.00000000  0.50000000  1
  Sb  Sb7  1  0.50000000  0.50000000  0.00000000  1
  O  O8  1  -0.00000000  -0.00000000  0.26637667  1
  O  O9  1  0.50000000  0.50000000  0.23362333  1
  O  O10  1  0.00000000  0.00000000  0.73362333  1
  O  O11  1  0.50000000  0.50000000  0.76637667  1
  O  O12  1  0.34797553  0.19391117  0.99213788  1
  O  O13  1  0.65202447  0.80608883  0.99213788  1
  O  O14  1  0.80608883  0.34797553  0.00786212  1
  O  O15  1  0.19391117  0.65202447  0.00786212  1
  O  O16  1  0.84797553  0.30608883  0.49213788  1
  O  O17  1  0.15202447  0.69391117  0.49213788  1
  O  O18  1  0.30608883  0.15202447  0.50786212  1
  O  O19  1  0.69391117  0.84797553  0.50786212  1
