# generated using pymatgen
data_NaPrEuWO6
_symmetry_space_group_name_H-M   'P 1'
_cell_length_a   8.07744888
_cell_length_b   8.03192528
_cell_length_c   8.07284161
_cell_angle_alpha   90.00000000
_cell_angle_beta   90.00000000
_cell_angle_gamma   90.00000000
_symmetry_Int_Tables_number   1
_chemical_formula_structural   NaPrEuWO6
_chemical_formula_sum   'Na4 Pr4 Eu4 W4 O24'
_cell_volume   523.74550592
_cell_formula_units_Z   4
loop_
 _symmetry_equiv_pos_site_id
 _symmetry_equiv_pos_as_xyz
  1  'x, y, z'
loop_
 _atom_site_type_symbol
 _atom_site_label
 _atom_site_symmetry_multiplicity
 _atom_site_fract_x
 _atom_site_fract_y
 _atom_site_fract_z
 _atom_site_occupancy
  Na  Na0  1  0.75000000  0.75000000  0.75000000  1
  Na  Na1  1  0.25000000  0.25000000  0.75000000  1
  Na  Na2  1  0.25000000  0.75000000  0.25000000  1
  Na  Na3  1  0.75000000  0.25000000  0.25000000  1
  Pr  Pr4  1  0.50000000  -0.00000000  0.50000000  1
  Pr  Pr5  1  0.50000000  0.50000000  -0.00000000  1
  Pr  Pr6  1  -0.00000000  0.50000000  -0.00000000  1
  Pr  Pr7  1  -0.00000000  -0.00000000  0.50000000  1
  Eu  Eu8  1  -0.00000000  0.50000000  0.50000000  1
  Eu  Eu9  1  0.50000000  -0.00000000  -0.00000000  1
  Eu  Eu10  1  -0.00000000  -0.00000000  -0.00000000  1
  Eu  Eu11  1  0.50000000  0.50000000  0.50000000  1
  W  W12  1  0.25000000  0.25000000  0.25000000  1
  W  W13  1  0.75000000  0.75000000  0.25000000  1
  W  W14  1  0.75000000  0.25000000  0.75000000  1
  W  W15  1  0.25000000  0.75000000  0.75000000  1
  O  O16  1  0.01800788  0.18952473  0.29644477  1
  O  O17  1  0.98199212  0.81047527  0.29644477  1
  O  O18  1  0.98199212  0.18952473  0.70355523  1
  O  O19  1  0.01800788  0.81047527  0.70355523  1
  O  O20  1  0.29606862  0.01931617  0.19295216  1
  O  O21  1  0.29606862  0.98068383  0.80704784  1
  O  O22  1  0.70393138  0.98068383  0.19295216  1
  O  O23  1  0.70393138  0.01931617  0.80704784  1
  O  O24  1  0.19032561  0.29806377  0.01716604  1
  O  O25  1  0.80967439  0.29806377  0.98283396  1
  O  O26  1  0.19032561  0.70193623  0.98283396  1
  O  O27  1  0.80967439  0.70193623  0.01716604  1
  O  O28  1  0.48199212  0.31047527  0.20355523  1
  O  O29  1  0.51800788  0.68952473  0.20355523  1
  O  O30  1  0.51800788  0.31047527  0.79644477  1
  O  O31  1  0.48199212  0.68952473  0.79644477  1
  O  O32  1  0.20393138  0.48068383  0.30704784  1
  O  O33  1  0.20393138  0.51931617  0.69295216  1
  O  O34  1  0.79606862  0.51931617  0.30704784  1
  O  O35  1  0.79606862  0.48068383  0.69295216  1
  O  O36  1  0.30967439  0.20193623  0.48283396  1
  O  O37  1  0.69032561  0.20193623  0.51716604  1
  O  O38  1  0.30967439  0.79806377  0.51716604  1
  O  O39  1  0.69032561  0.79806377  0.48283396  1
