# generated using pymatgen
data_KGdTi4O12
_symmetry_space_group_name_H-M   'P 1'
_cell_length_a   5.48372622
_cell_length_b   5.48372622
_cell_length_c   7.78635124
_cell_angle_alpha   90.00000000
_cell_angle_beta   90.00000000
_cell_angle_gamma   89.76363387
_symmetry_Int_Tables_number   1
_chemical_formula_structural   KGdTi4O12
_chemical_formula_sum   'K1 Gd1 Ti4 O12'
_cell_volume   234.14334737
_cell_formula_units_Z   1
loop_
 _symmetry_equiv_pos_site_id
 _symmetry_equiv_pos_as_xyz
  1  'x, y, z'
loop_
 _atom_site_type_symbol
 _atom_site_label
 _atom_site_symmetry_multiplicity
 _atom_site_fract_x
 _atom_site_fract_y
 _atom_site_fract_z
 _atom_site_occupancy
  K  K0  1  0.99072009  0.00927991  0.00000000  1
  Gd  Gd1  1  0.51887521  0.48112479  0.50000000  1
  Ti  Ti2  1  0.49591603  0.99087443  0.24349824  1
  Ti  Ti3  1  0.49591603  0.99087443  0.75650176  1
  Ti  Ti4  1  0.00912557  0.50408397  0.75650176  1
  Ti  Ti5  1  0.00912557  0.50408397  0.24349824  1
  O  O6  1  0.24928495  0.25093389  0.26999324  1
  O  O7  1  0.74906611  0.75071505  0.26999324  1
  O  O8  1  0.74906611  0.75071505  0.73000676  1
  O  O9  1  0.24928495  0.25093389  0.73000676  1
  O  O10  1  0.26982081  0.73017919  0.28787463  1
  O  O11  1  0.73246420  0.26753580  0.25465156  1
  O  O12  1  0.73246420  0.26753580  0.74534844  1
  O  O13  1  0.26982081  0.73017919  0.71212537  1
  O  O14  1  0.48640257  0.99044253  0.00000000  1
  O  O15  1  0.51535639  0.03836707  0.50000000  1
  O  O16  1  0.00955747  0.51359743  0.00000000  1
  O  O17  1  0.96163293  0.48464361  0.50000000  1
