# generated using pymatgen
data_BaGdNbSnO6
_symmetry_space_group_name_H-M   'P 1'
_cell_length_a   8.44589490
_cell_length_b   8.52535631
_cell_length_c   8.53588301
_cell_angle_alpha   90.00000000
_cell_angle_beta   90.00000000
_cell_angle_gamma   90.00000000
_symmetry_Int_Tables_number   1
_chemical_formula_structural   BaGdNbSnO6
_chemical_formula_sum   'Ba4 Gd4 Nb4 Sn4 O24'
_cell_volume   614.61996843
_cell_formula_units_Z   4
loop_
 _symmetry_equiv_pos_site_id
 _symmetry_equiv_pos_as_xyz
  1  'x, y, z'
loop_
 _atom_site_type_symbol
 _atom_site_label
 _atom_site_symmetry_multiplicity
 _atom_site_fract_x
 _atom_site_fract_y
 _atom_site_fract_z
 _atom_site_occupancy
  Ba  Ba0  1  0.00000000  0.00000000  0.00000000  1
  Ba  Ba1  1  0.50000000  0.50000000  0.50000000  1
  Ba  Ba2  1  0.50000000  0.50000000  0.00000000  1
  Ba  Ba3  1  -0.00000000  0.00000000  0.50000000  1
  Gd  Gd4  1  0.75000000  0.75000000  0.75000000  1
  Gd  Gd5  1  0.25000000  0.25000000  0.75000000  1
  Gd  Gd6  1  0.25000000  0.75000000  0.25000000  1
  Gd  Gd7  1  0.75000000  0.25000000  0.25000000  1
  Nb  Nb8  1  0.25000000  0.25000000  0.25000000  1
  Nb  Nb9  1  0.75000000  0.75000000  0.25000000  1
  Nb  Nb10  1  0.75000000  0.25000000  0.75000000  1
  Nb  Nb11  1  0.25000000  0.75000000  0.75000000  1
  Sn  Sn12  1  0.00000000  0.50000000  0.50000000  1
  Sn  Sn13  1  0.50000000  0.00000000  0.50000000  1
  Sn  Sn14  1  0.50000000  0.00000000  0.00000000  1
  Sn  Sn15  1  -0.00000000  0.50000000  0.00000000  1
  O  O16  1  0.01562567  0.21416032  0.27440511  1
  O  O17  1  0.98437433  0.78583968  0.27440511  1
  O  O18  1  0.98437433  0.21416032  0.72559489  1
  O  O19  1  0.01562567  0.78583968  0.72559489  1
  O  O20  1  0.28133566  0.01628131  0.20309987  1
  O  O21  1  0.28133566  0.98371869  0.79690013  1
  O  O22  1  0.71866434  0.98371869  0.20309987  1
  O  O23  1  0.71866434  0.01628131  0.79690013  1
  O  O24  1  0.21419765  0.29222027  0.01615167  1
  O  O25  1  0.78580235  0.29222027  0.98384833  1
  O  O26  1  0.21419765  0.70777973  0.98384833  1
  O  O27  1  0.78580235  0.70777973  0.01615167  1
  O  O28  1  0.48437433  0.28583968  0.22559489  1
  O  O29  1  0.51562567  0.71416032  0.22559489  1
  O  O30  1  0.51562567  0.28583968  0.77440511  1
  O  O31  1  0.48437433  0.71416032  0.77440511  1
  O  O32  1  0.21866434  0.48371869  0.29690013  1
  O  O33  1  0.21866434  0.51628131  0.70309987  1
  O  O34  1  0.78133566  0.51628131  0.29690013  1
  O  O35  1  0.78133566  0.48371869  0.70309987  1
  O  O36  1  0.28580235  0.20777973  0.48384833  1
  O  O37  1  0.71419765  0.20777973  0.51615167  1
  O  O38  1  0.28580235  0.79222027  0.51615167  1
  O  O39  1  0.71419765  0.79222027  0.48384833  1
