# generated using pymatgen
data_BaNb4CrO12
_symmetry_space_group_name_H-M   'P 1'
_cell_length_a   5.60797713
_cell_length_b   5.60797713
_cell_length_c   8.01946676
_cell_angle_alpha   90.00000000
_cell_angle_beta   90.00000000
_cell_angle_gamma   92.10965266
_symmetry_Int_Tables_number   1
_chemical_formula_structural   BaNb4CrO12
_chemical_formula_sum   'Ba1 Nb4 Cr1 O12'
_cell_volume   252.03653358
_cell_formula_units_Z   1
loop_
 _symmetry_equiv_pos_site_id
 _symmetry_equiv_pos_as_xyz
  1  'x, y, z'
loop_
 _atom_site_type_symbol
 _atom_site_label
 _atom_site_symmetry_multiplicity
 _atom_site_fract_x
 _atom_site_fract_y
 _atom_site_fract_z
 _atom_site_occupancy
  Ba  Ba0  1  0.47681431  0.52318569  0.00000000  1
  Nb  Nb1  1  0.49034066  0.01879651  0.25524543  1
  Nb  Nb2  1  0.49034066  0.01879651  0.74475457  1
  Nb  Nb3  1  0.98120349  0.50965934  0.74475457  1
  Nb  Nb4  1  0.98120349  0.50965934  0.25524543  1
  Cr  Cr5  1  0.03509178  0.96490822  0.50000000  1
  O  O6  1  0.28944647  0.28059892  0.25845182  1
  O  O7  1  0.71940108  0.71055353  0.25845182  1
  O  O8  1  0.71940108  0.71055353  0.74154818  1
  O  O9  1  0.28944647  0.28059892  0.74154818  1
  O  O10  1  0.22668788  0.77331212  0.21847535  1
  O  O11  1  0.80440582  0.19559418  0.31073811  1
  O  O12  1  0.80440582  0.19559418  0.68926189  1
  O  O13  1  0.22668788  0.77331212  0.78152465  1
  O  O14  1  0.53534801  0.03373684  0.00000000  1
  O  O15  1  0.41070780  0.96469586  0.50000000  1
  O  O16  1  0.96626316  0.46465199  -0.00000000  1
  O  O17  1  0.03530414  0.58929220  0.50000000  1
