# generated using pymatgen
data_KSrPrNbO6
_symmetry_space_group_name_H-M   'P 1'
_cell_length_a   8.70142578
_cell_length_b   8.66260951
_cell_length_c   8.66688401
_cell_angle_alpha   90.00000000
_cell_angle_beta   90.00000000
_cell_angle_gamma   90.00000000
_symmetry_Int_Tables_number   1
_chemical_formula_structural   KSrPrNbO6
_chemical_formula_sum   'K4 Sr4 Pr4 Nb4 O24'
_cell_volume   653.28418154
_cell_formula_units_Z   4
loop_
 _symmetry_equiv_pos_site_id
 _symmetry_equiv_pos_as_xyz
  1  'x, y, z'
loop_
 _atom_site_type_symbol
 _atom_site_label
 _atom_site_symmetry_multiplicity
 _atom_site_fract_x
 _atom_site_fract_y
 _atom_site_fract_z
 _atom_site_occupancy
  K  K0  1  0.00000000  0.50000000  0.50000000  1
  K  K1  1  0.50000000  0.50000000  0.00000000  1
  K  K2  1  0.50000000  0.00000000  0.00000000  1
  K  K3  1  0.00000000  0.00000000  0.50000000  1
  Sr  Sr4  1  0.50000000  0.00000000  0.50000000  1
  Sr  Sr5  1  0.00000000  0.50000000  0.00000000  1
  Sr  Sr6  1  0.00000000  0.00000000  0.00000000  1
  Sr  Sr7  1  0.50000000  0.50000000  0.50000000  1
  Pr  Pr8  1  0.25000000  0.25000000  0.25000000  1
  Pr  Pr9  1  0.75000000  0.75000000  0.25000000  1
  Pr  Pr10  1  0.75000000  0.25000000  0.75000000  1
  Pr  Pr11  1  0.25000000  0.75000000  0.75000000  1
  Nb  Nb12  1  0.75000000  0.75000000  0.75000000  1
  Nb  Nb13  1  0.25000000  0.25000000  0.75000000  1
  Nb  Nb14  1  0.25000000  0.75000000  0.25000000  1
  Nb  Nb15  1  0.75000000  0.25000000  0.25000000  1
  O  O16  1  0.98058388  0.22490110  0.26142432  1
  O  O17  1  0.01941612  0.77509890  0.26142432  1
  O  O18  1  0.01941612  0.22490110  0.73857568  1
  O  O19  1  0.98058388  0.77509890  0.73857568  1
  O  O20  1  0.26938965  0.98018300  0.22765163  1
  O  O21  1  0.26938965  0.01981700  0.77234837  1
  O  O22  1  0.73061035  0.01981700  0.22765163  1
  O  O23  1  0.73061035  0.98018300  0.77234837  1
  O  O24  1  0.21215305  0.27205571  0.98124807  1
  O  O25  1  0.78784695  0.27205571  0.01875193  1
  O  O26  1  0.21215305  0.72794429  0.01875193  1
  O  O27  1  0.78784695  0.72794429  0.98124807  1
  O  O28  1  0.51941612  0.27509890  0.23857568  1
  O  O29  1  0.48058388  0.72490110  0.23857568  1
  O  O30  1  0.48058388  0.27509890  0.76142432  1
  O  O31  1  0.51941612  0.72490110  0.76142432  1
  O  O32  1  0.23061035  0.51981700  0.27234837  1
  O  O33  1  0.23061035  0.48018300  0.72765163  1
  O  O34  1  0.76938965  0.48018300  0.27234837  1
  O  O35  1  0.76938965  0.51981700  0.72765163  1
  O  O36  1  0.28784695  0.22794429  0.51875193  1
  O  O37  1  0.71215305  0.22794429  0.48124807  1
  O  O38  1  0.28784695  0.77205571  0.48124807  1
  O  O39  1  0.71215305  0.77205571  0.51875193  1
