# generated using pymatgen
data_Pr5Mg
_symmetry_space_group_name_H-M   'P 1'
_cell_length_a   6.86039359
_cell_length_b   6.86039359
_cell_length_c   6.86039366
_cell_angle_alpha   55.49381033
_cell_angle_beta   55.49381033
_cell_angle_gamma   55.49381186
_symmetry_Int_Tables_number   1
_chemical_formula_structural   Pr5Mg
_chemical_formula_sum   'Pr5 Mg1'
_cell_volume   204.42566386
_cell_formula_units_Z   1
loop_
 _symmetry_equiv_pos_site_id
 _symmetry_equiv_pos_as_xyz
  1  'x, y, z'
loop_
 _atom_site_type_symbol
 _atom_site_label
 _atom_site_symmetry_multiplicity
 _atom_site_fract_x
 _atom_site_fract_y
 _atom_site_fract_z
 _atom_site_occupancy
  Pr  Pr0  1  0.13473200  0.86526800  0.50000000  1
  Pr  Pr1  1  0.50000000  0.13473200  0.86526800  1
  Pr  Pr2  1  0.86526800  0.50000000  0.13473200  1
  Pr  Pr3  1  0.66026600  0.66026600  0.66026600  1
  Pr  Pr4  1  0.33973400  0.33973400  0.33973400  1
  Mg  Mg5  1  0.00000000  0.00000000  0.00000000  1
