# generated using pymatgen
data_BaSrDyWO6
_symmetry_space_group_name_H-M   'P 1'
_cell_length_a   5.98717032
_cell_length_b   5.95882660
_cell_length_c   8.40650656
_cell_angle_alpha   89.93118610
_cell_angle_beta   90.53956075
_cell_angle_gamma   90.31162656
_symmetry_Int_Tables_number   1
_chemical_formula_structural   BaSrDyWO6
_chemical_formula_sum   'Ba2 Sr2 Dy2 W2 O12'
_cell_volume   299.89688109
_cell_formula_units_Z   2
loop_
 _symmetry_equiv_pos_site_id
 _symmetry_equiv_pos_as_xyz
  1  'x, y, z'
loop_
 _atom_site_type_symbol
 _atom_site_label
 _atom_site_symmetry_multiplicity
 _atom_site_fract_x
 _atom_site_fract_y
 _atom_site_fract_z
 _atom_site_occupancy
  Ba  Ba0  1  0.50514357  0.52018052  0.24856489  1
  Ba  Ba1  1  0.49485643  0.47981948  0.75143511  1
  Sr  Sr2  1  0.99628251  0.02228627  0.25161614  1
  Sr  Sr3  1  0.00371749  0.97771373  0.74838386  1
  Dy  Dy4  1  -0.00000000  0.50000000  -0.00000000  1
  Dy  Dy5  1  0.50000000  0.00000000  0.50000000  1
  W  W6  1  0.50000000  0.00000000  -0.00000000  1
  W  W7  1  -0.00000000  0.50000000  0.50000000  1
  O  O8  1  0.23274555  0.20285942  0.97087983  1
  O  O9  1  0.25981651  0.71025844  0.52544139  1
  O  O10  1  0.76725445  0.79714058  0.02912017  1
  O  O11  1  0.74018349  0.28974156  0.47455861  1
  O  O12  1  0.28617460  0.73761025  0.96702374  1
  O  O13  1  0.20559520  0.22833452  0.53221541  1
  O  O14  1  0.71382540  0.26238975  0.03297626  1
  O  O15  1  0.79440480  0.77166548  0.46778459  1
  O  O16  1  0.43519914  0.00002330  0.23417785  1
  O  O17  1  0.05454744  0.49238904  0.26526138  1
  O  O18  1  0.56480086  -0.00002330  0.76582215  1
  O  O19  1  0.94545256  0.50761096  0.73473862  1
