# generated using pymatgen
data_Ba2DySbO6
_symmetry_space_group_name_H-M   'P 1'
_cell_length_a   8.51826486
_cell_length_b   8.51826486
_cell_length_c   8.51826486
_cell_angle_alpha   90.00000000
_cell_angle_beta   90.00000000
_cell_angle_gamma   90.00000000
_symmetry_Int_Tables_number   1
_chemical_formula_structural   Ba2DySbO6
_chemical_formula_sum   'Ba8 Dy4 Sb4 O24'
_cell_volume   618.09242143
_cell_formula_units_Z   4
loop_
 _symmetry_equiv_pos_site_id
 _symmetry_equiv_pos_as_xyz
  1  'x, y, z'
loop_
 _atom_site_type_symbol
 _atom_site_label
 _atom_site_symmetry_multiplicity
 _atom_site_fract_x
 _atom_site_fract_y
 _atom_site_fract_z
 _atom_site_occupancy
  Ba  Ba0  1  0.50000000  0.50000000  0.50000000  1
  Ba  Ba1  1  0.00000000  -0.00000000  0.00000000  1
  Ba  Ba2  1  0.00000000  -0.00000000  0.50000000  1
  Ba  Ba3  1  0.00000000  0.50000000  0.00000000  1
  Ba  Ba4  1  0.50000000  -0.00000000  0.00000000  1
  Ba  Ba5  1  0.50000000  0.50000000  0.00000000  1
  Ba  Ba6  1  0.50000000  -0.00000000  0.50000000  1
  Ba  Ba7  1  0.00000000  0.50000000  0.50000000  1
  Dy  Dy8  1  0.75000000  0.75000000  0.75000000  1
  Dy  Dy9  1  0.75000000  0.25000000  0.25000000  1
  Dy  Dy10  1  0.25000000  0.75000000  0.25000000  1
  Dy  Dy11  1  0.25000000  0.25000000  0.75000000  1
  Sb  Sb12  1  0.25000000  0.25000000  0.25000000  1
  Sb  Sb13  1  0.25000000  0.75000000  0.75000000  1
  Sb  Sb14  1  0.75000000  0.25000000  0.75000000  1
  Sb  Sb15  1  0.75000000  0.75000000  0.25000000  1
  O  O16  1  0.24041784  0.26001392  0.48664883  1
  O  O17  1  0.24041784  0.73998608  0.51335117  1
  O  O18  1  0.75958216  0.26001392  0.51335117  1
  O  O19  1  0.75958216  0.73998608  0.48664883  1
  O  O20  1  0.26001392  0.48664883  0.24041784  1
  O  O21  1  0.73998608  0.51335117  0.24041784  1
  O  O22  1  0.26001392  0.51335117  0.75958216  1
  O  O23  1  0.73998608  0.48664883  0.75958216  1
  O  O24  1  0.48664883  0.24041784  0.26001392  1
  O  O25  1  0.51335117  0.24041784  0.73998608  1
  O  O26  1  0.51335117  0.75958216  0.26001392  1
  O  O27  1  0.48664883  0.75958216  0.73998608  1
  O  O28  1  0.25958216  0.23998608  0.01335117  1
  O  O29  1  0.25958216  0.76001392  0.98664883  1
  O  O30  1  0.74041784  0.23998608  0.98664883  1
  O  O31  1  0.74041784  0.76001392  0.01335117  1
  O  O32  1  0.23998608  0.01335117  0.25958216  1
  O  O33  1  0.76001392  0.98664883  0.25958216  1
  O  O34  1  0.23998608  0.98664883  0.74041784  1
  O  O35  1  0.76001392  0.01335117  0.74041784  1
  O  O36  1  0.01335117  0.25958216  0.23998608  1
  O  O37  1  0.98664883  0.25958216  0.76001392  1
  O  O38  1  0.98664883  0.74041784  0.23998608  1
  O  O39  1  0.01335117  0.74041784  0.76001392  1
