# generated using pymatgen
data_BaZr4SnO12
_symmetry_space_group_name_H-M   'P 1'
_cell_length_a   5.77158335
_cell_length_b   5.77158335
_cell_length_c   8.36105164
_cell_angle_alpha   90.00000000
_cell_angle_beta   90.00000000
_cell_angle_gamma   89.62007457
_symmetry_Int_Tables_number   1
_chemical_formula_structural   BaZr4SnO12
_chemical_formula_sum   'Ba1 Zr4 Sn1 O12'
_cell_volume   278.51032606
_cell_formula_units_Z   1
loop_
 _symmetry_equiv_pos_site_id
 _symmetry_equiv_pos_as_xyz
  1  'x, y, z'
loop_
 _atom_site_type_symbol
 _atom_site_label
 _atom_site_symmetry_multiplicity
 _atom_site_fract_x
 _atom_site_fract_y
 _atom_site_fract_z
 _atom_site_occupancy
  Ba  Ba0  1  0.52456972  0.47543028  0.50000000  1
  Zr  Zr1  1  0.49522505  0.99720422  0.24797156  1
  Zr  Zr2  1  0.49522505  0.99720422  0.75202844  1
  Zr  Zr3  1  0.00279578  0.50477495  0.75202844  1
  Zr  Zr4  1  0.00279578  0.50477495  0.24797156  1
  Sn  Sn5  1  0.97538002  0.02461998  0.00000000  1
  O  O6  1  0.29604082  0.29738423  0.25747714  1
  O  O7  1  0.70261577  0.70395918  0.25747714  1
  O  O8  1  0.70261577  0.70395918  0.74252286  1
  O  O9  1  0.29604082  0.29738423  0.74252286  1
  O  O10  1  0.16109804  0.83890196  0.16824166  1
  O  O11  1  0.77894365  0.22105635  0.27007900  1
  O  O12  1  0.77894365  0.22105635  0.72992100  1
  O  O13  1  0.16109804  0.83890196  0.83175834  1
  O  O14  1  0.62628053  0.99248857  0.00000000  1
  O  O15  1  0.46255060  0.96613052  0.50000000  1
  O  O16  1  0.00751143  0.37371947  0.00000000  1
  O  O17  1  0.03386948  0.53744940  0.50000000  1
