# generated using pymatgen
data_BaCaGdSbO6
_symmetry_space_group_name_H-M   'P 1'
_cell_length_a   5.91762756
_cell_length_b   5.96570683
_cell_length_c   8.41445173
_cell_angle_alpha   90.48322435
_cell_angle_beta   90.43192806
_cell_angle_gamma   90.23169892
_symmetry_Int_Tables_number   1
_chemical_formula_structural   BaCaGdSbO6
_chemical_formula_sum   'Ba2 Ca2 Gd2 Sb2 O12'
_cell_volume   297.03245759
_cell_formula_units_Z   2
loop_
 _symmetry_equiv_pos_site_id
 _symmetry_equiv_pos_as_xyz
  1  'x, y, z'
loop_
 _atom_site_type_symbol
 _atom_site_label
 _atom_site_symmetry_multiplicity
 _atom_site_fract_x
 _atom_site_fract_y
 _atom_site_fract_z
 _atom_site_occupancy
  Ba  Ba0  1  0.50475552  0.52534173  0.25034851  1
  Ba  Ba1  1  0.49524448  0.47465827  0.74965149  1
  Ca  Ca2  1  0.99451954  0.04029729  0.25333036  1
  Ca  Ca3  1  0.00548046  0.95970271  0.74666964  1
  Gd  Gd4  1  0.00000000  0.50000000  -0.00000000  1
  Gd  Gd5  1  0.50000000  0.00000000  0.50000000  1
  Sb  Sb6  1  0.50000000  0.00000000  -0.00000000  1
  Sb  Sb7  1  0.00000000  0.50000000  0.50000000  1
  O  O8  1  0.22818132  0.19353940  0.94496909  1
  O  O9  1  0.26800306  0.70333147  0.52735979  1
  O  O10  1  0.77181868  0.80646060  0.05503091  1
  O  O11  1  0.73199694  0.29666853  0.47264021  1
  O  O12  1  0.29823043  0.73355310  0.96381573  1
  O  O13  1  0.18795000  0.22233978  0.54781477  1
  O  O14  1  0.70176957  0.26644690  0.03618427  1
  O  O15  1  0.81205000  0.77766022  0.45218523  1
  O  O16  1  0.40044444  0.00252661  0.23218418  1
  O  O17  1  0.05735168  0.44875744  0.26619762  1
  O  O18  1  0.59955556  0.99747339  0.76781582  1
  O  O19  1  0.94264832  0.55124256  0.73380238  1
