# generated using pymatgen
data_BaSrTbCeO6
_symmetry_space_group_name_H-M   'P 1'
_cell_length_a   8.77731448
_cell_length_b   8.77347800
_cell_length_c   8.77174316
_cell_angle_alpha   90.00000000
_cell_angle_beta   90.00000000
_cell_angle_gamma   90.00000000
_symmetry_Int_Tables_number   1
_chemical_formula_structural   BaSrTbCeO6
_chemical_formula_sum   'Ba4 Sr4 Tb4 Ce4 O24'
_cell_volume   675.49067357
_cell_formula_units_Z   4
loop_
 _symmetry_equiv_pos_site_id
 _symmetry_equiv_pos_as_xyz
  1  'x, y, z'
loop_
 _atom_site_type_symbol
 _atom_site_label
 _atom_site_symmetry_multiplicity
 _atom_site_fract_x
 _atom_site_fract_y
 _atom_site_fract_z
 _atom_site_occupancy
  Ba  Ba0  1  -0.00000000  0.00000000  0.00000000  1
  Ba  Ba1  1  0.50000000  0.50000000  0.50000000  1
  Ba  Ba2  1  0.50000000  0.00000000  0.50000000  1
  Ba  Ba3  1  0.50000000  0.50000000  0.00000000  1
  Sr  Sr4  1  -0.00000000  0.50000000  0.50000000  1
  Sr  Sr5  1  0.50000000  0.00000000  0.00000000  1
  Sr  Sr6  1  -0.00000000  0.50000000  0.00000000  1
  Sr  Sr7  1  -0.00000000  0.00000000  0.50000000  1
  Tb  Tb8  1  0.24658851  0.24978775  0.24887546  1
  Tb  Tb9  1  0.75341149  0.75021225  0.24887546  1
  Tb  Tb10  1  0.75341149  0.24978775  0.75112454  1
  Tb  Tb11  1  0.24658851  0.75021225  0.75112454  1
  Ce  Ce12  1  0.75326010  0.75070687  0.74962870  1
  Ce  Ce13  1  0.24673990  0.24929313  0.74962870  1
  Ce  Ce14  1  0.24673990  0.75070687  0.25037130  1
  Ce  Ce15  1  0.75326010  0.24929313  0.25037130  1
  O  O16  1  0.99745184  0.20214704  0.28994427  1
  O  O17  1  0.00254816  0.79785296  0.28994427  1
  O  O18  1  0.00254816  0.20214704  0.71005573  1
  O  O19  1  0.99745184  0.79785296  0.71005573  1
  O  O20  1  0.28688543  0.99765807  0.20369988  1
  O  O21  1  0.28688543  0.00234193  0.79630012  1
  O  O22  1  0.71311457  0.00234193  0.20369988  1
  O  O23  1  0.71311457  0.99765807  0.79630012  1
  O  O24  1  0.20332995  0.29077558  0.99713498  1
  O  O25  1  0.79667005  0.29077558  0.00286502  1
  O  O26  1  0.20332995  0.70922442  0.00286502  1
  O  O27  1  0.79667005  0.70922442  0.99713498  1
  O  O28  1  0.50269216  0.28290631  0.22279722  1
  O  O29  1  0.49730784  0.71709369  0.22279722  1
  O  O30  1  0.49730784  0.28290631  0.77720278  1
  O  O31  1  0.50269216  0.71709369  0.77720278  1
  O  O32  1  0.20988583  0.50228635  0.29189435  1
  O  O33  1  0.20988583  0.49771365  0.70810565  1
  O  O34  1  0.79011417  0.49771365  0.29189435  1
  O  O35  1  0.79011417  0.50228635  0.70810565  1
  O  O36  1  0.28130508  0.21953712  0.50223228  1
  O  O37  1  0.71869492  0.21953712  0.49776772  1
  O  O38  1  0.28130508  0.78046288  0.49776772  1
  O  O39  1  0.71869492  0.78046288  0.50223228  1
