# generated using pymatgen
data_BaSrPrZrO6
_symmetry_space_group_name_H-M   'P 1'
_cell_length_a   8.78903349
_cell_length_b   8.76980706
_cell_length_c   8.74232936
_cell_angle_alpha   90.00000000
_cell_angle_beta   90.00000000
_cell_angle_gamma   90.00000000
_symmetry_Int_Tables_number   1
_chemical_formula_structural   BaSrPrZrO6
_chemical_formula_sum   'Ba4 Sr4 Pr4 Zr4 O24'
_cell_volume   673.84238100
_cell_formula_units_Z   4
loop_
 _symmetry_equiv_pos_site_id
 _symmetry_equiv_pos_as_xyz
  1  'x, y, z'
loop_
 _atom_site_type_symbol
 _atom_site_label
 _atom_site_symmetry_multiplicity
 _atom_site_fract_x
 _atom_site_fract_y
 _atom_site_fract_z
 _atom_site_occupancy
  Ba  Ba0  1  0.00000000  0.00000000  0.00000000  1
  Ba  Ba1  1  0.50000000  0.50000000  0.50000000  1
  Ba  Ba2  1  0.50000000  0.00000000  -0.00000000  1
  Ba  Ba3  1  -0.00000000  0.00000000  0.50000000  1
  Sr  Sr4  1  -0.00000000  0.50000000  0.50000000  1
  Sr  Sr5  1  0.50000000  0.00000000  0.50000000  1
  Sr  Sr6  1  0.50000000  0.50000000  0.00000000  1
  Sr  Sr7  1  -0.00000000  0.50000000  0.00000000  1
  Pr  Pr8  1  0.74777213  0.74619962  0.74955563  1
  Pr  Pr9  1  0.25222787  0.25380038  0.74955563  1
  Pr  Pr10  1  0.25222787  0.74619962  0.25044437  1
  Pr  Pr11  1  0.74777213  0.25380038  0.25044437  1
  Zr  Zr12  1  0.25319928  0.25562149  0.24970417  1
  Zr  Zr13  1  0.74680072  0.74437851  0.24970417  1
  Zr  Zr14  1  0.74680072  0.25562149  0.75029583  1
  Zr  Zr15  1  0.25319928  0.74437851  0.75029583  1
  O  O16  1  0.01429336  0.21502872  0.28127027  1
  O  O17  1  0.98570664  0.78497128  0.28127027  1
  O  O18  1  0.98570664  0.21502872  0.71872973  1
  O  O19  1  0.01429336  0.78497128  0.71872973  1
  O  O20  1  0.27865870  0.01448717  0.21625400  1
  O  O21  1  0.27865870  0.98551283  0.78374600  1
  O  O22  1  0.72134130  0.98551283  0.21625400  1
  O  O23  1  0.72134130  0.01448717  0.78374600  1
  O  O24  1  0.20470509  0.28944532  0.01342889  1
  O  O25  1  0.79529491  0.28944532  0.98657111  1
  O  O26  1  0.20470509  0.71055468  0.98657111  1
  O  O27  1  0.79529491  0.71055468  0.01342889  1
  O  O28  1  0.48545512  0.29834524  0.20723367  1
  O  O29  1  0.51454488  0.70165476  0.20723367  1
  O  O30  1  0.51454488  0.29834524  0.79276633  1
  O  O31  1  0.48545512  0.70165476  0.79276633  1
  O  O32  1  0.20793153  0.48642527  0.30017681  1
  O  O33  1  0.20793153  0.51357473  0.69982319  1
  O  O34  1  0.79206847  0.51357473  0.30017681  1
  O  O35  1  0.79206847  0.48642527  0.69982319  1
  O  O36  1  0.29752743  0.21050896  0.48568174  1
  O  O37  1  0.70247257  0.21050896  0.51431826  1
  O  O38  1  0.29752743  0.78949104  0.51431826  1
  O  O39  1  0.70247257  0.78949104  0.48568174  1
