# generated using pymatgen
data_KNd(SnO3)4
_symmetry_space_group_name_H-M   'P 1'
_cell_length_a   5.77556212
_cell_length_b   5.77556212
_cell_length_c   8.18752706
_cell_angle_alpha   90.00000000
_cell_angle_beta   90.00000000
_cell_angle_gamma   90.33050537
_symmetry_Int_Tables_number   1
_chemical_formula_structural   KNd(SnO3)4
_chemical_formula_sum   'K1 Nd1 Sn4 O12'
_cell_volume   273.10776097
_cell_formula_units_Z   1
loop_
 _symmetry_equiv_pos_site_id
 _symmetry_equiv_pos_as_xyz
  1  'x, y, z'
loop_
 _atom_site_type_symbol
 _atom_site_label
 _atom_site_symmetry_multiplicity
 _atom_site_fract_x
 _atom_site_fract_y
 _atom_site_fract_z
 _atom_site_occupancy
  K  K0  1  0.98813326  0.01186674  0.00000000  1
  Nd  Nd1  1  0.51793776  0.48206224  0.50000000  1
  Sn  Sn2  1  0.49513729  0.99439574  0.24502583  1
  Sn  Sn3  1  0.49513729  0.99439574  0.75497417  1
  Sn  Sn4  1  0.00560426  0.50486271  0.75497417  1
  Sn  Sn5  1  0.00560426  0.50486271  0.24502583  1
  O  O6  1  0.25958944  0.25889970  0.28059554  1
  O  O7  1  0.74110030  0.74041056  0.28059554  1
  O  O8  1  0.74110030  0.74041056  0.71940446  1
  O  O9  1  0.25958944  0.25889970  0.71940446  1
  O  O10  1  0.27471572  0.72528428  0.30248391  1
  O  O11  1  0.73507204  0.26492796  0.25842072  1
  O  O12  1  0.73507204  0.26492796  0.74157928  1
  O  O13  1  0.27471572  0.72528428  0.69751609  1
  O  O14  1  0.47666905  0.98326461  0.00000000  1
  O  O15  1  0.51633143  0.05034501  0.50000000  1
  O  O16  1  0.01673539  0.52333095  0.00000000  1
  O  O17  1  0.94965499  0.48366857  0.50000000  1
