# generated using pymatgen
data_NaGdMgFeO6
_symmetry_space_group_name_H-M   'P 1'
_cell_length_a   5.73369471
_cell_length_b   5.84078787
_cell_length_c   5.84078787
_cell_angle_alpha   56.68524655
_cell_angle_beta   61.58396262
_cell_angle_gamma   61.58396262
_symmetry_Int_Tables_number   1
_chemical_formula_structural   NaGdMgFeO6
_chemical_formula_sum   'Na1 Gd1 Mg1 Fe1 O6'
_cell_volume   137.50619408
_cell_formula_units_Z   1
loop_
 _symmetry_equiv_pos_site_id
 _symmetry_equiv_pos_as_xyz
  1  'x, y, z'
loop_
 _atom_site_type_symbol
 _atom_site_label
 _atom_site_symmetry_multiplicity
 _atom_site_fract_x
 _atom_site_fract_y
 _atom_site_fract_z
 _atom_site_occupancy
  Na  Na0  1  0.95808500  0.66499264  0.66499264  1
  Gd  Gd1  1  0.41287457  0.14339244  0.14339244  1
  Mg  Mg2  1  0.78092632  0.40586280  0.40586280  1
  Fe  Fe3  1  0.28207643  0.82302451  0.82302451  1
  O  O4  1  0.47981401  0.36472572  0.36472572  1
  O  O5  1  0.60639572  0.62541320  0.62541320  1
  O  O6  1  0.41437770  0.13482038  0.73794508  1
  O  O7  1  0.07553627  0.05457259  0.54525064  1
  O  O8  1  0.07553627  0.54525064  0.05457259  1
  O  O9  1  0.41437770  0.73794508  0.13482038  1
