# generated using pymatgen
data_BaNdZr2O6
_symmetry_space_group_name_H-M   'P 1'
_cell_length_a   4.21973675
_cell_length_b   4.21973675
_cell_length_c   8.38517043
_cell_angle_alpha   90.00000000
_cell_angle_beta   90.00000000
_cell_angle_gamma   90.00000000
_symmetry_Int_Tables_number   1
_chemical_formula_structural   BaNdZr2O6
_chemical_formula_sum   'Ba1 Nd1 Zr2 O6'
_cell_volume   149.30783924
_cell_formula_units_Z   1
loop_
 _symmetry_equiv_pos_site_id
 _symmetry_equiv_pos_as_xyz
  1  'x, y, z'
loop_
 _atom_site_type_symbol
 _atom_site_label
 _atom_site_symmetry_multiplicity
 _atom_site_fract_x
 _atom_site_fract_y
 _atom_site_fract_z
 _atom_site_occupancy
  Ba  Ba0  1  0.50000000  0.50000000  0.00000000  1
  Nd  Nd1  1  0.50000000  0.50000000  0.50000000  1
  Zr  Zr2  1  0.00000000  0.00000000  0.74407115  1
  Zr  Zr3  1  0.00000000  0.00000000  0.25592885  1
  O  O4  1  0.50000000  0.00000000  0.72729361  1
  O  O5  1  0.50000000  0.00000000  0.27270639  1
  O  O6  1  0.00000000  0.00000000  0.50000000  1
  O  O7  1  0.00000000  0.00000000  0.00000000  1
  O  O8  1  0.00000000  0.50000000  0.72729361  1
  O  O9  1  0.00000000  0.50000000  0.27270639  1
