# generated using pymatgen
data_KEuZr4O12
_symmetry_space_group_name_H-M   'P 1'
_cell_length_a   5.80215694
_cell_length_b   5.80215694
_cell_length_c   8.46359513
_cell_angle_alpha   90.00000000
_cell_angle_beta   90.00000000
_cell_angle_gamma   89.60256420
_symmetry_Int_Tables_number   1
_chemical_formula_structural   KEuZr4O12
_chemical_formula_sum   'K1 Eu1 Zr4 O12'
_cell_volume   284.92028866
_cell_formula_units_Z   1
loop_
 _symmetry_equiv_pos_site_id
 _symmetry_equiv_pos_as_xyz
  1  'x, y, z'
loop_
 _atom_site_type_symbol
 _atom_site_label
 _atom_site_symmetry_multiplicity
 _atom_site_fract_x
 _atom_site_fract_y
 _atom_site_fract_z
 _atom_site_occupancy
  K  K0  1  0.97595056  0.02404944  -0.00000000  1
  Eu  Eu1  1  0.52043858  0.47956142  0.50000000  1
  Zr  Zr2  1  0.48968154  0.98912551  0.23660509  1
  Zr  Zr3  1  0.48968154  0.98912551  0.76339491  1
  Zr  Zr4  1  0.01087449  0.51031846  0.76339491  1
  Zr  Zr5  1  0.01087449  0.51031846  0.23660509  1
  O  O6  1  0.20854970  0.20928413  0.25957258  1
  O  O7  1  0.79071587  0.79145030  0.25957258  1
  O  O8  1  0.79071587  0.79145030  0.74042742  1
  O  O9  1  0.20854970  0.20928413  0.74042742  1
  O  O10  1  0.31082886  0.68917114  0.31229172  1
  O  O11  1  0.70031015  0.29968985  0.21991120  1
  O  O12  1  0.70031015  0.29968985  0.78008880  1
  O  O13  1  0.31082886  0.68917114  0.68770828  1
  O  O14  1  0.45891757  0.94707329  -0.00000000  1
  O  O15  1  0.53217341  0.07792806  0.50000000  1
  O  O16  1  0.05292671  0.54108243  0.00000000  1
  O  O17  1  0.92207194  0.46782659  0.50000000  1
