# generated using pymatgen
data_BaSrPrHfO6
_symmetry_space_group_name_H-M   'P 1'
_cell_length_a   6.10370130
_cell_length_b   6.19315034
_cell_length_c   8.65851826
_cell_angle_alpha   90.36300421
_cell_angle_beta   89.61747391
_cell_angle_gamma   90.05908051
_symmetry_Int_Tables_number   1
_chemical_formula_structural   BaSrPrHfO6
_chemical_formula_sum   'Ba2 Sr2 Pr2 Hf2 O12'
_cell_volume   327.28783541
_cell_formula_units_Z   2
loop_
 _symmetry_equiv_pos_site_id
 _symmetry_equiv_pos_as_xyz
  1  'x, y, z'
loop_
 _atom_site_type_symbol
 _atom_site_label
 _atom_site_symmetry_multiplicity
 _atom_site_fract_x
 _atom_site_fract_y
 _atom_site_fract_z
 _atom_site_occupancy
  Ba  Ba0  1  0.99212639  0.03447662  0.25046351  1
  Ba  Ba1  1  0.00787361  0.96552338  0.74953649  1
  Sr  Sr2  1  0.51180923  0.54096852  0.25214431  1
  Sr  Sr3  1  0.48819077  0.45903148  0.74785569  1
  Pr  Pr4  1  0.50000000  0.00000000  -0.00000000  1
  Pr  Pr5  1  -0.00000000  0.50000000  0.50000000  1
  Hf  Hf6  1  -0.00000000  0.50000000  -0.00000000  1
  Hf  Hf7  1  0.50000000  0.00000000  0.50000000  1
  O  O8  1  0.19445171  0.22911572  0.95431175  1
  O  O9  1  0.31271290  0.72336365  0.55239204  1
  O  O10  1  0.80554829  0.77088428  0.04568825  1
  O  O11  1  0.68728710  0.27663635  0.44760796  1
  O  O12  1  0.27430197  0.69295648  0.94831964  1
  O  O13  1  0.22766906  0.19739289  0.53898561  1
  O  O14  1  0.72569803  0.30704352  0.05168036  1
  O  O15  1  0.77233094  0.80260711  0.46101439  1
  O  O16  1  0.42203555  0.95441250  0.26729892  1
  O  O17  1  0.09840188  0.48233080  0.23223662  1
  O  O18  1  0.57796445  0.04558750  0.73270108  1
  O  O19  1  0.90159812  0.51766920  0.76776338  1
