# generated using pymatgen
data_KLaEuWO6
_symmetry_space_group_name_H-M   'P 1'
_cell_length_a   8.61130244
_cell_length_b   8.56106041
_cell_length_c   8.51503060
_cell_angle_alpha   90.00000000
_cell_angle_beta   90.00000000
_cell_angle_gamma   90.00000000
_symmetry_Int_Tables_number   1
_chemical_formula_structural   KLaEuWO6
_chemical_formula_sum   'K4 La4 Eu4 W4 O24'
_cell_volume   627.74406748
_cell_formula_units_Z   4
loop_
 _symmetry_equiv_pos_site_id
 _symmetry_equiv_pos_as_xyz
  1  'x, y, z'
loop_
 _atom_site_type_symbol
 _atom_site_label
 _atom_site_symmetry_multiplicity
 _atom_site_fract_x
 _atom_site_fract_y
 _atom_site_fract_z
 _atom_site_occupancy
  K  K0  1  0.00000000  0.50000000  0.50000000  1
  K  K1  1  0.50000000  -0.00000000  0.50000000  1
  K  K2  1  0.50000000  -0.00000000  -0.00000000  1
  K  K3  1  0.00000000  0.50000000  -0.00000000  1
  La  La4  1  0.50000000  0.50000000  -0.00000000  1
  La  La5  1  0.00000000  -0.00000000  0.50000000  1
  La  La6  1  0.00000000  -0.00000000  -0.00000000  1
  La  La7  1  0.50000000  0.50000000  0.50000000  1
  Eu  Eu8  1  0.75000000  0.75000000  0.75000000  1
  Eu  Eu9  1  0.25000000  0.25000000  0.75000000  1
  Eu  Eu10  1  0.25000000  0.75000000  0.25000000  1
  Eu  Eu11  1  0.75000000  0.25000000  0.25000000  1
  W  W12  1  0.25000000  0.25000000  0.25000000  1
  W  W13  1  0.75000000  0.75000000  0.25000000  1
  W  W14  1  0.75000000  0.25000000  0.75000000  1
  W  W15  1  0.25000000  0.75000000  0.75000000  1
  O  O16  1  0.02383291  0.19523144  0.28670144  1
  O  O17  1  0.97616709  0.80476856  0.28670144  1
  O  O18  1  0.97616709  0.19523144  0.71329856  1
  O  O19  1  0.02383291  0.80476856  0.71329856  1
  O  O20  1  0.26994257  0.02597431  0.21091087  1
  O  O21  1  0.26994257  0.97402569  0.78908913  1
  O  O22  1  0.73005743  0.97402569  0.21091087  1
  O  O23  1  0.73005743  0.02597431  0.78908913  1
  O  O24  1  0.21039258  0.27716223  0.02576456  1
  O  O25  1  0.78960742  0.27716223  0.97423544  1
  O  O26  1  0.21039258  0.72283777  0.97423544  1
  O  O27  1  0.78960742  0.72283777  0.02576456  1
  O  O28  1  0.47616709  0.30476856  0.21329856  1
  O  O29  1  0.52383291  0.69523144  0.21329856  1
  O  O30  1  0.52383291  0.30476856  0.78670144  1
  O  O31  1  0.47616709  0.69523144  0.78670144  1
  O  O32  1  0.23005743  0.47402569  0.28908913  1
  O  O33  1  0.23005743  0.52597431  0.71091087  1
  O  O34  1  0.76994257  0.52597431  0.28908913  1
  O  O35  1  0.76994257  0.47402569  0.71091087  1
  O  O36  1  0.28960742  0.22283777  0.47423544  1
  O  O37  1  0.71039258  0.22283777  0.52576456  1
  O  O38  1  0.28960742  0.77716223  0.52576456  1
  O  O39  1  0.71039258  0.77716223  0.47423544  1
