# generated using pymatgen
data_DyCu(MoO4)2
_symmetry_space_group_name_H-M   'P 1'
_cell_length_a   9.88393000
_cell_length_b   10.28195900
_cell_length_c   14.71668400
_cell_angle_alpha   90.00000000
_cell_angle_beta   90.00000000
_cell_angle_gamma   90.00000000
_symmetry_Int_Tables_number   1
_chemical_formula_structural   DyCu(MoO4)2
_chemical_formula_sum   'Dy8 Cu8 Mo16 O64'
_cell_volume   1495.60012728
_cell_formula_units_Z   8
loop_
 _symmetry_equiv_pos_site_id
 _symmetry_equiv_pos_as_xyz
  1  'x, y, z'
loop_
 _atom_site_type_symbol
 _atom_site_label
 _atom_site_symmetry_multiplicity
 _atom_site_fract_x
 _atom_site_fract_y
 _atom_site_fract_z
 _atom_site_occupancy
  Dy  Dy0  1  0.77854200  0.03451300  0.89617200  1
  Dy  Dy1  1  0.77854200  0.53451300  0.60382800  1
  Dy  Dy2  1  0.27854200  0.46548700  0.89617200  1
  Dy  Dy3  1  0.72145800  0.03451300  0.39617200  1
  Dy  Dy4  1  0.22145800  0.96548700  0.10382800  1
  Dy  Dy5  1  0.22145800  0.46548700  0.39617200  1
  Dy  Dy6  1  0.72145800  0.53451300  0.10382800  1
  Dy  Dy7  1  0.27854200  0.96548700  0.60382800  1
  Cu  Cu8  1  0.18812700  0.31676800  0.19758700  1
  Cu  Cu9  1  0.68812700  0.68323200  0.30241300  1
  Cu  Cu10  1  0.31187300  0.81676800  0.80241300  1
  Cu  Cu11  1  0.81187300  0.18323200  0.69758700  1
  Cu  Cu12  1  0.81187300  0.68323200  0.80241300  1
  Cu  Cu13  1  0.31187300  0.31676800  0.69758700  1
  Cu  Cu14  1  0.68812700  0.18323200  0.19758700  1
  Cu  Cu15  1  0.18812700  0.81676800  0.30241300  1
  Mo  Mo16  1  0.66731200  0.89704700  0.65302900  1
  Mo  Mo17  1  0.00063300  0.78113800  0.44310000  1
  Mo  Mo18  1  0.50063300  0.21886200  0.05690000  1
  Mo  Mo19  1  0.49936700  0.28113800  0.55690000  1
  Mo  Mo20  1  0.99936700  0.71886200  0.94310000  1
  Mo  Mo21  1  0.99936700  0.21886200  0.55690000  1
  Mo  Mo22  1  0.49936700  0.78113800  0.94310000  1
  Mo  Mo23  1  0.50063300  0.71886200  0.44310000  1
  Mo  Mo24  1  0.00063300  0.28113800  0.05690000  1
  Mo  Mo25  1  0.16731200  0.10295300  0.84697100  1
  Mo  Mo26  1  0.83268800  0.39704700  0.34697100  1
  Mo  Mo27  1  0.33268800  0.60295300  0.15302900  1
  Mo  Mo28  1  0.66731200  0.39704700  0.84697100  1
  Mo  Mo29  1  0.83268800  0.89704700  0.15302900  1
  Mo  Mo30  1  0.16731200  0.60295300  0.65302900  1
  Mo  Mo31  1  0.33268800  0.10295300  0.34697100  1
  O  O32  1  0.10722700  0.32853900  0.49715000  1
  O  O33  1  0.60722700  0.67146100  0.00285000  1
  O  O34  1  0.39277300  0.82853900  0.50285000  1
  O  O35  1  0.89277300  0.17146100  0.99715000  1
  O  O36  1  0.89277300  0.67146100  0.50285000  1
  O  O37  1  0.39277300  0.32853900  0.99715000  1
  O  O38  1  0.60722700  0.17146100  0.49715000  1
  O  O39  1  0.10722700  0.82853900  0.00285000  1
  O  O40  1  0.24371900  0.98908100  0.27154700  1
  O  O41  1  0.74371900  0.01091900  0.22845300  1
  O  O42  1  0.25628100  0.48908100  0.72845300  1
  O  O43  1  0.75628100  0.51091900  0.77154700  1
  O  O44  1  0.75628100  0.01091900  0.72845300  1
  O  O45  1  0.25628100  0.98908100  0.77154700  1
  O  O46  1  0.74371900  0.51091900  0.27154700  1
  O  O47  1  0.24371900  0.48908100  0.22845300  1
  O  O48  1  0.22395100  0.76668200  0.67950000  1
  O  O49  1  0.72395100  0.23331800  0.82050000  1
  O  O50  1  0.27604900  0.26668200  0.32050000  1
  O  O51  1  0.77604900  0.73331800  0.17950000  1
  O  O52  1  0.77604900  0.23331800  0.32050000  1
  O  O53  1  0.27604900  0.76668200  0.17950000  1
  O  O54  1  0.72395100  0.73331800  0.67950000  1
  O  O55  1  0.89154900  0.32098300  0.63272300  1
  O  O56  1  0.22395100  0.26668200  0.82050000  1
  O  O57  1  0.29446100  0.57271800  0.03694600  1
  O  O58  1  0.70553900  0.92728200  0.53694600  1
  O  O59  1  0.20553900  0.07271800  0.96305400  1
  O  O60  1  0.20553900  0.57271800  0.53694600  1
  O  O61  1  0.70553900  0.42728200  0.96305400  1
  O  O62  1  0.29446100  0.07271800  0.46305400  1
  O  O63  1  0.79446100  0.92728200  0.03694600  1
  O  O64  1  0.90052900  0.62872600  0.02236500  1
  O  O65  1  0.40052900  0.37127400  0.47763500  1
  O  O66  1  0.59947100  0.12872600  0.97763500  1
  O  O67  1  0.09947100  0.87127400  0.52236500  1
  O  O68  1  0.09947100  0.37127400  0.97763500  1
  O  O69  1  0.59947100  0.62872600  0.52236500  1
  O  O70  1  0.40052900  0.87127400  0.02236500  1
  O  O71  1  0.90052900  0.12872600  0.47763500  1
  O  O72  1  0.89594500  0.38824700  0.12330700  1
  O  O73  1  0.39594500  0.61175300  0.37669300  1
  O  O74  1  0.60405500  0.88824700  0.87669300  1
  O  O75  1  0.10405500  0.11175300  0.62330700  1
  O  O76  1  0.10405500  0.61175300  0.87669300  1
  O  O77  1  0.60405500  0.38824700  0.62330700  1
  O  O78  1  0.39594500  0.11175300  0.12330700  1
  O  O79  1  0.89594500  0.88824700  0.37669300  1
  O  O80  1  0.98921800  0.08820600  0.83135400  1
  O  O81  1  0.48921800  0.91179400  0.66864600  1
  O  O82  1  0.51078200  0.58820600  0.16864600  1
  O  O83  1  0.01078200  0.41179400  0.33135400  1
  O  O84  1  0.01078200  0.91179400  0.16864600  1
  O  O85  1  0.51078200  0.08820600  0.33135400  1
  O  O86  1  0.48921800  0.41179400  0.83135400  1
  O  O87  1  0.98921800  0.58820600  0.66864600  1
  O  O88  1  0.89154900  0.82098300  0.86727700  1
  O  O89  1  0.39154900  0.17901700  0.63272300  1
  O  O90  1  0.60845100  0.32098300  0.13272300  1
  O  O91  1  0.10845100  0.67901700  0.36727700  1
  O  O92  1  0.10845100  0.17901700  0.13272300  1
  O  O93  1  0.60845100  0.82098300  0.36727700  1
  O  O94  1  0.39154900  0.67901700  0.86727700  1
  O  O95  1  0.79446100  0.42728200  0.46305400  1
