# generated using pymatgen
data_Yb15C19
_symmetry_space_group_name_H-M   'P 1'
_cell_length_a   8.22618900
_cell_length_b   8.22618900
_cell_length_c   15.77713400
_cell_angle_alpha   90.00000000
_cell_angle_beta   90.00000000
_cell_angle_gamma   90.00000000
_symmetry_Int_Tables_number   1
_chemical_formula_structural   Yb15C19
_chemical_formula_sum   'Yb30 C38'
_cell_volume   1067.64158387
_cell_formula_units_Z   2
loop_
 _symmetry_equiv_pos_site_id
 _symmetry_equiv_pos_as_xyz
  1  'x, y, z'
loop_
 _atom_site_type_symbol
 _atom_site_label
 _atom_site_symmetry_multiplicity
 _atom_site_fract_x
 _atom_site_fract_y
 _atom_site_fract_z
 _atom_site_occupancy
  Yb  Yb0  1  0.50000000  0.50000000  0.50000000  1
  Yb  Yb1  1  0.00000000  0.00000000  0.00000000  1
  Yb  Yb2  1  0.00000000  0.00000000  0.33210800  1
  Yb  Yb3  1  0.00000000  0.00000000  0.66789200  1
  Yb  Yb4  1  0.50000000  0.50000000  0.16789200  1
  Yb  Yb5  1  0.50000000  0.50000000  0.83210800  1
  Yb  Yb6  1  0.60183200  0.20849400  0.65665400  1
  Yb  Yb7  1  0.39816800  0.79150600  0.65665400  1
  Yb  Yb8  1  0.29150600  0.89816800  0.15665400  1
  Yb  Yb9  1  0.79150600  0.60183200  0.34334600  1
  Yb  Yb10  1  0.20849400  0.39816800  0.34334600  1
  Yb  Yb11  1  0.89816800  0.70849400  0.84334600  1
  Yb  Yb12  1  0.10183200  0.29150600  0.84334600  1
  Yb  Yb13  1  0.70849400  0.10183200  0.15665400  1
  Yb  Yb14  1  0.79150600  0.60183200  0.65665400  1
  Yb  Yb15  1  0.20849400  0.39816800  0.65665400  1
  Yb  Yb16  1  0.89816800  0.70849400  0.15665400  1
  Yb  Yb17  1  0.39816800  0.79150600  0.34334600  1
  Yb  Yb18  1  0.60183200  0.20849400  0.34334600  1
  Yb  Yb19  1  0.70849400  0.10183200  0.84334600  1
  Yb  Yb20  1  0.29150600  0.89816800  0.84334600  1
  Yb  Yb21  1  0.10183200  0.29150600  0.15665400  1
  Yb  Yb22  1  0.70137800  0.90539900  0.50000000  1
  Yb  Yb23  1  0.29862200  0.09460100  0.50000000  1
  Yb  Yb24  1  0.59460100  0.79862200  0.00000000  1
  Yb  Yb25  1  0.09460100  0.70137800  0.50000000  1
  Yb  Yb26  1  0.90539900  0.29862200  0.50000000  1
  Yb  Yb27  1  0.79862200  0.40539900  0.00000000  1
  Yb  Yb28  1  0.20137800  0.59460100  0.00000000  1
  Yb  Yb29  1  0.40539900  0.20137800  0.00000000  1
  C  C30  1  0.50000000  0.50000000  0.00000000  1
  C  C31  1  0.00000000  0.00000000  0.50000000  1
  C  C32  1  0.50000000  0.50000000  0.66007200  1
  C  C33  1  0.50000000  0.50000000  0.33992800  1
  C  C34  1  0.00000000  0.00000000  0.83992800  1
  C  C35  1  0.00000000  0.00000000  0.16007200  1
  C  C36  1  0.90769100  0.29845300  0.67673300  1
  C  C37  1  0.09230900  0.70154700  0.67673300  1
  C  C38  1  0.20154700  0.59230900  0.17673300  1
  C  C39  1  0.70154700  0.90769100  0.32326700  1
  C  C40  1  0.29845300  0.09230900  0.32326700  1
  C  C41  1  0.59230900  0.79845300  0.82326700  1
  C  C42  1  0.40769100  0.20154700  0.82326700  1
  C  C43  1  0.79845300  0.40769100  0.17673300  1
  C  C44  1  0.64929500  0.85070500  0.75000000  1
  C  C45  1  0.35070500  0.14929500  0.75000000  1
  C  C46  1  0.59842900  0.20175800  0.50000000  1
  C  C47  1  0.64929500  0.85070500  0.25000000  1
  C  C48  1  0.85070500  0.35070500  0.25000000  1
  C  C49  1  0.85070500  0.35070500  0.75000000  1
  C  C50  1  0.14929500  0.64929500  0.75000000  1
  C  C51  1  0.35070500  0.14929500  0.25000000  1
  C  C52  1  0.70154700  0.90769100  0.67673300  1
  C  C53  1  0.29845300  0.09230900  0.67673300  1
  C  C54  1  0.59230900  0.79845300  0.17673300  1
  C  C55  1  0.09230900  0.70154700  0.32326700  1
  C  C56  1  0.90769100  0.29845300  0.32326700  1
  C  C57  1  0.79845300  0.40769100  0.82326700  1
  C  C58  1  0.20154700  0.59230900  0.82326700  1
  C  C59  1  0.40769100  0.20154700  0.17673300  1
  C  C60  1  0.70175800  0.09842900  0.00000000  1
  C  C61  1  0.09842900  0.29824200  0.00000000  1
  C  C62  1  0.90157100  0.70175800  0.00000000  1
  C  C63  1  0.20175800  0.40157100  0.50000000  1
  C  C64  1  0.79824200  0.59842900  0.50000000  1
  C  C65  1  0.29824200  0.90157100  0.00000000  1
  C  C66  1  0.40157100  0.79824200  0.50000000  1
  C  C67  1  0.14929500  0.64929500  0.25000000  1
