# generated using pymatgen
data_Li7Co5O12
_symmetry_space_group_name_H-M   'P 1'
_cell_length_a   6.48122476
_cell_length_b   10.01814541
_cell_length_c   6.49189312
_cell_angle_alpha   97.47536128
_cell_angle_beta   83.36889683
_cell_angle_gamma   97.04700170
_symmetry_Int_Tables_number   1
_chemical_formula_structural   Li7Co5O12
_chemical_formula_sum   'Li14 Co10 O24'
_cell_volume   412.65141967
_cell_formula_units_Z   2
loop_
 _symmetry_equiv_pos_site_id
 _symmetry_equiv_pos_as_xyz
  1  'x, y, z'
loop_
 _atom_site_type_symbol
 _atom_site_label
 _atom_site_symmetry_multiplicity
 _atom_site_fract_x
 _atom_site_fract_y
 _atom_site_fract_z
 _atom_site_occupancy
  Li  Li0  1  0.83514800  0.25395000  0.16883100  1
  Li  Li1  1  0.83269700  0.74591000  0.16530000  1
  Li  Li2  1  0.07062400  0.12793900  0.40972400  1
  Li  Li3  1  0.07204300  0.62480800  0.41441600  1
  Li  Li4  1  0.59338600  0.37505900  0.92563300  1
  Li  Li5  1  0.59117100  0.86994200  0.92319200  1
  Li  Li6  1  0.75147000  0.12642400  0.74851400  1
  Li  Li7  1  0.75249400  0.61813600  0.75859800  1
  Li  Li8  1  0.42141000  0.12898600  0.08519200  1
  Li  Li9  1  0.42499800  0.62151900  0.08016300  1
  Li  Li10  1  0.24111600  0.37905100  0.25407100  1
  Li  Li11  1  0.24814000  0.87379800  0.24664100  1
  Li  Li12  1  0.91678700  0.37554800  0.57319200  1
  Li  Li13  1  0.91867900  0.87633300  0.58292800  1
  Co  Co14  1  0.33556900  0.00207400  0.66705400  1
  Co  Co15  1  0.33097800  0.50193400  0.66764600  1
  Co  Co16  1  0.67296600  0.99811100  0.32966500  1
  Co  Co17  1  0.66768800  0.49927000  0.33239300  1
  Co  Co18  1  0.16096500  0.74911900  0.84127900  1
  Co  Co19  1  0.99806200  0.50282900  0.00308600  1
  Co  Co20  1  0.99629200  0.00081700  0.00482000  1
  Co  Co21  1  0.50831900  0.25376600  0.48344800  1
  Co  Co22  1  0.51900100  0.74865800  0.48868100  1
  Co  Co23  1  0.15059400  0.25263400  0.83964500  1
  O  O24  1  0.44061400  0.18386100  0.77638400  1
  O  O25  1  0.42939000  0.68120800  0.78313700  1
  O  O26  1  0.22097700  0.32789900  0.55484800  1
  O  O27  1  0.22188400  0.81220700  0.56695300  1
  O  O28  1  0.94689300  0.44676000  0.27916300  1
  O  O29  1  0.94143700  0.94528700  0.27998500  1
  O  O30  1  0.72840800  0.04951000  0.05045100  1
  O  O31  1  0.71949100  0.55548000  0.05676400  1
  O  O32  1  0.12071400  0.16932200  0.10712400  1
  O  O33  1  0.12324100  0.68283800  0.09711400  1
  O  O34  1  0.77435100  0.17394600  0.44972200  1
  O  O35  1  0.77310000  0.67839200  0.46233100  1
  O  O36  1  0.89397900  0.32161400  0.87602600  1
  O  O37  1  0.90523400  0.81953900  0.87844100  1
  O  O38  1  0.54056300  0.31909400  0.22344700  1
  O  O39  1  0.54748000  0.82558400  0.22355600  1
  O  O40  1  0.60570200  0.44202900  0.61541100  1
  O  O41  1  0.62240800  0.93740900  0.60478600  1
  O  O42  1  0.27990700  0.44407800  0.93663800  1
  O  O43  1  0.26487700  0.93004200  0.95347700  1
  O  O44  1  0.39995400  0.05814700  0.37673900  1
  O  O45  1  0.38541500  0.55935200  0.39669500  1
  O  O46  1  0.04474400  0.06114600  0.72899700  1
  O  O47  1  0.05863700  0.56863800  0.72769800  1
