# generated using pymatgen
data_SiO2
_symmetry_space_group_name_H-M   'P 1'
_cell_length_a   11.29919766
_cell_length_b   11.29919766
_cell_length_c   5.11937200
_cell_angle_alpha   90.00000000
_cell_angle_beta   90.00000000
_cell_angle_gamma   103.02140516
_symmetry_Int_Tables_number   1
_chemical_formula_structural   SiO2
_chemical_formula_sum   'Si12 O24'
_cell_volume   636.79309184
_cell_formula_units_Z   12
loop_
 _symmetry_equiv_pos_site_id
 _symmetry_equiv_pos_as_xyz
  1  'x, y, z'
loop_
 _atom_site_type_symbol
 _atom_site_label
 _atom_site_symmetry_multiplicity
 _atom_site_fract_x
 _atom_site_fract_y
 _atom_site_fract_z
 _atom_site_occupancy
  Si  Si0  1  0.41677800  0.99471800  0.50920800  1
  Si  Si1  1  0.58322200  0.00528200  0.00920800  1
  Si  Si2  1  0.00528200  0.58322200  0.50920800  1
  Si  Si3  1  0.99471800  0.41677800  0.00920800  1
  Si  Si4  1  0.65641200  0.75358900  0.08456000  1
  Si  Si5  1  0.34358800  0.24641100  0.58456000  1
  Si  Si6  1  0.24641100  0.34358800  0.08456000  1
  Si  Si7  1  0.75358900  0.65641200  0.58456000  1
  Si  Si8  1  0.27418000  0.72582000  0.60788300  1
  Si  Si9  1  0.72582000  0.27418000  0.10788300  1
  Si  Si10  1  0.37735500  0.62264500  0.10740800  1
  Si  Si11  1  0.62264500  0.37735500  0.60740800  1
  O  O12  1  0.35006100  0.10722200  0.52480100  1
  O  O13  1  0.64993900  0.89277800  0.02480100  1
  O  O14  1  0.89277800  0.64993900  0.52480100  1
  O  O15  1  0.10722200  0.35006100  0.02480100  1
  O  O16  1  0.52255500  0.66353700  0.05900500  1
  O  O17  1  0.47744500  0.33646300  0.55900500  1
  O  O18  1  0.33646300  0.47744500  0.05900500  1
  O  O19  1  0.66353700  0.52255500  0.55900500  1
  O  O20  1  0.30632100  0.69367900  0.90553900  1
  O  O21  1  0.69367900  0.30632100  0.40553900  1
  O  O22  1  0.31493900  0.87138900  0.56531800  1
  O  O23  1  0.68506100  0.12861100  0.06531800  1
  O  O24  1  0.65454200  0.34545800  0.90579600  1
  O  O25  1  0.34545800  0.65454200  0.40579600  1
  O  O26  1  0.98761300  0.47200000  0.71785100  1
  O  O27  1  0.01238700  0.52800000  0.21785100  1
  O  O28  1  0.52800000  0.01238700  0.71785100  1
  O  O29  1  0.47200000  0.98761300  0.21785100  1
  O  O30  1  0.74713900  0.71014400  0.87734300  1
  O  O31  1  0.25286100  0.28985600  0.37734300  1
  O  O32  1  0.28985600  0.25286100  0.87734300  1
  O  O33  1  0.71014400  0.74713900  0.37734300  1
  O  O34  1  0.87138900  0.31493900  0.06531800  1
  O  O35  1  0.12861100  0.68506100  0.56531800  1
