# generated using pymatgen
data_SrIrO3
_symmetry_space_group_name_H-M   'P 1'
_cell_length_a   5.54589285
_cell_length_b   5.54589285
_cell_length_c   14.48567400
_cell_angle_alpha   90.00000000
_cell_angle_beta   90.00000000
_cell_angle_gamma   118.25804281
_symmetry_Int_Tables_number   1
_chemical_formula_structural   SrIrO3
_chemical_formula_sum   'Sr6 Ir6 O18'
_cell_volume   392.43789443
_cell_formula_units_Z   6
loop_
 _symmetry_equiv_pos_site_id
 _symmetry_equiv_pos_as_xyz
  1  'x, y, z'
loop_
 _atom_site_type_symbol
 _atom_site_label
 _atom_site_symmetry_multiplicity
 _atom_site_fract_x
 _atom_site_fract_y
 _atom_site_fract_z
 _atom_site_occupancy
  Sr  Sr0  1  0.99174100  0.00825900  0.75000000  1
  Sr  Sr1  1  0.00825900  0.99174100  0.25000000  1
  Sr  Sr2  1  0.32343200  0.67656800  0.89190700  1
  Sr  Sr3  1  0.32343200  0.67656800  0.60809300  1
  Sr  Sr4  1  0.67656800  0.32343200  0.10809300  1
  Sr  Sr5  1  0.67656800  0.32343200  0.39190700  1
  Ir  Ir6  1  0.00000000  0.00000000  0.00000000  1
  Ir  Ir7  1  0.00000000  0.00000000  0.50000000  1
  Ir  Ir8  1  0.33904500  0.66095500  0.15199700  1
  Ir  Ir9  1  0.33904500  0.66095500  0.34800300  1
  Ir  Ir10  1  0.66095500  0.33904500  0.84800300  1
  Ir  Ir11  1  0.66095500  0.33904500  0.65199700  1
  O  O12  1  0.20026300  0.27889300  0.40155300  1
  O  O13  1  0.72110700  0.79973700  0.09844700  1
  O  O14  1  0.79973700  0.72110700  0.59844700  1
  O  O15  1  0.27889300  0.20026300  0.90155300  1
  O  O16  1  0.20181500  0.79818500  0.04288600  1
  O  O17  1  0.20181500  0.79818500  0.45711400  1
  O  O18  1  0.79818500  0.20181500  0.95711400  1
  O  O19  1  0.79818500  0.20181500  0.54288600  1
  O  O20  1  0.72110700  0.79973700  0.40155300  1
  O  O21  1  0.20026300  0.27889300  0.09844700  1
  O  O22  1  0.27889300  0.20026300  0.59844700  1
  O  O23  1  0.79973700  0.72110700  0.90155300  1
  O  O24  1  0.51284300  0.48715700  0.75000000  1
  O  O25  1  0.48715700  0.51284300  0.25000000  1
  O  O26  1  0.51864500  0.02435800  0.75000000  1
  O  O27  1  0.97564200  0.48135500  0.75000000  1
  O  O28  1  0.48135500  0.97564200  0.25000000  1
  O  O29  1  0.02435800  0.51864500  0.25000000  1
