# generated using pymatgen
data_Na2CoSiCO7
_symmetry_space_group_name_H-M   'P 1'
_cell_length_a   5.13344815
_cell_length_b   11.62042296
_cell_length_c   11.61336131
_cell_angle_alpha   114.70041180
_cell_angle_beta   88.91872286
_cell_angle_gamma   91.11915105
_symmetry_Int_Tables_number   1
_chemical_formula_structural   Na2CoSiCO7
_chemical_formula_sum   'Na8 Co4 Si4 C4 O28'
_cell_volume   629.22130510
_cell_formula_units_Z   4
loop_
 _symmetry_equiv_pos_site_id
 _symmetry_equiv_pos_as_xyz
  1  'x, y, z'
loop_
 _atom_site_type_symbol
 _atom_site_label
 _atom_site_symmetry_multiplicity
 _atom_site_fract_x
 _atom_site_fract_y
 _atom_site_fract_z
 _atom_site_occupancy
  Na  Na0  1  0.24808300  0.12154600  0.87915600  1
  Na  Na1  1  0.24806400  0.62070700  0.37793600  1
  Na  Na2  1  0.24410800  0.37183900  0.12933200  1
  Na  Na3  1  0.24584200  0.87102100  0.62788500  1
  Na  Na4  1  0.75619300  0.62933900  0.87023600  1
  Na  Na5  1  0.75295100  0.12829000  0.37211400  1
  Na  Na6  1  0.75356600  0.87930200  0.12029300  1
  Na  Na7  1  0.75076900  0.37870100  0.62199300  1
  Co  Co8  1  0.81160200  0.06964200  0.68074800  1
  Co  Co9  1  0.18711900  0.92722000  0.32262700  1
  Co  Co10  1  0.81332300  0.57470700  0.17583800  1
  Co  Co11  1  0.18747500  0.42532000  0.82404500  1
  Si  Si12  1  0.67937000  0.33789800  0.91331800  1
  Si  Si13  1  0.67796900  0.83759400  0.41179300  1
  Si  Si14  1  0.32057400  0.66255900  0.08696400  1
  Si  Si15  1  0.32283800  0.16086200  0.58913400  1
  C  C16  1  0.73807600  0.40504800  0.34510000  1
  C  C17  1  0.73428000  0.90761700  0.84221700  1
  C  C18  1  0.26179200  0.59484600  0.65449200  1
  C  C19  1  0.26420000  0.09472700  0.15590200  1
  O  O20  1  0.24916700  0.15986200  0.09073700  1
  O  O21  1  0.25667000  0.66045600  0.58943700  1
  O  O22  1  0.76476300  0.84293700  0.90694900  1
  O  O23  1  0.75054100  0.33952100  0.41003700  1
  O  O24  1  0.94682800  0.44267900  0.30879900  1
  O  O25  1  0.93494700  0.94823600  0.80177300  1
  O  O26  1  0.04966100  0.55840500  0.68912600  1
  O  O27  1  0.05640000  0.05753700  0.19380600  1
  O  O28  1  0.51618200  0.43304400  0.31630500  1
  O  O29  1  0.50633100  0.93217700  0.81747200  1
  O  O30  1  0.48057800  0.56547800  0.68515600  1
  O  O31  1  0.48651200  0.06633400  0.18355100  1
  O  O32  1  0.18580900  0.58606700  0.16481500  1
  O  O33  1  0.18388000  0.08444100  0.66580400  1
  O  O34  1  0.81502800  0.41379500  0.83509100  1
  O  O35  1  0.81491500  0.91481300  0.33523300  1
  O  O36  1  0.35705000  0.34081100  0.91067100  1
  O  O37  1  0.35553000  0.84073500  0.40791500  1
  O  O38  1  0.64303400  0.65982100  0.08966400  1
  O  O39  1  0.64528600  0.15647500  0.59403500  1
  O  O40  1  0.75565200  0.18626300  0.84831200  1
  O  O41  1  0.75494200  0.68591300  0.34529900  1
  O  O42  1  0.76059100  0.40442800  0.06433200  1
  O  O43  1  0.75608200  0.90191000  0.56319100  1
  O  O44  1  0.23915700  0.59600200  0.93586700  1
  O  O45  1  0.24578700  0.09591300  0.43730100  1
  O  O46  1  0.24268000  0.81412300  0.15334200  1
  O  O47  1  0.24780600  0.31303700  0.65485400  1
