# generated using pymatgen
data_MnTe2O5
_symmetry_space_group_name_H-M   'P 1'
_cell_length_a   6.21880200
_cell_length_b   7.47973500
_cell_length_c   11.11663100
_cell_angle_alpha   90.00000000
_cell_angle_beta   90.00000000
_cell_angle_gamma   90.00000000
_symmetry_Int_Tables_number   1
_chemical_formula_structural   MnTe2O5
_chemical_formula_sum   'Mn4 Te8 O20'
_cell_volume   517.08999066
_cell_formula_units_Z   4
loop_
 _symmetry_equiv_pos_site_id
 _symmetry_equiv_pos_as_xyz
  1  'x, y, z'
loop_
 _atom_site_type_symbol
 _atom_site_label
 _atom_site_symmetry_multiplicity
 _atom_site_fract_x
 _atom_site_fract_y
 _atom_site_fract_z
 _atom_site_occupancy
  Mn  Mn0  1  0.75000000  0.00000000  0.94047600  1
  Mn  Mn1  1  0.25000000  0.50000000  0.55952400  1
  Mn  Mn2  1  0.25000000  0.00000000  0.05952400  1
  Mn  Mn3  1  0.75000000  0.50000000  0.44047600  1
  Te  Te4  1  0.01850300  0.86520600  0.34533500  1
  Te  Te5  1  0.51850300  0.63479400  0.15466500  1
  Te  Te6  1  0.98149700  0.36520600  0.15466500  1
  Te  Te7  1  0.48149700  0.13479400  0.34533500  1
  Te  Te8  1  0.51850300  0.86520600  0.65466500  1
  Te  Te9  1  0.01850300  0.63479400  0.84533500  1
  Te  Te10  1  0.48149700  0.36520600  0.84533500  1
  Te  Te11  1  0.98149700  0.13479400  0.65466500  1
  O  O12  1  0.25000000  0.00000000  0.43641800  1
  O  O13  1  0.75000000  0.50000000  0.06358200  1
  O  O14  1  0.75000000  0.00000000  0.56358200  1
  O  O15  1  0.25000000  0.50000000  0.93641800  1
  O  O16  1  0.94954900  0.34708300  0.56513600  1
  O  O17  1  0.44954900  0.15291700  0.93486400  1
  O  O18  1  0.05045100  0.84708300  0.93486400  1
  O  O19  1  0.55045100  0.65291700  0.56513600  1
  O  O20  1  0.05045100  0.65291700  0.43486400  1
  O  O21  1  0.55045100  0.84708300  0.06513600  1
  O  O22  1  0.94954900  0.15291700  0.06513600  1
  O  O23  1  0.44954900  0.34708300  0.43486400  1
  O  O24  1  0.80926200  0.19534400  0.78928300  1
  O  O25  1  0.30926200  0.30465600  0.71071700  1
  O  O26  1  0.19073800  0.69534400  0.71071700  1
  O  O27  1  0.69073800  0.80465600  0.78928300  1
  O  O28  1  0.30926200  0.19534400  0.21071700  1
  O  O29  1  0.80926200  0.30465600  0.28928300  1
  O  O30  1  0.69073800  0.69534400  0.28928300  1
  O  O31  1  0.19073800  0.80465600  0.21071700  1
