# generated using pymatgen
data_Cs2NaCr(CN)6
_symmetry_space_group_name_H-M   'P 1'
_cell_length_a   8.02868100
_cell_length_b   7.69762500
_cell_length_c   13.50810264
_cell_angle_alpha   55.38538797
_cell_angle_beta   90.00000000
_cell_angle_gamma   90.00000000
_symmetry_Int_Tables_number   1
_chemical_formula_structural   Cs2NaCr(CN)6
_chemical_formula_sum   'Cs4 Na2 Cr2 C12 N12'
_cell_volume   687.05367645
_cell_formula_units_Z   2
loop_
 _symmetry_equiv_pos_site_id
 _symmetry_equiv_pos_as_xyz
  1  'x, y, z'
loop_
 _atom_site_type_symbol
 _atom_site_label
 _atom_site_symmetry_multiplicity
 _atom_site_fract_x
 _atom_site_fract_y
 _atom_site_fract_z
 _atom_site_occupancy
  Cs  Cs0  1  0.55547200  0.73646500  0.24965700  1
  Cs  Cs1  1  0.05547200  0.26353500  0.25034300  1
  Cs  Cs2  1  0.44452800  0.26353500  0.75034300  1
  Cs  Cs3  1  0.94452800  0.73646500  0.74965700  1
  Na  Na4  1  0.00000000  0.50000000  0.50000000  1
  Na  Na5  1  0.50000000  0.50000000  0.00000000  1
  Cr  Cr6  1  0.00000000  0.00000000  0.00000000  1
  Cr  Cr7  1  0.50000000  0.00000000  0.50000000  1
  C  C8  1  0.14407300  0.24087700  0.97486300  1
  C  C9  1  0.35592700  0.24087700  0.47486300  1
  C  C10  1  0.85592700  0.75912300  0.02513700  1
  C  C11  1  0.64407300  0.75912300  0.52513700  1
  C  C12  1  0.28987500  0.82682000  0.52965600  1
  C  C13  1  0.78987500  0.17318000  0.97034400  1
  C  C14  1  0.71012500  0.17318000  0.47034400  1
  C  C15  1  0.21012500  0.82682000  0.02965600  1
  C  C16  1  0.01258800  0.12581400  0.82044600  1
  C  C17  1  0.51258800  0.87418600  0.67955400  1
  C  C18  1  0.98741200  0.87418600  0.17955400  1
  C  C19  1  0.48741200  0.12581400  0.32044600  1
  N  N20  1  0.02204300  0.19900300  0.71692600  1
  N  N21  1  0.52204300  0.80099700  0.78307400  1
  N  N22  1  0.97795700  0.80099700  0.28307400  1
  N  N23  1  0.47795700  0.19900300  0.21692600  1
  N  N24  1  0.16936300  0.72586000  0.54765400  1
  N  N25  1  0.33063700  0.72586000  0.04765400  1
  N  N26  1  0.83063700  0.27414000  0.45234600  1
  N  N27  1  0.66936300  0.27414000  0.95234600  1
  N  N28  1  0.22851500  0.37865900  0.96014400  1
  N  N29  1  0.72851500  0.62134100  0.53985600  1
  N  N30  1  0.77148500  0.62134100  0.03985600  1
  N  N31  1  0.27148500  0.37865900  0.46014400  1
