# generated using pymatgen
data_Co3SbO8
_symmetry_space_group_name_H-M   'P 1'
_cell_length_a   5.75134603
_cell_length_b   5.73377150
_cell_length_c   9.19426124
_cell_angle_alpha   89.45323661
_cell_angle_beta   90.75911244
_cell_angle_gamma   60.75436698
_symmetry_Int_Tables_number   1
_chemical_formula_structural   Co3SbO8
_chemical_formula_sum   'Co6 Sb2 O16'
_cell_volume   264.48278009
_cell_formula_units_Z   2
loop_
 _symmetry_equiv_pos_site_id
 _symmetry_equiv_pos_as_xyz
  1  'x, y, z'
loop_
 _atom_site_type_symbol
 _atom_site_label
 _atom_site_symmetry_multiplicity
 _atom_site_fract_x
 _atom_site_fract_y
 _atom_site_fract_z
 _atom_site_occupancy
  Co  Co0  1  0.34712900  0.82160300  0.21681600  1
  Co  Co1  1  0.16686000  0.66642300  0.71172700  1
  Co  Co2  1  0.16691000  0.17088300  0.71233900  1
  Co  Co3  1  0.84642900  0.33170100  0.21258200  1
  Co  Co4  1  0.66203100  0.17070900  0.71231800  1
  Co  Co5  1  0.84294500  0.82669700  0.20988500  1
  Sb  Sb6  1  0.65355800  0.67305500  0.49597400  1
  Sb  Sb7  1  0.33587200  0.32738400  0.98659000  1
  O  O8  1  0.30929100  0.84452100  0.60215200  1
  O  O9  1  0.17283800  0.66501200  0.09756600  1
  O  O10  1  0.50209700  0.52823900  0.33844700  1
  O  O11  1  0.48664900  0.48400700  0.82939200  1
  O  O12  1  0.65290300  0.69030600  0.11090900  1
  O  O13  1  0.33146600  0.34085700  0.61283400  1
  O  O14  1  0.02452800  0.97132100  0.30603000  1
  O  O15  1  0.99886800  0.99758600  0.80895400  1
  O  O16  1  0.83448600  0.31892100  0.59894000  1
  O  O17  1  0.67386100  0.16443400  0.10329300  1
  O  O18  1  0.50528200  0.96917800  0.34105000  1
  O  O19  1  0.03437200  0.48417600  0.83070200  1
  O  O20  1  0.95774300  0.52247000  0.34394000  1
  O  O21  1  0.48652400  0.03279100  0.83143300  1
  O  O22  1  0.17199900  0.15257900  0.09894800  1
  O  O23  1  0.83515400  0.84535000  0.60290400  1
