# generated using pymatgen
data_Na2CoSiCO7
_symmetry_space_group_name_H-M   'P 1'
_cell_length_a   5.14823958
_cell_length_b   11.45442510
_cell_length_c   11.44860766
_cell_angle_alpha   113.07761686
_cell_angle_beta   88.83574601
_cell_angle_gamma   91.13395103
_symmetry_Int_Tables_number   1
_chemical_formula_structural   Na2CoSiCO7
_chemical_formula_sum   'Na8 Co4 Si4 C4 O28'
_cell_volume   620.91912613
_cell_formula_units_Z   4
loop_
 _symmetry_equiv_pos_site_id
 _symmetry_equiv_pos_as_xyz
  1  'x, y, z'
loop_
 _atom_site_type_symbol
 _atom_site_label
 _atom_site_symmetry_multiplicity
 _atom_site_fract_x
 _atom_site_fract_y
 _atom_site_fract_z
 _atom_site_occupancy
  Na  Na0  1  0.24002200  0.12351100  0.88300200  1
  Na  Na1  1  0.24676100  0.62016900  0.38005300  1
  Na  Na2  1  0.24866100  0.37099300  0.12945700  1
  Na  Na3  1  0.23942100  0.86645100  0.62764400  1
  Na  Na4  1  0.76550000  0.63406300  0.86995700  1
  Na  Na5  1  0.74655700  0.12762500  0.37375100  1
  Na  Na6  1  0.76169300  0.88056500  0.11640900  1
  Na  Na7  1  0.75025900  0.37517100  0.62162200  1
  Co  Co8  1  0.79798500  0.06026900  0.69029300  1
  Co  Co9  1  0.19438200  0.93645000  0.31335700  1
  Co  Co10  1  0.80988200  0.57314700  0.17717200  1
  Co  Co11  1  0.19658100  0.43738000  0.81150500  1
  Si  Si12  1  0.67705200  0.34156900  0.91102800  1
  Si  Si13  1  0.67609200  0.83853900  0.40932000  1
  Si  Si14  1  0.32084100  0.66365300  0.08608200  1
  Si  Si15  1  0.32197300  0.15777200  0.59166200  1
  C  C16  1  0.73949900  0.40492600  0.34467300  1
  C  C17  1  0.71937200  0.91227600  0.83866100  1
  C  C18  1  0.27768200  0.58725300  0.65908400  1
  C  C19  1  0.27321400  0.09183200  0.16175200  1
  O  O20  1  0.22952500  0.15762700  0.09662100  1
  O  O21  1  0.23515600  0.65273700  0.59361400  1
  O  O22  1  0.76650200  0.84697200  0.90361500  1
  O  O23  1  0.74261700  0.33786100  0.41128100  1
  O  O24  1  0.95154500  0.44103900  0.30842600  1
  O  O25  1  0.91817400  0.95628000  0.79464300  1
  O  O26  1  0.07820000  0.54176500  0.70016100  1
  O  O27  1  0.07579400  0.05011000  0.20739400  1
  O  O28  1  0.52137900  0.43599800  0.31421200  1
  O  O29  1  0.49105600  0.93622600  0.81498300  1
  O  O30  1  0.50543700  0.56500400  0.68539400  1
  O  O31  1  0.50252400  0.06631300  0.18294700  1
  O  O32  1  0.18181100  0.58548400  0.16448500  1
  O  O33  1  0.16964400  0.08210000  0.66780400  1
  O  O34  1  0.82534900  0.41598700  0.83226600  1
  O  O35  1  0.82286800  0.91726400  0.33419500  1
  O  O36  1  0.35544300  0.34976200  0.90437400  1
  O  O37  1  0.35446500  0.84393300  0.40108500  1
  O  O38  1  0.64188800  0.66111200  0.08911700  1
  O  O39  1  0.64343700  0.15002600  0.60020100  1
  O  O40  1  0.74319600  0.18801000  0.85239100  1
  O  O41  1  0.74944100  0.68587400  0.34554600  1
  O  O42  1  0.74895100  0.40481600  0.06380200  1
  O  O43  1  0.74382900  0.89757200  0.56260300  1
  O  O44  1  0.24013000  0.60209900  0.93498200  1
  O  O45  1  0.25883400  0.09809800  0.43814800  1
  O  O46  1  0.24222500  0.81523900  0.14883700  1
  O  O47  1  0.25714700  0.31108100  0.65038900  1
