# generated using pymatgen
data_Li2CoSn(PO4)2
_symmetry_space_group_name_H-M   'P 1'
_cell_length_a   5.89832202
_cell_length_b   9.92426590
_cell_length_c   12.11118525
_cell_angle_alpha   79.10202258
_cell_angle_beta   90.00227600
_cell_angle_gamma   89.99094382
_symmetry_Int_Tables_number   1
_chemical_formula_structural   Li2CoSn(PO4)2
_chemical_formula_sum   'Li8 Co4 Sn4 P8 O32'
_cell_volume   696.16100244
_cell_formula_units_Z   4
loop_
 _symmetry_equiv_pos_site_id
 _symmetry_equiv_pos_as_xyz
  1  'x, y, z'
loop_
 _atom_site_type_symbol
 _atom_site_label
 _atom_site_symmetry_multiplicity
 _atom_site_fract_x
 _atom_site_fract_y
 _atom_site_fract_z
 _atom_site_occupancy
  Li  Li0  1  0.99769800  0.00421300  0.00201000  1
  Li  Li1  1  0.00080200  0.50369600  0.00206200  1
  Li  Li2  1  0.50336000  0.00468400  0.00073400  1
  Li  Li3  1  0.50156100  0.50493500  0.00119400  1
  Li  Li4  1  0.99285100  0.24172100  0.49448200  1
  Li  Li5  1  0.00043500  0.74936200  0.50010100  1
  Li  Li6  1  0.50661200  0.24177600  0.49442700  1
  Li  Li7  1  0.49978600  0.74905000  0.49988600  1
  Co  Co8  1  0.24977700  0.02080400  0.31449300  1
  Co  Co9  1  0.74977400  0.97623400  0.68132700  1
  Co  Co10  1  0.24979900  0.51947700  0.31916500  1
  Co  Co11  1  0.74998600  0.47778300  0.68245100  1
  Sn  Sn12  1  0.75001300  0.27523200  0.21482800  1
  Sn  Sn13  1  0.74997100  0.77068700  0.21845500  1
  Sn  Sn14  1  0.25019300  0.22894800  0.77941400  1
  Sn  Sn15  1  0.24986900  0.72789200  0.78306800  1
  P  P16  1  0.25014100  0.20433400  0.10390800  1
  P  P17  1  0.24985000  0.70271600  0.10788300  1
  P  P18  1  0.75027200  0.29975500  0.89560800  1
  P  P19  1  0.74983900  0.80006500  0.89523300  1
  P  P20  1  0.74984900  0.46382000  0.41993500  1
  P  P21  1  0.74980900  0.96493000  0.41750200  1
  P  P22  1  0.24978100  0.03198000  0.57957400  1
  P  P23  1  0.24993900  0.53420200  0.58309400  1
  O  O24  1  0.75031300  0.36270300  0.00327600  1
  O  O25  1  0.75019100  0.86219900  0.00300300  1
  O  O26  1  0.25056400  0.14273300  0.99606200  1
  O  O27  1  0.25020400  0.64577500  0.99754800  1
  O  O28  1  0.24993600  0.36090100  0.08237000  1
  O  O29  1  0.24946200  0.85904500  0.09033500  1
  O  O30  1  0.75033400  0.14328900  0.92004900  1
  O  O31  1  0.74975700  0.64347800  0.91867200  1
  O  O32  1  0.74979600  0.12286100  0.40475400  1
  O  O33  1  0.74980800  0.62180800  0.40541700  1
  O  O34  1  0.24994100  0.37629300  0.59916700  1
  O  O35  1  0.24979300  0.87402200  0.59427500  1
  O  O36  1  0.24973900  0.11159600  0.45484600  1
  O  O37  1  0.24990100  0.61246600  0.45811400  1
  O  O38  1  0.74980000  0.38352700  0.54403800  1
  O  O39  1  0.74980100  0.88392200  0.54159100  1
  O  O40  1  0.04361600  0.13893900  0.18066800  1
  O  O41  1  0.04362300  0.63441600  0.18334800  1
  O  O42  1  0.45640600  0.13928800  0.18102100  1
  O  O43  1  0.45614600  0.63480900  0.18350800  1
  O  O44  1  0.54409000  0.36336400  0.81820100  1
  O  O45  1  0.54365700  0.86421200  0.81777700  1
  O  O46  1  0.95637600  0.36330200  0.81816200  1
  O  O47  1  0.95571800  0.86384800  0.81745300  1
  O  O48  1  0.53432200  0.40907000  0.36579800  1
  O  O49  1  0.53422700  0.91092600  0.36327300  1
  O  O50  1  0.96547300  0.40905300  0.36590000  1
  O  O51  1  0.96548700  0.91093300  0.36333400  1
  O  O52  1  0.03370700  0.08682100  0.63269700  1
  O  O53  1  0.03375500  0.58966400  0.63595800  1
  O  O54  1  0.46594800  0.08681000  0.63262000  1
  O  O55  1  0.46614200  0.58963400  0.63593200  1
