# generated using pymatgen
data_LaMgFeCuO6
_symmetry_space_group_name_H-M   'P 1'
_cell_length_a   5.39196302
_cell_length_b   5.22041270
_cell_length_c   8.06140383
_cell_angle_alpha   92.46795192
_cell_angle_beta   89.99119979
_cell_angle_gamma   89.99973500
_symmetry_Int_Tables_number   1
_chemical_formula_structural   LaMgFeCuO6
_chemical_formula_sum   'La2 Mg2 Fe2 Cu2 O12'
_cell_volume   226.70411521
_cell_formula_units_Z   2
loop_
 _symmetry_equiv_pos_site_id
 _symmetry_equiv_pos_as_xyz
  1  'x, y, z'
loop_
 _atom_site_type_symbol
 _atom_site_label
 _atom_site_symmetry_multiplicity
 _atom_site_fract_x
 _atom_site_fract_y
 _atom_site_fract_z
 _atom_site_occupancy
  La  La0  1  0.04113800  0.98430500  0.25505300  1
  La  La1  1  0.45898200  0.48426400  0.75501500  1
  Mg  Mg2  1  0.55676500  0.53573400  0.24509400  1
  Mg  Mg3  1  0.94332900  0.03580800  0.74509500  1
  Fe  Fe4  1  0.50610000  0.00554700  0.00416700  1
  Fe  Fe5  1  0.99393600  0.50540000  0.50419800  1
  Cu  Cu6  1  0.49730600  0.99000900  0.50508200  1
  Cu  Cu7  1  0.00241900  0.49052600  0.00444000  1
  O  O8  1  0.01844800  0.64303400  0.72421900  1
  O  O9  1  0.20078600  0.20168500  0.93254400  1
  O  O10  1  0.20529300  0.18783900  0.55786000  1
  O  O11  1  0.29466500  0.68819100  0.05771600  1
  O  O12  1  0.29924500  0.70134000  0.43269400  1
  O  O13  1  0.48149200  0.14308600  0.22409900  1
  O  O14  1  0.54466500  0.92545800  0.77322900  1
  O  O15  1  0.73052800  0.25415200  0.56639700  1
  O  O16  1  0.74679400  0.27195700  0.93673200  1
  O  O17  1  0.75323700  0.77179000  0.43686100  1
  O  O18  1  0.76947900  0.75440400  0.06631300  1
  O  O19  1  0.95539400  0.42546900  0.27318900  1
