# generated using pymatgen
data_SrCaMn(PO4)2
_symmetry_space_group_name_H-M   'P 1'
_cell_length_a   5.75864474
_cell_length_b   6.96803585
_cell_length_c   9.69410152
_cell_angle_alpha   109.50956292
_cell_angle_beta   101.38552603
_cell_angle_gamma   98.63742117
_symmetry_Int_Tables_number   1
_chemical_formula_structural   SrCaMn(PO4)2
_chemical_formula_sum   'Sr2 Ca2 Mn2 P4 O16'
_cell_volume   349.47238848
_cell_formula_units_Z   2
loop_
 _symmetry_equiv_pos_site_id
 _symmetry_equiv_pos_as_xyz
  1  'x, y, z'
loop_
 _atom_site_type_symbol
 _atom_site_label
 _atom_site_symmetry_multiplicity
 _atom_site_fract_x
 _atom_site_fract_y
 _atom_site_fract_z
 _atom_site_occupancy
  Sr  Sr0  1  0.26247500  0.80735900  0.05555400  1
  Sr  Sr1  1  0.73752500  0.19264100  0.94444600  1
  Ca  Ca2  1  0.00263100  0.42008900  0.66232100  1
  Ca  Ca3  1  0.99736900  0.57991100  0.33767900  1
  Mn  Mn4  1  0.63669400  0.84172100  0.56195000  1
  Mn  Mn5  1  0.36330600  0.15827900  0.43805000  1
  P  P6  1  0.38761400  0.41306400  0.21829900  1
  P  P7  1  0.61238600  0.58693600  0.78170100  1
  P  P8  1  0.83699600  0.03323800  0.29833300  1
  P  P9  1  0.16300400  0.96676200  0.70166700  1
  O  O10  1  0.84055400  0.55300600  0.88018900  1
  O  O11  1  0.61903200  0.45134600  0.16463100  1
  O  O12  1  0.66642300  0.80825500  0.77640100  1
  O  O13  1  0.96673800  0.10010700  0.69132100  1
  O  O14  1  0.38096800  0.54865400  0.83536900  1
  O  O15  1  0.02312700  0.73392200  0.59704200  1
  O  O16  1  0.97687300  0.26607800  0.40295800  1
  O  O17  1  0.26819600  0.99623700  0.86672200  1
  O  O18  1  0.33357800  0.19174500  0.22359900  1
  O  O19  1  0.73180400  0.00376300  0.13327800  1
  O  O20  1  0.15944600  0.44699400  0.11981100  1
  O  O21  1  0.41972800  0.57599300  0.38250300  1
  O  O22  1  0.58027200  0.42400700  0.61749700  1
  O  O23  1  0.62995500  0.96717100  0.36908800  1
  O  O24  1  0.03326200  0.89989300  0.30867900  1
  O  O25  1  0.37004500  0.03282900  0.63091200  1
