# generated using pymatgen
data_Ca2Ga2O5
_symmetry_space_group_name_H-M   'P 1'
_cell_length_a   8.33177433
_cell_length_b   8.33177433
_cell_length_c   8.33177433
_cell_angle_alpha   141.95857599
_cell_angle_beta   140.36649303
_cell_angle_gamma   56.10271521
_symmetry_Int_Tables_number   1
_chemical_formula_structural   Ca2Ga2O5
_chemical_formula_sum   'Ca4 Ga4 O10'
_cell_volume   225.58705770
_cell_formula_units_Z   2
loop_
 _symmetry_equiv_pos_site_id
 _symmetry_equiv_pos_as_xyz
  1  'x, y, z'
loop_
 _atom_site_type_symbol
 _atom_site_label
 _atom_site_symmetry_multiplicity
 _atom_site_fract_x
 _atom_site_fract_y
 _atom_site_fract_z
 _atom_site_occupancy
  Ca  Ca0  1  0.13605100  0.59187600  0.51270100  1
  Ca  Ca1  1  0.86394900  0.37665000  0.45582600  1
  Ca  Ca2  1  0.57917600  0.09187600  0.45582600  1
  Ca  Ca3  1  0.42082400  0.87665000  0.51270100  1
  Ga  Ga4  1  0.82053300  0.70358700  0.02412100  1
  Ga  Ga5  1  0.17946700  0.20358700  0.88305400  1
  Ga  Ga6  1  0.50000000  0.49763300  0.99763300  1
  Ga  Ga7  1  0.00000000  0.99763300  0.99763300  1
  O  O8  1  0.76015300  0.26123700  0.99125900  1
  O  O9  1  0.23984700  0.23110600  0.50108300  1
  O  O10  1  0.76997700  0.76123700  0.50108300  1
  O  O11  1  0.23002300  0.73110600  0.99125900  1
  O  O12  1  0.12631500  0.85359200  0.47990700  1
  O  O13  1  0.87368500  0.35359200  0.72727700  1
  O  O14  1  0.43144800  0.39194400  0.10692300  1
  O  O15  1  0.56855200  0.67547500  0.96049600  1
  O  O16  1  0.21497900  0.17547500  0.10692300  1
  O  O17  1  0.78502100  0.89194400  0.96049600  1
