# generated using pymatgen
data_Li2FeP2O7
_symmetry_space_group_name_H-M   'P 1'
_cell_length_a   5.13948491
_cell_length_b   8.80890545
_cell_length_c   13.32619558
_cell_angle_alpha   103.04016377
_cell_angle_beta   88.84229945
_cell_angle_gamma   91.02845118
_symmetry_Int_Tables_number   1
_chemical_formula_structural   Li2FeP2O7
_chemical_formula_sum   'Li8 Fe4 P8 O28'
_cell_volume   587.58616172
_cell_formula_units_Z   4
loop_
 _symmetry_equiv_pos_site_id
 _symmetry_equiv_pos_as_xyz
  1  'x, y, z'
loop_
 _atom_site_type_symbol
 _atom_site_label
 _atom_site_symmetry_multiplicity
 _atom_site_fract_x
 _atom_site_fract_y
 _atom_site_fract_z
 _atom_site_occupancy
  Li  Li0  1  0.03892200  0.16925300  0.41058400  1
  Li  Li1  1  0.53857900  0.66915700  0.41026000  1
  Li  Li2  1  0.52186100  0.89191700  0.09138500  1
  Li  Li3  1  0.02264600  0.39232800  0.09243200  1
  Li  Li4  1  0.97737800  0.60776600  0.90746500  1
  Li  Li5  1  0.47832900  0.10806200  0.90867500  1
  Li  Li6  1  0.46132600  0.33076600  0.58969500  1
  Li  Li7  1  0.96111300  0.83077500  0.58933800  1
  Fe  Fe8  1  0.99957500  0.50011300  0.50022300  1
  Fe  Fe9  1  0.00017100  0.99998200  0.00005500  1
  Fe  Fe10  1  0.50032100  0.99992100  0.49995100  1
  Fe  Fe11  1  0.50016900  0.49987300  0.99998700  1
  P  P12  1  0.96998800  0.18601200  0.63110400  1
  P  P13  1  0.46998000  0.68636100  0.63089300  1
  P  P14  1  0.98697400  0.26978500  0.86847400  1
  P  P15  1  0.48666200  0.76914000  0.86805300  1
  P  P16  1  0.51323700  0.23086300  0.13195800  1
  P  P17  1  0.01315100  0.73026400  0.13153700  1
  P  P18  1  0.53000000  0.31367200  0.36911500  1
  P  P19  1  0.03005000  0.81392100  0.36885600  1
  O  O20  1  0.02611200  0.27195500  0.74868200  1
  O  O21  1  0.52627900  0.77267400  0.74838500  1
  O  O22  1  0.47376500  0.22734400  0.25160300  1
  O  O23  1  0.97389100  0.72793100  0.25131500  1
  O  O24  1  0.10400500  0.11826300  0.88549300  1
  O  O25  1  0.60408300  0.61762000  0.88470400  1
  O  O26  1  0.67405300  0.16005600  0.61949800  1
  O  O27  1  0.17405100  0.66039700  0.61928600  1
  O  O28  1  0.82591700  0.33965600  0.38076000  1
  O  O29  1  0.32592300  0.83991300  0.38048000  1
  O  O30  1  0.39582200  0.38236800  0.11527700  1
  O  O31  1  0.89604400  0.88173800  0.11455100  1
  O  O32  1  0.14337800  0.41420700  0.92250100  1
  O  O33  1  0.64226000  0.91320700  0.92309000  1
  O  O34  1  0.07441200  0.30500000  0.57154900  1
  O  O35  1  0.57401800  0.80475400  0.57071300  1
  O  O36  1  0.42598800  0.19520900  0.42927200  1
  O  O37  1  0.92552200  0.69503200  0.42847700  1
  O  O38  1  0.35767100  0.08670800  0.07709000  1
  O  O39  1  0.85671500  0.58593300  0.07742200  1
  O  O40  1  0.87673600  0.96571700  0.39654400  1
  O  O41  1  0.37659200  0.46543400  0.39652500  1
  O  O42  1  0.80335000  0.21604600  0.10347800  1
  O  O43  1  0.30297000  0.71483200  0.10244200  1
  O  O44  1  0.69703800  0.28520800  0.89755100  1
  O  O45  1  0.19640700  0.78407600  0.89640900  1
  O  O46  1  0.62334500  0.53455700  0.60347100  1
  O  O47  1  0.12322200  0.03423300  0.60338900  1
