# generated using pymatgen
data_BaSr4(FeO3)5
_symmetry_space_group_name_H-M   'P 1'
_cell_length_a   5.57063677
_cell_length_b   5.57063818
_cell_length_c   20.22690108
_cell_angle_alpha   82.09624168
_cell_angle_beta   82.09620918
_cell_angle_gamma   89.99226105
_symmetry_Int_Tables_number   1
_chemical_formula_structural   BaSr4(FeO3)5
_chemical_formula_sum   'Ba2 Sr8 Fe10 O30'
_cell_volume   615.69968391
_cell_formula_units_Z   2
loop_
 _symmetry_equiv_pos_site_id
 _symmetry_equiv_pos_as_xyz
  1  'x, y, z'
loop_
 _atom_site_type_symbol
 _atom_site_label
 _atom_site_symmetry_multiplicity
 _atom_site_fract_x
 _atom_site_fract_y
 _atom_site_fract_z
 _atom_site_occupancy
  Ba  Ba0  1  0.44987000  0.95001400  0.10002100  1
  Ba  Ba1  1  0.95001400  0.44987100  0.10002100  1
  Sr  Sr2  1  0.34860800  0.84887500  0.30263700  1
  Sr  Sr3  1  0.84887300  0.34860800  0.30263700  1
  Sr  Sr4  1  0.05163000  0.55124000  0.89694000  1
  Sr  Sr5  1  0.55124000  0.05163100  0.89694000  1
  Sr  Sr6  1  0.24953600  0.74953600  0.50094500  1
  Sr  Sr7  1  0.74953300  0.24953500  0.50094500  1
  Sr  Sr8  1  0.15049600  0.65025400  0.69915600  1
  Sr  Sr9  1  0.65025400  0.15049600  0.69915700  1
  Fe  Fe10  1  0.19979900  0.19979000  0.60013000  1
  Fe  Fe11  1  0.70034100  0.70033400  0.59976300  1
  Fe  Fe12  1  0.00218700  0.00219000  0.99514800  1
  Fe  Fe13  1  0.39876800  0.39876800  0.20279400  1
  Fe  Fe14  1  0.89804500  0.89805000  0.20380600  1
  Fe  Fe15  1  0.50142900  0.50142500  0.99731900  1
  Fe  Fe16  1  0.29929800  0.29927200  0.40183100  1
  Fe  Fe17  1  0.79875900  0.79877800  0.40205500  1
  Fe  Fe18  1  0.10099700  0.10100100  0.79786300  1
  Fe  Fe19  1  0.60127600  0.60126900  0.79730300  1
  O  O20  1  0.44860400  0.44860400  0.10226100  1
  O  O21  1  0.94794500  0.94794500  0.10393400  1
  O  O22  1  0.34713400  0.34713400  0.30342100  1
  O  O23  1  0.84964600  0.84964700  0.30228400  1
  O  O24  1  0.05392300  0.05392300  0.89409100  1
  O  O25  1  0.55327000  0.55327100  0.89350300  1
  O  O26  1  0.24950700  0.24950800  0.50112000  1
  O  O27  1  0.74950000  0.74950000  0.50135200  1
  O  O28  1  0.15116100  0.15116200  0.69947100  1
  O  O29  1  0.64917700  0.64917600  0.70025100  1
  O  O30  1  0.44924500  0.95013300  0.60055000  1
  O  O31  1  0.95013400  0.44924400  0.60055000  1
  O  O32  1  0.95050200  0.95050100  0.60070100  1
  O  O33  1  0.44907800  0.44907800  0.60033300  1
  O  O34  1  0.25269600  0.75309800  0.99406600  1
  O  O35  1  0.75309700  0.25269800  0.99406600  1
  O  O36  1  0.64813500  0.14552100  0.20640400  1
  O  O37  1  0.14552000  0.64813600  0.20640400  1
  O  O38  1  0.75320800  0.75320900  0.99394700  1
  O  O39  1  0.25278200  0.25278200  0.99406100  1
  O  O40  1  0.14530900  0.14530900  0.20621800  1
  O  O41  1  0.64820800  0.64820900  0.20656300  1
  O  O42  1  0.54866900  0.04896400  0.40232000  1
  O  O43  1  0.04896300  0.54867100  0.40232000  1
  O  O44  1  0.35448700  0.84841600  0.79688900  1
  O  O45  1  0.84841600  0.35448600  0.79688900  1
  O  O46  1  0.04927300  0.04927500  0.40253200  1
  O  O47  1  0.54831300  0.54831400  0.40213900  1
  O  O48  1  0.84765000  0.84765000  0.79690000  1
  O  O49  1  0.35549500  0.35549600  0.79704800  1
