# generated using pymatgen
data_MnSiO3
_symmetry_space_group_name_H-M   'P 1'
_cell_length_a   9.34160200
_cell_length_b   5.44932900
_cell_length_c   9.70158125
_cell_angle_alpha   77.81737510
_cell_angle_beta   90.00000000
_cell_angle_gamma   90.00000000
_symmetry_Int_Tables_number   1
_chemical_formula_structural   MnSiO3
_chemical_formula_sum   'Mn8 Si8 O24'
_cell_volume   482.74164409
_cell_formula_units_Z   8
loop_
 _symmetry_equiv_pos_site_id
 _symmetry_equiv_pos_as_xyz
  1  'x, y, z'
loop_
 _atom_site_type_symbol
 _atom_site_label
 _atom_site_symmetry_multiplicity
 _atom_site_fract_x
 _atom_site_fract_y
 _atom_site_fract_z
 _atom_site_occupancy
  Mn  Mn0  1  0.48807200  0.49724800  0.74980800  1
  Mn  Mn1  1  0.98807200  0.00275200  0.25019200  1
  Mn  Mn2  1  0.51192800  0.50275200  0.25019200  1
  Mn  Mn3  1  0.01192800  0.99724800  0.74980800  1
  Mn  Mn4  1  0.85077100  0.49760500  0.75025200  1
  Mn  Mn5  1  0.35077100  0.00239500  0.24974800  1
  Mn  Mn6  1  0.14922900  0.50239500  0.24974800  1
  Mn  Mn7  1  0.64922900  0.99760500  0.75025200  1
  Si  Si8  1  0.66394100  0.22164300  0.04648600  1
  Si  Si9  1  0.16394100  0.27835700  0.95351400  1
  Si  Si10  1  0.33605900  0.77835700  0.95351400  1
  Si  Si11  1  0.83605900  0.72164300  0.04648600  1
  Si  Si12  1  0.16363700  0.72758000  0.54588100  1
  Si  Si13  1  0.66363700  0.77242000  0.45411900  1
  Si  Si14  1  0.83636300  0.27242000  0.45411900  1
  Si  Si15  1  0.33636300  0.22758000  0.54588100  1
  O  O16  1  0.76593100  0.43647200  0.09977600  1
  O  O17  1  0.26593100  0.06352800  0.90022400  1
  O  O18  1  0.23406900  0.56352800  0.90022400  1
  O  O19  1  0.73406900  0.93647200  0.09977600  1
  O  O20  1  0.51263300  0.23549700  0.12606500  1
  O  O21  1  0.01263300  0.26450300  0.87393500  1
  O  O22  1  0.48736700  0.76450300  0.87393500  1
  O  O23  1  0.98736700  0.73549700  0.12606500  1
  O  O24  1  0.65876100  0.28470700  0.87366300  1
  O  O25  1  0.15876100  0.21529300  0.12633700  1
  O  O26  1  0.34123900  0.71529300  0.12633700  1
  O  O27  1  0.84123900  0.78470700  0.87366300  1
  O  O28  1  0.25790900  0.95005100  0.60070700  1
  O  O29  1  0.75790900  0.54994900  0.39929300  1
  O  O30  1  0.74209100  0.04994900  0.39929300  1
  O  O31  1  0.24209100  0.45005100  0.60070700  1
  O  O32  1  0.34058600  0.28941700  0.37316800  1
  O  O33  1  0.84058600  0.21058300  0.62683200  1
  O  O34  1  0.65941400  0.71058300  0.62683200  1
  O  O35  1  0.15941400  0.78941700  0.37316800  1
  O  O36  1  0.01081200  0.73092400  0.62429600  1
  O  O37  1  0.98918800  0.26907600  0.37570400  1
  O  O38  1  0.51081200  0.76907600  0.37570400  1
  O  O39  1  0.48918800  0.23092400  0.62429600  1
