# generated using pymatgen
data_KAg3S2
_symmetry_space_group_name_H-M   'P 1'
_cell_length_a   9.43664971
_cell_length_b   9.43664971
_cell_length_c   9.43664971
_cell_angle_alpha   60.00000000
_cell_angle_beta   60.00000000
_cell_angle_gamma   60.00000000
_symmetry_Int_Tables_number   1
_chemical_formula_structural   KAg3S2
_chemical_formula_sum   'K4 Ag12 S8'
_cell_volume   594.20801382
_cell_formula_units_Z   4
loop_
 _symmetry_equiv_pos_site_id
 _symmetry_equiv_pos_as_xyz
  1  'x, y, z'
loop_
 _atom_site_type_symbol
 _atom_site_label
 _atom_site_symmetry_multiplicity
 _atom_site_fract_x
 _atom_site_fract_y
 _atom_site_fract_z
 _atom_site_occupancy
  K  K0  1  0.62500000  0.62500000  0.62500000  1
  K  K1  1  0.12500000  0.62500000  0.62500000  1
  K  K2  1  0.62500000  0.12500000  0.62500000  1
  K  K3  1  0.62500000  0.62500000  0.12500000  1
  Ag  Ag4  1  0.41027900  0.08972100  0.41027900  1
  Ag  Ag5  1  0.16027900  0.83972100  0.16027900  1
  Ag  Ag6  1  0.41027900  0.41027900  0.08972100  1
  Ag  Ag7  1  0.08972100  0.41027900  0.41027900  1
  Ag  Ag8  1  0.41027900  0.08972100  0.08972100  1
  Ag  Ag9  1  0.08972100  0.08972100  0.41027900  1
  Ag  Ag10  1  0.83972100  0.83972100  0.16027900  1
  Ag  Ag11  1  0.16027900  0.16027900  0.83972100  1
  Ag  Ag12  1  0.83972100  0.16027900  0.83972100  1
  Ag  Ag13  1  0.16027900  0.83972100  0.83972100  1
  Ag  Ag14  1  0.83972100  0.16027900  0.16027900  1
  Ag  Ag15  1  0.08972100  0.41027900  0.08972100  1
  S  S16  1  0.38634000  0.87122000  0.87122000  1
  S  S17  1  0.37878000  0.37878000  0.37878000  1
  S  S18  1  0.37878000  0.37878000  0.86366000  1
  S  S19  1  0.37878000  0.86366000  0.37878000  1
  S  S20  1  0.87122000  0.38634000  0.87122000  1
  S  S21  1  0.86366000  0.37878000  0.37878000  1
  S  S22  1  0.87122000  0.87122000  0.87122000  1
  S  S23  1  0.87122000  0.87122000  0.38634000  1
