# generated using pymatgen
data_Yb2SiO5
_symmetry_space_group_name_H-M   'P 1'
_cell_length_a   8.53402900
_cell_length_b   8.53402900
_cell_length_c   11.20812966
_cell_angle_alpha   54.90160292
_cell_angle_beta   54.90160292
_cell_angle_gamma   43.82916892
_symmetry_Int_Tables_number   1
_chemical_formula_structural   Yb2SiO5
_chemical_formula_sum   'Yb8 Si4 O20'
_cell_volume   443.62849605
_cell_formula_units_Z   4
loop_
 _symmetry_equiv_pos_site_id
 _symmetry_equiv_pos_as_xyz
  1  'x, y, z'
loop_
 _atom_site_type_symbol
 _atom_site_label
 _atom_site_symmetry_multiplicity
 _atom_site_fract_x
 _atom_site_fract_y
 _atom_site_fract_z
 _atom_site_occupancy
  Yb  Yb0  1  0.24137200  0.89163300  0.54696700  1
  Yb  Yb1  1  0.10836700  0.75862800  0.95303300  1
  Yb  Yb2  1  0.75862800  0.10836700  0.45303300  1
  Yb  Yb3  1  0.89163300  0.24137200  0.04696700  1
  Yb  Yb4  1  0.20608900  0.45137300  0.31303200  1
  Yb  Yb5  1  0.54862700  0.79391100  0.18696800  1
  Yb  Yb6  1  0.79391100  0.54862700  0.68696800  1
  Yb  Yb7  1  0.45137300  0.20608900  0.81303200  1
  Si  Si8  1  0.74563800  0.91411700  0.31261700  1
  Si  Si9  1  0.08588300  0.25436200  0.18738300  1
  Si  Si10  1  0.25436200  0.08588300  0.68738300  1
  Si  Si11  1  0.91411700  0.74563800  0.81261700  1
  O  O12  1  0.46403300  0.57290300  0.02751900  1
  O  O13  1  0.42709700  0.53596700  0.47248100  1
  O  O14  1  0.53596700  0.42709700  0.97248100  1
  O  O15  1  0.57290300  0.46403300  0.52751900  1
  O  O16  1  0.87286400  0.76271900  0.44813700  1
  O  O17  1  0.23728100  0.12713600  0.05186300  1
  O  O18  1  0.12713600  0.23728100  0.55186300  1
  O  O19  1  0.76271900  0.87286400  0.94813700  1
  O  O20  1  0.59013900  0.84198900  0.34391800  1
  O  O21  1  0.15801100  0.40986100  0.15608200  1
  O  O22  1  0.40986100  0.15801100  0.65608200  1
  O  O23  1  0.84198900  0.59013900  0.84391800  1
  O  O24  1  0.97282900  0.85617600  0.15893600  1
  O  O25  1  0.14382400  0.02717100  0.34106400  1
  O  O26  1  0.02717100  0.14382400  0.84106400  1
  O  O27  1  0.85617600  0.97282900  0.65893600  1
  O  O28  1  0.59679600  0.19527100  0.28935100  1
  O  O29  1  0.80472900  0.40320400  0.21064900  1
  O  O30  1  0.40320400  0.80472900  0.71064900  1
  O  O31  1  0.19527100  0.59679600  0.78935100  1
