# generated using pymatgen
data_VCrO4
_symmetry_space_group_name_H-M   'P 1'
_cell_length_a   5.07948989
_cell_length_b   6.19175100
_cell_length_c   5.07948975
_cell_angle_alpha   90.00000000
_cell_angle_beta   112.49208534
_cell_angle_gamma   90.00000000
_symmetry_Int_Tables_number   1
_chemical_formula_structural   VCrO4
_chemical_formula_sum   'V2 Cr2 O8'
_cell_volume   147.60255041
_cell_formula_units_Z   2
loop_
 _symmetry_equiv_pos_site_id
 _symmetry_equiv_pos_as_xyz
  1  'x, y, z'
loop_
 _atom_site_type_symbol
 _atom_site_label
 _atom_site_symmetry_multiplicity
 _atom_site_fract_x
 _atom_site_fract_y
 _atom_site_fract_z
 _atom_site_occupancy
  V  V0  1  0.35491700  0.25000000  0.64508300  1
  V  V1  1  0.64508300  0.75000000  0.35491700  1
  Cr  Cr2  1  0.00000000  0.00000000  0.00000000  1
  Cr  Cr3  1  0.00000000  0.50000000  0.00000000  1
  O  O4  1  0.78988800  0.75000000  0.74290100  1
  O  O5  1  0.21011200  0.25000000  0.25709900  1
  O  O6  1  0.74290100  0.25000000  0.78988800  1
  O  O7  1  0.25709900  0.75000000  0.21011200  1
  O  O8  1  0.76510700  0.96776400  0.23489300  1
  O  O9  1  0.23489300  0.46776400  0.76510700  1
  O  O10  1  0.23489300  0.03223600  0.76510700  1
  O  O11  1  0.76510700  0.53223600  0.23489300  1
