# generated using pymatgen
data_Mo3W(SeS3)2
_symmetry_space_group_name_H-M   'P 1'
_cell_length_a   3.22390557
_cell_length_b   3.22390557
_cell_length_c   36.41592000
_cell_angle_alpha   90.00000000
_cell_angle_beta   90.00000000
_cell_angle_gamma   119.99999120
_symmetry_Int_Tables_number   1
_chemical_formula_structural   Mo3W(SeS3)2
_chemical_formula_sum   'Mo3 W1 Se2 S6'
_cell_volume   327.78311791
_cell_formula_units_Z   1
loop_
 _symmetry_equiv_pos_site_id
 _symmetry_equiv_pos_as_xyz
  1  'x, y, z'
loop_
 _atom_site_type_symbol
 _atom_site_label
 _atom_site_symmetry_multiplicity
 _atom_site_fract_x
 _atom_site_fract_y
 _atom_site_fract_z
 _atom_site_occupancy
  Mo  Mo0  1  0.33333300  0.66666700  0.09391100  1
  Mo  Mo1  1  0.33333300  0.66666700  0.46965100  1
  Mo  Mo2  1  0.66666700  0.33333300  0.28180600  1
  W  W3  1  0.66666700  0.33333300  0.65752400  1
  Se  Se4  1  0.33333300  0.66666700  0.32880500  1
  Se  Se5  1  0.33333300  0.66666700  0.23477700  1
  S  S6  1  0.33333300  0.66666700  0.70045800  1
  S  S7  1  0.66666700  0.33333300  0.05117400  1
  S  S8  1  0.66666700  0.33333300  0.42698600  1
  S  S9  1  0.66666700  0.33333300  0.13663800  1
  S  S10  1  0.66666700  0.33333300  0.51238900  1
  S  S11  1  0.33333300  0.66666700  0.61462700  1
