# generated using pymatgen
data_Ba5Gd8Mn4O21
_symmetry_space_group_name_H-M   'P 1'
_cell_length_a   10.43108539
_cell_length_b   10.43108539
_cell_length_c   10.43108539
_cell_angle_alpha   94.51044984
_cell_angle_beta   94.51044984
_cell_angle_gamma   147.42827437
_symmetry_Int_Tables_number   1
_chemical_formula_structural   Ba5Gd8Mn4O21
_chemical_formula_sum   'Ba5 Gd8 Mn4 O21'
_cell_volume   586.50497732
_cell_formula_units_Z   1
loop_
 _symmetry_equiv_pos_site_id
 _symmetry_equiv_pos_as_xyz
  1  'x, y, z'
loop_
 _atom_site_type_symbol
 _atom_site_label
 _atom_site_symmetry_multiplicity
 _atom_site_fract_x
 _atom_site_fract_y
 _atom_site_fract_z
 _atom_site_occupancy
  Ba  Ba0  1  0.86203800  0.46724900  0.32928700  1
  Ba  Ba1  1  0.13796200  0.53275100  0.67071300  1
  Ba  Ba2  1  0.46724900  0.13796200  0.60521100  1
  Ba  Ba3  1  0.53275100  0.86203800  0.39478900  1
  Ba  Ba4  1  0.00000000  0.00000000  0.00000000  1
  Gd  Gd5  1  0.75194500  0.16940300  0.92134800  1
  Gd  Gd6  1  0.16940300  0.24805500  0.41745800  1
  Gd  Gd7  1  0.83059700  0.75194500  0.58254200  1
  Gd  Gd8  1  0.24805500  0.83059700  0.07865200  1
  Gd  Gd9  1  0.58955500  0.35835300  0.94790700  1
  Gd  Gd10  1  0.35835300  0.41044500  0.76879800  1
  Gd  Gd11  1  0.64164700  0.58955500  0.23120200  1
  Gd  Gd12  1  0.41044500  0.64164700  0.05209300  1
  Mn  Mn13  1  0.04022700  0.75048200  0.79070900  1
  Mn  Mn14  1  0.24951800  0.04022700  0.28974500  1
  Mn  Mn15  1  0.95977300  0.24951800  0.20929100  1
  Mn  Mn16  1  0.75048200  0.95977300  0.71025500  1
  O  O17  1  0.89952700  0.49311500  0.89111900  1
  O  O18  1  0.49311500  0.60199600  0.59358700  1
  O  O19  1  0.00840800  0.89952700  0.40641300  1
  O  O20  1  0.60199600  0.00840800  0.10888100  1
  O  O21  1  0.10047300  0.50688500  0.10888100  1
  O  O22  1  0.50688500  0.39800400  0.40641300  1
  O  O23  1  0.99159200  0.10047300  0.59358700  1
  O  O24  1  0.39800400  0.99159200  0.89111900  1
  O  O25  1  0.07177500  0.29753600  0.86970000  1
  O  O26  1  0.29753600  0.42783700  0.22576100  1
  O  O27  1  0.20207500  0.07177500  0.77423900  1
  O  O28  1  0.42783700  0.20207500  0.13030000  1
  O  O29  1  0.92822500  0.70246400  0.13030000  1
  O  O30  1  0.70246400  0.57216300  0.77423900  1
  O  O31  1  0.79792500  0.92822500  0.22576100  1
  O  O32  1  0.57216300  0.79792500  0.86970000  1
  O  O33  1  0.62529100  0.03533700  0.66062800  1
  O  O34  1  0.50000000  0.50000000  0.00000000  1
  O  O35  1  0.37470900  0.96466300  0.33937200  1
  O  O36  1  0.96466300  0.62529100  0.58995300  1
  O  O37  1  0.03533700  0.37470900  0.41004700  1
