# generated using pymatgen
data_Cr7C3
_symmetry_space_group_name_H-M   'P 1'
_cell_length_a   4.50568700
_cell_length_b   6.94450300
_cell_length_c   12.03814900
_cell_angle_alpha   90.00000000
_cell_angle_beta   90.00000000
_cell_angle_gamma   90.00000000
_symmetry_Int_Tables_number   1
_chemical_formula_structural   Cr7C3
_chemical_formula_sum   'Cr28 C12'
_cell_volume   376.67075560
_cell_formula_units_Z   4
loop_
 _symmetry_equiv_pos_site_id
 _symmetry_equiv_pos_as_xyz
  1  'x, y, z'
loop_
 _atom_site_type_symbol
 _atom_site_label
 _atom_site_symmetry_multiplicity
 _atom_site_fract_x
 _atom_site_fract_y
 _atom_site_fract_z
 _atom_site_occupancy
  Cr  Cr0  1  0.05885500  0.06490500  0.81168300  1
  Cr  Cr1  1  0.55885500  0.43509500  0.68831700  1
  Cr  Cr2  1  0.94114500  0.56490500  0.18831700  1
  Cr  Cr3  1  0.44114500  0.93509500  0.31168300  1
  Cr  Cr4  1  0.94114500  0.93509500  0.18831700  1
  Cr  Cr5  1  0.44114500  0.56490500  0.31168300  1
  Cr  Cr6  1  0.05885500  0.43509500  0.81168300  1
  Cr  Cr7  1  0.55885500  0.06490500  0.68831700  1
  Cr  Cr8  1  0.25048900  0.06701900  0.02161900  1
  Cr  Cr9  1  0.75048900  0.43298100  0.47838100  1
  Cr  Cr10  1  0.74951100  0.56701900  0.97838100  1
  Cr  Cr11  1  0.24951100  0.93298100  0.52161900  1
  Cr  Cr12  1  0.74951100  0.93298100  0.97838100  1
  Cr  Cr13  1  0.24951100  0.56701900  0.52161900  1
  Cr  Cr14  1  0.25048900  0.43298100  0.02161900  1
  Cr  Cr15  1  0.75048900  0.06701900  0.47838100  1
  Cr  Cr16  1  0.24171500  0.75000000  0.91676500  1
  Cr  Cr17  1  0.74171500  0.75000000  0.58323500  1
  Cr  Cr18  1  0.75828500  0.25000000  0.08323500  1
  Cr  Cr19  1  0.25828500  0.25000000  0.41676500  1
  Cr  Cr20  1  0.25751800  0.75000000  0.70413700  1
  Cr  Cr21  1  0.75751800  0.75000000  0.79586300  1
  Cr  Cr22  1  0.74248200  0.25000000  0.29586300  1
  Cr  Cr23  1  0.24248200  0.25000000  0.20413700  1
  Cr  Cr24  1  0.44214500  0.75000000  0.12661600  1
  Cr  Cr25  1  0.94214500  0.75000000  0.37338400  1
  Cr  Cr26  1  0.55785500  0.25000000  0.87338400  1
  Cr  Cr27  1  0.05785500  0.25000000  0.62661600  1
  C  C28  1  0.53173700  0.03344700  0.15577600  1
  C  C29  1  0.03173700  0.46655300  0.34422400  1
  C  C30  1  0.46826300  0.53344700  0.84422400  1
  C  C31  1  0.96826300  0.96655300  0.65577600  1
  C  C32  1  0.46826300  0.96655300  0.84422400  1
  C  C33  1  0.96826300  0.53344700  0.65577600  1
  C  C34  1  0.53173700  0.46655300  0.15577600  1
  C  C35  1  0.03173700  0.03344700  0.34422400  1
  C  C36  1  0.03387000  0.75000000  0.06286700  1
  C  C37  1  0.53387000  0.75000000  0.43713300  1
  C  C38  1  0.96613000  0.25000000  0.93713300  1
  C  C39  1  0.46613000  0.25000000  0.56286700  1
