# generated using pymatgen
data_Rb
_symmetry_space_group_name_H-M   'P 1'
_cell_length_a   12.29908400
_cell_length_b   12.29908400
_cell_length_c   12.29908400
_cell_angle_alpha   90.00000000
_cell_angle_beta   90.00000000
_cell_angle_gamma   90.00000000
_symmetry_Int_Tables_number   1
_chemical_formula_structural   Rb
_chemical_formula_sum   Rb20
_cell_volume   1860.45128604
_cell_formula_units_Z   20
loop_
 _symmetry_equiv_pos_site_id
 _symmetry_equiv_pos_as_xyz
  1  'x, y, z'
loop_
 _atom_site_type_symbol
 _atom_site_label
 _atom_site_symmetry_multiplicity
 _atom_site_fract_x
 _atom_site_fract_y
 _atom_site_fract_z
 _atom_site_occupancy
  Rb  Rb0  1  0.87500000  0.70278300  0.04721700  1
  Rb  Rb1  1  0.06276800  0.06276800  0.06276800  1
  Rb  Rb2  1  0.20278300  0.45278300  0.12500000  1
  Rb  Rb3  1  0.81276800  0.31276800  0.18723200  1
  Rb  Rb4  1  0.45278300  0.12500000  0.20278300  1
  Rb  Rb5  1  0.54721700  0.62500000  0.29721700  1
  Rb  Rb6  1  0.18723200  0.81276800  0.31276800  1
  Rb  Rb7  1  0.79721700  0.95278300  0.37500000  1
  Rb  Rb8  1  0.93723200  0.56276800  0.43723200  1
  Rb  Rb9  1  0.12500000  0.20278300  0.45278300  1
  Rb  Rb10  1  0.62500000  0.29721700  0.54721700  1
  Rb  Rb11  1  0.43723200  0.93723200  0.56276800  1
  Rb  Rb12  1  0.29721700  0.54721700  0.62500000  1
  Rb  Rb13  1  0.68723200  0.68723200  0.68723200  1
  Rb  Rb14  1  0.04721700  0.87500000  0.70278300  1
  Rb  Rb15  1  0.95278300  0.37500000  0.79721700  1
  Rb  Rb16  1  0.31276800  0.18723200  0.81276800  1
  Rb  Rb17  1  0.70278300  0.04721700  0.87500000  1
  Rb  Rb18  1  0.56276800  0.43723200  0.93723200  1
  Rb  Rb19  1  0.37500000  0.79721700  0.95278300  1
