# generated using pymatgen
data_Co3Mo3N
_symmetry_space_group_name_H-M   'P 1'
_cell_length_a   7.81345781
_cell_length_b   7.81345781
_cell_length_c   7.81345781
_cell_angle_alpha   60.00000000
_cell_angle_beta   60.00000000
_cell_angle_gamma   60.00000000
_symmetry_Int_Tables_number   1
_chemical_formula_structural   Co3Mo3N
_chemical_formula_sum   'Co12 Mo12 N4'
_cell_volume   337.29881549
_cell_formula_units_Z   4
loop_
 _symmetry_equiv_pos_site_id
 _symmetry_equiv_pos_as_xyz
  1  'x, y, z'
loop_
 _atom_site_type_symbol
 _atom_site_label
 _atom_site_symmetry_multiplicity
 _atom_site_fract_x
 _atom_site_fract_y
 _atom_site_fract_z
 _atom_site_occupancy
  Co  Co0  1  0.62500000  0.12500000  0.62500000  1
  Co  Co1  1  0.62500000  0.62500000  0.12500000  1
  Co  Co2  1  0.12500000  0.62500000  0.62500000  1
  Co  Co3  1  0.62500000  0.62500000  0.62500000  1
  Co  Co4  1  0.83040900  0.50877300  0.83040900  1
  Co  Co5  1  0.41959100  0.41959100  0.74122700  1
  Co  Co6  1  0.74122700  0.41959100  0.41959100  1
  Co  Co7  1  0.41959100  0.41959100  0.41959100  1
  Co  Co8  1  0.50877300  0.83040900  0.83040900  1
  Co  Co9  1  0.83040900  0.83040900  0.83040900  1
  Co  Co10  1  0.83040900  0.83040900  0.50877300  1
  Co  Co11  1  0.41959100  0.74122700  0.41959100  1
  Mo  Mo12  1  0.20209600  0.20209600  0.79790400  1
  Mo  Mo13  1  0.45209600  0.04790400  0.04790400  1
  Mo  Mo14  1  0.04790400  0.45209600  0.45209600  1
  Mo  Mo15  1  0.45209600  0.45209600  0.04790400  1
  Mo  Mo16  1  0.45209600  0.04790400  0.45209600  1
  Mo  Mo17  1  0.04790400  0.45209600  0.04790400  1
  Mo  Mo18  1  0.79790400  0.20209600  0.79790400  1
  Mo  Mo19  1  0.79790400  0.20209600  0.20209600  1
  Mo  Mo20  1  0.20209600  0.79790400  0.79790400  1
  Mo  Mo21  1  0.20209600  0.79790400  0.20209600  1
  Mo  Mo22  1  0.04790400  0.04790400  0.45209600  1
  Mo  Mo23  1  0.79790400  0.79790400  0.20209600  1
  N  N24  1  0.12500000  0.62500000  0.12500000  1
  N  N25  1  0.12500000  0.12500000  0.62500000  1
  N  N26  1  0.62500000  0.12500000  0.12500000  1
  N  N27  1  0.12500000  0.12500000  0.12500000  1
