# generated using pymatgen
data_InNi3
_symmetry_space_group_name_H-M   'P 1'
_cell_length_a   5.35252061
_cell_length_b   5.35252061
_cell_length_c   4.21127500
_cell_angle_alpha   90.00000000
_cell_angle_beta   90.00000000
_cell_angle_gamma   120.00000755
_symmetry_Int_Tables_number   1
_chemical_formula_structural   InNi3
_chemical_formula_sum   'In2 Ni6'
_cell_volume   104.48667218
_cell_formula_units_Z   2
loop_
 _symmetry_equiv_pos_site_id
 _symmetry_equiv_pos_as_xyz
  1  'x, y, z'
loop_
 _atom_site_type_symbol
 _atom_site_label
 _atom_site_symmetry_multiplicity
 _atom_site_fract_x
 _atom_site_fract_y
 _atom_site_fract_z
 _atom_site_occupancy
  In  In0  1  0.33333300  0.66666700  0.25000000  1
  In  In1  1  0.66666700  0.33333300  0.75000000  1
  Ni  Ni2  1  0.84366400  0.15633600  0.25000000  1
  Ni  Ni3  1  0.84366400  0.68732800  0.25000000  1
  Ni  Ni4  1  0.31267200  0.15633600  0.25000000  1
  Ni  Ni5  1  0.15633600  0.84366400  0.75000000  1
  Ni  Ni6  1  0.15633600  0.31267200  0.75000000  1
  Ni  Ni7  1  0.68732800  0.84366400  0.75000000  1
