# generated using pymatgen
data_Na2MnGaF7
_symmetry_space_group_name_H-M   'P 1'
_cell_length_a   7.51853002
_cell_length_b   7.51853002
_cell_length_c   18.43424400
_cell_angle_alpha   90.00000000
_cell_angle_beta   90.00000000
_cell_angle_gamma   120.00000016
_symmetry_Int_Tables_number   1
_chemical_formula_structural   Na2MnGaF7
_chemical_formula_sum   'Na12 Mn6 Ga6 F42'
_cell_volume   902.44727652
_cell_formula_units_Z   6
loop_
 _symmetry_equiv_pos_site_id
 _symmetry_equiv_pos_as_xyz
  1  'x, y, z'
loop_
 _atom_site_type_symbol
 _atom_site_label
 _atom_site_symmetry_multiplicity
 _atom_site_fract_x
 _atom_site_fract_y
 _atom_site_fract_z
 _atom_site_occupancy
  Na  Na0  1  0.50566100  0.88652300  0.66545600  1
  Na  Na1  1  0.11347700  0.61913800  0.99878900  1
  Na  Na2  1  0.38086200  0.49433900  0.33212200  1
  Na  Na3  1  0.61913800  0.11347700  0.00121100  1
  Na  Na4  1  0.49433900  0.38086200  0.66787800  1
  Na  Na5  1  0.88652300  0.50566100  0.33454400  1
  Na  Na6  1  0.86022300  0.00000000  0.33333300  1
  Na  Na7  1  0.00000000  0.86022300  0.66666700  1
  Na  Na8  1  0.13977700  0.13977700  0.00000000  1
  Na  Na9  1  0.84458300  0.00000000  0.83333300  1
  Na  Na10  1  0.00000000  0.84458300  0.16666700  1
  Na  Na11  1  0.15541700  0.15541700  0.50000000  1
  Mn  Mn12  1  0.49556400  0.83601600  0.17120700  1
  Mn  Mn13  1  0.16398400  0.65954900  0.50454100  1
  Mn  Mn14  1  0.34045100  0.50443600  0.83787400  1
  Mn  Mn15  1  0.65954900  0.16398400  0.49545900  1
  Mn  Mn16  1  0.50443600  0.34045100  0.16212600  1
  Mn  Mn17  1  0.83601600  0.49556400  0.82879300  1
  Ga  Ga18  1  0.31512400  0.00000000  0.33333300  1
  Ga  Ga19  1  0.00000000  0.31512400  0.66666700  1
  Ga  Ga20  1  0.68487600  0.68487600  0.00000000  1
  Ga  Ga21  1  0.33467400  0.00000000  0.83333300  1
  Ga  Ga22  1  0.00000000  0.33467400  0.16666700  1
  Ga  Ga23  1  0.66532600  0.66532600  0.50000000  1
  F  F24  1  0.42701600  0.04773000  0.12235900  1
  F  F25  1  0.95227000  0.37928600  0.45569200  1
  F  F26  1  0.62071400  0.57298400  0.78902500  1
  F  F27  1  0.37928600  0.95227000  0.54430800  1
  F  F28  1  0.57298400  0.62071400  0.21097500  1
  F  F29  1  0.04773000  0.42701600  0.87764100  1
  F  F30  1  0.23898200  0.18702700  0.86016300  1
  F  F31  1  0.81297300  0.05195500  0.19349700  1
  F  F32  1  0.94804500  0.76101800  0.52683000  1
  F  F33  1  0.05195500  0.81297300  0.80650300  1
  F  F34  1  0.76101800  0.94804500  0.47317000  1
  F  F35  1  0.18702700  0.23898200  0.13983700  1
  F  F36  1  0.37215100  0.07429900  0.73136200  1
  F  F37  1  0.92570100  0.29785200  0.06469600  1
  F  F38  1  0.70214800  0.62784900  0.39802900  1
  F  F39  1  0.29785200  0.92570100  0.93530400  1
  F  F40  1  0.62784900  0.70214800  0.60197100  1
  F  F41  1  0.07429900  0.37215100  0.26863800  1
  F  F42  1  0.42864600  0.81191300  0.80884300  1
  F  F43  1  0.18808700  0.61673400  0.14217600  1
  F  F44  1  0.38326600  0.57135400  0.47551000  1
  F  F45  1  0.61673400  0.18808700  0.85782400  1
  F  F46  1  0.57135400  0.38326600  0.52449000  1
  F  F47  1  0.81191300  0.42864600  0.19115700  1
  F  F48  1  0.77008400  0.19872600  0.60300100  1
  F  F49  1  0.80127400  0.57135800  0.93633400  1
  F  F50  1  0.42864200  0.22991600  0.26966700  1
  F  F51  1  0.57135800  0.80127400  0.06366600  1
  F  F52  1  0.22991600  0.42864200  0.73033300  1
  F  F53  1  0.19872600  0.77008400  0.39699900  1
  F  F54  1  0.79999700  0.94246000  0.94892100  1
  F  F55  1  0.05754000  0.85753700  0.28225400  1
  F  F56  1  0.14246300  0.20000300  0.61558700  1
  F  F57  1  0.85753700  0.05754000  0.71774600  1
  F  F58  1  0.20000300  0.14246300  0.38441300  1
  F  F59  1  0.94246000  0.79999700  0.05107900  1
  F  F60  1  0.56560700  0.42574600  0.05122500  1
  F  F61  1  0.57425400  0.13986100  0.38455800  1
  F  F62  1  0.86013900  0.43439300  0.71789200  1
  F  F63  1  0.13986100  0.57425400  0.61544200  1
  F  F64  1  0.43439300  0.86013900  0.28210800  1
  F  F65  1  0.42574600  0.56560700  0.94877500  1
