# generated using pymatgen
data_FeSiO3
_symmetry_space_group_name_H-M   'P 1'
_cell_length_a   5.36238300
_cell_length_b   9.22956900
_cell_length_c   18.70561400
_cell_angle_alpha   90.00000000
_cell_angle_beta   90.00000000
_cell_angle_gamma   90.00000000
_symmetry_Int_Tables_number   1
_chemical_formula_structural   FeSiO3
_chemical_formula_sum   'Fe16 Si16 O48'
_cell_volume   925.78729979
_cell_formula_units_Z   16
loop_
 _symmetry_equiv_pos_site_id
 _symmetry_equiv_pos_as_xyz
  1  'x, y, z'
loop_
 _atom_site_type_symbol
 _atom_site_label
 _atom_site_symmetry_multiplicity
 _atom_site_fract_x
 _atom_site_fract_y
 _atom_site_fract_z
 _atom_site_occupancy
  Fe  Fe0  1  0.61147700  0.00886100  0.12459300  1
  Fe  Fe1  1  0.11147700  0.99113900  0.37540700  1
  Fe  Fe2  1  0.88852300  0.50886100  0.87540700  1
  Fe  Fe3  1  0.38852300  0.49113900  0.62459300  1
  Fe  Fe4  1  0.38852300  0.99113900  0.87540700  1
  Fe  Fe5  1  0.88852300  0.00886100  0.62459300  1
  Fe  Fe6  1  0.11147700  0.49113900  0.12459300  1
  Fe  Fe7  1  0.61147700  0.50886100  0.37540700  1
  Fe  Fe8  1  0.10976600  0.84698700  0.12455200  1
  Fe  Fe9  1  0.60976600  0.15301300  0.37544800  1
  Fe  Fe10  1  0.39023400  0.34698700  0.87544800  1
  Fe  Fe11  1  0.89023400  0.65301300  0.62455200  1
  Fe  Fe12  1  0.89023400  0.15301300  0.87544800  1
  Fe  Fe13  1  0.39023400  0.84698700  0.62455200  1
  Fe  Fe14  1  0.60976600  0.65301300  0.12455200  1
  Fe  Fe15  1  0.10976600  0.34698700  0.37544800  1
  Si  Si16  1  0.22534800  0.16523600  0.02454100  1
  Si  Si17  1  0.72534800  0.83476400  0.47545900  1
  Si  Si18  1  0.27465200  0.66523600  0.97545900  1
  Si  Si19  1  0.77465200  0.33476400  0.52454100  1
  Si  Si20  1  0.77465200  0.83476400  0.97545900  1
  Si  Si21  1  0.27465200  0.16523600  0.52454100  1
  Si  Si22  1  0.72534800  0.33476400  0.02454100  1
  Si  Si23  1  0.22534800  0.66523600  0.47545900  1
  Si  Si24  1  0.93105000  0.16265300  0.22633300  1
  Si  Si25  1  0.43105000  0.83734700  0.27366700  1
  Si  Si26  1  0.56895000  0.66265300  0.77366700  1
  Si  Si27  1  0.06895000  0.33734700  0.72633300  1
  Si  Si28  1  0.06895000  0.83734700  0.77366700  1
  Si  Si29  1  0.56895000  0.16265300  0.72633300  1
  Si  Si30  1  0.43105000  0.33734700  0.22633300  1
  Si  Si31  1  0.93105000  0.66265300  0.27366700  1
  O  O32  1  0.44052200  0.28544100  0.05035300  1
  O  O33  1  0.94052200  0.71455900  0.44964700  1
  O  O34  1  0.05947800  0.78544100  0.94964700  1
  O  O35  1  0.55947800  0.21455900  0.55035300  1
  O  O36  1  0.55947800  0.71455900  0.94964700  1
  O  O37  1  0.05947800  0.28544100  0.55035300  1
  O  O38  1  0.94052200  0.21455900  0.05035300  1
  O  O39  1  0.44052200  0.78544100  0.44964700  1
  O  O40  1  0.29741500  0.01637100  0.06586600  1
  O  O41  1  0.79741500  0.98362900  0.43413400  1
  O  O42  1  0.20258500  0.51637100  0.93413400  1
  O  O43  1  0.70258500  0.48362900  0.56586600  1
  O  O44  1  0.70258500  0.98362900  0.93413400  1
  O  O45  1  0.20258500  0.01637100  0.56586600  1
  O  O46  1  0.79741500  0.48362900  0.06586600  1
  O  O47  1  0.29741500  0.51637100  0.43413400  1
  O  O48  1  0.22831100  0.16325500  0.93678700  1
  O  O49  1  0.72831100  0.83674500  0.56321300  1
  O  O50  1  0.27168900  0.66325500  0.06321300  1
  O  O51  1  0.92618900  0.00689900  0.18612600  1
  O  O52  1  0.77168900  0.33674500  0.43678700  1
  O  O53  1  0.27168900  0.16325500  0.43678700  1
  O  O54  1  0.72831100  0.33674500  0.93678700  1
  O  O55  1  0.22831100  0.66325500  0.56321300  1
  O  O56  1  0.16181400  0.26676100  0.19742000  1
  O  O57  1  0.66181400  0.73323900  0.30258000  1
  O  O58  1  0.33818600  0.76676100  0.80258000  1
  O  O59  1  0.83818600  0.23323900  0.69742000  1
  O  O60  1  0.83818600  0.73323900  0.80258000  1
  O  O61  1  0.33818600  0.26676100  0.69742000  1
  O  O62  1  0.66181400  0.23323900  0.19742000  1
  O  O63  1  0.16181400  0.76676100  0.30258000  1
  O  O64  1  0.94195700  0.66095500  0.18645100  1
  O  O65  1  0.44195700  0.33904500  0.31354900  1
  O  O66  1  0.55804300  0.16095500  0.81354900  1
  O  O67  1  0.05804300  0.83904500  0.68645100  1
  O  O68  1  0.05804300  0.33904500  0.81354900  1
  O  O69  1  0.55804300  0.66095500  0.68645100  1
  O  O70  1  0.44195700  0.83904500  0.18645100  1
  O  O71  1  0.94195700  0.16095500  0.31354900  1
  O  O72  1  0.92618900  0.50689900  0.31387400  1
  O  O73  1  0.42618900  0.49310100  0.18612600  1
  O  O74  1  0.57381100  0.00689900  0.68612600  1
  O  O75  1  0.07381100  0.99310100  0.81387400  1
  O  O76  1  0.07381100  0.49310100  0.68612600  1
  O  O77  1  0.57381100  0.50689900  0.81387400  1
  O  O78  1  0.42618900  0.99310100  0.31387400  1
  O  O79  1  0.77168900  0.83674500  0.06321300  1
