# generated using pymatgen
data_YbMnSi
_symmetry_space_group_name_H-M   'P 1'
_cell_length_a   4.24373900
_cell_length_b   7.14072000
_cell_length_c   7.19798500
_cell_angle_alpha   90.00000000
_cell_angle_beta   90.00000000
_cell_angle_gamma   90.00000000
_symmetry_Int_Tables_number   1
_chemical_formula_structural   YbMnSi
_chemical_formula_sum   'Yb4 Mn4 Si4'
_cell_volume   218.12307280
_cell_formula_units_Z   4
loop_
 _symmetry_equiv_pos_site_id
 _symmetry_equiv_pos_as_xyz
  1  'x, y, z'
loop_
 _atom_site_type_symbol
 _atom_site_label
 _atom_site_symmetry_multiplicity
 _atom_site_fract_x
 _atom_site_fract_y
 _atom_site_fract_z
 _atom_site_occupancy
  Yb  Yb0  1  0.75000000  0.17743000  0.49987100  1
  Yb  Yb1  1  0.25000000  0.82257000  0.50012900  1
  Yb  Yb2  1  0.75000000  0.32257000  0.99987100  1
  Yb  Yb3  1  0.25000000  0.67743000  0.00012900  1
  Mn  Mn4  1  0.25000000  0.06156200  0.13234600  1
  Mn  Mn5  1  0.75000000  0.93843800  0.86765400  1
  Mn  Mn6  1  0.25000000  0.43843800  0.63234600  1
  Mn  Mn7  1  0.75000000  0.56156200  0.36765400  1
  Si  Si8  1  0.75000000  0.88901400  0.19850600  1
  Si  Si9  1  0.25000000  0.11098600  0.80149400  1
  Si  Si10  1  0.75000000  0.61098600  0.69850600  1
  Si  Si11  1  0.25000000  0.38901400  0.30149400  1
