# generated using pymatgen
data_BaEu2NiO5
_symmetry_space_group_name_H-M   'P 1'
_cell_length_a   6.79611241
_cell_length_b   6.79611241
_cell_length_c   6.79611241
_cell_angle_alpha   147.16727616
_cell_angle_beta   128.49417427
_cell_angle_gamma   62.43903704
_symmetry_Int_Tables_number   1
_chemical_formula_structural   BaEu2NiO5
_chemical_formula_sum   'Ba1 Eu2 Ni1 O5'
_cell_volume   131.84988856
_cell_formula_units_Z   1
loop_
 _symmetry_equiv_pos_site_id
 _symmetry_equiv_pos_as_xyz
  1  'x, y, z'
loop_
 _atom_site_type_symbol
 _atom_site_label
 _atom_site_symmetry_multiplicity
 _atom_site_fract_x
 _atom_site_fract_y
 _atom_site_fract_z
 _atom_site_occupancy
  Ba  Ba0  1  0.50000000  0.00000000  0.50000000  1
  Eu  Eu1  1  0.79517700  0.79517700  0.00000000  1
  Eu  Eu2  1  0.20482300  0.20482300  0.00000000  1
  Ni  Ni3  1  0.00000000  0.50000000  0.50000000  1
  O  O4  1  0.00000000  0.00000000  0.00000000  1
  O  O5  1  0.09949100  0.35916500  0.74032500  1
  O  O6  1  0.90050900  0.64083500  0.25967500  1
  O  O7  1  0.38116000  0.64083500  0.74032500  1
  O  O8  1  0.61884000  0.35916500  0.25967500  1
