# generated using pymatgen
data_C(ClF)2
_symmetry_space_group_name_H-M   'P 1'
_cell_length_a   9.56726126
_cell_length_b   8.40025646
_cell_length_c   5.94042902
_cell_angle_alpha   81.75021434
_cell_angle_beta   60.33513640
_cell_angle_gamma   37.91464926
_symmetry_Int_Tables_number   1
_chemical_formula_structural   C(ClF)2
_chemical_formula_sum   'C2 Cl4 F4'
_cell_volume   226.00896447
_cell_formula_units_Z   2
loop_
 _symmetry_equiv_pos_site_id
 _symmetry_equiv_pos_as_xyz
  1  'x, y, z'
loop_
 _atom_site_type_symbol
 _atom_site_label
 _atom_site_symmetry_multiplicity
 _atom_site_fract_x
 _atom_site_fract_y
 _atom_site_fract_z
 _atom_site_occupancy
  C  C0  1  0.99653700  0.00346300  0.00346300  1
  C  C1  1  0.24653700  0.25346300  0.25346300  1
  Cl  Cl2  1  0.90572700  0.02390600  0.34892700  1
  Cl  Cl3  1  0.72144100  0.34892700  0.02390600  1
  Cl  Cl4  1  0.90107300  0.52855900  0.34427300  1
  Cl  Cl5  1  0.22609400  0.34427300  0.52855900  1
  F  F6  1  0.25088600  0.87609300  0.82841200  1
  F  F7  1  0.04460900  0.82841200  0.87609300  1
  F  F8  1  0.42158800  0.20539100  0.99911400  1
  F  F9  1  0.37390700  0.99911400  0.20539100  1
