# generated using pymatgen
data_Ba2TaBiO6
_symmetry_space_group_name_H-M   'P 1'
_cell_length_a   6.09727724
_cell_length_b   6.09727724
_cell_length_c   6.09727671
_cell_angle_alpha   60.58654828
_cell_angle_beta   60.58654828
_cell_angle_gamma   60.58655263
_symmetry_Int_Tables_number   1
_chemical_formula_structural   Ba2TaBiO6
_chemical_formula_sum   'Ba2 Ta1 Bi1 O6'
_cell_volume   162.40849364
_cell_formula_units_Z   1
loop_
 _symmetry_equiv_pos_site_id
 _symmetry_equiv_pos_as_xyz
  1  'x, y, z'
loop_
 _atom_site_type_symbol
 _atom_site_label
 _atom_site_symmetry_multiplicity
 _atom_site_fract_x
 _atom_site_fract_y
 _atom_site_fract_z
 _atom_site_occupancy
  Ba  Ba0  1  0.74881600  0.74881600  0.74881600  1
  Ba  Ba1  1  0.25118400  0.25118400  0.25118400  1
  Ta  Ta2  1  0.50000000  0.50000000  0.50000000  1
  Bi  Bi3  1  0.00000000  0.00000000  0.00000000  1
  O  O4  1  0.72551000  0.21885600  0.32203500  1
  O  O5  1  0.21885600  0.32203500  0.72551000  1
  O  O6  1  0.32203500  0.72551000  0.21885600  1
  O  O7  1  0.27449000  0.78114400  0.67796500  1
  O  O8  1  0.67796500  0.27449000  0.78114400  1
  O  O9  1  0.78114400  0.67796500  0.27449000  1
