# generated using pymatgen
data_Cs2Pd(IBr2)2
_symmetry_space_group_name_H-M   'P 1'
_cell_length_a   7.54932971
_cell_length_b   7.54932971
_cell_length_c   8.92546272
_cell_angle_alpha   55.65624154
_cell_angle_beta   55.65624154
_cell_angle_gamma   68.19863224
_symmetry_Int_Tables_number   1
_chemical_formula_structural   Cs2Pd(IBr2)2
_chemical_formula_sum   'Cs2 Pd1 I2 Br4'
_cell_volume   345.72899788
_cell_formula_units_Z   1
loop_
 _symmetry_equiv_pos_site_id
 _symmetry_equiv_pos_as_xyz
  1  'x, y, z'
loop_
 _atom_site_type_symbol
 _atom_site_label
 _atom_site_symmetry_multiplicity
 _atom_site_fract_x
 _atom_site_fract_y
 _atom_site_fract_z
 _atom_site_occupancy
  Cs  Cs0  1  0.24576900  0.24576900  0.27588700  1
  Cs  Cs1  1  0.75423100  0.75423100  0.72411300  1
  Pd  Pd2  1  0.00000000  0.00000000  0.00000000  1
  I  I3  1  0.65691300  0.65691300  0.34916100  1
  I  I4  1  0.34308700  0.34308700  0.65083900  1
  Br  Br5  1  0.80849000  0.22292000  0.18146400  1
  Br  Br6  1  0.19151000  0.77708000  0.81853600  1
  Br  Br7  1  0.22292000  0.80849000  0.18146400  1
  Br  Br8  1  0.77708000  0.19151000  0.81853600  1
