# generated using pymatgen
data_Mg5In2
_symmetry_space_group_name_H-M   'P 1'
_cell_length_a   8.63056257
_cell_length_b   8.63056257
_cell_length_c   8.63056257
_cell_angle_alpha   137.79971507
_cell_angle_beta   129.09653926
_cell_angle_gamma   68.19615226
_symmetry_Int_Tables_number   1
_chemical_formula_structural   Mg5In2
_chemical_formula_sum   'Mg10 In4'
_cell_volume   329.43296213
_cell_formula_units_Z   2
loop_
 _symmetry_equiv_pos_site_id
 _symmetry_equiv_pos_as_xyz
  1  'x, y, z'
loop_
 _atom_site_type_symbol
 _atom_site_label
 _atom_site_symmetry_multiplicity
 _atom_site_fract_x
 _atom_site_fract_y
 _atom_site_fract_z
 _atom_site_occupancy
  Mg  Mg0  1  0.07502800  0.41394900  0.66107900  1
  Mg  Mg1  1  0.92497200  0.58605100  0.33892100  1
  Mg  Mg2  1  0.24713000  0.08605100  0.16107900  1
  Mg  Mg3  1  0.75287000  0.91394900  0.83892100  1
  Mg  Mg4  1  0.50000000  0.25000000  0.75000000  1
  Mg  Mg5  1  0.50000000  0.75000000  0.25000000  1
  Mg  Mg6  1  0.73344900  0.48344900  0.75000000  1
  Mg  Mg7  1  0.26655100  0.01655100  0.75000000  1
  Mg  Mg8  1  0.26655100  0.51655100  0.25000000  1
  Mg  Mg9  1  0.73344900  0.98344900  0.25000000  1
  In  In10  1  0.64382500  0.37731200  0.26651200  1
  In  In11  1  0.35617500  0.62268800  0.73348800  1
  In  In12  1  0.88920000  0.12268800  0.76651200  1
  In  In13  1  0.11080000  0.87731200  0.23348800  1
