# generated using pymatgen
data_KHoH8RuC6(N3O2)2
_symmetry_space_group_name_H-M   'P 1'
_cell_length_a   7.45880000
_cell_length_b   7.45880000
_cell_length_c   14.19037700
_cell_angle_alpha   90.00000000
_cell_angle_beta   90.00000000
_cell_angle_gamma   120.01520261
_symmetry_Int_Tables_number   1
_chemical_formula_structural   KHoH8RuC6(N3O2)2
_chemical_formula_sum   'K2 Ho2 H16 Ru2 C12 N12 O8'
_cell_volume   683.59037543
_cell_formula_units_Z   2
loop_
 _symmetry_equiv_pos_site_id
 _symmetry_equiv_pos_as_xyz
  1  'x, y, z'
loop_
 _atom_site_type_symbol
 _atom_site_label
 _atom_site_symmetry_multiplicity
 _atom_site_fract_x
 _atom_site_fract_y
 _atom_site_fract_z
 _atom_site_occupancy
  K  K0  1  0.53851000  0.46149000  0.25000000  1
  K  K1  1  0.46149000  0.53851000  0.75000000  1
  Ho  Ho2  1  0.83089200  0.16910800  0.25000000  1
  Ho  Ho3  1  0.16910800  0.83089200  0.75000000  1
  H  H4  1  0.79028800  0.20971200  0.54704900  1
  H  H5  1  0.20971200  0.79028800  0.45295100  1
  H  H6  1  0.79028800  0.20971200  0.95295100  1
  H  H7  1  0.89972900  0.10027100  0.59394300  1
  H  H8  1  0.10027100  0.89972900  0.09394300  1
  H  H9  1  0.10027100  0.89972900  0.40605700  1
  H  H10  1  0.89972900  0.10027100  0.90605700  1
  H  H11  1  0.20971200  0.79028800  0.04704900  1
  H  H12  1  0.03256200  0.62169100  0.19363400  1
  H  H13  1  0.96743800  0.37830900  0.69363400  1
  H  H14  1  0.62169100  0.03256200  0.69363400  1
  H  H15  1  0.37830900  0.96743800  0.19363400  1
  H  H16  1  0.03256200  0.62169100  0.30636600  1
  H  H17  1  0.96743800  0.37830900  0.80636600  1
  H  H18  1  0.37830900  0.96743800  0.30636600  1
  H  H19  1  0.62169100  0.03256200  0.80636600  1
  Ru  Ru20  1  0.50000000  0.50000000  0.50000000  1
  Ru  Ru21  1  0.50000000  0.50000000  0.00000000  1
  C  C22  1  0.25709200  0.35537800  0.08943100  1
  C  C23  1  0.35537800  0.25709200  0.58943100  1
  C  C24  1  0.74290800  0.64462200  0.58943100  1
  C  C25  1  0.64462200  0.74290800  0.08943100  1
  C  C26  1  0.35840400  0.64159600  0.56174900  1
  C  C27  1  0.64159600  0.35840400  0.06174900  1
  C  C28  1  0.64159600  0.35840400  0.43825100  1
  C  C29  1  0.35840400  0.64159600  0.93825100  1
  C  C30  1  0.25709200  0.35537800  0.41056900  1
  C  C31  1  0.74290800  0.64462200  0.91056900  1
  C  C32  1  0.64462200  0.74290800  0.41056900  1
  C  C33  1  0.35537800  0.25709200  0.91056900  1
  N  N34  1  0.27509800  0.12190700  0.85504900  1
  N  N35  1  0.87809300  0.72490200  0.64495100  1
  N  N36  1  0.12190700  0.27509800  0.14495100  1
  N  N37  1  0.27509800  0.12190700  0.64495100  1
  N  N38  1  0.72490200  0.87809300  0.14495100  1
  N  N39  1  0.27920000  0.72080000  0.89670800  1
  N  N40  1  0.72080000  0.27920000  0.39670800  1
  N  N41  1  0.72080000  0.27920000  0.10329200  1
  N  N42  1  0.27920000  0.72080000  0.60329200  1
  N  N43  1  0.87809300  0.72490200  0.85504900  1
  N  N44  1  0.72490200  0.87809300  0.35504900  1
  N  N45  1  0.12190700  0.27509800  0.35504900  1
  O  O46  1  0.82576400  0.17423600  0.89166400  1
  O  O47  1  0.53603000  0.96317400  0.75000000  1
  O  O48  1  0.17423600  0.82576400  0.10833600  1
  O  O49  1  0.82576400  0.17423600  0.60833600  1
  O  O50  1  0.96317400  0.53603000  0.25000000  1
  O  O51  1  0.46397000  0.03682600  0.25000000  1
  O  O52  1  0.03682600  0.46397000  0.75000000  1
  O  O53  1  0.17423600  0.82576400  0.39166400  1
