# generated using pymatgen
data_H2O
_symmetry_space_group_name_H-M   'P 1'
_cell_length_a   7.60510908
_cell_length_b   7.60510908
_cell_length_c   7.60510917
_cell_angle_alpha   112.84458175
_cell_angle_beta   112.84458175
_cell_angle_gamma   112.84458826
_symmetry_Int_Tables_number   1
_chemical_formula_structural   H2O
_chemical_formula_sum   'H24 O12'
_cell_volume   288.70268664
_cell_formula_units_Z   12
loop_
 _symmetry_equiv_pos_site_id
 _symmetry_equiv_pos_as_xyz
  1  'x, y, z'
loop_
 _atom_site_type_symbol
 _atom_site_label
 _atom_site_symmetry_multiplicity
 _atom_site_fract_x
 _atom_site_fract_y
 _atom_site_fract_z
 _atom_site_occupancy
  H  H0  1  0.63304900  0.80134800  0.25899100  1
  H  H1  1  0.25899100  0.63304900  0.80134800  1
  H  H2  1  0.80134800  0.25899100  0.63304900  1
  H  H3  1  0.36695100  0.19865200  0.74100900  1
  H  H4  1  0.74100900  0.36695100  0.19865200  1
  H  H5  1  0.19865200  0.74100900  0.36695100  1
  H  H6  1  0.59802000  0.58778400  0.27370100  1
  H  H7  1  0.27370100  0.59802000  0.58778400  1
  H  H8  1  0.58778400  0.27370100  0.59802000  1
  H  H9  1  0.40198000  0.41221600  0.72629900  1
  H  H10  1  0.72629900  0.40198000  0.41221600  1
  H  H11  1  0.41221600  0.72629900  0.40198000  1
  H  H12  1  0.04623300  0.14173000  0.79598300  1
  H  H13  1  0.14173000  0.79598300  0.04623300  1
  H  H14  1  0.79598300  0.04623300  0.14173000  1
  H  H15  1  0.95376700  0.85827000  0.20401700  1
  H  H16  1  0.85827000  0.20401700  0.95376700  1
  H  H17  1  0.20401700  0.95376700  0.85827000  1
  H  H18  1  0.20259100  0.42666200  0.99248100  1
  H  H19  1  0.42666200  0.99248100  0.20259100  1
  H  H20  1  0.99248100  0.20259100  0.42666200  1
  H  H21  1  0.79740900  0.57333800  0.00751900  1
  H  H22  1  0.57333800  0.00751900  0.79740900  1
  H  H23  1  0.00751900  0.79740900  0.57333800  1
  O  O24  1  0.66801000  0.25098800  0.52294600  1
  O  O25  1  0.52294600  0.66801000  0.25098800  1
  O  O26  1  0.25098800  0.52294600  0.66801000  1
  O  O27  1  0.33199000  0.74901200  0.47705400  1
  O  O28  1  0.47705400  0.33199000  0.74901200  1
  O  O29  1  0.74901200  0.47705400  0.33199000  1
  O  O30  1  0.14064500  0.97152600  0.72884800  1
  O  O31  1  0.72884800  0.14064500  0.97152600  1
  O  O32  1  0.97152600  0.72884800  0.14064500  1
  O  O33  1  0.85935500  0.02847400  0.27115200  1
  O  O34  1  0.27115200  0.85935500  0.02847400  1
  O  O35  1  0.02847400  0.27115200  0.85935500  1
