# generated using pymatgen
data_LiVPO4
_symmetry_space_group_name_H-M   'P 1'
_cell_length_a   4.76669600
_cell_length_b   6.11325100
_cell_length_c   10.53061800
_cell_angle_alpha   90.00000000
_cell_angle_beta   90.00000000
_cell_angle_gamma   90.00000000
_symmetry_Int_Tables_number   1
_chemical_formula_structural   LiVPO4
_chemical_formula_sum   'Li4 V4 P4 O16'
_cell_volume   306.86230423
_cell_formula_units_Z   4
loop_
 _symmetry_equiv_pos_site_id
 _symmetry_equiv_pos_as_xyz
  1  'x, y, z'
loop_
 _atom_site_type_symbol
 _atom_site_label
 _atom_site_symmetry_multiplicity
 _atom_site_fract_x
 _atom_site_fract_y
 _atom_site_fract_z
 _atom_site_occupancy
  Li  Li0  1  0.00000000  0.00000000  0.00000000  1
  Li  Li1  1  0.50000100  0.00000000  0.50000000  1
  Li  Li2  1  0.00000000  0.49999900  0.00000000  1
  Li  Li3  1  0.50000100  0.49999900  0.50000000  1
  V  V4  1  0.01666600  0.75000000  0.72513000  1
  V  V5  1  0.48333300  0.75000000  0.22513000  1
  V  V6  1  0.98333400  0.25000000  0.27486900  1
  V  V7  1  0.51666700  0.25000000  0.77487000  1
  P  P8  1  0.58645500  0.75000000  0.90901000  1
  P  P9  1  0.91354400  0.75000000  0.40901000  1
  P  P10  1  0.41354700  0.25000000  0.09098900  1
  P  P11  1  0.08645400  0.25000000  0.59099000  1
  O  O12  1  0.77738900  0.54766800  0.33953800  1
  O  O13  1  0.22261100  0.45233200  0.66046200  1
  O  O14  1  0.72261200  0.54766800  0.83953800  1
  O  O15  1  0.77738900  0.95233100  0.33953800  1
  O  O16  1  0.27739000  0.04766900  0.16046200  1
  O  O17  1  0.73578700  0.25000000  0.09592200  1
  O  O18  1  0.27739000  0.45233200  0.16046200  1
  O  O19  1  0.22261100  0.04766900  0.66046200  1
  O  O20  1  0.26421200  0.75000000  0.90407800  1
  O  O21  1  0.76421300  0.25000000  0.59592200  1
  O  O22  1  0.79261900  0.75000000  0.54594200  1
  O  O23  1  0.23578900  0.75000000  0.40407800  1
  O  O24  1  0.70738200  0.75000000  0.04594200  1
  O  O25  1  0.29261800  0.25000000  0.95405700  1
  O  O26  1  0.20738100  0.25000000  0.45405700  1
  O  O27  1  0.72261200  0.95233100  0.83953800  1
