# generated using pymatgen
data_BeAlH5
_symmetry_space_group_name_H-M   'P 1'
_cell_length_a   4.66286056
_cell_length_b   4.66286056
_cell_length_c   6.30702325
_cell_angle_alpha   73.29555980
_cell_angle_beta   73.29555980
_cell_angle_gamma   99.53280763
_symmetry_Int_Tables_number   1
_chemical_formula_structural   BeAlH5
_chemical_formula_sum   'Be2 Al2 H10'
_cell_volume   121.10669799
_cell_formula_units_Z   2
loop_
 _symmetry_equiv_pos_site_id
 _symmetry_equiv_pos_as_xyz
  1  'x, y, z'
loop_
 _atom_site_type_symbol
 _atom_site_label
 _atom_site_symmetry_multiplicity
 _atom_site_fract_x
 _atom_site_fract_y
 _atom_site_fract_z
 _atom_site_occupancy
  Be  Be0  1  0.66950500  0.33049500  0.25000000  1
  Be  Be1  1  0.33049500  0.66950500  0.75000000  1
  Al  Al2  1  0.00000000  0.00000000  0.50000000  1
  Al  Al3  1  0.00000000  0.00000000  0.00000000  1
  H  H4  1  0.73755000  0.64220400  0.09007100  1
  H  H5  1  0.35779600  0.26245000  0.40992900  1
  H  H6  1  0.26245000  0.35779600  0.90992900  1
  H  H7  1  0.64220400  0.73755000  0.59007100  1
  H  H8  1  0.09219900  0.90780100  0.25000000  1
  H  H9  1  0.90780100  0.09219900  0.75000000  1
  H  H10  1  0.12483500  0.68452900  0.61942400  1
  H  H11  1  0.31547100  0.87516500  0.88057600  1
  H  H12  1  0.87516500  0.31547100  0.38057600  1
  H  H13  1  0.68452900  0.12483500  0.11942400  1
