# generated using pymatgen
data_CaCoAsHO5
_symmetry_space_group_name_H-M   'P 1'
_cell_length_a   6.00421800
_cell_length_b   7.58981000
_cell_length_c   9.08435300
_cell_angle_alpha   90.00000000
_cell_angle_beta   90.00000000
_cell_angle_gamma   90.00000000
_symmetry_Int_Tables_number   1
_chemical_formula_structural   CaCoAsHO5
_chemical_formula_sum   'Ca4 Co4 As4 H4 O20'
_cell_volume   413.98190429
_cell_formula_units_Z   4
loop_
 _symmetry_equiv_pos_site_id
 _symmetry_equiv_pos_as_xyz
  1  'x, y, z'
loop_
 _atom_site_type_symbol
 _atom_site_label
 _atom_site_symmetry_multiplicity
 _atom_site_fract_x
 _atom_site_fract_y
 _atom_site_fract_z
 _atom_site_occupancy
  Ca  Ca0  1  0.52317100  0.62769300  0.32739200  1
  Ca  Ca1  1  0.02317100  0.87230700  0.67260800  1
  Ca  Ca2  1  0.47682900  0.12769300  0.17260800  1
  Ca  Ca3  1  0.97682900  0.37230700  0.82739200  1
  Co  Co4  1  0.24427500  0.74146000  0.00552600  1
  Co  Co5  1  0.74427500  0.75854000  0.99447400  1
  Co  Co6  1  0.75572500  0.24146000  0.49447400  1
  Co  Co7  1  0.25572500  0.25854000  0.50552600  1
  As  As8  1  0.48287200  0.62326000  0.67745500  1
  As  As9  1  0.98287200  0.87674000  0.32254500  1
  As  As10  1  0.51712800  0.12326000  0.82254500  1
  As  As11  1  0.01712800  0.37674000  0.17745500  1
  H  H12  1  0.51663700  0.48855100  0.02090600  1
  H  H13  1  0.01663700  0.01144900  0.97909400  1
  H  H14  1  0.48336300  0.98855100  0.47909400  1
  H  H15  1  0.98336300  0.51144900  0.52090600  1
  O  O16  1  0.50472000  0.60373600  0.07196300  1
  O  O17  1  0.00472000  0.89626400  0.92803700  1
  O  O18  1  0.49528000  0.10373600  0.42803700  1
  O  O19  1  0.99528000  0.39626400  0.57196300  1
  O  O20  1  0.25444800  0.60717600  0.79311500  1
  O  O21  1  0.75444800  0.89282400  0.20688500  1
  O  O22  1  0.74555200  0.10717600  0.70688500  1
  O  O23  1  0.24555200  0.39282400  0.29311500  1
  O  O24  1  0.50949300  0.44604000  0.55608600  1
  O  O25  1  0.00949300  0.05396000  0.44391400  1
  O  O26  1  0.49050700  0.94604000  0.94391400  1
  O  O27  1  0.99050700  0.55396000  0.05608600  1
  O  O28  1  0.90973700  0.70798700  0.43973700  1
  O  O29  1  0.40973700  0.79201300  0.56026300  1
  O  O30  1  0.09026300  0.20798700  0.06026300  1
  O  O31  1  0.59026300  0.29201300  0.93973700  1
  O  O32  1  0.76705600  0.34972000  0.26998200  1
  O  O33  1  0.26705600  0.15028000  0.73001800  1
  O  O34  1  0.23294400  0.84972000  0.23001800  1
  O  O35  1  0.73294400  0.65028000  0.76998200  1
