# generated using pymatgen
data_FeH18(NO6)3
_symmetry_space_group_name_H-M   'P 1'
_cell_length_a   14.20581000
_cell_length_b   9.67885100
_cell_length_c   10.90071437
_cell_angle_alpha   90.00000000
_cell_angle_beta   96.08062534
_cell_angle_gamma   90.00000000
_symmetry_Int_Tables_number   1
_chemical_formula_structural   FeH18(NO6)3
_chemical_formula_sum   'Fe4 H72 N12 O72'
_cell_volume   1490.37119465
_cell_formula_units_Z   4
loop_
 _symmetry_equiv_pos_site_id
 _symmetry_equiv_pos_as_xyz
  1  'x, y, z'
loop_
 _atom_site_type_symbol
 _atom_site_label
 _atom_site_symmetry_multiplicity
 _atom_site_fract_x
 _atom_site_fract_y
 _atom_site_fract_z
 _atom_site_occupancy
  Fe  Fe0  1  0.50000000  0.50000000  0.00000000  1
  Fe  Fe1  1  0.50000000  0.00000000  0.50000000  1
  Fe  Fe2  1  0.00000000  0.50000000  0.50000000  1
  Fe  Fe3  1  0.00000000  0.00000000  0.00000000  1
  H  H4  1  0.17590200  0.97451900  0.60908100  1
  H  H5  1  0.82409800  0.47451900  0.89091900  1
  H  H6  1  0.82409800  0.02548100  0.39091900  1
  H  H7  1  0.17590200  0.52548100  0.10908100  1
  H  H8  1  0.18178100  0.08571900  0.50590700  1
  H  H9  1  0.81821900  0.58571900  0.99409300  1
  H  H10  1  0.81821900  0.91428100  0.49409300  1
  H  H11  1  0.18178100  0.41428100  0.00590700  1
  H  H12  1  0.51030600  0.42918000  0.62198900  1
  H  H13  1  0.48969400  0.92918000  0.87801100  1
  H  H14  1  0.48969400  0.57082000  0.37801100  1
  H  H15  1  0.51030600  0.07082000  0.12198900  1
  H  H16  1  0.39913700  0.43165400  0.57850200  1
  H  H17  1  0.60086300  0.93165400  0.92149800  1
  H  H18  1  0.60086300  0.56834600  0.42149800  1
  H  H19  1  0.39913700  0.06834600  0.07850200  1
  H  H20  1  0.02910700  0.11019200  0.61029700  1
  H  H21  1  0.97089300  0.61019200  0.88970300  1
  H  H22  1  0.97089300  0.88980800  0.38970300  1
  H  H23  1  0.02910700  0.38980800  0.11029700  1
  H  H24  1  0.92213400  0.07361900  0.56744200  1
  H  H25  1  0.07786600  0.57361900  0.93255800  1
  H  H26  1  0.07786600  0.92638100  0.43255800  1
  H  H27  1  0.92213400  0.42638100  0.06744200  1
  H  H28  1  0.40766500  0.42484800  0.18717000  1
  H  H29  1  0.59233500  0.92484800  0.31283000  1
  H  H30  1  0.59233500  0.57515200  0.81283000  1
  H  H31  1  0.40766500  0.07515200  0.68717000  1
  H  H32  1  0.44150100  0.29170900  0.11336800  1
  H  H33  1  0.55849900  0.79170900  0.38663200  1
  H  H34  1  0.55849900  0.70829100  0.88663200  1
  H  H35  1  0.44150100  0.20829100  0.61336800  1
  H  H36  1  0.64421800  0.35144600  0.07653900  1
  H  H37  1  0.35578200  0.85144600  0.42346100  1
  H  H38  1  0.35578200  0.64855400  0.92346100  1
  H  H39  1  0.64421800  0.14855400  0.57653900  1
  H  H40  1  0.61266600  0.31590100  0.92863600  1
  H  H41  1  0.38733400  0.81590100  0.57136400  1
  H  H42  1  0.38733400  0.68409900  0.07136400  1
  H  H43  1  0.61266600  0.18409900  0.42863600  1
  H  H44  1  0.36250900  0.37953700  0.87682400  1
  H  H45  1  0.63749100  0.87953700  0.62317600  1
  H  H46  1  0.63749100  0.62046300  0.12317600  1
  H  H47  1  0.36250900  0.12046300  0.37682400  1
  H  H48  1  0.43836600  0.40760100  0.77431700  1
  H  H49  1  0.56163400  0.90760100  0.72568300  1
  H  H50  1  0.56163400  0.59239900  0.22568300  1
  H  H51  1  0.43836600  0.09239900  0.27431700  1
  H  H52  1  0.86449000  0.42618400  0.62775600  1
  H  H53  1  0.13551000  0.92618400  0.87224400  1
  H  H54  1  0.13551000  0.57381600  0.37224400  1
  H  H55  1  0.86449000  0.07381600  0.12775600  1
  H  H56  1  0.94070100  0.29727900  0.62008000  1
  H  H57  1  0.05929900  0.79727900  0.87992000  1
  H  H58  1  0.05929900  0.70272100  0.37992000  1
  H  H59  1  0.94070100  0.20272100  0.12008000  1
  H  H60  1  0.14286700  0.34784900  0.57296400  1
  H  H61  1  0.85713300  0.84784900  0.92703600  1
  H  H62  1  0.85713300  0.65215100  0.42703600  1
  H  H63  1  0.14286700  0.15215100  0.07296400  1
  H  H64  1  0.10422900  0.30536000  0.42739200  1
  H  H65  1  0.89577100  0.80536000  0.07260800  1
  H  H66  1  0.89577100  0.69464000  0.57260800  1
  H  H67  1  0.10422900  0.19464000  0.92739200  1
  H  H68  1  0.87055700  0.35711200  0.36676100  1
  H  H69  1  0.12944300  0.85711200  0.13323900  1
  H  H70  1  0.12944300  0.64288800  0.63323900  1
  H  H71  1  0.87055700  0.14288800  0.86676100  1
  H  H72  1  0.94915600  0.41027800  0.27586900  1
  H  H73  1  0.05084400  0.91027800  0.22413100  1
  H  H74  1  0.05084400  0.58972200  0.72413100  1
  H  H75  1  0.94915600  0.08972200  0.77586900  1
  N  N76  1  0.68947200  0.50719400  0.62245100  1
  N  N77  1  0.31052800  0.00719400  0.87754900  1
  N  N78  1  0.31052800  0.49280600  0.37754900  1
  N  N79  1  0.68947200  0.99280600  0.12245100  1
  N  N80  1  0.71488600  0.21537900  0.78347800  1
  N  N81  1  0.28511400  0.71537900  0.71652200  1
  N  N82  1  0.28511400  0.78462100  0.21652200  1
  N  N83  1  0.71488600  0.28462100  0.28347800  1
  N  N84  1  0.19950100  0.31285800  0.79241700  1
  N  N85  1  0.80049900  0.81285800  0.70758300  1
  N  N86  1  0.80049900  0.68714200  0.20758300  1
  N  N87  1  0.19950100  0.18714200  0.29241700  1
  O  O88  1  0.13682700  0.02729700  0.54609200  1
  O  O89  1  0.86317300  0.52729700  0.95390800  1
  O  O90  1  0.86317300  0.97270300  0.45390800  1
  O  O91  1  0.13682700  0.47270300  0.04609200  1
  O  O92  1  0.44970300  0.38294800  0.63332700  1
  O  O93  1  0.55029700  0.88294800  0.86667300  1
  O  O94  1  0.55029700  0.61705200  0.36667300  1
  O  O95  1  0.44970300  0.11705200  0.13332700  1
  O  O96  1  0.96371300  0.12791200  0.63000200  1
  O  O97  1  0.03628700  0.62791200  0.86999800  1
  O  O98  1  0.03628700  0.87208800  0.36999800  1
  O  O99  1  0.96371300  0.37208800  0.13000200  1
  O  O100  1  0.69268000  0.49344300  0.50822600  1
  O  O101  1  0.30732000  0.99344300  0.99177400  1
  O  O102  1  0.30732000  0.50655700  0.49177400  1
  O  O103  1  0.69268000  0.00655700  0.00822600  1
  O  O104  1  0.61080400  0.53760300  0.66342100  1
  O  O105  1  0.38919600  0.03760300  0.83657900  1
  O  O106  1  0.38919600  0.46239700  0.33657900  1
  O  O107  1  0.61080400  0.96239700  0.16342100  1
  O  O108  1  0.76342700  0.49159000  0.69648600  1
  O  O109  1  0.23657300  0.99159000  0.80351400  1
  O  O110  1  0.23657300  0.50841000  0.30351400  1
  O  O111  1  0.76342700  0.00841000  0.19648600  1
  O  O112  1  0.73595500  0.15772100  0.68571000  1
  O  O113  1  0.26404500  0.65772100  0.81429000  1
  O  O114  1  0.26404500  0.84227900  0.31429000  1
  O  O115  1  0.73595500  0.34227900  0.18571000  1
  O  O116  1  0.77914400  0.24128300  0.87081700  1
  O  O117  1  0.22085600  0.74128300  0.62918300  1
  O  O118  1  0.22085600  0.75871700  0.12918300  1
  O  O119  1  0.77914400  0.25871700  0.37081700  1
  O  O120  1  0.62992100  0.24840700  0.79426000  1
  O  O121  1  0.37007900  0.74840700  0.70574000  1
  O  O122  1  0.37007900  0.75159300  0.20574000  1
  O  O123  1  0.62992100  0.25159300  0.29426000  1
  O  O124  1  0.23115300  0.33881700  0.69153000  1
  O  O125  1  0.76884700  0.83881700  0.80847000  1
  O  O126  1  0.76884700  0.66118300  0.30847000  1
  O  O127  1  0.23115300  0.16118300  0.19153000  1
  O  O128  1  0.25294200  0.32779200  0.89421300  1
  O  O129  1  0.74705800  0.82779200  0.60578700  1
  O  O130  1  0.74705800  0.67220800  0.10578700  1
  O  O131  1  0.25294200  0.17220800  0.39421300  1
  O  O132  1  0.11527800  0.27212600  0.79616100  1
  O  O133  1  0.88472200  0.77212600  0.70383900  1
  O  O134  1  0.88472200  0.72787400  0.20383900  1
  O  O135  1  0.11527800  0.22787400  0.29616100  1
  O  O136  1  0.42240700  0.39166500  0.10464800  1
  O  O137  1  0.57759300  0.89166500  0.39535200  1
  O  O138  1  0.57759300  0.60833500  0.89535200  1
  O  O139  1  0.42240700  0.10833500  0.60464800  1
  O  O140  1  0.59068400  0.35122500  0.00799500  1
  O  O141  1  0.40931600  0.85122500  0.49200500  1
  O  O142  1  0.40931600  0.64877500  0.99200500  1
  O  O143  1  0.59068400  0.14877500  0.50799500  1
  O  O144  1  0.42907700  0.40823500  0.86574500  1
  O  O145  1  0.57092300  0.90823500  0.63425500  1
  O  O146  1  0.57092300  0.59176500  0.13425500  1
  O  O147  1  0.42907700  0.09176500  0.36574500  1
  O  O148  1  0.93137100  0.40097200  0.61898600  1
  O  O149  1  0.06862900  0.90097200  0.88101400  1
  O  O150  1  0.06862900  0.59902800  0.38101400  1
  O  O151  1  0.93137100  0.09902800  0.11898600  1
  O  O152  1  0.08822200  0.34899800  0.50653200  1
  O  O153  1  0.91177800  0.84899800  0.99346800  1
  O  O154  1  0.91177800  0.65100200  0.49346800  1
  O  O155  1  0.08822200  0.15100200  0.00653200  1
  O  O156  1  0.92783300  0.41791900  0.36112100  1
  O  O157  1  0.07216700  0.91791900  0.13887900  1
  O  O158  1  0.07216700  0.58208100  0.63887900  1
  O  O159  1  0.92783300  0.08208100  0.86112100  1
