# generated using pymatgen
data_Co2PH2CO7
_symmetry_space_group_name_H-M   'P 1'
_cell_length_a   4.83200500
_cell_length_b   7.97836400
_cell_length_c   15.54520536
_cell_angle_alpha   65.35415827
_cell_angle_beta   90.00000000
_cell_angle_gamma   90.00000000
_symmetry_Int_Tables_number   1
_chemical_formula_structural   Co2PH2CO7
_chemical_formula_sum   'Co8 P4 H8 C4 O28'
_cell_volume   544.69715330
_cell_formula_units_Z   4
loop_
 _symmetry_equiv_pos_site_id
 _symmetry_equiv_pos_as_xyz
  1  'x, y, z'
loop_
 _atom_site_type_symbol
 _atom_site_label
 _atom_site_symmetry_multiplicity
 _atom_site_fract_x
 _atom_site_fract_y
 _atom_site_fract_z
 _atom_site_occupancy
  Co  Co0  1  0.46963900  0.05903700  0.13955500  1
  Co  Co1  1  0.03036100  0.05903700  0.63955500  1
  Co  Co2  1  0.53036100  0.94096300  0.86044500  1
  Co  Co3  1  0.96963900  0.94096300  0.36044500  1
  Co  Co4  1  0.53904600  0.39079400  0.69532200  1
  Co  Co5  1  0.03904600  0.60920600  0.80467800  1
  Co  Co6  1  0.46095400  0.60920600  0.30467800  1
  Co  Co7  1  0.96095400  0.39079400  0.19532200  1
  P  P8  1  0.97977600  0.19548300  0.80703400  1
  P  P9  1  0.47977600  0.80451700  0.69296600  1
  P  P10  1  0.02022400  0.80451700  0.19296600  1
  P  P11  1  0.52022400  0.19548300  0.30703400  1
  H  H12  1  0.25424100  0.86850400  0.02169400  1
  H  H13  1  0.75424100  0.13149600  0.47830600  1
  H  H14  1  0.74575900  0.13149600  0.97830600  1
  H  H15  1  0.24575900  0.86850400  0.52169400  1
  H  H16  1  0.49199300  0.71805500  0.03143800  1
  H  H17  1  0.99199300  0.28194500  0.46856200  1
  H  H18  1  0.00800700  0.71805500  0.53143800  1
  H  H19  1  0.50800700  0.28194500  0.96856200  1
  C  C20  1  0.38036600  0.43155100  0.50788400  1
  C  C21  1  0.88036600  0.56844900  0.99211600  1
  C  C22  1  0.61963400  0.56844900  0.49211600  1
  C  C23  1  0.11963400  0.43155100  0.00788400  1
  O  O24  1  0.86466700  0.04856900  0.90100900  1
  O  O25  1  0.69984400  0.81065100  0.19607700  1
  O  O26  1  0.80015600  0.81065100  0.69607700  1
  O  O27  1  0.30015600  0.18934900  0.80392300  1
  O  O28  1  0.63533300  0.04856900  0.40100900  1
  O  O29  1  0.13533300  0.95143100  0.09899100  1
  O  O30  1  0.36466700  0.95143100  0.59899100  1
  O  O31  1  0.19984400  0.18934900  0.30392300  1
  O  O32  1  0.66120100  0.15340800  0.22645400  1
  O  O33  1  0.16120100  0.84659200  0.27354600  1
  O  O34  1  0.33879900  0.84659200  0.77354600  1
  O  O35  1  0.83879900  0.15340800  0.72645400  1
  O  O36  1  0.62930600  0.39241300  0.28640300  1
  O  O37  1  0.12930600  0.60758700  0.21359700  1
  O  O38  1  0.26777600  0.42979600  0.43475000  1
  O  O39  1  0.87069400  0.39241300  0.78640300  1
  O  O40  1  0.14825000  0.80276300  0.48788100  1
  O  O41  1  0.64825000  0.19723700  0.01211900  1
  O  O42  1  0.85175000  0.19723700  0.51211900  1
  O  O43  1  0.35175000  0.80276300  0.98788100  1
  O  O44  1  0.18707100  0.33179000  0.09337100  1
  O  O45  1  0.68707100  0.66821000  0.40662900  1
  O  O46  1  0.81292900  0.66821000  0.90662900  1
  O  O47  1  0.31292900  0.33179000  0.59337100  1
  O  O48  1  0.23222400  0.42979600  0.93475000  1
  O  O49  1  0.73222400  0.57020400  0.56525000  1
  O  O50  1  0.76777600  0.57020400  0.06525000  1
  O  O51  1  0.37069400  0.60758700  0.71359700  1
