# generated using pymatgen
data_Cr3(P2O7)2
_symmetry_space_group_name_H-M   'P 1'
_cell_length_a   8.01831100
_cell_length_b   7.35900400
_cell_length_c   9.41767442
_cell_angle_alpha   69.03601128
_cell_angle_beta   90.00000000
_cell_angle_gamma   90.00000000
_symmetry_Int_Tables_number   1
_chemical_formula_structural   Cr3(P2O7)2
_chemical_formula_sum   'Cr6 P8 O28'
_cell_volume   518.92193313
_cell_formula_units_Z   2
loop_
 _symmetry_equiv_pos_site_id
 _symmetry_equiv_pos_as_xyz
  1  'x, y, z'
loop_
 _atom_site_type_symbol
 _atom_site_label
 _atom_site_symmetry_multiplicity
 _atom_site_fract_x
 _atom_site_fract_y
 _atom_site_fract_z
 _atom_site_occupancy
  Cr  Cr0  1  0.00000000  0.00000000  0.50000000  1
  Cr  Cr1  1  0.36760900  0.80466700  0.52885900  1
  Cr  Cr2  1  0.63239100  0.19533300  0.47114100  1
  Cr  Cr3  1  0.50000000  0.00000000  0.00000000  1
  Cr  Cr4  1  0.13239100  0.80466700  0.02885900  1
  Cr  Cr5  1  0.86760900  0.19533300  0.97114100  1
  P  P6  1  0.79197500  0.89035100  0.80417500  1
  P  P7  1  0.70802500  0.89035100  0.30417500  1
  P  P8  1  0.29197500  0.10964900  0.69582500  1
  P  P9  1  0.20802500  0.10964900  0.19582500  1
  P  P10  1  0.03836700  0.60177000  0.79271600  1
  P  P11  1  0.46163300  0.60177000  0.29271600  1
  P  P12  1  0.53836700  0.39823000  0.70728400  1
  P  P13  1  0.96163300  0.39823000  0.20728400  1
  O  O14  1  0.29430600  0.99619800  0.87170700  1
  O  O15  1  0.20569400  0.99619800  0.37170700  1
  O  O16  1  0.79430600  0.00380200  0.62829300  1
  O  O17  1  0.70569400  0.00380200  0.12829300  1
  O  O18  1  0.92056900  0.97101900  0.88955900  1
  O  O19  1  0.57943100  0.97101900  0.38955900  1
  O  O20  1  0.42056900  0.02898100  0.61044100  1
  O  O21  1  0.07943100  0.02898100  0.11044100  1
  O  O22  1  0.62128600  0.87416700  0.87414400  1
  O  O23  1  0.87871400  0.87416700  0.37414400  1
  O  O24  1  0.12128600  0.12583300  0.62585600  1
  O  O25  1  0.37871400  0.12583300  0.12585600  1
  O  O26  1  0.85270800  0.68068900  0.81454200  1
  O  O27  1  0.64729200  0.68068900  0.31454200  1
  O  O28  1  0.35270800  0.31931100  0.68545800  1
  O  O29  1  0.14729200  0.31931100  0.18545800  1
  O  O30  1  0.15256700  0.62835100  0.91203600  1
  O  O31  1  0.34743300  0.62835100  0.41203600  1
  O  O32  1  0.65256700  0.37164900  0.58796400  1
  O  O33  1  0.84743300  0.37164900  0.08796400  1
  O  O34  1  0.09843000  0.73645400  0.63100600  1
  O  O35  1  0.40157000  0.73645400  0.13100600  1
  O  O36  1  0.59843000  0.26354600  0.86899400  1
  O  O37  1  0.90157000  0.26354600  0.36899400  1
  O  O38  1  0.50746700  0.60751200  0.69189300  1
  O  O39  1  0.00746700  0.39248800  0.80810700  1
  O  O40  1  0.99253300  0.60751200  0.19189300  1
  O  O41  1  0.49253300  0.39248800  0.30810700  1
