# generated using pymatgen
data_Zr6Ni(SnH5)2
_symmetry_space_group_name_H-M   'P 1'
_cell_length_a   8.16474648
_cell_length_b   8.16474648
_cell_length_c   7.36734600
_cell_angle_alpha   90.00000000
_cell_angle_beta   90.00000000
_cell_angle_gamma   120.00000385
_symmetry_Int_Tables_number   1
_chemical_formula_structural   Zr6Ni(SnH5)2
_chemical_formula_sum   'Zr12 Ni2 Sn4 H20'
_cell_volume   425.33105101
_cell_formula_units_Z   2
loop_
 _symmetry_equiv_pos_site_id
 _symmetry_equiv_pos_as_xyz
  1  'x, y, z'
loop_
 _atom_site_type_symbol
 _atom_site_label
 _atom_site_symmetry_multiplicity
 _atom_site_fract_x
 _atom_site_fract_y
 _atom_site_fract_z
 _atom_site_occupancy
  Zr  Zr0  1  0.95252800  0.36815200  0.25000000  1
  Zr  Zr1  1  0.36815200  0.95252800  0.75000000  1
  Zr  Zr2  1  0.41562400  0.04747200  0.25000000  1
  Zr  Zr3  1  0.63184800  0.58437600  0.25000000  1
  Zr  Zr4  1  0.74144200  0.00000000  0.50000000  1
  Zr  Zr5  1  0.25855800  0.25855800  0.00000000  1
  Zr  Zr6  1  0.00000000  0.74144200  0.00000000  1
  Zr  Zr7  1  0.00000000  0.74144200  0.50000000  1
  Zr  Zr8  1  0.25855800  0.25855800  0.50000000  1
  Zr  Zr9  1  0.74144200  0.00000000  0.00000000  1
  Zr  Zr10  1  0.04747200  0.41562400  0.75000000  1
  Zr  Zr11  1  0.58437600  0.63184800  0.75000000  1
  Ni  Ni12  1  0.00000000  0.00000000  0.75000000  1
  Ni  Ni13  1  0.00000000  0.00000000  0.25000000  1
  Sn  Sn14  1  0.33333300  0.66666700  0.04043600  1
  Sn  Sn15  1  0.33333300  0.66666700  0.45956400  1
  Sn  Sn16  1  0.66666700  0.33333300  0.95956400  1
  Sn  Sn17  1  0.66666700  0.33333300  0.54043600  1
  H  H18  1  0.00000000  0.00000000  0.50000000  1
  H  H19  1  0.00000000  0.00000000  0.00000000  1
  H  H20  1  0.27327900  0.00000000  0.50000000  1
  H  H21  1  0.72672100  0.72672100  0.00000000  1
  H  H22  1  0.00000000  0.27327900  0.00000000  1
  H  H23  1  0.00000000  0.27327900  0.50000000  1
  H  H24  1  0.72672100  0.72672100  0.50000000  1
  H  H25  1  0.27327900  0.00000000  0.00000000  1
  H  H26  1  0.29711500  0.40148000  0.75000000  1
  H  H27  1  0.59852000  0.89563600  0.75000000  1
  H  H28  1  0.10436400  0.70288500  0.75000000  1
  H  H29  1  0.70288500  0.10436400  0.25000000  1
  H  H30  1  0.89563600  0.59852000  0.25000000  1
  H  H31  1  0.40148000  0.29711500  0.25000000  1
  H  H32  1  0.23925800  0.12155800  0.75000000  1
  H  H33  1  0.87844200  0.11770000  0.75000000  1
  H  H34  1  0.88230000  0.76074200  0.75000000  1
  H  H35  1  0.76074200  0.88230000  0.25000000  1
  H  H36  1  0.12155800  0.23925800  0.25000000  1
  H  H37  1  0.11770000  0.87844200  0.25000000  1
