# generated using pymatgen
data_U2Si(H2O5)2
_symmetry_space_group_name_H-M   'P 1'
_cell_length_a   11.08199992
_cell_length_b   10.30538846
_cell_length_c   7.03788492
_cell_angle_alpha   76.88177476
_cell_angle_beta   64.91150620
_cell_angle_gamma   38.20671904
_symmetry_Int_Tables_number   1
_chemical_formula_structural   U2Si(H2O5)2
_chemical_formula_sum   'U4 Si2 H8 O20'
_cell_volume   442.05265163
_cell_formula_units_Z   2
loop_
 _symmetry_equiv_pos_site_id
 _symmetry_equiv_pos_as_xyz
  1  'x, y, z'
loop_
 _atom_site_type_symbol
 _atom_site_label
 _atom_site_symmetry_multiplicity
 _atom_site_fract_x
 _atom_site_fract_y
 _atom_site_fract_z
 _atom_site_occupancy
  U  U0  1  0.08136800  0.08136800  0.41863200  1
  U  U1  1  0.41863200  0.41863200  0.08136800  1
  U  U2  1  0.16863200  0.16863200  0.83136800  1
  U  U3  1  0.83136800  0.83136800  0.16863200  1
  Si  Si4  1  0.00000000  0.00000000  0.00000000  1
  Si  Si5  1  0.25000000  0.25000000  0.25000000  1
  H  H6  1  0.63199300  0.51513500  0.80434100  1
  H  H7  1  0.04853100  0.80434100  0.51513500  1
  H  H8  1  0.80434100  0.04853100  0.63199300  1
  H  H9  1  0.51513500  0.63199300  0.04853100  1
  H  H10  1  0.61800700  0.73486500  0.44565900  1
  H  H11  1  0.20146900  0.44565900  0.73486500  1
  H  H12  1  0.44565900  0.20146900  0.61800700  1
  H  H13  1  0.73486500  0.61800700  0.20146900  1
  O  O14  1  0.89488500  0.44404300  0.93929700  1
  O  O15  1  0.93929700  0.72177400  0.89488500  1
  O  O16  1  0.52822600  0.31070300  0.80595700  1
  O  O17  1  0.35511500  0.80595700  0.31070300  1
  O  O18  1  0.80595700  0.35511500  0.52822600  1
  O  O19  1  0.44404300  0.89488500  0.72177400  1
  O  O20  1  0.12399100  0.49022100  0.21439500  1
  O  O21  1  0.17139300  0.21439500  0.49022100  1
  O  O22  1  0.21439500  0.17139300  0.12399100  1
  O  O23  1  0.49022100  0.12399100  0.17139300  1
  O  O24  1  0.12600900  0.75977900  0.03560500  1
  O  O25  1  0.07860700  0.03560500  0.75977900  1
  O  O26  1  0.03560500  0.07860700  0.12600900  1
  O  O27  1  0.75977900  0.12600900  0.07860700  1
  O  O28  1  0.70548200  0.70548200  0.29451800  1
  O  O29  1  0.29451800  0.29451800  0.70548200  1
  O  O30  1  0.54451800  0.54451800  0.95548200  1
  O  O31  1  0.95548200  0.95548200  0.54451800  1
  O  O32  1  0.31070300  0.52822600  0.35511500  1
  O  O33  1  0.72177400  0.93929700  0.44404300  1
