# generated using pymatgen
data_CsScCl3
_symmetry_space_group_name_H-M   'P 1'
_cell_length_a   7.64366159
_cell_length_b   7.64366159
_cell_length_c   6.00308900
_cell_angle_alpha   90.00000000
_cell_angle_beta   90.00000000
_cell_angle_gamma   119.99999648
_symmetry_Int_Tables_number   1
_chemical_formula_structural   CsScCl3
_chemical_formula_sum   'Cs2 Sc2 Cl6'
_cell_volume   303.74443645
_cell_formula_units_Z   2
loop_
 _symmetry_equiv_pos_site_id
 _symmetry_equiv_pos_as_xyz
  1  'x, y, z'
loop_
 _atom_site_type_symbol
 _atom_site_label
 _atom_site_symmetry_multiplicity
 _atom_site_fract_x
 _atom_site_fract_y
 _atom_site_fract_z
 _atom_site_occupancy
  Cs  Cs0  1  0.66666700  0.33333300  0.25000000  1
  Cs  Cs1  1  0.33333300  0.66666700  0.75000000  1
  Sc  Sc2  1  0.00000000  0.00000000  0.00000000  1
  Sc  Sc3  1  0.00000000  0.00000000  0.50000000  1
  Cl  Cl4  1  0.16034100  0.32068200  0.25000000  1
  Cl  Cl5  1  0.67931800  0.83965900  0.25000000  1
  Cl  Cl6  1  0.16034100  0.83965900  0.25000000  1
  Cl  Cl7  1  0.83965900  0.16034100  0.75000000  1
  Cl  Cl8  1  0.83965900  0.67931800  0.75000000  1
  Cl  Cl9  1  0.32068200  0.16034100  0.75000000  1
