# generated using pymatgen
data_Ce2O3
_symmetry_space_group_name_H-M   'P 1'
_cell_length_a   3.83113591
_cell_length_b   3.83113591
_cell_length_c   6.07096600
_cell_angle_alpha   90.00000000
_cell_angle_beta   90.00000000
_cell_angle_gamma   119.99999848
_symmetry_Int_Tables_number   1
_chemical_formula_structural   Ce2O3
_chemical_formula_sum   'Ce2 O3'
_cell_volume   77.16912169
_cell_formula_units_Z   1
loop_
 _symmetry_equiv_pos_site_id
 _symmetry_equiv_pos_as_xyz
  1  'x, y, z'
loop_
 _atom_site_type_symbol
 _atom_site_label
 _atom_site_symmetry_multiplicity
 _atom_site_fract_x
 _atom_site_fract_y
 _atom_site_fract_z
 _atom_site_occupancy
  Ce  Ce0  1  0.66666700  0.33333300  0.75412000  1
  Ce  Ce1  1  0.33333300  0.66666700  0.24588000  1
  O  O2  1  0.66666700  0.33333300  0.35741800  1
  O  O3  1  0.33333300  0.66666700  0.64258200  1
  O  O4  1  0.00000000  0.00000000  0.00000000  1
