# generated using pymatgen
data_VP2O7
_symmetry_space_group_name_H-M   'P 1'
_cell_length_a   8.12115700
_cell_length_b   6.85711200
_cell_length_c   9.37914167
_cell_angle_alpha   72.55189028
_cell_angle_beta   90.00000000
_cell_angle_gamma   90.00000000
_symmetry_Int_Tables_number   1
_chemical_formula_structural   VP2O7
_chemical_formula_sum   'V4 P8 O28'
_cell_volume   498.27094641
_cell_formula_units_Z   4
loop_
 _symmetry_equiv_pos_site_id
 _symmetry_equiv_pos_as_xyz
  1  'x, y, z'
loop_
 _atom_site_type_symbol
 _atom_site_label
 _atom_site_symmetry_multiplicity
 _atom_site_fract_x
 _atom_site_fract_y
 _atom_site_fract_z
 _atom_site_occupancy
  V  V0  1  0.22998000  0.72002700  0.99504500  1
  V  V1  1  0.27002000  0.72002700  0.49504500  1
  V  V2  1  0.72998000  0.27997300  0.50495500  1
  V  V3  1  0.77002000  0.27997300  0.00495500  1
  P  P4  1  0.46962400  0.93051700  0.70675700  1
  P  P5  1  0.03037600  0.93051700  0.20675700  1
  P  P6  1  0.58464700  0.53063000  0.70570200  1
  P  P7  1  0.08464700  0.46937000  0.79429800  1
  P  P8  1  0.91535300  0.53063000  0.20570200  1
  P  P9  1  0.41535300  0.46937000  0.29429800  1
  P  P10  1  0.96962400  0.06948300  0.79324300  1
  P  P11  1  0.53037600  0.06948300  0.29324300  1
  O  O12  1  0.39845500  0.88202900  0.86390400  1
  O  O13  1  0.05326600  0.86391800  0.84482900  1
  O  O14  1  0.33256700  0.90641200  0.59618300  1
  O  O15  1  0.61209200  0.76397600  0.70589700  1
  O  O16  1  0.10154500  0.88202900  0.36390400  1
  O  O17  1  0.44673400  0.86391800  0.34482900  1
  O  O18  1  0.16743300  0.90641200  0.09618300  1
  O  O19  1  0.22409800  0.52188500  0.88962400  1
  O  O20  1  0.09477600  0.60359100  0.63084600  1
  O  O21  1  0.91626700  0.47504700  0.86277400  1
  O  O22  1  0.88790800  0.76397600  0.20589700  1
  O  O23  1  0.41626700  0.52495300  0.63722600  1
  O  O24  1  0.59477600  0.39640900  0.86915400  1
  O  O25  1  0.72409800  0.47811500  0.61037600  1
  O  O26  1  0.27590200  0.52188500  0.38962400  1
  O  O27  1  0.40522400  0.60359100  0.13084600  1
  O  O28  1  0.58373300  0.47504700  0.36277400  1
  O  O29  1  0.11209200  0.23602400  0.79410300  1
  O  O30  1  0.08373300  0.52495300  0.13722600  1
  O  O31  1  0.90522400  0.39640900  0.36915400  1
  O  O32  1  0.77590200  0.47811500  0.11037600  1
  O  O33  1  0.83256700  0.09358800  0.90381700  1
  O  O34  1  0.55326600  0.13608200  0.65517100  1
  O  O35  1  0.89845500  0.11797100  0.63609600  1
  O  O36  1  0.38790800  0.23602400  0.29410300  1
  O  O37  1  0.66743300  0.09358800  0.40381700  1
  O  O38  1  0.94673400  0.13608200  0.15517100  1
  O  O39  1  0.60154500  0.11797100  0.13609600  1
