# generated using pymatgen
data_Li2Ni5(PO4)4
_symmetry_space_group_name_H-M   'P 1'
_cell_length_a   7.83783785
_cell_length_b   7.88704788
_cell_length_c   5.19648363
_cell_angle_alpha   93.85155454
_cell_angle_beta   98.31630201
_cell_angle_gamma   110.33125730
_symmetry_Int_Tables_number   1
_chemical_formula_structural   Li2Ni5(PO4)4
_chemical_formula_sum   'Li2 Ni5 P4 O16'
_cell_volume   295.65613011
_cell_formula_units_Z   1
loop_
 _symmetry_equiv_pos_site_id
 _symmetry_equiv_pos_as_xyz
  1  'x, y, z'
loop_
 _atom_site_type_symbol
 _atom_site_label
 _atom_site_symmetry_multiplicity
 _atom_site_fract_x
 _atom_site_fract_y
 _atom_site_fract_z
 _atom_site_occupancy
  Li  Li0  1  0.04153000  0.28253300  0.62863300  1
  Li  Li1  1  0.95847000  0.71746700  0.37136700  1
  Ni  Ni2  1  0.25493900  0.77021700  0.10194100  1
  Ni  Ni3  1  0.00000000  0.00000000  0.00000000  1
  Ni  Ni4  1  0.40583800  0.66999500  0.63456900  1
  Ni  Ni5  1  0.59416200  0.33000500  0.36543100  1
  Ni  Ni6  1  0.74506100  0.22978300  0.89805900  1
  P  P7  1  0.79444200  0.57897500  0.85241000  1
  P  P8  1  0.69669300  0.97139500  0.35940200  1
  P  P9  1  0.30330700  0.02860500  0.64059800  1
  P  P10  1  0.20555800  0.42102500  0.14759000  1
  O  O11  1  0.79377900  0.05501600  0.64525200  1
  O  O12  1  0.65890100  0.12382700  0.20873900  1
  O  O13  1  0.98269800  0.74702300  0.90174400  1
  O  O14  1  0.76760700  0.49134400  0.11084200  1
  O  O15  1  0.82497900  0.43336200  0.65452500  1
  O  O16  1  0.20622100  0.94498400  0.35474800  1
  O  O17  1  0.34109900  0.87617300  0.79126100  1
  O  O18  1  0.01730200  0.25297700  0.09825600  1
  O  O19  1  0.23239300  0.50865600  0.88915800  1
  O  O20  1  0.17502000  0.56663800  0.34547500  1
  O  O21  1  0.17406900  0.10393700  0.76932500  1
  O  O22  1  0.50700900  0.81523700  0.34525500  1
  O  O23  1  0.36280100  0.36929700  0.27552900  1
  O  O24  1  0.63719900  0.63070300  0.72447100  1
  O  O25  1  0.49299100  0.18476300  0.65474500  1
  O  O26  1  0.82593100  0.89606300  0.23067500  1
