# generated using pymatgen
data_Y7(O2F3)3
_symmetry_space_group_name_H-M   'P 1'
_cell_length_a   19.91694733
_cell_length_b   19.91694733
_cell_length_c   5.52327100
_cell_angle_alpha   90.00000000
_cell_angle_beta   90.00000000
_cell_angle_gamma   163.89796584
_symmetry_Int_Tables_number   1
_chemical_formula_structural   Y7(O2F3)3
_chemical_formula_sum   'Y14 O12 F18'
_cell_volume   607.67047565
_cell_formula_units_Z   2
loop_
 _symmetry_equiv_pos_site_id
 _symmetry_equiv_pos_as_xyz
  1  'x, y, z'
loop_
 _atom_site_type_symbol
 _atom_site_label
 _atom_site_symmetry_multiplicity
 _atom_site_fract_x
 _atom_site_fract_y
 _atom_site_fract_z
 _atom_site_occupancy
  Y  Y0  1  0.43354400  0.93354400  0.74199400  1
  Y  Y1  1  0.93354400  0.43354400  0.25800600  1
  Y  Y2  1  0.07953800  0.41749800  0.73404000  1
  Y  Y3  1  0.41749800  0.07953800  0.26596000  1
  Y  Y4  1  0.57953800  0.91749800  0.26596000  1
  Y  Y5  1  0.91749800  0.57953800  0.73404000  1
  Y  Y6  1  0.15891300  0.35836400  0.30003800  1
  Y  Y7  1  0.35836400  0.15891300  0.69996200  1
  Y  Y8  1  0.65891300  0.85836400  0.69996200  1
  Y  Y9  1  0.85836400  0.65891300  0.30003800  1
  Y  Y10  1  0.21230000  0.26999200  0.73796300  1
  Y  Y11  1  0.26999200  0.21230000  0.26203700  1
  Y  Y12  1  0.71230000  0.76999200  0.26203700  1
  Y  Y13  1  0.76999200  0.71230000  0.73796300  1
  O  O14  1  0.65981300  0.37477900  0.47947400  1
  O  O15  1  0.98044500  0.98044500  0.00000000  1
  O  O16  1  0.37477900  0.65981300  0.52052600  1
  O  O17  1  0.48044500  0.48044500  0.00000000  1
  O  O18  1  0.87477900  0.15981300  0.47947400  1
  O  O19  1  0.15981300  0.87477900  0.52052600  1
  O  O20  1  0.40480100  0.54503500  0.53893500  1
  O  O21  1  0.54503500  0.40480100  0.46106500  1
  O  O22  1  0.90480100  0.04503500  0.46106500  1
  O  O23  1  0.04503500  0.90480100  0.53893500  1
  O  O24  1  0.99586000  0.99586000  0.50000000  1
  O  O25  1  0.49586000  0.49586000  0.50000000  1
  F  F26  1  0.15871300  0.00504400  0.04455600  1
  F  F27  1  0.65871300  0.50504400  0.95544400  1
  F  F28  1  0.50504400  0.65871300  0.04455600  1
  F  F29  1  0.00504400  0.15871300  0.95544400  1
  F  F30  1  0.08078600  0.79751500  0.03436400  1
  F  F31  1  0.79751500  0.08078600  0.96563600  1
  F  F32  1  0.58078600  0.29751500  0.96563600  1
  F  F33  1  0.29751500  0.58078600  0.03436400  1
  F  F34  1  0.81234200  0.41465200  0.09871800  1
  F  F35  1  0.41465200  0.81234200  0.90128200  1
  F  F36  1  0.55682800  0.05682800  0.12890800  1
  F  F37  1  0.91465200  0.31234200  0.09871800  1
  F  F38  1  0.18783600  0.75640200  0.44989700  1
  F  F39  1  0.75640200  0.18783600  0.55010300  1
  F  F40  1  0.68783600  0.25640200  0.55010300  1
  F  F41  1  0.25640200  0.68783600  0.44989700  1
  F  F42  1  0.05682800  0.55682800  0.87109200  1
  F  F43  1  0.31234200  0.91465200  0.90128200  1
