# generated using pymatgen
data_NaIO4
_symmetry_space_group_name_H-M   'P 1'
_cell_length_a   7.19647354
_cell_length_b   7.19647354
_cell_length_c   7.19647354
_cell_angle_alpha   135.63737305
_cell_angle_beta   135.63737305
_cell_angle_gamma   64.54146313
_symmetry_Int_Tables_number   1
_chemical_formula_structural   NaIO4
_chemical_formula_sum   'Na2 I2 O8'
_cell_volume   179.66927103
_cell_formula_units_Z   2
loop_
 _symmetry_equiv_pos_site_id
 _symmetry_equiv_pos_as_xyz
  1  'x, y, z'
loop_
 _atom_site_type_symbol
 _atom_site_label
 _atom_site_symmetry_multiplicity
 _atom_site_fract_x
 _atom_site_fract_y
 _atom_site_fract_z
 _atom_site_occupancy
  Na  Na0  1  0.25000000  0.75000000  0.50000000  1
  Na  Na1  1  0.50000000  0.50000000  0.00000000  1
  I  I2  1  0.75000000  0.25000000  0.50000000  1
  I  I3  1  0.00000000  0.00000000  0.00000000  1
  O  O4  1  0.81929200  0.93491500  0.41496600  1
  O  O5  1  0.68491500  0.76994900  0.61562300  1
  O  O6  1  0.15432600  0.06929200  0.38437700  1
  O  O7  1  0.51994900  0.40432600  0.58503400  1
  O  O8  1  0.23005100  0.84567400  0.91496600  1
  O  O9  1  0.59567400  0.18070800  0.11562300  1
  O  O10  1  0.06508500  0.48005100  0.88437700  1
  O  O11  1  0.93070800  0.31508500  0.08503400  1
