# generated using pymatgen
data_NiP2O7
_symmetry_space_group_name_H-M   'P 1'
_cell_length_a   6.37608500
_cell_length_b   6.61279619
_cell_length_c   6.97570054
_cell_angle_alpha   89.42537954
_cell_angle_beta   113.52467654
_cell_angle_gamma   94.06416829
_symmetry_Int_Tables_number   1
_chemical_formula_structural   NiP2O7
_chemical_formula_sum   'Ni2 P4 O14'
_cell_volume   268.94495532
_cell_formula_units_Z   2
loop_
 _symmetry_equiv_pos_site_id
 _symmetry_equiv_pos_as_xyz
  1  'x, y, z'
loop_
 _atom_site_type_symbol
 _atom_site_label
 _atom_site_symmetry_multiplicity
 _atom_site_fract_x
 _atom_site_fract_y
 _atom_site_fract_z
 _atom_site_occupancy
  Ni  Ni0  1  0.09535900  0.35874600  0.20333200  1
  Ni  Ni1  1  0.90464100  0.64125400  0.79666800  1
  P  P2  1  0.33522200  0.60983000  0.64505100  1
  P  P3  1  0.66477800  0.39017000  0.35494900  1
  P  P4  1  0.21338500  0.85535700  0.24946600  1
  P  P5  1  0.78661500  0.14464300  0.75053400  1
  O  O6  1  0.41178100  0.38836400  0.20577200  1
  O  O7  1  0.58267400  0.09813700  0.81311500  1
  O  O8  1  0.41732600  0.90186300  0.18688500  1
  O  O9  1  0.90426700  0.94984500  0.77006000  1
  O  O10  1  0.30694600  0.79883900  0.49220500  1
  O  O11  1  0.21548600  0.65093700  0.79005100  1
  O  O12  1  0.06087600  0.67021500  0.12607500  1
  O  O13  1  0.58821900  0.61163600  0.79422800  1
  O  O14  1  0.69305400  0.20116100  0.50779500  1
  O  O15  1  0.24228200  0.41645500  0.51261000  1
  O  O16  1  0.09573300  0.05015500  0.22994000  1
  O  O17  1  0.93912400  0.32978500  0.87392500  1
  O  O18  1  0.78451400  0.34906300  0.20994900  1
  O  O19  1  0.75771800  0.58354500  0.48739000  1
