# generated using pymatgen
data_MnP2O7
_symmetry_space_group_name_H-M   'P 1'
_cell_length_a   4.97605100
_cell_length_b   6.62483487
_cell_length_c   8.15406275
_cell_angle_alpha   68.52559613
_cell_angle_beta   88.38151819
_cell_angle_gamma   88.40125667
_symmetry_Int_Tables_number   1
_chemical_formula_structural   MnP2O7
_chemical_formula_sum   'Mn2 P4 O14'
_cell_volume   249.99856571
_cell_formula_units_Z   2
loop_
 _symmetry_equiv_pos_site_id
 _symmetry_equiv_pos_as_xyz
  1  'x, y, z'
loop_
 _atom_site_type_symbol
 _atom_site_label
 _atom_site_symmetry_multiplicity
 _atom_site_fract_x
 _atom_site_fract_y
 _atom_site_fract_z
 _atom_site_occupancy
  Mn  Mn0  1  0.75905400  0.78795200  0.26725300  1
  Mn  Mn1  1  0.24094600  0.21204800  0.73274700  1
  P  P2  1  0.27686100  0.45622600  0.31438000  1
  P  P3  1  0.72313900  0.54377400  0.68562000  1
  P  P4  1  0.24364700  0.10372600  0.16499000  1
  P  P5  1  0.75635300  0.89627400  0.83501000  1
  O  O6  1  0.56720900  0.52511400  0.31952800  1
  O  O7  1  0.95073400  0.04875200  0.22601600  1
  O  O8  1  0.04926600  0.95124900  0.77398400  1
  O  O9  1  0.08530300  0.64960100  0.23391900  1
  O  O10  1  0.17629500  0.28777800  0.48880400  1
  O  O11  1  0.28613300  0.33845000  0.17351400  1
  O  O12  1  0.30336700  0.13623000  0.97381900  1
  O  O13  1  0.43279100  0.47488600  0.68047200  1
  O  O14  1  0.82370500  0.71222200  0.51119600  1
  O  O15  1  0.55692900  0.05649900  0.70897700  1
  O  O16  1  0.44307100  0.94350100  0.29102300  1
  O  O17  1  0.69663300  0.86377000  0.02618100  1
  O  O18  1  0.71386700  0.66155000  0.82648600  1
  O  O19  1  0.91469700  0.35039900  0.76608100  1
