# generated using pymatgen
data_AgXeF9
_symmetry_space_group_name_H-M   'P 1'
_cell_length_a   11.23486113
_cell_length_b   11.23486113
_cell_length_c   11.23486113
_cell_angle_alpha   150.16193050
_cell_angle_beta   150.16193050
_cell_angle_gamma   42.70375856
_symmetry_Int_Tables_number   1
_chemical_formula_structural   AgXeF9
_chemical_formula_sum   'Ag2 Xe2 F18'
_cell_volume   350.17110538
_cell_formula_units_Z   2
loop_
 _symmetry_equiv_pos_site_id
 _symmetry_equiv_pos_as_xyz
  1  'x, y, z'
loop_
 _atom_site_type_symbol
 _atom_site_label
 _atom_site_symmetry_multiplicity
 _atom_site_fract_x
 _atom_site_fract_y
 _atom_site_fract_z
 _atom_site_occupancy
  Ag  Ag0  1  0.50000000  0.00000000  0.50000000  1
  Ag  Ag1  1  0.00000000  0.50000000  0.50000000  1
  Xe  Xe2  1  0.84837600  0.84837600  0.00000000  1
  Xe  Xe3  1  0.15162400  0.15162400  0.00000000  1
  F  F4  1  0.91531300  0.36509500  0.15211100  1
  F  F5  1  0.36509500  0.21298400  0.44978300  1
  F  F6  1  0.24640600  0.24640600  0.00000000  1
  F  F7  1  0.75359400  0.75359400  0.00000000  1
  F  F8  1  0.86617900  0.31302300  0.83776200  1
  F  F9  1  0.31302300  0.47526200  0.44684500  1
  F  F10  1  0.02841700  0.86617900  0.55315500  1
  F  F11  1  0.47526200  0.02841700  0.16223800  1
  F  F12  1  0.13382100  0.68697700  0.16223800  1
  F  F13  1  0.68697700  0.52473800  0.55315500  1
  F  F14  1  0.97158300  0.13382100  0.44684500  1
  F  F15  1  0.52473800  0.97158300  0.83776200  1
  F  F16  1  0.76320100  0.91531300  0.55021700  1
  F  F17  1  0.21298400  0.76320100  0.84788900  1
  F  F18  1  0.78701600  0.23679900  0.15211100  1
  F  F19  1  0.23679900  0.08468700  0.44978300  1
  F  F20  1  0.63490500  0.78701600  0.55021700  1
  F  F21  1  0.08468700  0.63490500  0.84788900  1
