# generated using pymatgen
data_Se2Br3N
_symmetry_space_group_name_H-M   'P 1'
_cell_length_a   8.73741600
_cell_length_b   12.76651700
_cell_length_c   14.83716100
_cell_angle_alpha   90.00000000
_cell_angle_beta   90.00000000
_cell_angle_gamma   90.00000000
_symmetry_Int_Tables_number   1
_chemical_formula_structural   Se2Br3N
_chemical_formula_sum   'Se16 Br24 N8'
_cell_volume   1655.03144917
_cell_formula_units_Z   8
loop_
 _symmetry_equiv_pos_site_id
 _symmetry_equiv_pos_as_xyz
  1  'x, y, z'
loop_
 _atom_site_type_symbol
 _atom_site_label
 _atom_site_symmetry_multiplicity
 _atom_site_fract_x
 _atom_site_fract_y
 _atom_site_fract_z
 _atom_site_occupancy
  Se  Se0  1  0.15162600  0.58183400  0.13421900  1
  Se  Se1  1  0.98921000  0.36516800  0.60992600  1
  Se  Se2  1  0.98921000  0.86516800  0.89007400  1
  Se  Se3  1  0.01079000  0.36516800  0.10992600  1
  Se  Se4  1  0.01079000  0.86516800  0.39007400  1
  Se  Se5  1  0.51815100  0.53884800  0.87301100  1
  Se  Se6  1  0.51815100  0.03884800  0.62698900  1
  Se  Se7  1  0.48184900  0.53884800  0.37301100  1
  Se  Se8  1  0.34398600  0.14755400  0.96295500  1
  Se  Se9  1  0.65601400  0.64755400  0.03704500  1
  Se  Se10  1  0.65601400  0.14755400  0.46295500  1
  Se  Se11  1  0.34398600  0.64755400  0.53704500  1
  Se  Se12  1  0.84837400  0.08183400  0.86578100  1
  Se  Se13  1  0.84837400  0.58183400  0.63421900  1
  Se  Se14  1  0.15162600  0.08183400  0.36578100  1
  Se  Se15  1  0.48184900  0.03884800  0.12698900  1
  Br  Br16  1  0.74302800  0.33039100  0.08737300  1
  Br  Br17  1  0.25697200  0.83039100  0.91262700  1
  Br  Br18  1  0.25697200  0.33039100  0.58737300  1
  Br  Br19  1  0.74302800  0.83039100  0.41262700  1
  Br  Br20  1  0.32128000  0.40464500  0.13837100  1
  Br  Br21  1  0.67872000  0.90464500  0.86162900  1
  Br  Br22  1  0.67872000  0.40464500  0.63837100  1
  Br  Br23  1  0.32128000  0.90464500  0.36162900  1
  Br  Br24  1  0.99889500  0.74460100  0.13798200  1
  Br  Br25  1  0.00110500  0.24460100  0.86201800  1
  Br  Br26  1  0.00110500  0.74460100  0.63798200  1
  Br  Br27  1  0.99889500  0.24460100  0.36201800  1
  Br  Br28  1  0.17064000  0.58541100  0.39518500  1
  Br  Br29  1  0.82936000  0.08541100  0.60481500  1
  Br  Br30  1  0.82936000  0.58541100  0.89518500  1
  Br  Br31  1  0.17064000  0.08541100  0.10481500  1
  Br  Br32  1  0.49731300  0.71378100  0.66445200  1
  Br  Br33  1  0.50268700  0.21378100  0.33554800  1
  Br  Br34  1  0.50268700  0.71378100  0.16445200  1
  Br  Br35  1  0.49731300  0.21378100  0.83554800  1
  Br  Br36  1  0.74901600  0.50247000  0.35080500  1
  Br  Br37  1  0.25098400  0.00247000  0.64919500  1
  Br  Br38  1  0.25098400  0.50247000  0.85080500  1
  Br  Br39  1  0.74901600  0.00247000  0.14919500  1
  N  N40  1  0.98751000  0.00259900  0.38294800  1
  N  N41  1  0.01249000  0.50259900  0.61705200  1
  N  N42  1  0.01249000  0.00259900  0.88294800  1
  N  N43  1  0.98751000  0.50259900  0.11705200  1
  N  N44  1  0.49307100  0.09909700  0.52074600  1
  N  N45  1  0.49307100  0.59909700  0.97925400  1
  N  N46  1  0.50692900  0.09909700  0.02074600  1
  N  N47  1  0.50692900  0.59909700  0.47925400  1
