# generated using pymatgen
data_ZrBr2
_symmetry_space_group_name_H-M   'P 1'
_cell_length_a   8.62231513
_cell_length_b   8.62231513
_cell_length_c   8.62231537
_cell_angle_alpha   106.83990262
_cell_angle_beta   106.83990262
_cell_angle_gamma   106.83990339
_symmetry_Int_Tables_number   1
_chemical_formula_structural   ZrBr2
_chemical_formula_sum   'Zr6 Br12'
_cell_volume   536.16209392
_cell_formula_units_Z   6
loop_
 _symmetry_equiv_pos_site_id
 _symmetry_equiv_pos_as_xyz
  1  'x, y, z'
loop_
 _atom_site_type_symbol
 _atom_site_label
 _atom_site_symmetry_multiplicity
 _atom_site_fract_x
 _atom_site_fract_y
 _atom_site_fract_z
 _atom_site_occupancy
  Zr  Zr0  1  0.90343500  0.96871800  0.71439000  1
  Zr  Zr1  1  0.71439000  0.90343500  0.96871800  1
  Zr  Zr2  1  0.96871800  0.71439000  0.90343500  1
  Zr  Zr3  1  0.09656500  0.03128200  0.28561000  1
  Zr  Zr4  1  0.28561000  0.09656500  0.03128200  1
  Zr  Zr5  1  0.03128200  0.28561000  0.09656500  1
  Br  Br6  1  0.85679300  0.63116400  0.55492900  1
  Br  Br7  1  0.55492900  0.85679300  0.63116400  1
  Br  Br8  1  0.63116400  0.55492900  0.85679300  1
  Br  Br9  1  0.14320700  0.36883600  0.44507100  1
  Br  Br10  1  0.44507100  0.14320700  0.36883600  1
  Br  Br11  1  0.36883600  0.44507100  0.14320700  1
  Br  Br12  1  0.92315400  0.31077500  0.77655100  1
  Br  Br13  1  0.31077500  0.77655100  0.92315400  1
  Br  Br14  1  0.77655100  0.92315400  0.31077500  1
  Br  Br15  1  0.07684600  0.68922500  0.22344900  1
  Br  Br16  1  0.68922500  0.22344900  0.07684600  1
  Br  Br17  1  0.22344900  0.07684600  0.68922500  1
