# generated using pymatgen
data_Ba3AlF9
_symmetry_space_group_name_H-M   'P 1'
_cell_length_a   5.67584200
_cell_length_b   15.40702400
_cell_length_c   20.09377800
_cell_angle_alpha   90.00000000
_cell_angle_beta   90.00000000
_cell_angle_gamma   90.00000000
_symmetry_Int_Tables_number   1
_chemical_formula_structural   Ba3AlF9
_chemical_formula_sum   'Ba24 Al8 F72'
_cell_volume   1757.15736125
_cell_formula_units_Z   8
loop_
 _symmetry_equiv_pos_site_id
 _symmetry_equiv_pos_as_xyz
  1  'x, y, z'
loop_
 _atom_site_type_symbol
 _atom_site_label
 _atom_site_symmetry_multiplicity
 _atom_site_fract_x
 _atom_site_fract_y
 _atom_site_fract_z
 _atom_site_occupancy
  Ba  Ba0  1  0.25000000  0.19078700  0.10790900  1
  Ba  Ba1  1  0.75000000  0.80921300  0.89209100  1
  Ba  Ba2  1  0.75000000  0.69078700  0.39209100  1
  Ba  Ba3  1  0.25000000  0.30921300  0.60790900  1
  Ba  Ba4  1  0.25000000  0.78963000  0.24335900  1
  Ba  Ba5  1  0.75000000  0.21037000  0.75664100  1
  Ba  Ba6  1  0.75000000  0.28963000  0.25664100  1
  Ba  Ba7  1  0.25000000  0.71037000  0.74335900  1
  Ba  Ba8  1  0.25000000  0.50674200  0.32238700  1
  Ba  Ba9  1  0.75000000  0.49325800  0.67761300  1
  Ba  Ba10  1  0.75000000  0.00674200  0.17761300  1
  Ba  Ba11  1  0.25000000  0.99325800  0.82238700  1
  Ba  Ba12  1  0.25000000  0.90756700  0.03046200  1
  Ba  Ba13  1  0.75000000  0.09243300  0.96953800  1
  Ba  Ba14  1  0.75000000  0.40756700  0.46953800  1
  Ba  Ba15  1  0.25000000  0.59243300  0.53046200  1
  Ba  Ba16  1  0.25000000  0.07545400  0.31640500  1
  Ba  Ba17  1  0.75000000  0.92454600  0.68359500  1
  Ba  Ba18  1  0.75000000  0.57545400  0.18359500  1
  Ba  Ba19  1  0.25000000  0.42454600  0.81640500  1
  Ba  Ba20  1  0.25000000  0.62202400  0.99802800  1
  Ba  Ba21  1  0.75000000  0.37797600  0.00197200  1
  Ba  Ba22  1  0.75000000  0.12202400  0.50197200  1
  Ba  Ba23  1  0.25000000  0.87797600  0.49802800  1
  Al  Al24  1  0.25000000  0.42584600  0.11975600  1
  Al  Al25  1  0.75000000  0.57415400  0.88024400  1
  Al  Al26  1  0.75000000  0.92584600  0.38024400  1
  Al  Al27  1  0.25000000  0.07415400  0.61975600  1
  Al  Al28  1  0.25000000  0.27822200  0.38837500  1
  Al  Al29  1  0.75000000  0.72177800  0.61162500  1
  Al  Al30  1  0.75000000  0.77822200  0.11162500  1
  Al  Al31  1  0.25000000  0.22177800  0.88837500  1
  F  F32  1  0.25000000  0.32029200  0.47234100  1
  F  F33  1  0.75000000  0.67970800  0.52765900  1
  F  F34  1  0.75000000  0.82029200  0.02765900  1
  F  F35  1  0.25000000  0.17970800  0.97234100  1
  F  F36  1  0.25000000  0.24962500  0.30014800  1
  F  F37  1  0.75000000  0.75037500  0.69985200  1
  F  F38  1  0.75000000  0.74962500  0.19985200  1
  F  F39  1  0.25000000  0.25037500  0.80014800  1
  F  F40  1  0.25000000  0.50366200  0.18844500  1
  F  F41  1  0.75000000  0.49633800  0.81155500  1
  F  F42  1  0.75000000  0.00366200  0.31155500  1
  F  F43  1  0.25000000  0.99633800  0.68844500  1
  F  F44  1  0.25000000  0.35565700  0.04599900  1
  F  F45  1  0.75000000  0.64434300  0.95400100  1
  F  F46  1  0.75000000  0.85565700  0.45400100  1
  F  F47  1  0.25000000  0.14434300  0.54599900  1
  F  F48  1  0.25000000  0.96118200  0.22624500  1
  F  F49  1  0.75000000  0.03881800  0.77375500  1
  F  F50  1  0.75000000  0.46118200  0.27375500  1
  F  F51  1  0.25000000  0.53881800  0.72624500  1
  F  F52  1  0.25000000  0.72579200  0.44612900  1
  F  F53  1  0.75000000  0.27420800  0.55387100  1
  F  F54  1  0.75000000  0.22579200  0.05387100  1
  F  F55  1  0.25000000  0.77420800  0.94612900  1
  F  F56  1  0.99262700  0.14592800  0.21357100  1
  F  F57  1  0.49262700  0.85407200  0.78642900  1
  F  F58  1  0.00737300  0.64592800  0.28642900  1
  F  F59  1  0.50737300  0.35407200  0.71357100  1
  F  F60  1  0.00737300  0.85407200  0.78642900  1
  F  F61  1  0.50737300  0.14592800  0.21357100  1
  F  F62  1  0.99262700  0.35407200  0.71357100  1
  F  F63  1  0.49262700  0.64592800  0.28642900  1
  F  F64  1  0.00555100  0.04544900  0.07265600  1
  F  F65  1  0.50555100  0.95455100  0.92734400  1
  F  F66  1  0.99444900  0.54544900  0.42734400  1
  F  F67  1  0.49444900  0.45455100  0.57265600  1
  F  F68  1  0.99444900  0.95455100  0.92734400  1
  F  F69  1  0.49444900  0.04544900  0.07265600  1
  F  F70  1  0.00555100  0.45455100  0.57265600  1
  F  F71  1  0.50555100  0.54544900  0.42734400  1
  F  F72  1  0.02001300  0.35752800  0.36623700  1
  F  F73  1  0.52001300  0.64247200  0.63376300  1
  F  F74  1  0.97998700  0.85752800  0.13376300  1
  F  F75  1  0.47998700  0.14247200  0.86623700  1
  F  F76  1  0.97998700  0.64247200  0.63376300  1
  F  F77  1  0.47998700  0.35752800  0.36623700  1
  F  F78  1  0.02001300  0.14247200  0.86623700  1
  F  F79  1  0.52001300  0.85752800  0.13376300  1
  F  F80  1  0.01966700  0.49345200  0.07903500  1
  F  F81  1  0.51966700  0.50654800  0.92096500  1
  F  F82  1  0.98033300  0.99345200  0.42096500  1
  F  F83  1  0.48033300  0.00654800  0.57903500  1
  F  F84  1  0.98033300  0.50654800  0.92096500  1
  F  F85  1  0.48033300  0.49345200  0.07903500  1
  F  F86  1  0.01966700  0.00654800  0.57903500  1
  F  F87  1  0.51966700  0.99345200  0.42096500  1
  F  F88  1  0.02400200  0.35732300  0.15726500  1
  F  F89  1  0.52400200  0.64267700  0.84273500  1
  F  F90  1  0.97599800  0.85732300  0.34273500  1
  F  F91  1  0.47599800  0.14267700  0.65726500  1
  F  F92  1  0.97599800  0.64267700  0.84273500  1
  F  F93  1  0.47599800  0.35732300  0.15726500  1
  F  F94  1  0.02400200  0.14267700  0.65726500  1
  F  F95  1  0.52400200  0.85732300  0.34273500  1
  F  F96  1  0.02144600  0.19650800  0.40340800  1
  F  F97  1  0.52144600  0.80349200  0.59659200  1
  F  F98  1  0.97855400  0.69650800  0.09659200  1
  F  F99  1  0.47855400  0.30349200  0.90340800  1
  F  F100  1  0.97855400  0.80349200  0.59659200  1
  F  F101  1  0.47855400  0.19650800  0.40340800  1
  F  F102  1  0.02144600  0.30349200  0.90340800  1
  F  F103  1  0.52144600  0.69650800  0.09659200  1
