# generated using pymatgen
data_Te6Br2O11
_symmetry_space_group_name_H-M   'P 1'
_cell_length_a   6.96858030
_cell_length_b   6.96858030
_cell_length_c   15.93843600
_cell_angle_alpha   90.00000000
_cell_angle_beta   90.00000000
_cell_angle_gamma   119.71568252
_symmetry_Int_Tables_number   1
_chemical_formula_structural   Te6Br2O11
_chemical_formula_sum   'Te12 Br4 O22'
_cell_volume   672.20552585
_cell_formula_units_Z   2
loop_
 _symmetry_equiv_pos_site_id
 _symmetry_equiv_pos_as_xyz
  1  'x, y, z'
loop_
 _atom_site_type_symbol
 _atom_site_label
 _atom_site_symmetry_multiplicity
 _atom_site_fract_x
 _atom_site_fract_y
 _atom_site_fract_z
 _atom_site_occupancy
  Te  Te0  1  0.06877700  0.06877700  0.85781200  1
  Te  Te1  1  0.93122300  0.93122300  0.35781200  1
  Te  Te2  1  0.06877700  0.06877700  0.64218800  1
  Te  Te3  1  0.93122300  0.93122300  0.14218800  1
  Te  Te4  1  0.21614200  0.52489600  0.08473100  1
  Te  Te5  1  0.78385800  0.47510400  0.58473100  1
  Te  Te6  1  0.52489600  0.21614200  0.41526900  1
  Te  Te7  1  0.47510400  0.78385800  0.91526900  1
  Te  Te8  1  0.78385800  0.47510400  0.91526900  1
  Te  Te9  1  0.21614200  0.52489600  0.41526900  1
  Te  Te10  1  0.47510400  0.78385800  0.58473100  1
  Te  Te11  1  0.52489600  0.21614200  0.08473100  1
  Br  Br12  1  0.13838000  0.47218300  0.75000000  1
  Br  Br13  1  0.86162000  0.52781700  0.25000000  1
  Br  Br14  1  0.47218300  0.13838000  0.75000000  1
  Br  Br15  1  0.52781700  0.86162000  0.25000000  1
  O  O16  1  0.92729600  0.92729600  0.75000000  1
  O  O17  1  0.07270400  0.07270400  0.25000000  1
  O  O18  1  0.96224200  0.20181100  0.09627100  1
  O  O19  1  0.03775800  0.79818900  0.59627100  1
  O  O20  1  0.20181100  0.96224200  0.40372900  1
  O  O21  1  0.79818900  0.03775800  0.90372900  1
  O  O22  1  0.03775800  0.79818900  0.90372900  1
  O  O23  1  0.96224200  0.20181100  0.40372900  1
  O  O24  1  0.79818900  0.03775800  0.59627100  1
  O  O25  1  0.20181100  0.96224200  0.09627100  1
  O  O26  1  0.81492400  0.51582600  0.03539000  1
  O  O27  1  0.18507600  0.48417400  0.53539000  1
  O  O28  1  0.51582600  0.81492400  0.46461000  1
  O  O29  1  0.48417400  0.18507600  0.96461000  1
  O  O30  1  0.18507600  0.48417400  0.96461000  1
  O  O31  1  0.81492400  0.51582600  0.46461000  1
  O  O32  1  0.42524900  0.42524900  0.11337200  1
  O  O33  1  0.57475100  0.57475100  0.61337200  1
  O  O34  1  0.42524900  0.42524900  0.38662800  1
  O  O35  1  0.57475100  0.57475100  0.88662800  1
  O  O36  1  0.51582600  0.81492400  0.03539000  1
  O  O37  1  0.48417400  0.18507600  0.53539000  1
