# generated using pymatgen
data_B5(H2N)2
_symmetry_space_group_name_H-M   'P 1'
_cell_length_a   9.48469869
_cell_length_b   9.48469869
_cell_length_c   11.71321523
_cell_angle_alpha   52.68547119
_cell_angle_beta   52.68547119
_cell_angle_gamma   42.63529364
_symmetry_Int_Tables_number   1
_chemical_formula_structural   B5(H2N)2
_chemical_formula_sum   'B20 H16 N8'
_cell_volume   541.93898518
_cell_formula_units_Z   4
loop_
 _symmetry_equiv_pos_site_id
 _symmetry_equiv_pos_as_xyz
  1  'x, y, z'
loop_
 _atom_site_type_symbol
 _atom_site_label
 _atom_site_symmetry_multiplicity
 _atom_site_fract_x
 _atom_site_fract_y
 _atom_site_fract_z
 _atom_site_occupancy
  B  B0  1  0.65497900  0.47406800  0.20672500  1
  B  B1  1  0.27009800  0.66075500  0.89959900  1
  B  B2  1  0.72990200  0.33924500  0.10040100  1
  B  B3  1  0.66075500  0.27009800  0.39959900  1
  B  B4  1  0.52593200  0.34502100  0.29327500  1
  B  B5  1  0.34502100  0.52593200  0.79327500  1
  B  B6  1  0.31731800  0.85428400  0.78228900  1
  B  B7  1  0.94812900  0.26237400  0.12728600  1
  B  B8  1  0.73762600  0.05187100  0.37271400  1
  B  B9  1  0.05187100  0.73762600  0.87271400  1
  B  B10  1  0.26237400  0.94812900  0.62728600  1
  B  B11  1  0.95359400  0.05972200  0.31955900  1
  B  B12  1  0.94027800  0.04640600  0.18044100  1
  B  B13  1  0.04640600  0.94027800  0.68044100  1
  B  B14  1  0.05972200  0.95359400  0.81955900  1
  B  B15  1  0.85428400  0.31731800  0.28228900  1
  B  B16  1  0.68268200  0.14571600  0.21771100  1
  B  B17  1  0.14571600  0.68268200  0.71771100  1
  B  B18  1  0.33924500  0.72990200  0.60040100  1
  B  B19  1  0.47406800  0.65497900  0.70672500  1
  H  H20  1  0.56413100  0.29408900  0.52135300  1
  H  H21  1  0.90961900  0.72004900  0.97721800  1
  H  H22  1  0.27995100  0.09038100  0.52278200  1
  H  H23  1  0.10048700  0.90960300  0.37341800  1
  H  H24  1  0.09039700  0.89951300  0.12658200  1
  H  H25  1  0.89951300  0.09039700  0.62658200  1
  H  H26  1  0.90960300  0.10048700  0.87341800  1
  H  H27  1  0.66805300  0.55255100  0.66789300  1
  H  H28  1  0.44744900  0.33194700  0.83210700  1
  H  H29  1  0.33194700  0.44744900  0.33210700  1
  H  H30  1  0.55255100  0.66805300  0.16789300  1
  H  H31  1  0.29408900  0.56413100  0.02135300  1
  H  H32  1  0.09038100  0.27995100  0.02278200  1
  H  H33  1  0.43586900  0.70591100  0.47864700  1
  H  H34  1  0.70591100  0.43586900  0.97864700  1
  H  H35  1  0.72004900  0.90961900  0.47721800  1
  N  N36  1  0.96920200  0.45121500  0.32649700  1
  N  N37  1  0.54878500  0.03079800  0.17350300  1
  N  N38  1  0.03079800  0.54878500  0.67350300  1
  N  N39  1  0.45121500  0.96920200  0.82649700  1
  N  N40  1  0.91999600  0.39094200  0.30746700  1
  N  N41  1  0.08000400  0.60905800  0.69253300  1
  N  N42  1  0.39094200  0.91999600  0.80746700  1
  N  N43  1  0.60905800  0.08000400  0.19253300  1
