# generated using pymatgen
data_PrGaCo2
_symmetry_space_group_name_H-M   'P 1'
_cell_length_a   3.73405300
_cell_length_b   5.28220000
_cell_length_c   6.94404100
_cell_angle_alpha   90.00000000
_cell_angle_beta   90.00000000
_cell_angle_gamma   90.00000000
_symmetry_Int_Tables_number   1
_chemical_formula_structural   PrGaCo2
_chemical_formula_sum   'Pr2 Ga2 Co4'
_cell_volume   136.96436715
_cell_formula_units_Z   2
loop_
 _symmetry_equiv_pos_site_id
 _symmetry_equiv_pos_as_xyz
  1  'x, y, z'
loop_
 _atom_site_type_symbol
 _atom_site_label
 _atom_site_symmetry_multiplicity
 _atom_site_fract_x
 _atom_site_fract_y
 _atom_site_fract_z
 _atom_site_occupancy
  Pr  Pr0  1  0.00000000  0.25000000  0.67221400  1
  Pr  Pr1  1  0.00000000  0.75000000  0.32778600  1
  Ga  Ga2  1  0.00000000  0.25000000  0.11515300  1
  Ga  Ga3  1  0.00000000  0.75000000  0.88484700  1
  Co  Co4  1  0.50000000  0.50000000  0.00000000  1
  Co  Co5  1  0.50000000  0.00000000  0.00000000  1
  Co  Co6  1  0.50000000  0.25000000  0.33232500  1
  Co  Co7  1  0.50000000  0.75000000  0.66767500  1
