# generated using pymatgen
data_V5Sb4
_symmetry_space_group_name_H-M   'P 1'
_cell_length_a   7.20310176
_cell_length_b   7.20310176
_cell_length_c   7.20310176
_cell_angle_alpha   93.27696547
_cell_angle_beta   93.27696547
_cell_angle_gamma   152.33466219
_symmetry_Int_Tables_number   1
_chemical_formula_structural   V5Sb4
_chemical_formula_sum   'V5 Sb4'
_cell_volume   168.49291252
_cell_formula_units_Z   1
loop_
 _symmetry_equiv_pos_site_id
 _symmetry_equiv_pos_as_xyz
  1  'x, y, z'
loop_
 _atom_site_type_symbol
 _atom_site_label
 _atom_site_symmetry_multiplicity
 _atom_site_fract_x
 _atom_site_fract_y
 _atom_site_fract_z
 _atom_site_occupancy
  V  V0  1  0.00000000  0.00000000  0.00000000  1
  V  V1  1  0.68192100  0.38582800  0.06774900  1
  V  V2  1  0.38582800  0.31807900  0.70390700  1
  V  V3  1  0.61417200  0.68192100  0.29609300  1
  V  V4  1  0.31807900  0.61417200  0.93225100  1
  Sb  Sb5  1  0.93697800  0.29003600  0.22701400  1
  Sb  Sb6  1  0.29003600  0.06302200  0.35305800  1
  Sb  Sb7  1  0.70996400  0.93697800  0.64694200  1
  Sb  Sb8  1  0.06302200  0.70996400  0.77298600  1
