# generated using pymatgen
data_LaCu6
_symmetry_space_group_name_H-M   'P 1'
_cell_length_a   10.21730200
_cell_length_b   5.10746500
_cell_length_c   8.16383981
_cell_angle_alpha   87.95395201
_cell_angle_beta   90.00000000
_cell_angle_gamma   90.00000000
_symmetry_Int_Tables_number   1
_chemical_formula_structural   LaCu6
_chemical_formula_sum   'La4 Cu24'
_cell_volume   425.75438899
_cell_formula_units_Z   4
loop_
 _symmetry_equiv_pos_site_id
 _symmetry_equiv_pos_as_xyz
  1  'x, y, z'
loop_
 _atom_site_type_symbol
 _atom_site_label
 _atom_site_symmetry_multiplicity
 _atom_site_fract_x
 _atom_site_fract_y
 _atom_site_fract_z
 _atom_site_occupancy
  La  La0  1  0.56346300  0.26180400  0.73790800  1
  La  La1  1  0.06346300  0.73819600  0.76209200  1
  La  La2  1  0.43653700  0.73819600  0.26209200  1
  La  La3  1  0.93653700  0.26180400  0.23790800  1
  Cu  Cu4  1  0.81173400  0.00692400  0.56043900  1
  Cu  Cu5  1  0.31173400  0.99307600  0.93956100  1
  Cu  Cu6  1  0.18826600  0.99307600  0.43956100  1
  Cu  Cu7  1  0.68826600  0.00692400  0.06043900  1
  Cu  Cu8  1  0.80725200  0.49811300  0.56631700  1
  Cu  Cu9  1  0.30725200  0.50188700  0.93368300  1
  Cu  Cu10  1  0.19274800  0.50188700  0.43368300  1
  Cu  Cu11  1  0.69274800  0.49811300  0.06631700  1
  Cu  Cu12  1  0.85875900  0.23952100  0.84982800  1
  Cu  Cu13  1  0.35875900  0.76047900  0.65017200  1
  Cu  Cu14  1  0.14124100  0.76047900  0.15017200  1
  Cu  Cu15  1  0.64124100  0.23952100  0.34982800  1
  Cu  Cu16  1  0.24525300  0.24961800  0.18315200  1
  Cu  Cu17  1  0.74525300  0.75038200  0.31684800  1
  Cu  Cu18  1  0.75474700  0.75038200  0.81684800  1
  Cu  Cu19  1  0.25474700  0.24961800  0.68315200  1
  Cu  Cu20  1  0.40121600  0.22017700  0.43834300  1
  Cu  Cu21  1  0.90121600  0.77982300  0.06165700  1
  Cu  Cu22  1  0.59878400  0.77982300  0.56165700  1
  Cu  Cu23  1  0.09878400  0.22017700  0.93834300  1
  Cu  Cu24  1  0.48437600  0.25060800  0.09823600  1
  Cu  Cu25  1  0.98437600  0.74939200  0.40176400  1
  Cu  Cu26  1  0.51562400  0.74939200  0.90176400  1
  Cu  Cu27  1  0.01562400  0.25060800  0.59823600  1
