# generated using pymatgen
data_Be3P2
_symmetry_space_group_name_H-M   'P 1'
_cell_length_a   12.49684450
_cell_length_b   12.49684450
_cell_length_c   12.49684450
_cell_angle_alpha   131.64844545
_cell_angle_beta   131.64844545
_cell_angle_gamma   70.78483902
_symmetry_Int_Tables_number   1
_chemical_formula_structural   Be3P2
_chemical_formula_sum   'Be48 P32'
_cell_volume   1067.36933832
_cell_formula_units_Z   16
loop_
 _symmetry_equiv_pos_site_id
 _symmetry_equiv_pos_as_xyz
  1  'x, y, z'
loop_
 _atom_site_type_symbol
 _atom_site_label
 _atom_site_symmetry_multiplicity
 _atom_site_fract_x
 _atom_site_fract_y
 _atom_site_fract_z
 _atom_site_occupancy
  Be  Be0  1  0.82838600  0.81822800  0.27308800  1
  Be  Be1  1  0.56822800  0.79514000  0.48984200  1
  Be  Be2  1  0.30529900  0.07838600  0.51015800  1
  Be  Be3  1  0.42161400  0.19470100  0.48984200  1
  Be  Be4  1  0.70486000  0.93177200  0.51015800  1
  Be  Be5  1  0.94470100  0.95486000  0.27308800  1
  Be  Be6  1  0.68177200  0.67161400  0.72691200  1
  Be  Be7  1  0.54514000  0.55529900  0.72691200  1
  Be  Be8  1  0.92161400  0.43177200  0.22691200  1
  Be  Be9  1  0.18177200  0.45486000  0.01015800  1
  Be  Be10  1  0.44470100  0.17161400  0.98984200  1
  Be  Be11  1  0.32838600  0.05529900  0.01015800  1
  Be  Be12  1  0.04514000  0.31822800  0.98984200  1
  Be  Be13  1  0.80529900  0.29514000  0.22691200  1
  Be  Be14  1  0.06822800  0.57838600  0.77308800  1
  Be  Be15  1  0.20486000  0.69470100  0.77308800  1
  Be  Be16  1  0.81010100  0.07695700  0.50249600  1
  Be  Be17  1  0.82695700  0.82446000  0.76685500  1
  Be  Be18  1  0.05760500  0.06010100  0.23314500  1
  Be  Be19  1  0.43989900  0.44239500  0.76685500  1
  Be  Be20  1  0.67554000  0.67304300  0.23314500  1
  Be  Be21  1  0.19239500  0.92554000  0.50249600  1
  Be  Be22  1  0.42304300  0.68989900  0.49750400  1
  Be  Be23  1  0.57446000  0.30760500  0.49750400  1
  Be  Be24  1  0.93989900  0.17304300  0.99750400  1
  Be  Be25  1  0.92304300  0.42554000  0.73314500  1
  Be  Be26  1  0.69239500  0.18989900  0.26685500  1
  Be  Be27  1  0.31010100  0.80760500  0.73314500  1
  Be  Be28  1  0.07446000  0.57695700  0.26685500  1
  Be  Be29  1  0.55760500  0.32446000  0.99750400  1
  Be  Be30  1  0.32695700  0.56010100  0.00249600  1
  Be  Be31  1  0.17554000  0.94239500  0.00249600  1
  Be  Be32  1  0.55523200  0.81401000  0.00805600  1
  Be  Be33  1  0.56401000  0.05595300  0.75877800  1
  Be  Be34  1  0.29717500  0.80523200  0.24122200  1
  Be  Be35  1  0.69476800  0.20282500  0.75877800  1
  Be  Be36  1  0.44404700  0.93599000  0.24122200  1
  Be  Be37  1  0.95282500  0.69404700  0.00805600  1
  Be  Be38  1  0.68599000  0.94476800  0.99194400  1
  Be  Be39  1  0.80595300  0.54717500  0.99194400  1
  Be  Be40  1  0.19476800  0.43599000  0.49194400  1
  Be  Be41  1  0.18599000  0.19404700  0.74122200  1
  Be  Be42  1  0.45282500  0.44476800  0.25877800  1
  Be  Be43  1  0.05523200  0.04717500  0.74122200  1
  Be  Be44  1  0.30595300  0.31401000  0.25877800  1
  Be  Be45  1  0.79717500  0.55595300  0.49194400  1
  Be  Be46  1  0.06401000  0.30523200  0.50805600  1
  Be  Be47  1  0.94404700  0.70282500  0.50805600  1
  P  P48  1  0.00000000  0.00000000  0.00000000  1
  P  P49  1  0.75000000  0.25000000  0.50000000  1
  P  P50  1  0.25000000  0.75000000  0.50000000  1
  P  P51  1  0.50000000  0.50000000  0.00000000  1
  P  P52  1  0.75000000  0.75000000  0.00000000  1
  P  P53  1  0.50000000  0.00000000  0.50000000  1
  P  P54  1  0.00000000  0.50000000  0.50000000  1
  P  P55  1  0.25000000  0.25000000  0.00000000  1
  P  P56  1  0.37500000  0.62500000  0.75000000  1
  P  P57  1  0.37500000  0.12500000  0.75000000  1
  P  P58  1  0.37500000  0.62500000  0.25000000  1
  P  P59  1  0.87500000  0.12500000  0.75000000  1
  P  P60  1  0.37500000  0.12500000  0.25000000  1
  P  P61  1  0.87500000  0.62500000  0.75000000  1
  P  P62  1  0.87500000  0.12500000  0.25000000  1
  P  P63  1  0.87500000  0.62500000  0.25000000  1
  P  P64  1  0.62500000  0.86104900  0.73604900  1
  P  P65  1  0.61104900  0.37500000  0.73604900  1
  P  P66  1  0.63895100  0.87500000  0.26395100  1
  P  P67  1  0.12500000  0.88895100  0.26395100  1
  P  P68  1  0.12500000  0.38895100  0.76395100  1
  P  P69  1  0.13895100  0.87500000  0.76395100  1
  P  P70  1  0.11104900  0.37500000  0.23604900  1
  P  P71  1  0.62500000  0.36104900  0.23604900  1
  P  P72  1  0.00708400  0.00708400  0.51416700  1
  P  P73  1  0.75708400  0.74291600  0.50000000  1
  P  P74  1  0.24291600  0.25708400  0.50000000  1
  P  P75  1  0.49291600  0.49291600  0.48583300  1
  P  P76  1  0.74291600  0.24291600  0.98583300  1
  P  P77  1  0.99291600  0.50708400  0.00000000  1
  P  P78  1  0.50708400  0.99291600  0.00000000  1
  P  P79  1  0.25708400  0.75708400  0.01416700  1
