# generated using pymatgen
data_Hf27P16
_symmetry_space_group_name_H-M   'P 1'
_cell_length_a   14.93891930
_cell_length_b   14.93891930
_cell_length_c   14.93891930
_cell_angle_alpha   166.37622464
_cell_angle_beta   102.77780589
_cell_angle_gamma   78.87009659
_symmetry_Int_Tables_number   1
_chemical_formula_structural   Hf27P16
_chemical_formula_sum   'Hf27 P16'
_cell_volume   762.35340755
_cell_formula_units_Z   1
loop_
 _symmetry_equiv_pos_site_id
 _symmetry_equiv_pos_as_xyz
  1  'x, y, z'
loop_
 _atom_site_type_symbol
 _atom_site_label
 _atom_site_symmetry_multiplicity
 _atom_site_fract_x
 _atom_site_fract_y
 _atom_site_fract_z
 _atom_site_occupancy
  Hf  Hf0  1  0.01302400  0.42003300  0.59299100  1
  Hf  Hf1  1  0.98697600  0.57996700  0.40700900  1
  Hf  Hf2  1  0.17295800  0.57996700  0.59299100  1
  Hf  Hf3  1  0.82704200  0.42003300  0.40700900  1
  Hf  Hf4  1  0.21529800  0.71529800  0.50000000  1
  Hf  Hf5  1  0.78470200  0.28470200  0.50000000  1
  Hf  Hf6  1  0.35326800  0.85326800  0.50000000  1
  Hf  Hf7  1  0.64673200  0.14673200  0.50000000  1
  Hf  Hf8  1  0.58384400  0.00000000  0.58384400  1
  Hf  Hf9  1  0.41615600  0.00000000  0.41615600  1
  Hf  Hf10  1  0.00000000  0.00000000  0.00000000  1
  Hf  Hf11  1  0.52946100  0.21540500  0.31405700  1
  Hf  Hf12  1  0.47053900  0.78459500  0.68594300  1
  Hf  Hf13  1  0.09865200  0.78459500  0.31405700  1
  Hf  Hf14  1  0.90134800  0.21540500  0.68594300  1
  Hf  Hf15  1  0.31682800  0.07117800  0.24565000  1
  Hf  Hf16  1  0.68317200  0.92882200  0.75435000  1
  Hf  Hf17  1  0.17447200  0.92882200  0.24565000  1
  Hf  Hf18  1  0.82552800  0.07117800  0.75435000  1
  Hf  Hf19  1  0.31583100  0.18257000  0.13326100  1
  Hf  Hf20  1  0.68416900  0.81743000  0.86673900  1
  Hf  Hf21  1  0.95069200  0.81743000  0.13326100  1
  Hf  Hf22  1  0.04930800  0.18257000  0.86673900  1
  Hf  Hf23  1  0.52283000  0.39143000  0.13140000  1
  Hf  Hf24  1  0.47717000  0.60857000  0.86860000  1
  Hf  Hf25  1  0.73997000  0.60857000  0.13140000  1
  Hf  Hf26  1  0.26003000  0.39143000  0.86860000  1
  P  P27  1  0.13851900  0.00000000  0.13851900  1
  P  P28  1  0.86148100  0.00000000  0.86148100  1
  P  P29  1  0.69129900  0.50000000  0.19129900  1
  P  P30  1  0.30870100  0.50000000  0.80870100  1
  P  P31  1  0.56011900  0.56011900  0.00000000  1
  P  P32  1  0.43988100  0.43988100  0.00000000  1
  P  P33  1  0.87531000  0.87531000  0.00000000  1
  P  P34  1  0.12469000  0.12469000  0.00000000  1
  P  P35  1  0.61174800  0.34321800  0.26853000  1
  P  P36  1  0.38825200  0.65678200  0.73147000  1
  P  P37  1  0.92531100  0.65678200  0.26853000  1
  P  P38  1  0.07468900  0.34321800  0.73147000  1
  P  P39  1  0.36121300  0.28548300  0.07572900  1
  P  P40  1  0.63878700  0.71451700  0.92427100  1
  P  P41  1  0.79024600  0.71451700  0.07572900  1
  P  P42  1  0.20975400  0.28548300  0.92427100  1
