# generated using pymatgen
data_Zn3Mo2O9
_symmetry_space_group_name_H-M   'P 1'
_cell_length_a   7.21451300
_cell_length_b   7.87236000
_cell_length_c   8.21929106
_cell_angle_alpha   63.55377778
_cell_angle_beta   90.00000000
_cell_angle_gamma   90.00000000
_symmetry_Int_Tables_number   1
_chemical_formula_structural   Zn3Mo2O9
_chemical_formula_sum   'Zn6 Mo4 O18'
_cell_volume   417.96556858
_cell_formula_units_Z   2
loop_
 _symmetry_equiv_pos_site_id
 _symmetry_equiv_pos_as_xyz
  1  'x, y, z'
loop_
 _atom_site_type_symbol
 _atom_site_label
 _atom_site_symmetry_multiplicity
 _atom_site_fract_x
 _atom_site_fract_y
 _atom_site_fract_z
 _atom_site_occupancy
  Zn  Zn0  1  0.00000000  0.50000000  0.50000000  1
  Zn  Zn1  1  0.50000000  0.50000000  0.50000000  1
  Zn  Zn2  1  0.25000000  0.67396900  0.69436100  1
  Zn  Zn3  1  0.75000000  0.32603100  0.30563900  1
  Zn  Zn4  1  0.25000000  0.83116300  0.24793700  1
  Zn  Zn5  1  0.75000000  0.16883700  0.75206300  1
  Mo  Mo6  1  0.25000000  0.32944600  0.18866400  1
  Mo  Mo7  1  0.75000000  0.67055400  0.81133600  1
  Mo  Mo8  1  0.25000000  0.06319300  0.76641000  1
  Mo  Mo9  1  0.75000000  0.93680700  0.23359000  1
  O  O10  1  0.25000000  0.10312100  0.18658100  1
  O  O11  1  0.75000000  0.89687900  0.81341900  1
  O  O12  1  0.25000000  0.50506700  0.95886200  1
  O  O13  1  0.75000000  0.49493300  0.04113800  1
  O  O14  1  0.04778900  0.21290500  0.72611200  1
  O  O15  1  0.54778900  0.78709500  0.27388800  1
  O  O16  1  0.95221100  0.78709500  0.27388800  1
  O  O17  1  0.45221100  0.21290500  0.72611200  1
  O  O18  1  0.25000000  0.95438900  0.61479100  1
  O  O19  1  0.75000000  0.04561100  0.38520900  1
  O  O20  1  0.25000000  0.87489300  0.98964100  1
  O  O21  1  0.75000000  0.12510700  0.01035900  1
  O  O22  1  0.04824400  0.35872900  0.30471500  1
  O  O23  1  0.54824400  0.64127100  0.69528500  1
  O  O24  1  0.95175600  0.64127100  0.69528500  1
  O  O25  1  0.45175600  0.35872900  0.30471500  1
  O  O26  1  0.25000000  0.60329000  0.48757700  1
  O  O27  1  0.75000000  0.39671000  0.51242300  1
