# generated using pymatgen
data_U(BO3)2
_symmetry_space_group_name_H-M   'P 1'
_cell_length_a   6.68110090
_cell_length_b   6.68110090
_cell_length_c   10.84815003
_cell_angle_alpha   60.39691011
_cell_angle_beta   60.39691011
_cell_angle_gamma   36.85724932
_symmetry_Int_Tables_number   1
_chemical_formula_structural   U(BO3)2
_chemical_formula_sum   'U2 B4 O12'
_cell_volume   247.97249010
_cell_formula_units_Z   2
loop_
 _symmetry_equiv_pos_site_id
 _symmetry_equiv_pos_as_xyz
  1  'x, y, z'
loop_
 _atom_site_type_symbol
 _atom_site_label
 _atom_site_symmetry_multiplicity
 _atom_site_fract_x
 _atom_site_fract_y
 _atom_site_fract_z
 _atom_site_occupancy
  U  U0  1  0.23745200  0.76254800  0.25000000  1
  U  U1  1  0.76254800  0.23745200  0.75000000  1
  B  B2  1  0.15092000  0.45142200  0.74934500  1
  B  B3  1  0.45142200  0.15092000  0.24934500  1
  B  B4  1  0.84908000  0.54857800  0.25065500  1
  B  B5  1  0.54857800  0.84908000  0.75065500  1
  O  O6  1  0.33188700  0.84367000  0.05582100  1
  O  O7  1  0.15633000  0.66811300  0.44417900  1
  O  O8  1  0.85930500  0.34372700  0.24660000  1
  O  O9  1  0.65627300  0.14069500  0.25340000  1
  O  O10  1  0.14069500  0.65627300  0.75340000  1
  O  O11  1  0.34372700  0.85930500  0.74660000  1
  O  O12  1  0.11749400  0.47466500  0.24145200  1
  O  O13  1  0.52533500  0.88250600  0.25854800  1
  O  O14  1  0.88250600  0.52533500  0.75854800  1
  O  O15  1  0.47466500  0.11749400  0.74145200  1
  O  O16  1  0.84367000  0.33188700  0.55582100  1
  O  O17  1  0.66811300  0.15633000  0.94417900  1
