# generated using pymatgen
data_Ba6Zn7F26
_symmetry_space_group_name_H-M   'P 1'
_cell_length_a   10.34674992
_cell_length_b   10.34674992
_cell_length_c   12.47999082
_cell_angle_alpha   53.59657595
_cell_angle_beta   53.59657595
_cell_angle_gamma   33.85641043
_symmetry_Int_Tables_number   1
_chemical_formula_structural   Ba6Zn7F26
_chemical_formula_sum   'Ba6 Zn7 F26'
_cell_volume   583.79927775
_cell_formula_units_Z   1
loop_
 _symmetry_equiv_pos_site_id
 _symmetry_equiv_pos_as_xyz
  1  'x, y, z'
loop_
 _atom_site_type_symbol
 _atom_site_label
 _atom_site_symmetry_multiplicity
 _atom_site_fract_x
 _atom_site_fract_y
 _atom_site_fract_z
 _atom_site_occupancy
  Ba  Ba0  1  0.65595800  0.65595800  0.10635400  1
  Ba  Ba1  1  0.34404200  0.34404200  0.89364600  1
  Ba  Ba2  1  0.35658900  0.35658900  0.40534300  1
  Ba  Ba3  1  0.64341100  0.64341100  0.59465700  1
  Ba  Ba4  1  0.85347600  0.85347600  0.15092000  1
  Ba  Ba5  1  0.14652400  0.14652400  0.84908000  1
  Zn  Zn6  1  0.74420000  0.25580000  0.50000000  1
  Zn  Zn7  1  0.25580000  0.74420000  0.50000000  1
  Zn  Zn8  1  0.01421900  0.01421900  0.21998500  1
  Zn  Zn9  1  0.98578100  0.98578100  0.78001500  1
  Zn  Zn10  1  0.22193000  0.22193000  0.28786000  1
  Zn  Zn11  1  0.77807000  0.77807000  0.71214000  1
  Zn  Zn12  1  0.50000000  0.50000000  0.00000000  1
  F  F13  1  0.37379100  0.37379100  0.16271500  1
  F  F14  1  0.62620900  0.62620900  0.83728500  1
  F  F15  1  0.08925500  0.08925500  0.41783800  1
  F  F16  1  0.91074500  0.91074500  0.58216200  1
  F  F17  1  0.14175800  0.14175800  0.08467400  1
  F  F18  1  0.85824200  0.85824200  0.91532600  1
  F  F19  1  0.88815800  0.88815800  0.32467200  1
  F  F20  1  0.11184200  0.11184200  0.67532800  1
  F  F21  1  0.59136300  0.59136300  0.41942300  1
  F  F22  1  0.40863700  0.40863700  0.58057700  1
  F  F23  1  0.72571500  0.22731800  0.91297600  1
  F  F24  1  0.77268200  0.27428500  0.08702400  1
  F  F25  1  0.27428500  0.77268200  0.08702400  1
  F  F26  1  0.99514800  0.52091400  0.61900700  1
  F  F27  1  0.47908600  0.00485200  0.38099300  1
  F  F28  1  0.00485200  0.47908600  0.38099300  1
  F  F29  1  0.52091400  0.99514800  0.61900700  1
  F  F30  1  0.98215500  0.52325100  0.85326700  1
  F  F31  1  0.47674900  0.01784500  0.14673300  1
  F  F32  1  0.01784500  0.47674900  0.14673300  1
  F  F33  1  0.52325100  0.98215500  0.85326700  1
  F  F34  1  0.25857700  0.72289900  0.67399000  1
  F  F35  1  0.27710100  0.74142300  0.32601000  1
  F  F36  1  0.74142300  0.27710100  0.32601000  1
  F  F37  1  0.72289900  0.25857700  0.67399000  1
  F  F38  1  0.22731800  0.72571500  0.91297600  1
