# generated using pymatgen
data_Sm2Mg
_symmetry_space_group_name_H-M   'P 1'
_cell_length_a   7.03946219
_cell_length_b   7.03946219
_cell_length_c   7.49433512
_cell_angle_alpha   74.70717149
_cell_angle_beta   74.70717149
_cell_angle_gamma   30.74534366
_symmetry_Int_Tables_number   1
_chemical_formula_structural   Sm2Mg
_chemical_formula_sum   'Sm4 Mg2'
_cell_volume   182.61436424
_cell_formula_units_Z   2
loop_
 _symmetry_equiv_pos_site_id
 _symmetry_equiv_pos_as_xyz
  1  'x, y, z'
loop_
 _atom_site_type_symbol
 _atom_site_label
 _atom_site_symmetry_multiplicity
 _atom_site_fract_x
 _atom_site_fract_y
 _atom_site_fract_z
 _atom_site_occupancy
  Sm  Sm0  1  0.84706400  0.84706400  0.57129000  1
  Sm  Sm1  1  0.15293600  0.15293600  0.42871000  1
  Sm  Sm2  1  0.83619600  0.83619600  0.08721800  1
  Sm  Sm3  1  0.16380400  0.16380400  0.91278200  1
  Mg  Mg4  1  0.49620100  0.49620100  0.76387100  1
  Mg  Mg5  1  0.50379900  0.50379900  0.23612900  1
