# generated using pymatgen
data_Ba2V3O9
_symmetry_space_group_name_H-M   'P 1'
_cell_length_a   5.96825600
_cell_length_b   8.51145900
_cell_length_c   9.47349095
_cell_angle_alpha   65.72294200
_cell_angle_beta   90.00000000
_cell_angle_gamma   90.00000000
_symmetry_Int_Tables_number   1
_chemical_formula_structural   Ba2V3O9
_chemical_formula_sum   'Ba4 V6 O18'
_cell_volume   438.68275328
_cell_formula_units_Z   2
loop_
 _symmetry_equiv_pos_site_id
 _symmetry_equiv_pos_as_xyz
  1  'x, y, z'
loop_
 _atom_site_type_symbol
 _atom_site_label
 _atom_site_symmetry_multiplicity
 _atom_site_fract_x
 _atom_site_fract_y
 _atom_site_fract_z
 _atom_site_occupancy
  Ba  Ba0  1  0.25037300  0.79891000  0.09038200  1
  Ba  Ba1  1  0.75037300  0.20109000  0.90961800  1
  Ba  Ba2  1  0.24797400  0.20861500  0.26396600  1
  Ba  Ba3  1  0.74797400  0.79138500  0.73603400  1
  V  V4  1  0.01947800  0.51313100  0.49355900  1
  V  V5  1  0.51947800  0.48686900  0.50644100  1
  V  V6  1  0.25013800  0.48295300  0.82041800  1
  V  V7  1  0.24994900  0.08233200  0.68934900  1
  V  V8  1  0.75013800  0.51704700  0.17958200  1
  V  V9  1  0.74994900  0.91766800  0.31065100  1
  O  O10  1  0.75372000  0.67986100  0.42532600  1
  O  O11  1  0.01844500  0.01176400  0.80745900  1
  O  O12  1  0.51844500  0.98823600  0.19254100  1
  O  O13  1  0.97873900  0.98933500  0.18966300  1
  O  O14  1  0.74830200  0.34873700  0.57162700  1
  O  O15  1  0.47873900  0.01066500  0.81033700  1
  O  O16  1  0.25372000  0.32013900  0.57467400  1
  O  O17  1  0.49683900  0.52231100  0.70369700  1
  O  O18  1  0.24973900  0.61376800  0.91635000  1
  O  O19  1  0.75268800  0.01631000  0.43350200  1
  O  O20  1  0.24830200  0.65126300  0.42837300  1
  O  O21  1  0.25268800  0.98369000  0.56649800  1
  O  O22  1  0.50374300  0.47909300  0.29625800  1
  O  O23  1  0.25073100  0.27249400  0.95133400  1
  O  O24  1  0.00374300  0.52090700  0.70374200  1
  O  O25  1  0.74973900  0.38623200  0.08365000  1
  O  O26  1  0.75073100  0.72750600  0.04866600  1
  O  O27  1  0.99683900  0.47768900  0.29630300  1
