# generated using pymatgen
data_SmAlO3
_symmetry_space_group_name_H-M   'P 1'
_cell_length_a   5.31255700
_cell_length_b   5.35841300
_cell_length_c   7.53108400
_cell_angle_alpha   90.00000000
_cell_angle_beta   90.00000000
_cell_angle_gamma   90.00000000
_symmetry_Int_Tables_number   1
_chemical_formula_structural   SmAlO3
_chemical_formula_sum   'Sm4 Al4 O12'
_cell_volume   214.38642302
_cell_formula_units_Z   4
loop_
 _symmetry_equiv_pos_site_id
 _symmetry_equiv_pos_as_xyz
  1  'x, y, z'
loop_
 _atom_site_type_symbol
 _atom_site_label
 _atom_site_symmetry_multiplicity
 _atom_site_fract_x
 _atom_site_fract_y
 _atom_site_fract_z
 _atom_site_occupancy
  Sm  Sm0  1  0.49195000  0.00659200  0.25000000  1
  Sm  Sm1  1  0.00805000  0.50659200  0.75000000  1
  Sm  Sm2  1  0.99195000  0.49340800  0.25000000  1
  Sm  Sm3  1  0.50805000  0.99340800  0.75000000  1
  Al  Al4  1  0.00000000  0.00000000  0.00000000  1
  Al  Al5  1  0.50000000  0.50000000  0.00000000  1
  Al  Al6  1  0.50000000  0.50000000  0.50000000  1
  Al  Al7  1  0.00000000  0.00000000  0.50000000  1
  O  O8  1  0.24199600  0.25771700  0.03768900  1
  O  O9  1  0.25800400  0.75771700  0.96231100  1
  O  O10  1  0.74199600  0.24228300  0.46231100  1
  O  O11  1  0.75800400  0.74228300  0.53768900  1
  O  O12  1  0.75800400  0.74228300  0.96231100  1
  O  O13  1  0.74199600  0.24228300  0.03768900  1
  O  O14  1  0.25800400  0.75771700  0.53768900  1
  O  O15  1  0.24199600  0.25771700  0.46231100  1
  O  O16  1  0.00310000  0.92984600  0.25000000  1
  O  O17  1  0.49690000  0.42984600  0.75000000  1
  O  O18  1  0.50310000  0.57015400  0.25000000  1
  O  O19  1  0.99690000  0.07015400  0.75000000  1
