# generated using pymatgen
data_Ca2Nd2Nb3FeO14
_symmetry_space_group_name_H-M   'P 1'
_cell_length_a   7.40522500
_cell_length_b   7.50017700
_cell_length_c   12.88358198
_cell_angle_alpha   54.98137655
_cell_angle_beta   90.00000000
_cell_angle_gamma   90.00000000
_symmetry_Int_Tables_number   1
_chemical_formula_structural   Ca2Nd2Nb3FeO14
_chemical_formula_sum   'Ca4 Nd4 Nb6 Fe2 O28'
_cell_volume   586.01946027
_cell_formula_units_Z   2
loop_
 _symmetry_equiv_pos_site_id
 _symmetry_equiv_pos_as_xyz
  1  'x, y, z'
loop_
 _atom_site_type_symbol
 _atom_site_label
 _atom_site_symmetry_multiplicity
 _atom_site_fract_x
 _atom_site_fract_y
 _atom_site_fract_z
 _atom_site_occupancy
  Ca  Ca0  1  0.50000000  0.50000000  0.50000000  1
  Ca  Ca1  1  0.74254000  0.50000000  0.25000000  1
  Ca  Ca2  1  0.25746000  0.50000000  0.75000000  1
  Ca  Ca3  1  0.50000000  0.50000000  0.00000000  1
  Nd  Nd4  1  0.25757800  0.00000000  0.75000000  1
  Nd  Nd5  1  0.74242200  0.00000000  0.25000000  1
  Nd  Nd6  1  0.00000000  0.50000000  0.50000000  1
  Nd  Nd7  1  0.00000000  0.50000000  0.00000000  1
  Nb  Nb8  1  0.50000000  0.00000000  0.00000000  1
  Nb  Nb9  1  0.50000000  0.00000000  0.50000000  1
  Nb  Nb10  1  0.76186600  0.50000000  0.75000000  1
  Nb  Nb11  1  0.76287600  0.00000000  0.75000000  1
  Nb  Nb12  1  0.23813400  0.50000000  0.25000000  1
  Nb  Nb13  1  0.23712400  0.00000000  0.25000000  1
  Fe  Fe14  1  0.00000000  0.00000000  0.00000000  1
  Fe  Fe15  1  0.00000000  0.00000000  0.50000000  1
  O  O16  1  0.44457500  0.32140700  0.37250200  1
  O  O17  1  0.75500700  0.32356400  0.67551100  1
  O  O18  1  0.74706200  0.62597900  0.37367400  1
  O  O19  1  0.74809000  0.93289000  0.07269800  1
  O  O20  1  0.95294000  0.92351100  0.87392300  1
  O  O21  1  0.94817200  0.32746300  0.87631200  1
  O  O22  1  0.95294000  0.07648900  0.62607700  1
  O  O23  1  0.05182800  0.32746300  0.37631200  1
  O  O24  1  0.24499300  0.32356400  0.17551100  1
  O  O25  1  0.25191000  0.06711000  0.92730200  1
  O  O26  1  0.25293800  0.62597900  0.87367400  1
  O  O27  1  0.24499300  0.67643600  0.32448900  1
  O  O28  1  0.25191000  0.93289000  0.57269800  1
  O  O29  1  0.44695300  0.93420400  0.37050500  1
  O  O30  1  0.44457500  0.67859300  0.12749800  1
  O  O31  1  0.44695300  0.06579600  0.12949500  1
  O  O32  1  0.55304700  0.06579600  0.62949500  1
  O  O33  1  0.55304700  0.93420400  0.87050500  1
  O  O34  1  0.55542500  0.32140700  0.87250200  1
  O  O35  1  0.74809000  0.06711000  0.42730200  1
  O  O36  1  0.75500700  0.67643600  0.82448900  1
  O  O37  1  0.74706200  0.37402100  0.12632600  1
  O  O38  1  0.94817200  0.67253700  0.62368800  1
  O  O39  1  0.04706000  0.92351100  0.37392300  1
  O  O40  1  0.05182800  0.67253700  0.12368800  1
  O  O41  1  0.04706000  0.07648900  0.12607700  1
  O  O42  1  0.25293800  0.37402100  0.62632600  1
  O  O43  1  0.55542500  0.67859300  0.62749800  1
