# generated using pymatgen
data_CuAsSe2
_symmetry_space_group_name_H-M   'P 1'
_cell_length_a   7.21979884
_cell_length_b   7.21979884
_cell_length_c   7.21979884
_cell_angle_alpha   132.68764358
_cell_angle_beta   132.68764358
_cell_angle_gamma   69.14511297
_symmetry_Int_Tables_number   1
_chemical_formula_structural   CuAsSe2
_chemical_formula_sum   'Cu2 As2 Se4'
_cell_volume   199.56060470
_cell_formula_units_Z   2
loop_
 _symmetry_equiv_pos_site_id
 _symmetry_equiv_pos_as_xyz
  1  'x, y, z'
loop_
 _atom_site_type_symbol
 _atom_site_label
 _atom_site_symmetry_multiplicity
 _atom_site_fract_x
 _atom_site_fract_y
 _atom_site_fract_z
 _atom_site_occupancy
  Cu  Cu0  1  0.25000000  0.75000000  0.50000000  1
  Cu  Cu1  1  0.50000000  0.50000000  0.00000000  1
  As  As2  1  0.75000000  0.25000000  0.50000000  1
  As  As3  1  0.00000000  0.00000000  0.00000000  1
  Se  Se4  1  0.87500000  0.40580200  0.03080200  1
  Se  Se5  1  0.15580200  0.12500000  0.53080200  1
  Se  Se6  1  0.37500000  0.84419800  0.96919800  1
  Se  Se7  1  0.59419800  0.62500000  0.46919800  1
