# generated using pymatgen
data_Bi2WO8
_symmetry_space_group_name_H-M   'P 1'
_cell_length_a   5.45375000
_cell_length_b   5.72327557
_cell_length_c   5.80677431
_cell_angle_alpha   112.11817853
_cell_angle_beta   103.39806496
_cell_angle_gamma   97.50200568
_symmetry_Int_Tables_number   1
_chemical_formula_structural   Bi2WO8
_chemical_formula_sum   'Bi2 W1 O8'
_cell_volume   158.49825479
_cell_formula_units_Z   1
loop_
 _symmetry_equiv_pos_site_id
 _symmetry_equiv_pos_as_xyz
  1  'x, y, z'
loop_
 _atom_site_type_symbol
 _atom_site_label
 _atom_site_symmetry_multiplicity
 _atom_site_fract_x
 _atom_site_fract_y
 _atom_site_fract_z
 _atom_site_occupancy
  Bi  Bi0  1  0.52095300  0.95257600  0.02273800  1
  Bi  Bi1  1  0.76302400  0.77139800  0.50308600  1
  W  W2  1  0.16952000  0.35122800  0.48871700  1
  O  O3  1  0.20212500  0.22571200  0.72528200  1
  O  O4  1  0.13809700  0.72502700  0.70456400  1
  O  O5  1  0.29760600  0.21367600  0.20838200  1
  O  O6  1  0.41341000  0.72787000  0.21874100  1
  O  O7  1  0.53521600  0.58042700  0.68359600  1
  O  O8  1  0.71563900  0.09598600  0.80887700  1
  O  O9  1  0.90334800  0.95501300  0.27264300  1
  O  O10  1  0.82106300  0.38108500  0.32337400  1
