# generated using pymatgen
data_Ba(InTe2)2
_symmetry_space_group_name_H-M   'P 1'
_cell_length_a   7.14305621
_cell_length_b   7.14305621
_cell_length_c   7.14305621
_cell_angle_alpha   104.68379524
_cell_angle_beta   104.68379524
_cell_angle_gamma   119.54001356
_symmetry_Int_Tables_number   1
_chemical_formula_structural   Ba(InTe2)2
_chemical_formula_sum   'Ba1 In2 Te4'
_cell_volume   273.96601649
_cell_formula_units_Z   1
loop_
 _symmetry_equiv_pos_site_id
 _symmetry_equiv_pos_as_xyz
  1  'x, y, z'
loop_
 _atom_site_type_symbol
 _atom_site_label
 _atom_site_symmetry_multiplicity
 _atom_site_fract_x
 _atom_site_fract_y
 _atom_site_fract_z
 _atom_site_occupancy
  Ba  Ba0  1  0.00000000  0.00000000  0.00000000  1
  In  In1  1  0.50000000  0.00000000  0.50000000  1
  In  In2  1  0.00000000  0.50000000  0.50000000  1
  Te  Te3  1  0.92900400  0.07099600  0.50000000  1
  Te  Te4  1  0.07099600  0.57099600  0.14199300  1
  Te  Te5  1  0.42900400  0.92900400  0.85800700  1
  Te  Te6  1  0.57099600  0.42900400  0.50000000  1
