# generated using pymatgen
data_NaYF4
_symmetry_space_group_name_H-M   'P 1'
_cell_length_a   6.07122245
_cell_length_b   6.07122245
_cell_length_c   7.10516000
_cell_angle_alpha   90.00000000
_cell_angle_beta   90.00000000
_cell_angle_gamma   120.00000487
_symmetry_Int_Tables_number   1
_chemical_formula_structural   NaYF4
_chemical_formula_sum   'Na3 Y3 F12'
_cell_volume   226.80716160
_cell_formula_units_Z   3
loop_
 _symmetry_equiv_pos_site_id
 _symmetry_equiv_pos_as_xyz
  1  'x, y, z'
loop_
 _atom_site_type_symbol
 _atom_site_label
 _atom_site_symmetry_multiplicity
 _atom_site_fract_x
 _atom_site_fract_y
 _atom_site_fract_z
 _atom_site_occupancy
  Na  Na0  1  0.00000000  0.00000000  0.28771100  1
  Na  Na1  1  0.00000000  0.00000000  0.71228900  1
  Na  Na2  1  0.33333300  0.66666700  0.50000000  1
  Y  Y3  1  0.66666700  0.33333300  0.74662200  1
  Y  Y4  1  0.66666700  0.33333300  0.25337800  1
  Y  Y5  1  0.33333300  0.66666700  0.00000000  1
  F  F6  1  0.91210200  0.30600100  0.00000000  1
  F  F7  1  0.89193600  0.27605200  0.50000000  1
  F  F8  1  0.69399900  0.60610100  0.00000000  1
  F  F9  1  0.72394800  0.61588400  0.50000000  1
  F  F10  1  0.07334600  0.67555800  0.76442600  1
  F  F11  1  0.07334600  0.67555800  0.23557400  1
  F  F12  1  0.38411600  0.10806400  0.50000000  1
  F  F13  1  0.39389900  0.08789800  0.00000000  1
  F  F14  1  0.32444200  0.39778800  0.76442600  1
  F  F15  1  0.32444200  0.39778800  0.23557400  1
  F  F16  1  0.60221200  0.92665400  0.76442600  1
  F  F17  1  0.60221200  0.92665400  0.23557400  1
