# generated using pymatgen
data_Ba(NdSe2)2
_symmetry_space_group_name_H-M   'P 1'
_cell_length_a   7.98922332
_cell_length_b   7.98922332
_cell_length_c   7.98922332
_cell_angle_alpha   109.40697012
_cell_angle_beta   109.40697012
_cell_angle_gamma   109.59979823
_symmetry_Int_Tables_number   1
_chemical_formula_structural   Ba(NdSe2)2
_chemical_formula_sum   'Ba2 Nd4 Se8'
_cell_volume   392.54563477
_cell_formula_units_Z   2
loop_
 _symmetry_equiv_pos_site_id
 _symmetry_equiv_pos_as_xyz
  1  'x, y, z'
loop_
 _atom_site_type_symbol
 _atom_site_label
 _atom_site_symmetry_multiplicity
 _atom_site_fract_x
 _atom_site_fract_y
 _atom_site_fract_z
 _atom_site_occupancy
  Ba  Ba0  1  0.50000000  0.50000000  0.00000000  1
  Ba  Ba1  1  0.75000000  0.25000000  0.50000000  1
  Nd  Nd2  1  0.62500000  0.99854100  0.87354100  1
  Nd  Nd3  1  0.00145900  0.87500000  0.62645900  1
  Nd  Nd4  1  0.12500000  0.75145900  0.12645900  1
  Nd  Nd5  1  0.24854100  0.37500000  0.37354100  1
  Se  Se6  1  0.35371800  0.10800800  0.08946600  1
  Se  Se7  1  0.35800800  0.10371800  0.58946600  1
  Se  Se8  1  0.73574700  0.64628200  0.75428900  1
  Se  Se9  1  0.89199200  0.98145800  0.24571100  1
  Se  Se10  1  0.51425300  0.76854200  0.41053400  1
  Se  Se11  1  0.89628200  0.48574700  0.25428900  1
  Se  Se12  1  0.23145800  0.64199200  0.74571100  1
  Se  Se13  1  0.01854200  0.26425300  0.91053400  1
