# generated using pymatgen
data_Ta4SnO12
_symmetry_space_group_name_H-M   'P 1'
_cell_length_a   6.87555581
_cell_length_b   6.87555581
_cell_length_c   6.87555581
_cell_angle_alpha   109.47122063
_cell_angle_beta   109.47122063
_cell_angle_gamma   109.47122063
_symmetry_Int_Tables_number   1
_chemical_formula_structural   Ta4SnO12
_chemical_formula_sum   'Ta4 Sn1 O12'
_cell_volume   250.20820367
_cell_formula_units_Z   1
loop_
 _symmetry_equiv_pos_site_id
 _symmetry_equiv_pos_as_xyz
  1  'x, y, z'
loop_
 _atom_site_type_symbol
 _atom_site_label
 _atom_site_symmetry_multiplicity
 _atom_site_fract_x
 _atom_site_fract_y
 _atom_site_fract_z
 _atom_site_occupancy
  Ta  Ta0  1  0.50000000  0.00000000  0.00000000  1
  Ta  Ta1  1  0.00000000  0.00000000  0.50000000  1
  Ta  Ta2  1  0.50000000  0.50000000  0.50000000  1
  Ta  Ta3  1  0.00000000  0.50000000  0.00000000  1
  Sn  Sn4  1  0.00000000  0.00000000  0.00000000  1
  O  O5  1  0.75699300  0.75699300  0.51398700  1
  O  O6  1  0.24300700  0.75699300  0.00000000  1
  O  O7  1  0.48601300  0.24300700  0.24300700  1
  O  O8  1  0.00000000  0.24300700  0.75699300  1
  O  O9  1  0.75699300  0.24300700  0.00000000  1
  O  O10  1  0.24300700  0.24300700  0.48601300  1
  O  O11  1  0.24300700  0.48601300  0.24300700  1
  O  O12  1  0.75699300  0.51398700  0.75699300  1
  O  O13  1  0.51398700  0.75699300  0.75699300  1
  O  O14  1  0.00000000  0.75699300  0.24300700  1
  O  O15  1  0.24300700  0.00000000  0.75699300  1
  O  O16  1  0.75699300  0.00000000  0.24300700  1
