# generated using pymatgen
data_Mn2CuO4
_symmetry_space_group_name_H-M   'P 1'
_cell_length_a   6.02008504
_cell_length_b   6.02008504
_cell_length_c   6.02008521
_cell_angle_alpha   60.30232546
_cell_angle_beta   60.30232546
_cell_angle_gamma   60.30232854
_symmetry_Int_Tables_number   1
_chemical_formula_structural   Mn2CuO4
_chemical_formula_sum   'Mn4 Cu2 O8'
_cell_volume   155.32949076
_cell_formula_units_Z   2
loop_
 _symmetry_equiv_pos_site_id
 _symmetry_equiv_pos_as_xyz
  1  'x, y, z'
loop_
 _atom_site_type_symbol
 _atom_site_label
 _atom_site_symmetry_multiplicity
 _atom_site_fract_x
 _atom_site_fract_y
 _atom_site_fract_z
 _atom_site_occupancy
  Mn  Mn0  1  0.99789000  0.99789000  0.99789000  1
  Mn  Mn1  1  0.87267500  0.37575900  0.37575900  1
  Mn  Mn2  1  0.37575900  0.37575900  0.87267500  1
  Mn  Mn3  1  0.37575900  0.87267500  0.37575900  1
  Cu  Cu4  1  0.75136300  0.75136300  0.75136300  1
  Cu  Cu5  1  0.37540500  0.37540500  0.37540500  1
  O  O6  1  0.61916000  0.61916000  0.61916000  1
  O  O7  1  0.61955900  0.16285500  0.61955900  1
  O  O8  1  0.61955900  0.61955900  0.16285500  1
  O  O9  1  0.16285500  0.61955900  0.61955900  1
  O  O10  1  0.58333500  0.13155400  0.13155400  1
  O  O11  1  0.13155400  0.58333500  0.13155400  1
  O  O12  1  0.13155400  0.13155400  0.58333500  1
  O  O13  1  0.13357200  0.13357200  0.13357200  1
