# generated using pymatgen
data_Th3Pt
_symmetry_space_group_name_H-M   'P 1'
_cell_length_a   7.00590900
_cell_length_b   7.00590774
_cell_length_c   5.14502900
_cell_angle_alpha   90.00000000
_cell_angle_beta   90.00000000
_cell_angle_gamma   120.00000125
_symmetry_Int_Tables_number   1
_chemical_formula_structural   Th3Pt
_chemical_formula_sum   'Th6 Pt2'
_cell_volume   218.69928280
_cell_formula_units_Z   2
loop_
 _symmetry_equiv_pos_site_id
 _symmetry_equiv_pos_as_xyz
  1  'x, y, z'
loop_
 _atom_site_type_symbol
 _atom_site_label
 _atom_site_symmetry_multiplicity
 _atom_site_fract_x
 _atom_site_fract_y
 _atom_site_fract_z
 _atom_site_occupancy
  Th  Th0  1  0.17773300  0.35546500  0.25000100  1
  Th  Th1  1  0.64453400  0.82226600  0.25000100  1
  Th  Th2  1  0.17773300  0.82226600  0.25000100  1
  Th  Th3  1  0.82226800  0.64453500  0.74999900  1
  Th  Th4  1  0.35546600  0.17773400  0.74999900  1
  Th  Th5  1  0.82226800  0.17773400  0.74999900  1
  Pt  Pt6  1  0.33333300  0.66666600  0.74999900  1
  Pt  Pt7  1  0.66666800  0.33333300  0.25000100  1
