# generated using pymatgen
data_NiTe2O5
_symmetry_space_group_name_H-M   'P 1'
_cell_length_a   8.51573800
_cell_length_b   9.01926800
_cell_length_c   12.30252100
_cell_angle_alpha   90.00000000
_cell_angle_beta   90.00000000
_cell_angle_gamma   90.00000000
_symmetry_Int_Tables_number   1
_chemical_formula_structural   NiTe2O5
_chemical_formula_sum   'Ni8 Te16 O40'
_cell_volume   944.90402308
_cell_formula_units_Z   8
loop_
 _symmetry_equiv_pos_site_id
 _symmetry_equiv_pos_as_xyz
  1  'x, y, z'
loop_
 _atom_site_type_symbol
 _atom_site_label
 _atom_site_symmetry_multiplicity
 _atom_site_fract_x
 _atom_site_fract_y
 _atom_site_fract_z
 _atom_site_occupancy
  Ni  Ni0  1  0.98483000  0.51703700  0.12334700  1
  Ni  Ni1  1  0.48483000  0.98296300  0.87665300  1
  Ni  Ni2  1  0.51517000  0.01703700  0.37665300  1
  Ni  Ni3  1  0.01517000  0.48296300  0.62334700  1
  Ni  Ni4  1  0.01517000  0.48296300  0.87665300  1
  Ni  Ni5  1  0.51517000  0.01703700  0.12334700  1
  Ni  Ni6  1  0.48483000  0.98296300  0.62334700  1
  Ni  Ni7  1  0.98483000  0.51703700  0.37665300  1
  Te  Te8  1  0.15980700  0.84929200  0.48634500  1
  Te  Te9  1  0.65980700  0.65070800  0.51365500  1
  Te  Te10  1  0.34019300  0.34929200  0.01365500  1
  Te  Te11  1  0.84019300  0.15070800  0.98634500  1
  Te  Te12  1  0.84019300  0.15070800  0.51365500  1
  Te  Te13  1  0.34019300  0.34929200  0.48634500  1
  Te  Te14  1  0.65980700  0.65070800  0.98634500  1
  Te  Te15  1  0.15980700  0.84929200  0.01365500  1
  Te  Te16  1  0.19780900  0.10509200  0.25000000  1
  Te  Te17  1  0.69780900  0.39490800  0.75000000  1
  Te  Te18  1  0.30219100  0.60509200  0.25000000  1
  Te  Te19  1  0.80219100  0.89490800  0.75000000  1
  Te  Te20  1  0.68128300  0.33354700  0.25000000  1
  Te  Te21  1  0.18128300  0.16645300  0.75000000  1
  Te  Te22  1  0.81871700  0.83354700  0.25000000  1
  Te  Te23  1  0.31871700  0.66645300  0.75000000  1
  O  O24  1  0.65549200  0.12087300  0.25000000  1
  O  O25  1  0.15549200  0.37912700  0.75000000  1
  O  O26  1  0.84450800  0.62087300  0.25000000  1
  O  O27  1  0.34450800  0.87912700  0.75000000  1
  O  O28  1  0.13313200  0.46470000  0.25000000  1
  O  O29  1  0.63313200  0.03530000  0.75000000  1
  O  O30  1  0.36686800  0.96470000  0.25000000  1
  O  O31  1  0.86686800  0.53530000  0.75000000  1
  O  O32  1  0.40930300  0.49201300  0.12685100  1
  O  O33  1  0.90930300  0.00798700  0.87314900  1
  O  O34  1  0.09069700  0.99201300  0.37314900  1
  O  O35  1  0.59069700  0.50798700  0.62685100  1
  O  O36  1  0.59069700  0.50798700  0.87314900  1
  O  O37  1  0.09069700  0.99201300  0.12685100  1
  O  O38  1  0.90930300  0.00798700  0.62685100  1
  O  O39  1  0.40930300  0.49201300  0.37314900  1
  O  O40  1  0.14755000  0.69039400  0.11612600  1
  O  O41  1  0.64755000  0.80960600  0.88387400  1
  O  O42  1  0.35245000  0.19039400  0.38387400  1
  O  O43  1  0.85245000  0.30960600  0.61612600  1
  O  O44  1  0.85245000  0.30960600  0.88387400  1
  O  O45  1  0.35245000  0.19039400  0.11612600  1
  O  O46  1  0.64755000  0.80960600  0.61612600  1
  O  O47  1  0.14755000  0.69039400  0.38387400  1
  O  O48  1  0.11968800  0.38497400  0.48697400  1
  O  O49  1  0.61968800  0.11502600  0.51302600  1
  O  O50  1  0.38031200  0.88497400  0.01302600  1
  O  O51  1  0.88031200  0.61502600  0.98697400  1
  O  O52  1  0.88031200  0.61502600  0.51302600  1
  O  O53  1  0.38031200  0.88497400  0.48697400  1
  O  O54  1  0.61968800  0.11502600  0.98697400  1
  O  O55  1  0.11968800  0.38497400  0.01302600  1
  O  O56  1  0.82354500  0.34386700  0.13014900  1
  O  O57  1  0.32354500  0.15613300  0.86985100  1
  O  O58  1  0.67645500  0.84386700  0.36985100  1
  O  O59  1  0.17645500  0.65613300  0.63014900  1
  O  O60  1  0.17645500  0.65613300  0.86985100  1
  O  O61  1  0.67645500  0.84386700  0.13014900  1
  O  O62  1  0.32354500  0.15613300  0.63014900  1
  O  O63  1  0.82354500  0.34386700  0.36985100  1
