# generated using pymatgen
data_Si2N2O
_symmetry_space_group_name_H-M   'P 1'
_cell_length_a   12.31211592
_cell_length_b   12.31211592
_cell_length_c   12.31211592
_cell_angle_alpha   154.21363758
_cell_angle_beta   154.21363758
_cell_angle_gamma   36.78916079
_symmetry_Int_Tables_number   1
_chemical_formula_structural   Si2N2O
_chemical_formula_sum   'Si16 N16 O8'
_cell_volume   352.70622961
_cell_formula_units_Z   8
loop_
 _symmetry_equiv_pos_site_id
 _symmetry_equiv_pos_as_xyz
  1  'x, y, z'
loop_
 _atom_site_type_symbol
 _atom_site_label
 _atom_site_symmetry_multiplicity
 _atom_site_fract_x
 _atom_site_fract_y
 _atom_site_fract_z
 _atom_site_occupancy
  Si  Si0  1  0.70692300  0.95719000  0.25026600  1
  Si  Si1  1  0.54334300  0.29307700  0.25026600  1
  Si  Si2  1  0.04281000  0.29307700  0.74973400  1
  Si  Si3  1  0.04307700  0.79334300  0.75026600  1
  Si  Si4  1  0.04307700  0.29281000  0.24973400  1
  Si  Si5  1  0.70719000  0.95692300  0.75026600  1
  Si  Si6  1  0.20665700  0.95692300  0.24973400  1
  Si  Si7  1  0.70692300  0.45665700  0.74973400  1
  Si  Si8  1  0.91886700  0.41886700  0.50000000  1
  Si  Si9  1  0.16886700  0.16886700  0.00000000  1
  Si  Si10  1  0.83113300  0.83113300  0.00000000  1
  Si  Si11  1  0.58113300  0.08113300  0.50000000  1
  Si  Si12  1  0.37500000  0.62500000  0.25000000  1
  Si  Si13  1  0.37500000  0.62500000  0.75000000  1
  Si  Si14  1  0.87500000  0.62500000  0.25000000  1
  Si  Si15  1  0.37500000  0.12500000  0.75000000  1
  N  N16  1  0.12450900  0.38738200  0.26287300  1
  N  N17  1  0.13738200  0.37450900  0.76287300  1
  N  N18  1  0.61163600  0.37450900  0.23712700  1
  N  N19  1  0.62549100  0.38836400  0.76287300  1
  N  N20  1  0.12450900  0.86163600  0.73712700  1
  N  N21  1  0.13836400  0.87549100  0.26287300  1
  N  N22  1  0.61261800  0.87549100  0.73712700  1
  N  N23  1  0.62549100  0.86261800  0.23712700  1
  N  N24  1  0.78775000  0.05092100  0.26317100  1
  N  N25  1  0.47542100  0.21225000  0.26317100  1
  N  N26  1  0.94907900  0.21225000  0.73682900  1
  N  N27  1  0.96225000  0.72542100  0.76317100  1
  N  N28  1  0.96225000  0.19907900  0.23682900  1
  N  N29  1  0.80092100  0.03775000  0.76317100  1
  N  N30  1  0.27457900  0.03775000  0.23682900  1
  N  N31  1  0.78775000  0.52457900  0.73682900  1
  O  O32  1  0.45145000  0.16658600  0.71513600  1
  O  O33  1  0.91658600  0.70145000  0.21513600  1
  O  O34  1  0.48631400  0.70145000  0.78486400  1
  O  O35  1  0.29855000  0.51368600  0.21513600  1
  O  O36  1  0.45145000  0.73631400  0.28486400  1
  O  O37  1  0.26368600  0.54855000  0.71513600  1
  O  O38  1  0.83341400  0.54855000  0.28486400  1
  O  O39  1  0.29855000  0.08341400  0.78486400  1
