# generated using pymatgen
data_Ba6Na16N
_symmetry_space_group_name_H-M   'P 1'
_cell_length_a   10.74624250
_cell_length_b   10.74624250
_cell_length_c   10.74624250
_cell_angle_alpha   109.47122063
_cell_angle_beta   109.47122063
_cell_angle_gamma   109.47122063
_symmetry_Int_Tables_number   1
_chemical_formula_structural   Ba6Na16N
_chemical_formula_sum   'Ba6 Na16 N1'
_cell_volume   955.31812845
_cell_formula_units_Z   1
loop_
 _symmetry_equiv_pos_site_id
 _symmetry_equiv_pos_as_xyz
  1  'x, y, z'
loop_
 _atom_site_type_symbol
 _atom_site_label
 _atom_site_symmetry_multiplicity
 _atom_site_fract_x
 _atom_site_fract_y
 _atom_site_fract_z
 _atom_site_occupancy
  Ba  Ba0  1  0.22908400  0.22908400  0.00000000  1
  Ba  Ba1  1  0.00000000  0.22908400  0.22908400  1
  Ba  Ba2  1  0.00000000  0.77091600  0.77091600  1
  Ba  Ba3  1  0.77091600  0.00000000  0.77091600  1
  Ba  Ba4  1  0.22908400  0.00000000  0.22908400  1
  Ba  Ba5  1  0.77091600  0.77091600  0.00000000  1
  Na  Na6  1  0.50000000  0.50000000  0.50000000  1
  Na  Na7  1  0.00000000  0.00000000  0.50000000  1
  Na  Na8  1  0.50000000  0.00000000  0.00000000  1
  Na  Na9  1  0.00000000  0.50000000  0.00000000  1
  Na  Na10  1  0.34761800  0.69523500  0.34761800  1
  Na  Na11  1  0.65238200  0.00000000  0.34761800  1
  Na  Na12  1  0.34761800  0.00000000  0.65238200  1
  Na  Na13  1  0.65238200  0.34761800  0.00000000  1
  Na  Na14  1  0.34761800  0.34761800  0.69523500  1
  Na  Na15  1  0.69523500  0.34761800  0.34761800  1
  Na  Na16  1  0.00000000  0.34761800  0.65238200  1
  Na  Na17  1  0.30476500  0.65238200  0.65238200  1
  Na  Na18  1  0.34761800  0.65238200  0.00000000  1
  Na  Na19  1  0.00000000  0.65238200  0.34761800  1
  Na  Na20  1  0.65238200  0.65238200  0.30476500  1
  Na  Na21  1  0.65238200  0.30476500  0.65238200  1
  N  N22  1  0.00000000  0.00000000  0.00000000  1
