# generated using pymatgen
data_Th3V
_symmetry_space_group_name_H-M   'P 1'
_cell_length_a   6.88475908
_cell_length_b   6.88475908
_cell_length_c   5.48759200
_cell_angle_alpha   90.00000000
_cell_angle_beta   90.00000000
_cell_angle_gamma   119.99999119
_symmetry_Int_Tables_number   1
_chemical_formula_structural   Th3V
_chemical_formula_sum   'Th6 V2'
_cell_volume   225.26306030
_cell_formula_units_Z   2
loop_
 _symmetry_equiv_pos_site_id
 _symmetry_equiv_pos_as_xyz
  1  'x, y, z'
loop_
 _atom_site_type_symbol
 _atom_site_label
 _atom_site_symmetry_multiplicity
 _atom_site_fract_x
 _atom_site_fract_y
 _atom_site_fract_z
 _atom_site_occupancy
  Th  Th0  1  0.17712300  0.35424700  0.25000000  1
  Th  Th1  1  0.64575300  0.82287700  0.25000000  1
  Th  Th2  1  0.17712300  0.82287700  0.25000000  1
  Th  Th3  1  0.82287700  0.64575300  0.75000000  1
  Th  Th4  1  0.35424700  0.17712300  0.75000000  1
  Th  Th5  1  0.82287700  0.17712300  0.75000000  1
  V  V6  1  0.33333300  0.66666700  0.75000000  1
  V  V7  1  0.66666700  0.33333300  0.25000000  1
