# generated using pymatgen
data_Na2As4O11
_symmetry_space_group_name_H-M   'P 1'
_cell_length_a   6.26356508
_cell_length_b   6.26356508
_cell_length_c   11.77640487
_cell_angle_alpha   80.35957534
_cell_angle_beta   80.35957534
_cell_angle_gamma   84.89730554
_symmetry_Int_Tables_number   1
_chemical_formula_structural   Na2As4O11
_chemical_formula_sum   'Na4 As8 O22'
_cell_volume   448.17568419
_cell_formula_units_Z   2
loop_
 _symmetry_equiv_pos_site_id
 _symmetry_equiv_pos_as_xyz
  1  'x, y, z'
loop_
 _atom_site_type_symbol
 _atom_site_label
 _atom_site_symmetry_multiplicity
 _atom_site_fract_x
 _atom_site_fract_y
 _atom_site_fract_z
 _atom_site_occupancy
  Na  Na0  1  0.45812000  0.26551600  0.46568400  1
  Na  Na1  1  0.73448400  0.54188000  0.03431600  1
  Na  Na2  1  0.54188000  0.73448400  0.53431600  1
  Na  Na3  1  0.26551600  0.45812000  0.96568400  1
  As  As4  1  0.53395600  0.95718300  0.83388600  1
  As  As5  1  0.04281700  0.46604400  0.66611400  1
  As  As6  1  0.46604400  0.04281700  0.16611400  1
  As  As7  1  0.95718300  0.53395600  0.33388600  1
  As  As8  1  0.91694200  0.99907800  0.61812600  1
  As  As9  1  0.00092200  0.08305800  0.88187400  1
  As  As10  1  0.08305800  0.00092200  0.38187400  1
  As  As11  1  0.99907800  0.91694200  0.11812600  1
  O  O12  1  0.52859900  0.69251200  0.88195400  1
  O  O13  1  0.30748800  0.47140100  0.61804600  1
  O  O14  1  0.47140100  0.30748800  0.11804600  1
  O  O15  1  0.69251200  0.52859900  0.38195400  1
  O  O16  1  0.30244600  0.12903800  0.85629500  1
  O  O17  1  0.87096200  0.69755400  0.64370500  1
  O  O18  1  0.69755400  0.87096200  0.14370500  1
  O  O19  1  0.12903800  0.30244600  0.35629500  1
  O  O20  1  0.69742700  0.09436200  0.90092400  1
  O  O21  1  0.90563800  0.30257300  0.59907600  1
  O  O22  1  0.30257300  0.90563800  0.09907600  1
  O  O23  1  0.09436200  0.69742700  0.40092400  1
  O  O24  1  0.61977000  0.02105600  0.68195900  1
  O  O25  1  0.97894400  0.38023000  0.81804100  1
  O  O26  1  0.38023000  0.97894400  0.31804100  1
  O  O27  1  0.02105600  0.61977000  0.18195900  1
  O  O28  1  0.81496100  0.02411900  0.47566600  1
  O  O29  1  0.97588100  0.18503900  0.02433400  1
  O  O30  1  0.18503900  0.97588100  0.52433400  1
  O  O31  1  0.02411900  0.81496100  0.97566600  1
  O  O32  1  0.04304900  0.95695100  0.75000000  1
  O  O33  1  0.95695100  0.04304900  0.25000000  1
