# generated using pymatgen
data_BaHo2CoO5
_symmetry_space_group_name_H-M   'P 1'
_cell_length_a   5.74116300
_cell_length_b   7.10775600
_cell_length_c   12.32996100
_cell_angle_alpha   90.00000000
_cell_angle_beta   90.00000000
_cell_angle_gamma   90.00000000
_symmetry_Int_Tables_number   1
_chemical_formula_structural   BaHo2CoO5
_chemical_formula_sum   'Ba4 Ho8 Co4 O20'
_cell_volume   503.14607696
_cell_formula_units_Z   4
loop_
 _symmetry_equiv_pos_site_id
 _symmetry_equiv_pos_as_xyz
  1  'x, y, z'
loop_
 _atom_site_type_symbol
 _atom_site_label
 _atom_site_symmetry_multiplicity
 _atom_site_fract_x
 _atom_site_fract_y
 _atom_site_fract_z
 _atom_site_occupancy
  Ba  Ba0  1  0.25000000  0.92151200  0.89994700  1
  Ba  Ba1  1  0.75000000  0.07848800  0.10005300  1
  Ba  Ba2  1  0.75000000  0.42151200  0.60005300  1
  Ba  Ba3  1  0.25000000  0.57848800  0.39994700  1
  Ho  Ho4  1  0.25000000  0.11896100  0.29154500  1
  Ho  Ho5  1  0.75000000  0.88103900  0.70845500  1
  Ho  Ho6  1  0.75000000  0.61896100  0.20845500  1
  Ho  Ho7  1  0.25000000  0.38103900  0.79154500  1
  Ho  Ho8  1  0.25000000  0.40116100  0.07447400  1
  Ho  Ho9  1  0.75000000  0.59883900  0.92552600  1
  Ho  Ho10  1  0.75000000  0.90116100  0.42552600  1
  Ho  Ho11  1  0.25000000  0.09883900  0.57447400  1
  Co  Co12  1  0.25000000  0.69258600  0.65248100  1
  Co  Co13  1  0.75000000  0.30741400  0.34751900  1
  Co  Co14  1  0.75000000  0.19258600  0.84751900  1
  Co  Co15  1  0.25000000  0.80741400  0.15248100  1
  O  O16  1  0.99673200  0.16555900  0.43423100  1
  O  O17  1  0.49673200  0.83444100  0.56576900  1
  O  O18  1  0.00326800  0.66555900  0.06576900  1
  O  O19  1  0.50326800  0.33444100  0.93423100  1
  O  O20  1  0.00326800  0.83444100  0.56576900  1
  O  O21  1  0.50326800  0.16555900  0.43423100  1
  O  O22  1  0.99673200  0.33444100  0.93423100  1
  O  O23  1  0.49673200  0.66555900  0.06576900  1
  O  O24  1  0.50078600  0.36050100  0.22465700  1
  O  O25  1  0.00078600  0.63949900  0.77534300  1
  O  O26  1  0.49921400  0.86050100  0.27534300  1
  O  O27  1  0.99921400  0.13949900  0.72465700  1
  O  O28  1  0.49921400  0.63949900  0.77534300  1
  O  O29  1  0.99921400  0.36050100  0.22465700  1
  O  O30  1  0.50078600  0.13949900  0.72465700  1
  O  O31  1  0.00078600  0.86050100  0.27534300  1
  O  O32  1  0.25000000  0.07630800  0.10248700  1
  O  O33  1  0.75000000  0.92369200  0.89751300  1
  O  O34  1  0.75000000  0.57630800  0.39751300  1
  O  O35  1  0.25000000  0.42369200  0.60248700  1
