# generated using pymatgen
data_Fe2Mo3O8
_symmetry_space_group_name_H-M   'P 1'
_cell_length_a   6.31316675
_cell_length_b   6.31316675
_cell_length_c   9.42398800
_cell_angle_alpha   90.00000000
_cell_angle_beta   90.00000000
_cell_angle_gamma   120.00000786
_symmetry_Int_Tables_number   1
_chemical_formula_structural   Fe2Mo3O8
_chemical_formula_sum   'Fe4 Mo6 O16'
_cell_volume   325.28185858
_cell_formula_units_Z   2
loop_
 _symmetry_equiv_pos_site_id
 _symmetry_equiv_pos_as_xyz
  1  'x, y, z'
loop_
 _atom_site_type_symbol
 _atom_site_label
 _atom_site_symmetry_multiplicity
 _atom_site_fract_x
 _atom_site_fract_y
 _atom_site_fract_z
 _atom_site_occupancy
  Fe  Fe0  1  0.33333300  0.66666700  0.91732700  1
  Fe  Fe1  1  0.66666700  0.33333300  0.41732700  1
  Fe  Fe2  1  0.33333300  0.66666700  0.54088100  1
  Fe  Fe3  1  0.66666700  0.33333300  0.04088100  1
  Mo  Mo4  1  0.16471100  0.32942200  0.24591400  1
  Mo  Mo5  1  0.83528900  0.16471100  0.74591400  1
  Mo  Mo6  1  0.32942200  0.16471100  0.74591400  1
  Mo  Mo7  1  0.67057800  0.83528900  0.24591400  1
  Mo  Mo8  1  0.16471100  0.83528900  0.24591400  1
  Mo  Mo9  1  0.83528900  0.67057800  0.74591400  1
  O  O10  1  0.82484800  0.64969600  0.14277500  1
  O  O11  1  0.17515200  0.82484800  0.64277500  1
  O  O12  1  0.64969600  0.82484800  0.64277500  1
  O  O13  1  0.35030400  0.17515200  0.14277500  1
  O  O14  1  0.82484800  0.17515200  0.14277500  1
  O  O15  1  0.17515200  0.35030400  0.64277500  1
  O  O16  1  0.51192800  0.02385700  0.88438900  1
  O  O17  1  0.48807200  0.51192800  0.38438900  1
  O  O18  1  0.02385700  0.51192800  0.38438900  1
  O  O19  1  0.97614300  0.48807200  0.88438900  1
  O  O20  1  0.00000000  0.00000000  0.35292300  1
  O  O21  1  0.00000000  0.00000000  0.85292300  1
  O  O22  1  0.33333300  0.66666700  0.12203400  1
  O  O23  1  0.51192800  0.48807200  0.88438900  1
  O  O24  1  0.48807200  0.97614300  0.38438900  1
  O  O25  1  0.66666700  0.33333300  0.62203400  1
