# generated using pymatgen
data_Dy2Ti2O7
_symmetry_space_group_name_H-M   'P 1'
_cell_length_a   7.24247993
_cell_length_b   7.24247993
_cell_length_c   23.77533748
_cell_angle_alpha   80.77355742
_cell_angle_beta   80.77355742
_cell_angle_gamma   59.60585403
_symmetry_Int_Tables_number   1
_chemical_formula_structural   Dy2Ti2O7
_chemical_formula_sum   'Dy16 Ti16 O56'
_cell_volume   1057.18255189
_cell_formula_units_Z   8
loop_
 _symmetry_equiv_pos_site_id
 _symmetry_equiv_pos_as_xyz
  1  'x, y, z'
loop_
 _atom_site_type_symbol
 _atom_site_label
 _atom_site_symmetry_multiplicity
 _atom_site_fract_x
 _atom_site_fract_y
 _atom_site_fract_z
 _atom_site_occupancy
  Dy  Dy0  1  0.86621300  0.36060000  0.87063600  1
  Dy  Dy1  1  0.50000000  0.50000000  0.00000000  1
  Dy  Dy2  1  0.36060000  0.86621300  0.87063600  1
  Dy  Dy3  1  0.13378700  0.63940000  0.12936400  1
  Dy  Dy4  1  0.85947700  0.85947700  0.88692700  1
  Dy  Dy5  1  0.63940000  0.13378700  0.12936400  1
  Dy  Dy6  1  0.87419000  0.87419000  0.37557900  1
  Dy  Dy7  1  0.00000000  0.00000000  0.50000000  1
  Dy  Dy8  1  0.37542700  0.87496300  0.37572000  1
  Dy  Dy9  1  0.74331400  0.74331400  0.25017700  1
  Dy  Dy10  1  0.14052300  0.14052300  0.11307300  1
  Dy  Dy11  1  0.87496300  0.37542700  0.37572000  1
  Dy  Dy12  1  0.62457300  0.12503700  0.62428000  1
  Dy  Dy13  1  0.25668600  0.25668600  0.74982300  1
  Dy  Dy14  1  0.12581000  0.12581000  0.62442100  1
  Dy  Dy15  1  0.12503700  0.62457300  0.62428000  1
  Ti  Ti16  1  0.37200300  0.37200300  0.86890200  1
  Ti  Ti17  1  0.62799700  0.62799700  0.13109800  1
  Ti  Ti18  1  0.00000000  0.50000000  0.00000000  1
  Ti  Ti19  1  0.50000000  0.00000000  0.00000000  1
  Ti  Ti20  1  0.00000000  0.00000000  0.00000000  1
  Ti  Ti21  1  0.24953800  0.76386200  0.24846700  1
  Ti  Ti22  1  0.26013400  0.26013400  0.24885000  1
  Ti  Ti23  1  0.50000000  0.00000000  0.50000000  1
  Ti  Ti24  1  0.00000000  0.50000000  0.50000000  1
  Ti  Ti25  1  0.76386200  0.24953800  0.24846700  1
  Ti  Ti26  1  0.37791300  0.37791300  0.37347400  1
  Ti  Ti27  1  0.50000000  0.50000000  0.50000000  1
  Ti  Ti28  1  0.75046200  0.23613800  0.75153300  1
  Ti  Ti29  1  0.23613800  0.75046200  0.75153300  1
  Ti  Ti30  1  0.62208700  0.62208700  0.62652600  1
  Ti  Ti31  1  0.73986600  0.73986600  0.75115000  1
  O  O32  1  0.50600900  0.50600900  0.90416400  1
  O  O33  1  0.74072100  0.74072100  0.97397700  1
  O  O34  1  0.11521100  0.49884100  0.91731500  1
  O  O35  1  0.11703300  0.67720200  0.01566700  1
  O  O36  1  0.49884100  0.11521100  0.91731500  1
  O  O37  1  0.77738400  0.77738400  0.15806600  1
  O  O38  1  0.67720200  0.11703300  0.01566700  1
  O  O39  1  0.01539400  0.01539400  0.91821900  1
  O  O40  1  0.94574200  0.94574200  0.27007700  1
  O  O41  1  0.24962700  0.82710500  0.16801700  1
  O  O42  1  0.32279800  0.88296700  0.98433300  1
  O  O43  1  0.98460600  0.98460600  0.08178100  1
  O  O44  1  0.88296700  0.32279800  0.98433300  1
  O  O45  1  0.82710500  0.24962700  0.16801700  1
  O  O46  1  0.50115900  0.88478900  0.08268500  1
  O  O47  1  0.34867600  0.94298400  0.26871900  1
  O  O48  1  0.03053600  0.03053600  0.40579300  1
  O  O49  1  0.25927900  0.25927900  0.02602300  1
  O  O50  1  0.27381200  0.27381200  0.16053700  1
  O  O51  1  0.88478900  0.50115900  0.08268500  1
  O  O52  1  0.94298400  0.34867600  0.26871900  1
  O  O53  1  0.49922100  0.08710700  0.41717800  1
  O  O54  1  0.25419100  0.25419100  0.33162000  1
  O  O55  1  0.56371200  0.14482600  0.23239600  1
  O  O56  1  0.18989000  0.18989000  0.51996700  1
  O  O57  1  0.14482600  0.56371200  0.23239600  1
  O  O58  1  0.28104600  0.28104600  0.65535300  1
  O  O59  1  0.66083700  0.25878700  0.33183900  1
  O  O60  1  0.60071100  0.18906500  0.52022700  1
  O  O61  1  0.49399100  0.49399100  0.09583600  1
  O  O62  1  0.08710700  0.49922100  0.41717800  1
  O  O63  1  0.25878700  0.66083700  0.33183900  1
  O  O64  1  0.49796100  0.49796100  0.41761800  1
  O  O65  1  0.57013300  0.57013300  0.22331700  1
  O  O66  1  0.18906500  0.60071100  0.52022700  1
  O  O67  1  0.42986700  0.42986700  0.77668300  1
  O  O68  1  0.81093500  0.39928900  0.47977300  1
  O  O69  1  0.50203900  0.50203900  0.58238200  1
  O  O70  1  0.74121300  0.33916300  0.66816100  1
  O  O71  1  0.85517400  0.43628800  0.76760400  1
  O  O72  1  0.39928900  0.81093500  0.47977300  1
  O  O73  1  0.91289300  0.50077900  0.58282200  1
  O  O74  1  0.33916300  0.74121300  0.66816100  1
  O  O75  1  0.71895400  0.71895400  0.34464700  1
  O  O76  1  0.50077900  0.91289300  0.58282200  1
  O  O77  1  0.43628800  0.85517400  0.76760400  1
  O  O78  1  0.81011000  0.81011000  0.48003300  1
  O  O79  1  0.74580900  0.74580900  0.66838000  1
  O  O80  1  0.72618800  0.72618800  0.83946300  1
  O  O81  1  0.05701600  0.65132400  0.73128100  1
  O  O82  1  0.96946400  0.96946400  0.59420700  1
  O  O83  1  0.17289500  0.75037300  0.83198300  1
  O  O84  1  0.65132400  0.05701600  0.73128100  1
  O  O85  1  0.75037300  0.17289500  0.83198300  1
  O  O86  1  0.05425800  0.05425800  0.72992300  1
  O  O87  1  0.22261600  0.22261600  0.84193400  1
