# generated using pymatgen
data_La7Mn8O24
_symmetry_space_group_name_H-M   'P 1'
_cell_length_a   7.85038200
_cell_length_b   9.51544521
_cell_length_c   14.67881101
_cell_angle_alpha   90.56293792
_cell_angle_beta   105.36471459
_cell_angle_gamma   113.56831041
_symmetry_Int_Tables_number   1
_chemical_formula_structural   La7Mn8O24
_chemical_formula_sum   'La14 Mn16 O48'
_cell_volume   960.76835908
_cell_formula_units_Z   2
loop_
 _symmetry_equiv_pos_site_id
 _symmetry_equiv_pos_as_xyz
  1  'x, y, z'
loop_
 _atom_site_type_symbol
 _atom_site_label
 _atom_site_symmetry_multiplicity
 _atom_site_fract_x
 _atom_site_fract_y
 _atom_site_fract_z
 _atom_site_occupancy
  La  La0  1  0.87720600  0.38043600  0.87634200  1
  La  La1  1  0.12281000  0.11837200  0.62828800  1
  La  La2  1  0.37290800  0.37386700  0.87567200  1
  La  La3  1  0.49969400  0.75088900  0.74862400  1
  La  La4  1  0.37947200  0.87634500  0.37368800  1
  La  La5  1  0.62052800  0.12365500  0.62631200  1
  La  La6  1  0.74824500  0.50242200  0.50098000  1
  La  La7  1  0.62709200  0.62613300  0.12432800  1
  La  La8  1  0.87719000  0.88162800  0.37171200  1
  La  La9  1  0.25175500  0.49757800  0.49902000  1
  La  La10  1  0.12279400  0.61956400  0.12365800  1
  La  La11  1  0.24356300  0.99294600  0.99606300  1
  La  La12  1  0.50030600  0.24911100  0.25137600  1
  La  La13  1  0.75643700  0.00705400  0.00393700  1
  Mn  Mn14  1  0.81268400  0.68943200  0.93520700  1
  Mn  Mn15  1  0.93675100  0.05943300  0.81241200  1
  Mn  Mn16  1  0.06065700  0.44006100  0.68795100  1
  Mn  Mn17  1  0.43332600  0.05987400  0.81256900  1
  Mn  Mn18  1  0.18450800  0.81049500  0.56353800  1
  Mn  Mn19  1  0.31016700  0.18784700  0.43587300  1
  Mn  Mn20  1  0.56646300  0.44055800  0.68824400  1
  Mn  Mn21  1  0.68983300  0.81215300  0.56412700  1
  Mn  Mn22  1  0.43353700  0.55944200  0.31175600  1
  Mn  Mn23  1  0.56667400  0.94012600  0.18743100  1
  Mn  Mn24  1  0.81549200  0.18950500  0.43646200  1
  Mn  Mn25  1  0.93934300  0.55993900  0.31204900  1
  Mn  Mn26  1  0.69006200  0.31206900  0.06506300  1
  Mn  Mn27  1  0.06324900  0.94056700  0.18758800  1
  Mn  Mn28  1  0.18731600  0.31056800  0.06479300  1
  Mn  Mn29  1  0.30993800  0.68793100  0.93493700  1
  O  O30  1  0.04198100  0.26577600  0.76623100  1
  O  O31  1  0.20430200  0.07248000  0.83637300  1
  O  O32  1  0.05649600  0.68500000  0.92897500  1
  O  O33  1  0.42579900  0.89386800  0.89329100  1
  O  O34  1  0.30331600  0.92887400  0.69115200  1
  O  O35  1  0.24111800  0.57663800  0.80808900  1
  O  O36  1  0.28835300  0.01292100  0.51406600  1
  O  O37  1  0.64646100  0.53887700  0.82072400  1
  O  O38  1  0.44231400  0.80528000  0.58031900  1
  O  O39  1  0.60178400  0.21231500  0.93183800  1
  O  O40  1  0.30100800  0.43696000  0.66545200  1
  O  O41  1  0.45563500  0.23686300  0.73848800  1
  O  O42  1  0.63545300  0.62966500  0.62947700  1
  O  O43  1  0.80783500  0.41215100  0.70618500  1
  O  O44  1  0.52728800  0.67126100  0.44253200  1
  O  O45  1  0.68423200  0.07588400  0.79477800  1
  O  O46  1  0.47271200  0.32873900  0.55746800  1
  O  O47  1  0.82113000  0.86858700  0.86790600  1
  O  O48  1  0.54436500  0.76313700  0.26151200  1
  O  O49  1  0.90378700  0.28725600  0.57320200  1
  O  O50  1  0.69899200  0.56304000  0.33454800  1
  O  O51  1  0.83350200  0.96985300  0.67697700  1
  O  O52  1  0.55768600  0.19472000  0.41968100  1
  O  O53  1  0.71164700  0.98707900  0.48593400  1
  O  O54  1  0.90941900  0.39817300  0.39894500  1
  O  O55  1  0.07152500  0.17946700  0.46244900  1
  O  O56  1  0.75888200  0.42336200  0.19191100  1
  O  O57  1  0.92847500  0.82053300  0.53755100  1
  O  O58  1  0.69668400  0.07112600  0.30884800  1
  O  O59  1  0.09058100  0.60182700  0.60105500  1
  O  O60  1  0.78494800  0.51518900  0.01582700  1
  O  O61  1  0.16649800  0.03014700  0.32302300  1
  O  O62  1  0.94350400  0.31500000  0.07102500  1
  O  O63  1  0.09621300  0.71274400  0.42679800  1
  O  O64  1  0.79569800  0.92752000  0.16362700  1
  O  O65  1  0.95801900  0.73422400  0.23376900  1
  O  O66  1  0.17887000  0.13141300  0.13209400  1
  O  O67  1  0.31576800  0.92411600  0.20522200  1
  O  O68  1  0.02943300  0.16611500  0.94518400  1
  O  O69  1  0.19216500  0.58784900  0.29381500  1
  O  O70  1  0.97056700  0.83388500  0.05481600  1
  O  O71  1  0.36454700  0.37033500  0.37052300  1
  O  O72  1  0.39821600  0.78768500  0.06816200  1
  O  O73  1  0.35353900  0.46112300  0.17927600  1
  O  O74  1  0.21505200  0.48481100  0.98417300  1
  O  O75  1  0.57094300  0.68307900  0.95971500  1
  O  O76  1  0.42905700  0.31692100  0.04028500  1
  O  O77  1  0.57420100  0.10613200  0.10670900  1
