# generated using pymatgen
data_Ti3Fe9O16
_symmetry_space_group_name_H-M   'P 1'
_cell_length_a   6.07306000
_cell_length_b   10.54505119
_cell_length_c   10.61424905
_cell_angle_alpha   98.53607969
_cell_angle_beta   90.05891385
_cell_angle_gamma   106.49807132
_symmetry_Int_Tables_number   1
_chemical_formula_structural   Ti3Fe9O16
_chemical_formula_sum   'Ti6 Fe18 O32'
_cell_volume   643.87022451
_cell_formula_units_Z   2
loop_
 _symmetry_equiv_pos_site_id
 _symmetry_equiv_pos_as_xyz
  1  'x, y, z'
loop_
 _atom_site_type_symbol
 _atom_site_label
 _atom_site_symmetry_multiplicity
 _atom_site_fract_x
 _atom_site_fract_y
 _atom_site_fract_z
 _atom_site_occupancy
  Ti  Ti0  1  0.37116700  0.25812200  0.13416300  1
  Ti  Ti1  1  0.87241400  0.24468200  0.62100000  1
  Ti  Ti2  1  0.00000000  0.50000000  0.50000000  1
  Ti  Ti3  1  0.50000000  0.00000000  0.00000000  1
  Ti  Ti4  1  0.12758600  0.75531800  0.37900000  1
  Ti  Ti5  1  0.62883300  0.74187800  0.86583700  1
  Fe  Fe6  1  0.59625300  0.69616900  0.52765500  1
  Fe  Fe7  1  0.24530700  0.49942100  0.24647800  1
  Fe  Fe8  1  0.10159500  0.69301500  0.03486800  1
  Fe  Fe9  1  0.75227600  0.49972400  0.24607800  1
  Fe  Fe10  1  0.75469300  0.50057900  0.75352200  1
  Fe  Fe11  1  0.50000000  0.50000000  0.00000000  1
  Fe  Fe12  1  0.34903600  0.19529900  0.78449700  1
  Fe  Fe13  1  0.24772400  0.50027600  0.75392200  1
  Fe  Fe14  1  0.00000000  0.00000000  0.50000000  1
  Fe  Fe15  1  0.89840500  0.30698500  0.96513200  1
  Fe  Fe16  1  0.75207500  0.00170100  0.74781800  1
  Fe  Fe17  1  0.84680700  0.19057300  0.27952200  1
  Fe  Fe18  1  0.50000000  0.00000000  0.50000000  1
  Fe  Fe19  1  0.40374700  0.30383100  0.47234500  1
  Fe  Fe20  1  0.24792500  0.99829900  0.25218200  1
  Fe  Fe21  1  0.00000000  0.00000000  0.00000000  1
  Fe  Fe22  1  0.65096400  0.80470100  0.21550300  1
  Fe  Fe23  1  0.15319300  0.80942700  0.72047800  1
  O  O24  1  0.27729000  0.62030100  0.43526100  1
  O  O25  1  0.06754700  0.63458100  0.19613900  1
  O  O26  1  0.84586400  0.62218200  0.43529900  1
  O  O27  1  0.66586200  0.36237000  0.06341400  1
  O  O28  1  0.80892900  0.63877300  0.93899400  1
  O  O29  1  0.55575600  0.61320400  0.18388000  1
  O  O30  1  0.57057200  0.63932800  0.70727200  1
  O  O31  1  0.32862400  0.11967400  0.94152800  1
  O  O32  1  0.44424400  0.38679600  0.81612000  1
  O  O33  1  0.19107100  0.36122700  0.06100600  1
  O  O34  1  0.33413800  0.63763000  0.93658600  1
  O  O35  1  0.15413600  0.37781800  0.56470100  1
  O  O36  1  0.06139700  0.14138100  0.68698900  1
  O  O37  1  0.05528400  0.60582000  0.67348100  1
  O  O38  1  0.78677900  0.11275500  0.93645600  1
  O  O39  1  0.69914600  0.89578200  0.56971000  1
  O  O40  1  0.81906200  0.14108600  0.45792700  1
  O  O41  1  0.94471600  0.39418000  0.32651900  1
  O  O42  1  0.93245300  0.36541900  0.80386100  1
  O  O43  1  0.72271000  0.37969900  0.56473900  1
  O  O44  1  0.58091400  0.14145300  0.68489600  1
  O  O45  1  0.41908600  0.85854700  0.31510400  1
  O  O46  1  0.54396900  0.12187900  0.16391500  1
  O  O47  1  0.30085400  0.10421800  0.43029000  1
  O  O48  1  0.18093800  0.85891400  0.54207300  1
  O  O49  1  0.42942800  0.36067200  0.29272800  1
  O  O50  1  0.21322100  0.88724500  0.06354400  1
  O  O51  1  0.93860300  0.85861900  0.31301100  1
  O  O52  1  0.09009000  0.12993500  0.17142300  1
  O  O53  1  0.90991000  0.87006500  0.82857700  1
  O  O54  1  0.67137600  0.88032600  0.05847200  1
  O  O55  1  0.45603100  0.87812100  0.83608500  1
