# generated using pymatgen
data_Cu4P2O9
_symmetry_space_group_name_H-M   'P 1'
_cell_length_a   6.29589374
_cell_length_b   7.63369266
_cell_length_c   8.09219016
_cell_angle_alpha   99.17227806
_cell_angle_beta   111.87035277
_cell_angle_gamma   98.19200086
_symmetry_Int_Tables_number   1
_chemical_formula_structural   Cu4P2O9
_chemical_formula_sum   'Cu8 P4 O18'
_cell_volume   347.55506127
_cell_formula_units_Z   2
loop_
 _symmetry_equiv_pos_site_id
 _symmetry_equiv_pos_as_xyz
  1  'x, y, z'
loop_
 _atom_site_type_symbol
 _atom_site_label
 _atom_site_symmetry_multiplicity
 _atom_site_fract_x
 _atom_site_fract_y
 _atom_site_fract_z
 _atom_site_occupancy
  Cu  Cu0  1  0.88342600  0.10416100  0.75558800  1
  Cu  Cu1  1  0.40460800  0.12691700  0.76092000  1
  Cu  Cu2  1  0.11657400  0.89583900  0.24441200  1
  Cu  Cu3  1  0.65267200  0.38167700  0.58783900  1
  Cu  Cu4  1  0.34732800  0.61832300  0.41216100  1
  Cu  Cu5  1  0.59539200  0.87308300  0.23908000  1
  Cu  Cu6  1  0.15290100  0.67129900  0.93651500  1
  Cu  Cu7  1  0.84709900  0.32870100  0.06348500  1
  P  P8  1  0.00004000  0.78495500  0.58022800  1
  P  P9  1  0.37048100  0.26420100  0.15104500  1
  P  P10  1  0.62951900  0.73579900  0.84895500  1
  P  P11  1  0.99996000  0.21504500  0.41977200  1
  O  O12  1  0.51411800  0.58369300  0.66837500  1
  O  O13  1  0.34422400  0.07299400  0.19015500  1
  O  O14  1  0.13127300  0.30042200  0.02580800  1
  O  O15  1  0.48588200  0.41630700  0.33162500  1
  O  O16  1  0.65577600  0.92700600  0.80984500  1
  O  O17  1  0.14991800  0.77981400  0.46485200  1
  O  O18  1  0.29731900  0.72408900  0.20068100  1
  O  O19  1  0.70268100  0.27591100  0.79931900  1
  O  O20  1  0.00446000  0.62352700  0.67380600  1
  O  O21  1  0.74833500  0.79411800  0.46579700  1
  O  O22  1  0.86872700  0.69957800  0.97419200  1
  O  O23  1  0.85008200  0.22018600  0.53514800  1
  O  O24  1  0.11721400  0.96626800  0.73917800  1
  O  O25  1  0.99554000  0.37647300  0.32619400  1
  O  O26  1  0.47767400  0.72583800  0.96319100  1
  O  O27  1  0.88278600  0.03373200  0.26082200  1
  O  O28  1  0.25166500  0.20588200  0.53420300  1
  O  O29  1  0.52232600  0.27416200  0.03680900  1
