# generated using pymatgen
data_Ca5Y7Al16Cr2(SiO24)2
_symmetry_space_group_name_H-M   'P 1'
_cell_length_a   10.52280164
_cell_length_b   10.51998991
_cell_length_c   10.50145092
_cell_angle_alpha   109.33782658
_cell_angle_beta   109.54505068
_cell_angle_gamma   109.62932563
_symmetry_Int_Tables_number   1
_chemical_formula_structural   Ca5Y7Al16Cr2(SiO24)2
_chemical_formula_sum   'Ca5 Y7 Al16 Cr2 Si2 O48'
_cell_volume   893.80464790
_cell_formula_units_Z   1
loop_
 _symmetry_equiv_pos_site_id
 _symmetry_equiv_pos_as_xyz
  1  'x, y, z'
loop_
 _atom_site_type_symbol
 _atom_site_label
 _atom_site_symmetry_multiplicity
 _atom_site_fract_x
 _atom_site_fract_y
 _atom_site_fract_z
 _atom_site_occupancy
  Ca  Ca0  1  0.63176800  0.25191800  0.87495500  1
  Ca  Ca1  1  0.75617600  0.62863700  0.87063200  1
  Ca  Ca2  1  0.87341300  0.75110900  0.62616100  1
  Ca  Ca3  1  0.74866300  0.12412100  0.37428600  1
  Ca  Ca4  1  0.87843800  0.62128500  0.24602400  1
  Y  Y5  1  0.25496200  0.88038800  0.62932000  1
  Y  Y6  1  0.12246500  0.37342600  0.75043000  1
  Y  Y7  1  0.12336700  0.24962600  0.37711500  1
  Y  Y8  1  0.24408700  0.36989800  0.12609500  1
  Y  Y9  1  0.62922000  0.88070400  0.75776800  1
  Y  Y10  1  0.37605800  0.74940000  0.12229100  1
  Y  Y11  1  0.37816100  0.12468100  0.25120300  1
  Al  Al12  1  0.12394500  0.75034500  0.87775400  1
  Al  Al13  1  0.99709300  0.00475200  0.49980100  1
  Al  Al14  1  0.99970700  0.49855800  0.99859800  1
  Al  Al15  1  0.37696700  0.62669000  0.74853100  1
  Al  Al16  1  0.24681800  0.12126800  0.87354400  1
  Al  Al17  1  0.25392000  0.62628700  0.37581100  1
  Al  Al18  1  0.99496100  0.99300600  0.99321200  1
  Al  Al19  1  0.37106500  0.24398800  0.62136600  1
  Al  Al20  1  0.49903300  0.49776000  0.49915600  1
  Al  Al21  1  0.50238000  0.00325300  0.50896100  1
  Al  Al22  1  0.75046500  0.88105800  0.12537700  1
  Al  Al23  1  0.74333100  0.37308400  0.62370600  1
  Al  Al24  1  0.62115100  0.37333000  0.24905600  1
  Al  Al25  1  0.50156600  0.00197900  0.00214000  1
  Al  Al26  1  0.87504800  0.12460900  0.75018100  1
  Al  Al27  1  0.87599300  0.25067400  0.12041200  1
  Cr  Cr28  1  0.99580900  0.50117700  0.49957800  1
  Cr  Cr29  1  0.50947500  0.50072300  0.99792800  1
  Si  Si30  1  0.12549200  0.87337800  0.25109700  1
  Si  Si31  1  0.62628900  0.75277900  0.37754300  1
  O  O32  1  0.10096800  0.98295600  0.67329400  1
  O  O33  1  0.02311300  0.31971300  0.90340000  1
  O  O34  1  0.12229000  0.59746100  0.91832600  1
  O  O35  1  0.08542600  0.69589400  0.68022400  1
  O  O36  1  0.08594700  0.88687300  0.39402600  1
  O  O37  1  0.10441900  0.61993000  0.42572700  1
  O  O38  1  0.17933400  0.47868800  0.59987100  1
  O  O39  1  0.41711900  0.82014700  0.80185100  1
  O  O40  1  0.30442500  0.32364400  0.92485000  1
  O  O41  1  0.38249900  0.58008800  0.90118000  1
  O  O42  1  0.02157000  0.19607900  0.12251000  1
  O  O43  1  0.30975900  0.91462400  0.30215600  1
  O  O44  1  0.17956500  0.20226400  0.58328100  1
  O  O45  1  0.20555300  0.58241100  0.18058600  1
  O  O46  1  0.40013100  0.82174900  0.52148500  1
  O  O47  1  0.29811900  0.47790800  0.38049400  1
  O  O48  1  0.32019400  0.90080500  0.02472300  1
  O  O49  1  0.11797700  0.00708200  0.20145300  1
  O  O50  1  0.51523800  0.61993500  0.69112400  1
  O  O51  1  0.39503200  0.07496900  0.88299900  1
  O  O52  1  0.51054900  0.39991800  0.81933800  1
  O  O53  1  0.37663500  0.29658800  0.47744000  1
  O  O54  1  0.57488300  0.88693600  0.38218100  1
  O  O55  1  0.19684800  0.11741800  0.01996100  1
  O  O56  1  0.80142400  0.88405500  0.98202500  1
  O  O57  1  0.41597800  0.09654300  0.61763700  1
  O  O58  1  0.61001500  0.69880600  0.50436900  1
  O  O59  1  0.49371100  0.60783400  0.19260300  1
  O  O60  1  0.59286500  0.91289900  0.11554300  1
  O  O61  1  0.47548600  0.37930700  0.29705500  1
  O  O62  1  0.88086500  0.98339700  0.80432200  1
  O  O63  1  0.68175100  0.09644200  0.98362100  1
  O  O64  1  0.69003500  0.51173100  0.60674600  1
  O  O65  1  0.59335300  0.17421600  0.47888100  1
  O  O66  1  0.80853100  0.42290400  0.82092900  1
  O  O67  1  0.80636400  0.80652200  0.41293900  1
  O  O68  1  0.67967200  0.07612800  0.69553000  1
  O  O69  1  0.98509300  0.80440100  0.88275300  1
  O  O70  1  0.61363800  0.42019000  0.09875800  1
  O  O71  1  0.69067400  0.67931000  0.07884400  1
  O  O72  1  0.57731900  0.18022400  0.19633000  1
  O  O73  1  0.81994700  0.51340200  0.39849200  1
  O  O74  1  0.90274600  0.38911300  0.58320200  1
  O  O75  1  0.92319800  0.12225500  0.60300700  1
  O  O76  1  0.92569400  0.31115200  0.32184200  1
  O  O77  1  0.89184600  0.40555600  0.08428900  1
  O  O78  1  0.99926000  0.69349300  0.10845600  1
  O  O79  1  0.90565400  0.02215300  0.31931100  1
