# generated using pymatgen
data_As2Se3(NF6)2
_symmetry_space_group_name_H-M   'P 1'
_cell_length_a   7.90493183
_cell_length_b   7.90493183
_cell_length_c   11.18002944
_cell_angle_alpha   88.86405365
_cell_angle_beta   88.86405365
_cell_angle_gamma   68.17115159
_symmetry_Int_Tables_number   1
_chemical_formula_structural   As2Se3(NF6)2
_chemical_formula_sum   'As4 Se6 N4 F24'
_cell_volume   648.33953110
_cell_formula_units_Z   2
loop_
 _symmetry_equiv_pos_site_id
 _symmetry_equiv_pos_as_xyz
  1  'x, y, z'
loop_
 _atom_site_type_symbol
 _atom_site_label
 _atom_site_symmetry_multiplicity
 _atom_site_fract_x
 _atom_site_fract_y
 _atom_site_fract_z
 _atom_site_occupancy
  As  As0  1  0.09338800  0.90661200  0.50000000  1
  As  As1  1  0.09843200  0.90156800  0.00000000  1
  As  As2  1  0.48196100  0.24831000  0.24899500  1
  As  As3  1  0.75169000  0.51803900  0.75100500  1
  Se  Se4  1  0.94216600  0.47932600  0.35664900  1
  Se  Se5  1  0.52067400  0.05783400  0.64335100  1
  Se  Se6  1  0.94874300  0.47894600  0.14156300  1
  Se  Se7  1  0.52105400  0.05125700  0.85843700  1
  Se  Se8  1  0.57247100  0.70725800  0.24664800  1
  Se  Se9  1  0.29274200  0.42752900  0.75335200  1
  N  N10  1  0.72387600  0.61981500  0.12451000  1
  N  N11  1  0.38018500  0.27612400  0.87549000  1
  N  N12  1  0.71628000  0.61963600  0.37086300  1
  N  N13  1  0.38036400  0.28372000  0.62913700  1
  F  F14  1  0.30556000  0.83598000  0.42120000  1
  F  F15  1  0.16402000  0.69444000  0.57880000  1
  F  F16  1  0.88229200  0.97934300  0.57931200  1
  F  F17  1  0.02065700  0.11770800  0.42068800  1
  F  F18  1  0.18846700  0.99862400  0.61222600  1
  F  F19  1  0.00137600  0.81153300  0.38777400  1
  F  F20  1  0.18246400  0.98008600  0.87089800  1
  F  F21  1  0.01991400  0.81753600  0.12910200  1
  F  F22  1  0.88029800  0.96592900  0.93491700  1
  F  F23  1  0.03407100  0.11970200  0.06508300  1
  F  F24  1  0.31859800  0.83818300  0.06436900  1
  F  F25  1  0.16181700  0.68140200  0.93563100  1
  F  F26  1  0.40939500  0.41611800  0.36102200  1
  F  F27  1  0.58388200  0.59060500  0.63897800  1
  F  F28  1  0.54576100  0.07809000  0.13755700  1
  F  F29  1  0.92191000  0.45423900  0.86244300  1
  F  F30  1  0.41453600  0.42092300  0.13718400  1
  F  F31  1  0.57907700  0.58546400  0.86281600  1
  F  F32  1  0.25367400  0.24620800  0.24884500  1
  F  F33  1  0.75379200  0.74632600  0.75115500  1
  F  F34  1  0.54101500  0.07377500  0.36061100  1
  F  F35  1  0.92622500  0.45898500  0.63938900  1
  F  F36  1  0.70281600  0.25372500  0.24901900  1
  F  F37  1  0.74627500  0.29718400  0.75098100  1
