# generated using pymatgen
data_Rb2SbBr6
_symmetry_space_group_name_H-M   'P 1'
_cell_length_a   13.54166434
_cell_length_b   13.54166434
_cell_length_c   13.54166434
_cell_angle_alpha   131.98828296
_cell_angle_beta   131.98828296
_cell_angle_gamma   70.24753331
_symmetry_Int_Tables_number   1
_chemical_formula_structural   Rb2SbBr6
_chemical_formula_sum   'Rb8 Sb4 Br24'
_cell_volume   1344.64702458
_cell_formula_units_Z   4
loop_
 _symmetry_equiv_pos_site_id
 _symmetry_equiv_pos_as_xyz
  1  'x, y, z'
loop_
 _atom_site_type_symbol
 _atom_site_label
 _atom_site_symmetry_multiplicity
 _atom_site_fract_x
 _atom_site_fract_y
 _atom_site_fract_z
 _atom_site_occupancy
  Rb  Rb0  1  0.09896600  0.62500000  0.97396600  1
  Rb  Rb1  1  0.37500000  0.90103400  0.02603400  1
  Rb  Rb2  1  0.65103400  0.62500000  0.52603400  1
  Rb  Rb3  1  0.37500000  0.34896600  0.47396600  1
  Rb  Rb4  1  0.87500000  0.34896600  0.97396600  1
  Rb  Rb5  1  0.87500000  0.90103400  0.52603400  1
  Rb  Rb6  1  0.09896600  0.12500000  0.47396600  1
  Rb  Rb7  1  0.65103400  0.12500000  0.02603400  1
  Sb  Sb8  1  0.75000000  0.25000000  0.50000000  1
  Sb  Sb9  1  0.50000000  0.50000000  0.00000000  1
  Sb  Sb10  1  0.25000000  0.75000000  0.50000000  1
  Sb  Sb11  1  0.00000000  0.00000000  0.00000000  1
  Br  Br12  1  0.24804400  0.99749300  0.25055100  1
  Br  Br13  1  0.00250700  0.75195600  0.74944900  1
  Br  Br14  1  0.24847600  0.99009600  0.74162000  1
  Br  Br15  1  0.74749300  0.49804400  0.75055100  1
  Br  Br16  1  0.49314400  0.75152400  0.74162000  1
  Br  Br17  1  0.12497600  0.12497600  0.00000000  1
  Br  Br18  1  0.50152400  0.74314400  0.24162000  1
  Br  Br19  1  0.87497600  0.37497600  0.50000000  1
  Br  Br20  1  0.00250700  0.25305800  0.25055100  1
  Br  Br21  1  0.38070200  0.38070200  0.00000000  1
  Br  Br22  1  0.61929800  0.61929800  0.00000000  1
  Br  Br23  1  0.50152400  0.25990400  0.75838000  1
  Br  Br24  1  0.25685600  0.49847600  0.75838000  1
  Br  Br25  1  0.50195600  0.25250700  0.24944900  1
  Br  Br26  1  0.36929800  0.86929800  0.50000000  1
  Br  Br27  1  0.62502400  0.12502400  0.50000000  1
  Br  Br28  1  0.24847600  0.50685600  0.25838000  1
  Br  Br29  1  0.13070200  0.63070200  0.50000000  1
  Br  Br30  1  0.00990400  0.75152400  0.25838000  1
  Br  Br31  1  0.00305800  0.25250700  0.75055100  1
  Br  Br32  1  0.74694200  0.99749300  0.74944900  1
  Br  Br33  1  0.74009600  0.49847600  0.24162000  1
  Br  Br34  1  0.74749300  0.99694200  0.24944900  1
  Br  Br35  1  0.87502400  0.87502400  0.00000000  1
