# generated using pymatgen
data_Na6TlSb4
_symmetry_space_group_name_H-M   'P 1'
_cell_length_a   9.27577411
_cell_length_b   9.27577411
_cell_length_c   17.80063796
_cell_angle_alpha   70.53222409
_cell_angle_beta   70.53222409
_cell_angle_gamma   71.20988862
_symmetry_Int_Tables_number   1
_chemical_formula_structural   Na6TlSb4
_chemical_formula_sum   'Na24 Tl4 Sb16'
_cell_volume   1322.53008915
_cell_formula_units_Z   4
loop_
 _symmetry_equiv_pos_site_id
 _symmetry_equiv_pos_as_xyz
  1  'x, y, z'
loop_
 _atom_site_type_symbol
 _atom_site_label
 _atom_site_symmetry_multiplicity
 _atom_site_fract_x
 _atom_site_fract_y
 _atom_site_fract_z
 _atom_site_occupancy
  Na  Na0  1  0.52923400  0.85637000  0.94647100  1
  Na  Na1  1  0.14363000  0.47076600  0.55352900  1
  Na  Na2  1  0.47076600  0.14363000  0.05352900  1
  Na  Na3  1  0.85637000  0.52923400  0.44647100  1
  Na  Na4  1  0.94334500  0.65325500  0.90058800  1
  Na  Na5  1  0.34674500  0.05665500  0.59941200  1
  Na  Na6  1  0.05665500  0.34674500  0.09941200  1
  Na  Na7  1  0.65325500  0.94334500  0.40058800  1
  Na  Na8  1  0.78468700  0.97739900  0.73807400  1
  Na  Na9  1  0.02260100  0.21531300  0.76192600  1
  Na  Na10  1  0.21531300  0.02260100  0.26192600  1
  Na  Na11  1  0.97739900  0.78468700  0.23807400  1
  Na  Na12  1  0.49370600  0.72898100  0.76539100  1
  Na  Na13  1  0.27101900  0.50629400  0.73460900  1
  Na  Na14  1  0.50629400  0.27101900  0.23460900  1
  Na  Na15  1  0.72898100  0.49370600  0.26539100  1
  Na  Na16  1  0.15708000  0.88446200  0.92283600  1
  Na  Na17  1  0.11553800  0.84292000  0.57716400  1
  Na  Na18  1  0.84292000  0.11553800  0.07716400  1
  Na  Na19  1  0.88446200  0.15708000  0.42283600  1
  Na  Na20  1  0.71710300  0.41860700  0.90814600  1
  Na  Na21  1  0.58139300  0.28289700  0.59185400  1
  Na  Na22  1  0.28289700  0.58139300  0.09185400  1
  Na  Na23  1  0.41860700  0.71710300  0.40814600  1
  Tl  Tl24  1  0.55877100  0.25719900  0.83096300  1
  Tl  Tl25  1  0.74280100  0.44122900  0.66903700  1
  Tl  Tl26  1  0.44122900  0.74280100  0.16903700  1
  Tl  Tl27  1  0.25719900  0.55877100  0.33096300  1
  Sb  Sb28  1  0.29629500  0.49724900  0.92729800  1
  Sb  Sb29  1  0.50275100  0.70370500  0.57270200  1
  Sb  Sb30  1  0.70370500  0.50275100  0.07270200  1
  Sb  Sb31  1  0.49724900  0.29629500  0.42729800  1
  Sb  Sb32  1  0.79613100  0.01617700  0.92871700  1
  Sb  Sb33  1  0.98382300  0.20386900  0.57128300  1
  Sb  Sb34  1  0.20386900  0.98382300  0.07128300  1
  Sb  Sb35  1  0.01617700  0.79613100  0.42871700  1
  Sb  Sb36  1  0.38321300  0.09740900  0.77067500  1
  Sb  Sb37  1  0.90259100  0.61678700  0.72932500  1
  Sb  Sb38  1  0.61678700  0.90259100  0.22932500  1
  Sb  Sb39  1  0.09740900  0.38321300  0.27067500  1
  Sb  Sb40  1  0.85455000  0.73232800  0.08580600  1
  Sb  Sb41  1  0.26767200  0.14545000  0.41419400  1
  Sb  Sb42  1  0.14545000  0.26767200  0.91419400  1
  Sb  Sb43  1  0.73232800  0.85455000  0.58580600  1
