# generated using pymatgen
data_PCF3
_symmetry_space_group_name_H-M   'P 1'
_cell_length_a   11.38107800
_cell_length_b   11.38107800
_cell_length_c   6.34677400
_cell_angle_alpha   90.00000000
_cell_angle_beta   90.00000000
_cell_angle_gamma   90.00000000
_symmetry_Int_Tables_number   1
_chemical_formula_structural   PCF3
_chemical_formula_sum   'P8 C8 F24'
_cell_volume   822.09088606
_cell_formula_units_Z   8
loop_
 _symmetry_equiv_pos_site_id
 _symmetry_equiv_pos_as_xyz
  1  'x, y, z'
loop_
 _atom_site_type_symbol
 _atom_site_label
 _atom_site_symmetry_multiplicity
 _atom_site_fract_x
 _atom_site_fract_y
 _atom_site_fract_z
 _atom_site_occupancy
  P  P0  1  0.50000000  0.70888300  0.42469600  1
  P  P1  1  0.20888300  0.00000000  0.92469600  1
  P  P2  1  0.79111700  0.00000000  0.92469600  1
  P  P3  1  0.50000000  0.29111700  0.42469600  1
  P  P4  1  0.00000000  0.20888300  0.07530400  1
  P  P5  1  0.00000000  0.79111700  0.07530400  1
  P  P6  1  0.70888300  0.50000000  0.57530400  1
  P  P7  1  0.29111700  0.50000000  0.57530400  1
  C  C8  1  0.50000000  0.75651400  0.69607700  1
  C  C9  1  0.25651400  0.00000000  0.19607700  1
  C  C10  1  0.74348600  0.00000000  0.19607700  1
  C  C11  1  0.50000000  0.24348600  0.69607700  1
  C  C12  1  0.00000000  0.25651400  0.80392300  1
  C  C13  1  0.00000000  0.74348600  0.80392300  1
  C  C14  1  0.75651400  0.50000000  0.30392300  1
  C  C15  1  0.24348600  0.50000000  0.30392300  1
  F  F16  1  0.50000000  0.68323400  0.85814600  1
  F  F17  1  0.18323400  0.00000000  0.35814600  1
  F  F18  1  0.81676600  0.00000000  0.35814600  1
  F  F19  1  0.50000000  0.31676600  0.85814600  1
  F  F20  1  0.00000000  0.18323400  0.64185400  1
  F  F21  1  0.00000000  0.81676600  0.64185400  1
  F  F22  1  0.68323400  0.50000000  0.14185400  1
  F  F23  1  0.31676600  0.50000000  0.14185400  1
  F  F24  1  0.60510500  0.78866500  0.33405500  1
  F  F25  1  0.28866500  0.89489500  0.83405500  1
  F  F26  1  0.71133500  0.10510500  0.83405500  1
  F  F27  1  0.39489500  0.21133500  0.33405500  1
  F  F28  1  0.89489500  0.28866500  0.16594500  1
  F  F29  1  0.10510500  0.71133500  0.16594500  1
  F  F30  1  0.78866500  0.60510500  0.66594500  1
  F  F31  1  0.21133500  0.39489500  0.66594500  1
  F  F32  1  0.89489500  0.71133500  0.16594500  1
  F  F33  1  0.21133500  0.60510500  0.66594500  1
  F  F34  1  0.78866500  0.39489500  0.66594500  1
  F  F35  1  0.10510500  0.28866500  0.16594500  1
  F  F36  1  0.60510500  0.21133500  0.33405500  1
  F  F37  1  0.39489500  0.78866500  0.33405500  1
  F  F38  1  0.71133500  0.89489500  0.83405500  1
  F  F39  1  0.28866500  0.10510500  0.83405500  1
