# generated using pymatgen
data_Ga2H6(SeO4)3
_symmetry_space_group_name_H-M   'P 1'
_cell_length_a   8.62331737
_cell_length_b   8.62331737
_cell_length_c   8.62331739
_cell_angle_alpha   65.96884453
_cell_angle_beta   65.96884453
_cell_angle_gamma   65.96884785
_symmetry_Int_Tables_number   1
_chemical_formula_structural   Ga2H6(SeO4)3
_chemical_formula_sum   'Ga4 H12 Se6 O24'
_cell_volume   512.01347323
_cell_formula_units_Z   2
loop_
 _symmetry_equiv_pos_site_id
 _symmetry_equiv_pos_as_xyz
  1  'x, y, z'
loop_
 _atom_site_type_symbol
 _atom_site_label
 _atom_site_symmetry_multiplicity
 _atom_site_fract_x
 _atom_site_fract_y
 _atom_site_fract_z
 _atom_site_occupancy
  Ga  Ga0  1  0.12310900  0.12310900  0.12310900  1
  Ga  Ga1  1  0.62310900  0.62310900  0.62310900  1
  Ga  Ga2  1  0.35893100  0.35893100  0.35893100  1
  Ga  Ga3  1  0.85893100  0.85893100  0.85893100  1
  H  H4  1  0.33242900  0.18876800  0.71023900  1
  H  H5  1  0.18876800  0.71023900  0.33242900  1
  H  H6  1  0.71023900  0.33242900  0.18876800  1
  H  H7  1  0.68876800  0.83242900  0.21023900  1
  H  H8  1  0.83242900  0.21023900  0.68876800  1
  H  H9  1  0.21023900  0.68876800  0.83242900  1
  H  H10  1  0.36180100  0.37724100  0.65969300  1
  H  H11  1  0.37724100  0.65969300  0.36180100  1
  H  H12  1  0.65969300  0.36180100  0.37724100  1
  H  H13  1  0.87724100  0.86180100  0.15969300  1
  H  H14  1  0.86180100  0.15969300  0.87724100  1
  H  H15  1  0.15969300  0.87724100  0.86180100  1
  Se  Se16  1  0.91816700  0.46479800  0.84729100  1
  Se  Se17  1  0.46479800  0.84729100  0.91816700  1
  Se  Se18  1  0.84729100  0.91816700  0.46479800  1
  Se  Se19  1  0.96479800  0.41816700  0.34729100  1
  Se  Se20  1  0.41816700  0.34729100  0.96479800  1
  Se  Se21  1  0.34729100  0.96479800  0.41816700  1
  O  O22  1  0.91689800  0.26296000  0.01821900  1
  O  O23  1  0.26296000  0.01821900  0.91689800  1
  O  O24  1  0.01821900  0.91689800  0.26296000  1
  O  O25  1  0.76296000  0.41689800  0.51821900  1
  O  O26  1  0.41689800  0.51821900  0.76296000  1
  O  O27  1  0.51821900  0.76296000  0.41689800  1
  O  O28  1  0.21789400  0.32957200  0.98408300  1
  O  O29  1  0.32957200  0.98408300  0.21789400  1
  O  O30  1  0.98408300  0.21789400  0.32957200  1
  O  O31  1  0.82957200  0.71789400  0.48408300  1
  O  O32  1  0.71789400  0.48408300  0.82957200  1
  O  O33  1  0.48408300  0.82957200  0.71789400  1
  O  O34  1  0.84769000  0.61322300  0.96745700  1
  O  O35  1  0.61322300  0.96745700  0.84769000  1
  O  O36  1  0.96745700  0.84769000  0.61322300  1
  O  O37  1  0.11322300  0.34769000  0.46745700  1
  O  O38  1  0.34769000  0.46745700  0.11322300  1
  O  O39  1  0.46745700  0.11322300  0.34769000  1
  O  O40  1  0.37860700  0.28469200  0.61017100  1
  O  O41  1  0.28469200  0.61017100  0.37860700  1
  O  O42  1  0.61017100  0.37860700  0.28469200  1
  O  O43  1  0.78469200  0.87860700  0.11017100  1
  O  O44  1  0.87860700  0.11017100  0.78469200  1
  O  O45  1  0.11017100  0.78469200  0.87860700  1
