# generated using pymatgen
data_V2Co3O8
_symmetry_space_group_name_H-M   'P 1'
_cell_length_a   6.56909110
_cell_length_b   6.56909110
_cell_length_c   8.43496400
_cell_angle_alpha   90.00000000
_cell_angle_beta   90.00000000
_cell_angle_gamma   125.03540999
_symmetry_Int_Tables_number   1
_chemical_formula_structural   V2Co3O8
_chemical_formula_sum   'V4 Co6 O16'
_cell_volume   298.03705285
_cell_formula_units_Z   2
loop_
 _symmetry_equiv_pos_site_id
 _symmetry_equiv_pos_as_xyz
  1  'x, y, z'
loop_
 _atom_site_type_symbol
 _atom_site_label
 _atom_site_symmetry_multiplicity
 _atom_site_fract_x
 _atom_site_fract_y
 _atom_site_fract_z
 _atom_site_occupancy
  V  V0  1  0.12403200  0.87596800  0.38195800  1
  V  V1  1  0.37596800  0.62403200  0.88195800  1
  V  V2  1  0.87596800  0.12403200  0.61804200  1
  V  V3  1  0.62403200  0.37596800  0.11804200  1
  Co  Co4  1  0.37817400  0.12182600  0.75000000  1
  Co  Co5  1  0.87817400  0.62182600  0.75000000  1
  Co  Co6  1  0.12182600  0.37817400  0.25000000  1
  Co  Co7  1  0.62182600  0.87817400  0.25000000  1
  Co  Co8  1  0.00000000  0.00000000  0.00000000  1
  Co  Co9  1  0.50000000  0.50000000  0.50000000  1
  O  O10  1  0.75296700  0.24703300  0.22540300  1
  O  O11  1  0.65132300  0.88599900  0.49716100  1
  O  O12  1  0.88599900  0.65132300  0.50283900  1
  O  O13  1  0.99735000  0.00265000  0.75475300  1
  O  O14  1  0.15132300  0.38599900  0.00283900  1
  O  O15  1  0.50265000  0.49735000  0.25475300  1
  O  O16  1  0.00265000  0.99735000  0.24524700  1
  O  O17  1  0.61400100  0.84867700  0.00283900  1
  O  O18  1  0.38599900  0.15132300  0.99716100  1
  O  O19  1  0.24703300  0.75296700  0.77459700  1
  O  O20  1  0.49735000  0.50265000  0.74524700  1
  O  O21  1  0.11400100  0.34867700  0.49716100  1
  O  O22  1  0.25296700  0.74703300  0.27459700  1
  O  O23  1  0.34867700  0.11400100  0.50283900  1
  O  O24  1  0.74703300  0.25296700  0.72540300  1
  O  O25  1  0.84867700  0.61400100  0.99716100  1
