# generated using pymatgen
data_U2NiO6
_symmetry_space_group_name_H-M   'P 1'
_cell_length_a   9.15091314
_cell_length_b   9.15091314
_cell_length_c   5.02873400
_cell_angle_alpha   90.00000000
_cell_angle_beta   90.00000000
_cell_angle_gamma   119.99999379
_symmetry_Int_Tables_number   1
_chemical_formula_structural   U2NiO6
_chemical_formula_sum   'U6 Ni3 O18'
_cell_volume   364.68524213
_cell_formula_units_Z   3
loop_
 _symmetry_equiv_pos_site_id
 _symmetry_equiv_pos_as_xyz
  1  'x, y, z'
loop_
 _atom_site_type_symbol
 _atom_site_label
 _atom_site_symmetry_multiplicity
 _atom_site_fract_x
 _atom_site_fract_y
 _atom_site_fract_z
 _atom_site_occupancy
  U  U0  1  0.64661500  0.00000000  0.00000000  1
  U  U1  1  0.00000000  0.64661500  0.00000000  1
  U  U2  1  0.35338500  0.35338500  0.00000000  1
  U  U3  1  0.31254800  0.00000000  0.50000000  1
  U  U4  1  0.00000000  0.31254800  0.50000000  1
  U  U5  1  0.68745200  0.68745200  0.50000000  1
  Ni  Ni6  1  0.00000000  0.00000000  0.00000000  1
  Ni  Ni7  1  0.33333300  0.66666700  0.50457300  1
  Ni  Ni8  1  0.66666700  0.33333300  0.49542700  1
  O  O9  1  0.10021900  0.87752000  0.77667900  1
  O  O10  1  0.12248000  0.22269900  0.77667900  1
  O  O11  1  0.77730100  0.89978100  0.77667900  1
  O  O12  1  0.22269900  0.12248000  0.22332100  1
  O  O13  1  0.89978100  0.77730100  0.22332100  1
  O  O14  1  0.87752000  0.10021900  0.22332100  1
  O  O15  1  0.45487000  0.56667200  0.73515400  1
  O  O16  1  0.43332800  0.88819800  0.73515400  1
  O  O17  1  0.11180200  0.54513000  0.73515400  1
  O  O18  1  0.88819800  0.43332800  0.26484600  1
  O  O19  1  0.54513000  0.11180200  0.26484600  1
  O  O20  1  0.56667200  0.45487000  0.26484600  1
  O  O21  1  0.22005800  0.77504100  0.27396900  1
  O  O22  1  0.22495900  0.44501700  0.27396900  1
  O  O23  1  0.55498300  0.77994200  0.27396900  1
  O  O24  1  0.44501700  0.22495900  0.72603100  1
  O  O25  1  0.77994200  0.55498300  0.72603100  1
  O  O26  1  0.77504100  0.22005800  0.72603100  1
