# generated using pymatgen
data_Ba11Sb10
_symmetry_space_group_name_H-M   'P 1'
_cell_length_a   13.57689642
_cell_length_b   13.57689642
_cell_length_c   13.57689642
_cell_angle_alpha   123.54302673
_cell_angle_beta   120.98330687
_cell_angle_gamma   86.13812784
_symmetry_Int_Tables_number   1
_chemical_formula_structural   Ba11Sb10
_chemical_formula_sum   'Ba22 Sb20'
_cell_volume   1703.73390653
_cell_formula_units_Z   2
loop_
 _symmetry_equiv_pos_site_id
 _symmetry_equiv_pos_as_xyz
  1  'x, y, z'
loop_
 _atom_site_type_symbol
 _atom_site_label
 _atom_site_symmetry_multiplicity
 _atom_site_fract_x
 _atom_site_fract_y
 _atom_site_fract_z
 _atom_site_occupancy
  Ba  Ba0  1  0.43289700  0.11006000  0.32283700  1
  Ba  Ba1  1  0.56710300  0.88994000  0.67716300  1
  Ba  Ba2  1  0.21277700  0.88994000  0.32283700  1
  Ba  Ba3  1  0.78722300  0.11006000  0.67716300  1
  Ba  Ba4  1  0.14889600  0.14889600  0.00000000  1
  Ba  Ba5  1  0.85110400  0.85110400  0.00000000  1
  Ba  Ba6  1  0.56532200  0.31315400  0.25216800  1
  Ba  Ba7  1  0.43467800  0.68684600  0.74783200  1
  Ba  Ba8  1  0.93901300  0.68684600  0.25216800  1
  Ba  Ba9  1  0.06098700  0.31315400  0.74783200  1
  Ba  Ba10  1  0.10018200  0.42829500  0.32811300  1
  Ba  Ba11  1  0.89981800  0.22793100  0.32811300  1
  Ba  Ba12  1  0.89981800  0.57170500  0.67188700  1
  Ba  Ba13  1  0.10018200  0.77206900  0.67188700  1
  Ba  Ba14  1  0.30408800  0.55367600  0.24958800  1
  Ba  Ba15  1  0.69591200  0.94549900  0.24958800  1
  Ba  Ba16  1  0.69591200  0.44632400  0.75041200  1
  Ba  Ba17  1  0.30408800  0.05450100  0.75041200  1
  Ba  Ba18  1  0.33523800  0.32602000  0.66125800  1
  Ba  Ba19  1  0.66476200  0.32602000  0.99078200  1
  Ba  Ba20  1  0.33523800  0.67398000  0.00921800  1
  Ba  Ba21  1  0.66476200  0.67398000  0.33874200  1
  Sb  Sb22  1  0.38575200  0.38575200  0.00000000  1
  Sb  Sb23  1  0.61424800  0.61424800  0.00000000  1
  Sb  Sb24  1  0.24489700  0.74489700  0.50000000  1
  Sb  Sb25  1  0.75510300  0.25510300  0.50000000  1
  Sb  Sb26  1  0.84883800  0.50000000  0.34883800  1
  Sb  Sb27  1  0.15116200  0.50000000  0.65116200  1
  Sb  Sb28  1  0.50000000  0.11482000  0.61482000  1
  Sb  Sb29  1  0.50000000  0.88518000  0.38518000  1
  Sb  Sb30  1  0.39521500  0.39827500  0.42438900  1
  Sb  Sb31  1  0.60478500  0.02917400  0.00306000  1
  Sb  Sb32  1  0.02611500  0.60172500  0.99694000  1
  Sb  Sb33  1  0.97388500  0.97082600  0.57561100  1
  Sb  Sb34  1  0.60478500  0.60172500  0.57561100  1
  Sb  Sb35  1  0.39521500  0.97082600  0.99694000  1
  Sb  Sb36  1  0.97388500  0.39827500  0.00306000  1
  Sb  Sb37  1  0.02611500  0.02917400  0.42438900  1
  Sb  Sb38  1  0.12990200  0.10953300  0.23943500  1
  Sb  Sb39  1  0.87009800  0.10953300  0.97963000  1
  Sb  Sb40  1  0.12990200  0.89046700  0.02037000  1
  Sb  Sb41  1  0.87009800  0.89046700  0.76056500  1
