# generated using pymatgen
data_Rb2Cd3H6S3O16
_symmetry_space_group_name_H-M   'P 1'
_cell_length_a   10.34343779
_cell_length_b   10.34343779
_cell_length_c   10.37668300
_cell_angle_alpha   90.00000000
_cell_angle_beta   90.00000000
_cell_angle_gamma   132.57764989
_symmetry_Int_Tables_number   1
_chemical_formula_structural   Rb2Cd3H6S3O16
_chemical_formula_sum   'Rb4 Cd6 H12 S6 O32'
_cell_volume   817.48385147
_cell_formula_units_Z   2
loop_
 _symmetry_equiv_pos_site_id
 _symmetry_equiv_pos_as_xyz
  1  'x, y, z'
loop_
 _atom_site_type_symbol
 _atom_site_label
 _atom_site_symmetry_multiplicity
 _atom_site_fract_x
 _atom_site_fract_y
 _atom_site_fract_z
 _atom_site_occupancy
  Rb  Rb0  1  0.76873200  0.14357600  0.21950000  1
  Rb  Rb1  1  0.23126700  0.85642400  0.71950000  1
  Rb  Rb2  1  0.85642400  0.23126700  0.71950000  1
  Rb  Rb3  1  0.14357600  0.76873300  0.21950000  1
  Cd  Cd4  1  0.55767000  0.37224500  0.16224000  1
  Cd  Cd5  1  0.44233000  0.62775500  0.66224000  1
  Cd  Cd6  1  0.62775500  0.44233000  0.66224000  1
  Cd  Cd7  1  0.37224500  0.55767000  0.16224000  1
  Cd  Cd8  1  0.18247100  0.18247100  0.45125500  1
  Cd  Cd9  1  0.81752900  0.81752900  0.95125500  1
  H  H10  1  0.54786400  0.54786400  0.46760100  1
  H  H11  1  0.45213600  0.45213600  0.96760100  1
  H  H12  1  0.42734900  0.42734900  0.33278800  1
  H  H13  1  0.57265100  0.57265100  0.83278800  1
  H  H14  1  0.43177900  0.07925100  0.00053600  1
  H  H15  1  0.56822100  0.92074900  0.50053600  1
  H  H16  1  0.92074900  0.56822100  0.50053600  1
  H  H17  1  0.07925100  0.43177900  0.00053600  1
  H  H18  1  0.29085300  0.09617300  0.99709000  1
  H  H19  1  0.70914700  0.90382700  0.49709000  1
  H  H20  1  0.90382700  0.70914700  0.49709000  1
  H  H21  1  0.09617300  0.29085300  0.99709000  1
  S  S22  1  0.87919400  0.52197100  0.94177200  1
  S  S23  1  0.12080600  0.47802900  0.44177200  1
  S  S24  1  0.47802900  0.12080600  0.44177200  1
  S  S25  1  0.52197100  0.87919400  0.94177200  1
  S  S26  1  0.19513900  0.19513900  0.78377000  1
  S  S27  1  0.80486100  0.80486100  0.28377000  1
  O  O28  1  0.80050900  0.43846400  0.07121100  1
  O  O29  1  0.19949100  0.56153600  0.57121100  1
  O  O30  1  0.56153600  0.19949100  0.57121100  1
  O  O31  1  0.43846400  0.80050900  0.07121100  1
  O  O32  1  0.95426100  0.70719400  0.94389000  1
  O  O33  1  0.04573900  0.29280600  0.44389000  1
  O  O34  1  0.29280600  0.04573900  0.44389000  1
  O  O35  1  0.70719400  0.95426100  0.94389000  1
  O  O36  1  0.74458000  0.41738500  0.83914400  1
  O  O37  1  0.25542000  0.58261500  0.33914400  1
  O  O38  1  0.58261500  0.25542000  0.33914400  1
  O  O39  1  0.41738500  0.74458000  0.83914400  1
  O  O40  1  0.02547900  0.52912900  0.91705900  1
  O  O41  1  0.97452100  0.47087100  0.41705900  1
  O  O42  1  0.47087100  0.97452100  0.41705900  1
  O  O43  1  0.52912900  0.02547900  0.91705900  1
  O  O44  1  0.09165600  0.09165600  0.66665400  1
  O  O45  1  0.90834400  0.90834400  0.16665400  1
  O  O46  1  0.09204000  0.09204000  0.90323700  1
  O  O47  1  0.90796000  0.90796000  0.40323700  1
  O  O48  1  0.36235700  0.23290600  0.78866400  1
  O  O49  1  0.63764300  0.76709400  0.28866400  1
  O  O50  1  0.76709400  0.63764300  0.28866400  1
  O  O51  1  0.23290600  0.36235700  0.78866400  1
  O  O52  1  0.46171300  0.46171300  0.53156900  1
  O  O53  1  0.53828700  0.53828700  0.03156900  1
  O  O54  1  0.34106300  0.34106300  0.26885900  1
  O  O55  1  0.65893700  0.65893700  0.76885900  1
  O  O56  1  0.36653900  0.09873000  0.05591000  1
  O  O57  1  0.63346100  0.90127000  0.55591000  1
  O  O58  1  0.90127000  0.63346100  0.55591000  1
  O  O59  1  0.09873000  0.36653900  0.05591000  1
