# generated using pymatgen
data_Sc8Te3
_symmetry_space_group_name_H-M   'P 1'
_cell_length_a   14.69378295
_cell_length_b   14.69378295
_cell_length_c   22.50475294
_cell_angle_alpha   57.68056977
_cell_angle_beta   57.68056977
_cell_angle_gamma   15.07049315
_symmetry_Int_Tables_number   1
_chemical_formula_structural   Sc8Te3
_chemical_formula_sum   'Sc32 Te12'
_cell_volume   1063.89555100
_cell_formula_units_Z   4
loop_
 _symmetry_equiv_pos_site_id
 _symmetry_equiv_pos_as_xyz
  1  'x, y, z'
loop_
 _atom_site_type_symbol
 _atom_site_label
 _atom_site_symmetry_multiplicity
 _atom_site_fract_x
 _atom_site_fract_y
 _atom_site_fract_z
 _atom_site_occupancy
  Sc  Sc0  1  0.40812500  0.40812500  0.41068900  1
  Sc  Sc1  1  0.59187500  0.59187500  0.58931100  1
  Sc  Sc2  1  0.27670500  0.27670500  0.60230300  1
  Sc  Sc3  1  0.72329500  0.72329500  0.39769700  1
  Sc  Sc4  1  0.30269600  0.30269600  0.75434900  1
  Sc  Sc5  1  0.69730400  0.69730400  0.24565100  1
  Sc  Sc6  1  0.42624100  0.42624100  0.56840000  1
  Sc  Sc7  1  0.57375900  0.57375900  0.43160000  1
  Sc  Sc8  1  0.43776200  0.43776200  0.05330700  1
  Sc  Sc9  1  0.56223800  0.56223800  0.94669300  1
  Sc  Sc10  1  0.00815400  0.00815400  0.08707200  1
  Sc  Sc11  1  0.99184600  0.99184600  0.91292800  1
  Sc  Sc12  1  0.93859600  0.93859600  0.28498200  1
  Sc  Sc13  1  0.06140400  0.06140400  0.71501800  1
  Sc  Sc14  1  0.79868400  0.79868400  0.47027100  1
  Sc  Sc15  1  0.20131600  0.20131600  0.52972900  1
  Sc  Sc16  1  0.71271400  0.71271400  0.86644400  1
  Sc  Sc17  1  0.28728600  0.28728600  0.13355600  1
  Sc  Sc18  1  0.67126200  0.67126200  0.65538300  1
  Sc  Sc19  1  0.32873800  0.32873800  0.34461700  1
  Sc  Sc20  1  0.63399600  0.63399600  0.06248300  1
  Sc  Sc21  1  0.36600400  0.36600400  0.93751700  1
  Sc  Sc22  1  0.46170300  0.46170300  0.71391300  1
  Sc  Sc23  1  0.53829700  0.53829700  0.28608700  1
  Sc  Sc24  1  0.83255500  0.83255500  0.84778100  1
  Sc  Sc25  1  0.16744500  0.16744500  0.15221900  1
  Sc  Sc26  1  0.15078300  0.15078300  0.80969100  1
  Sc  Sc27  1  0.84921700  0.84921700  0.19030900  1
  Sc  Sc28  1  0.23920500  0.23920500  0.95760600  1
  Sc  Sc29  1  0.76079500  0.76079500  0.04239400  1
  Sc  Sc30  1  0.98819400  0.98819400  0.43251300  1
  Sc  Sc31  1  0.01180600  0.01180600  0.56748700  1
  Te  Te32  1  0.74062900  0.74062900  0.72041900  1
  Te  Te33  1  0.25937100  0.25937100  0.27958100  1
  Te  Te34  1  0.89542500  0.89542500  0.68615100  1
  Te  Te35  1  0.10457500  0.10457500  0.31384900  1
  Te  Te36  1  0.05626600  0.05626600  0.17340600  1
  Te  Te37  1  0.94373400  0.94373400  0.82659400  1
  Te  Te38  1  0.42580700  0.42580700  0.19272800  1
  Te  Te39  1  0.57419300  0.57419300  0.80727200  1
  Te  Te40  1  0.86972800  0.86972800  0.03803800  1
  Te  Te41  1  0.13027200  0.13027200  0.96196200  1
  Te  Te42  1  0.86875700  0.86875700  0.53074400  1
  Te  Te43  1  0.13124300  0.13124300  0.46925600  1
