# generated using pymatgen
data_Lu2Te4O11
_symmetry_space_group_name_H-M   'P 1'
_cell_length_a   6.68131984
_cell_length_b   6.68131984
_cell_length_c   16.14976883
_cell_angle_alpha   75.76467385
_cell_angle_beta   75.76467385
_cell_angle_gamma   44.90985960
_symmetry_Int_Tables_number   1
_chemical_formula_structural   Lu2Te4O11
_chemical_formula_sum   'Lu4 Te8 O22'
_cell_volume   490.62147650
_cell_formula_units_Z   2
loop_
 _symmetry_equiv_pos_site_id
 _symmetry_equiv_pos_as_xyz
  1  'x, y, z'
loop_
 _atom_site_type_symbol
 _atom_site_label
 _atom_site_symmetry_multiplicity
 _atom_site_fract_x
 _atom_site_fract_y
 _atom_site_fract_z
 _atom_site_occupancy
  Lu  Lu0  1  0.63109500  0.12895100  0.03661600  1
  Lu  Lu1  1  0.87104900  0.36890500  0.46338400  1
  Lu  Lu2  1  0.36890500  0.87104900  0.96338400  1
  Lu  Lu3  1  0.12895100  0.63109500  0.53661600  1
  Te  Te4  1  0.59042500  0.15593500  0.37549400  1
  Te  Te5  1  0.84406500  0.40957500  0.12450600  1
  Te  Te6  1  0.40957500  0.84406500  0.62450600  1
  Te  Te7  1  0.15593500  0.59042500  0.87549400  1
  Te  Te8  1  0.15725300  0.59749100  0.19711600  1
  Te  Te9  1  0.40250900  0.84274700  0.30288400  1
  Te  Te10  1  0.84274700  0.40250900  0.80288400  1
  Te  Te11  1  0.59749100  0.15725300  0.69711600  1
  O  O12  1  0.68603500  0.80698300  0.37319200  1
  O  O13  1  0.19301700  0.31396500  0.12680800  1
  O  O14  1  0.31396500  0.19301700  0.62680800  1
  O  O15  1  0.80698300  0.68603500  0.87319200  1
  O  O16  1  0.24272300  0.34160300  0.44916700  1
  O  O17  1  0.65839700  0.75727700  0.05083300  1
  O  O18  1  0.75727700  0.65839700  0.55083300  1
  O  O19  1  0.34160300  0.24272300  0.94916700  1
  O  O20  1  0.83004700  0.03263200  0.45654900  1
  O  O21  1  0.96736800  0.16995300  0.04345100  1
  O  O22  1  0.16995300  0.96736800  0.54345100  1
  O  O23  1  0.03263200  0.83004700  0.95654900  1
  O  O24  1  0.45170400  0.59578000  0.40646100  1
  O  O25  1  0.40422000  0.54829600  0.09353900  1
  O  O26  1  0.54829600  0.40422000  0.59353900  1
  O  O27  1  0.59578000  0.45170400  0.90646100  1
  O  O28  1  0.08793300  0.21006500  0.33506300  1
  O  O29  1  0.78993500  0.91206700  0.16493700  1
  O  O30  1  0.91206700  0.78993500  0.66493700  1
  O  O31  1  0.21006500  0.08793300  0.83506300  1
  O  O32  1  0.14342800  0.85657200  0.25000000  1
  O  O33  1  0.85657200  0.14342800  0.75000000  1
