# generated using pymatgen
data_Ce2SiSeO4
_symmetry_space_group_name_H-M   'P 1'
_cell_length_a   6.28538800
_cell_length_b   7.26030100
_cell_length_c   11.17910300
_cell_angle_alpha   90.00000000
_cell_angle_beta   90.00000000
_cell_angle_gamma   90.00000000
_symmetry_Int_Tables_number   1
_chemical_formula_structural   Ce2SiSeO4
_chemical_formula_sum   'Ce8 Si4 Se4 O16'
_cell_volume   510.14504865
_cell_formula_units_Z   4
loop_
 _symmetry_equiv_pos_site_id
 _symmetry_equiv_pos_as_xyz
  1  'x, y, z'
loop_
 _atom_site_type_symbol
 _atom_site_label
 _atom_site_symmetry_multiplicity
 _atom_site_fract_x
 _atom_site_fract_y
 _atom_site_fract_z
 _atom_site_occupancy
  Ce  Ce0  1  0.13221800  0.03447200  0.25000000  1
  Ce  Ce1  1  0.13221800  0.46552800  0.75000000  1
  Ce  Ce2  1  0.86778200  0.53447200  0.25000000  1
  Ce  Ce3  1  0.86778200  0.96552800  0.75000000  1
  Ce  Ce4  1  0.60746200  0.25000000  0.00000000  1
  Ce  Ce5  1  0.39253800  0.75000000  0.50000000  1
  Ce  Ce6  1  0.39253800  0.75000000  0.00000000  1
  Ce  Ce7  1  0.60746200  0.25000000  0.50000000  1
  Si  Si8  1  0.11296400  0.25000000  0.00000000  1
  Si  Si9  1  0.88703600  0.75000000  0.50000000  1
  Si  Si10  1  0.88703600  0.75000000  0.00000000  1
  Si  Si11  1  0.11296400  0.25000000  0.50000000  1
  Se  Se12  1  0.42417800  0.38915700  0.25000000  1
  Se  Se13  1  0.42417800  0.11084300  0.75000000  1
  Se  Se14  1  0.57582200  0.88915700  0.25000000  1
  Se  Se15  1  0.57582200  0.61084300  0.75000000  1
  O  O16  1  0.04677900  0.76553700  0.11732500  1
  O  O17  1  0.04677900  0.73446300  0.88267500  1
  O  O18  1  0.95322100  0.26553700  0.38267500  1
  O  O19  1  0.95322100  0.23446300  0.61732500  1
  O  O20  1  0.95322100  0.23446300  0.88267500  1
  O  O21  1  0.95322100  0.26553700  0.11732500  1
  O  O22  1  0.04677900  0.73446300  0.61732500  1
  O  O23  1  0.04677900  0.76553700  0.38267500  1
  O  O24  1  0.27005600  0.07513900  0.03160200  1
  O  O25  1  0.27005600  0.42486100  0.96839800  1
  O  O26  1  0.72994400  0.57513900  0.46839800  1
  O  O27  1  0.72994400  0.92486100  0.53160200  1
  O  O28  1  0.72994400  0.92486100  0.96839800  1
  O  O29  1  0.72994400  0.57513900  0.03160200  1
  O  O30  1  0.27005600  0.42486100  0.53160200  1
  O  O31  1  0.27005600  0.07513900  0.46839800  1
