# generated using pymatgen
data_HfMo2Se8(Cl7O)2
_symmetry_space_group_name_H-M   'P 1'
_cell_length_a   7.39290600
_cell_length_b   13.86918700
_cell_length_c   15.68562461
_cell_angle_alpha   75.70627167
_cell_angle_beta   90.00000000
_cell_angle_gamma   90.00000000
_symmetry_Int_Tables_number   1
_chemical_formula_structural   HfMo2Se8(Cl7O)2
_chemical_formula_sum   'Hf2 Mo4 Se16 Cl28 O4'
_cell_volume   1558.51485985
_cell_formula_units_Z   2
loop_
 _symmetry_equiv_pos_site_id
 _symmetry_equiv_pos_as_xyz
  1  'x, y, z'
loop_
 _atom_site_type_symbol
 _atom_site_label
 _atom_site_symmetry_multiplicity
 _atom_site_fract_x
 _atom_site_fract_y
 _atom_site_fract_z
 _atom_site_occupancy
  Hf  Hf0  1  0.00000000  0.00000000  0.00000000  1
  Hf  Hf1  1  0.50000000  0.00000000  0.50000000  1
  Mo  Mo2  1  0.19163000  0.55371300  0.40183400  1
  Mo  Mo3  1  0.69163000  0.44628700  0.09816600  1
  Mo  Mo4  1  0.80837000  0.44628700  0.59816600  1
  Mo  Mo5  1  0.30837000  0.55371300  0.90183400  1
  Se  Se6  1  0.88358900  0.15237200  0.28545400  1
  Se  Se7  1  0.99267800  0.74221300  0.63442200  1
  Se  Se8  1  0.50732200  0.74221300  0.13442200  1
  Se  Se9  1  0.61641100  0.15237200  0.78545400  1
  Se  Se10  1  0.75352400  0.70969700  0.23076000  1
  Se  Se11  1  0.25352400  0.29030300  0.26924000  1
  Se  Se12  1  0.63128500  0.81760600  0.31020800  1
  Se  Se13  1  0.36871500  0.18239400  0.68979200  1
  Se  Se14  1  0.86871500  0.81760600  0.81020800  1
  Se  Se15  1  0.38358900  0.84762800  0.21454600  1
  Se  Se16  1  0.11641100  0.84762800  0.71454600  1
  Se  Se17  1  0.00732200  0.25778700  0.36557800  1
  Se  Se18  1  0.49267800  0.25778700  0.86557800  1
  Se  Se19  1  0.24647600  0.29030300  0.76924000  1
  Se  Se20  1  0.74647600  0.70969700  0.73076000  1
  Se  Se21  1  0.13128500  0.18239400  0.18979200  1
  Cl  Cl22  1  0.11227800  0.83167800  0.07788400  1
  Cl  Cl23  1  0.78490800  0.92747500  0.46998300  1
  Cl  Cl24  1  0.97219700  0.29006000  0.62211800  1
  Cl  Cl25  1  0.66039200  0.46766000  0.93972700  1
  Cl  Cl26  1  0.62072800  0.02365500  0.64089400  1
  Cl  Cl27  1  0.71509200  0.92747500  0.96998300  1
  Cl  Cl28  1  0.61227800  0.16832200  0.42211600  1
  Cl  Cl29  1  0.88772200  0.16832200  0.92211600  1
  Cl  Cl30  1  0.28490800  0.07252500  0.03001700  1
  Cl  Cl31  1  0.87927200  0.02365500  0.14089400  1
  Cl  Cl32  1  0.22334400  0.37912700  0.93210000  1
  Cl  Cl33  1  0.77665600  0.62087300  0.06790000  1
  Cl  Cl34  1  0.33960800  0.53234000  0.06027300  1
  Cl  Cl35  1  0.37927200  0.97634500  0.35910600  1
  Cl  Cl36  1  0.72334400  0.62087300  0.56790000  1
  Cl  Cl37  1  0.16039200  0.53234000  0.56027300  1
  Cl  Cl38  1  0.60994300  0.45326800  0.24144700  1
  Cl  Cl39  1  0.47219700  0.70994000  0.87788200  1
  Cl  Cl40  1  0.12072800  0.97634500  0.85910600  1
  Cl  Cl41  1  0.38772200  0.83167800  0.57788400  1
  Cl  Cl42  1  0.02780300  0.70994000  0.37788200  1
  Cl  Cl43  1  0.89005700  0.45326800  0.74144700  1
  Cl  Cl44  1  0.39005700  0.54673200  0.75855300  1
  Cl  Cl45  1  0.83960800  0.46766000  0.43972700  1
  Cl  Cl46  1  0.10994300  0.54673200  0.25855300  1
  Cl  Cl47  1  0.21509200  0.07252500  0.53001700  1
  Cl  Cl48  1  0.27665600  0.37912700  0.43210000  1
  Cl  Cl49  1  0.52780300  0.29006000  0.12211800  1
  O  O50  1  0.09668600  0.60210800  0.88835500  1
  O  O51  1  0.59668600  0.39789200  0.61164500  1
  O  O52  1  0.90331400  0.39789200  0.11164500  1
  O  O53  1  0.40331400  0.60210800  0.38835500  1
