# generated using pymatgen
data_Cu7P12S9Cl7
_symmetry_space_group_name_H-M   'P 1'
_cell_length_a   16.77040992
_cell_length_b   16.77040992
_cell_length_c   6.28894400
_cell_angle_alpha   90.00000000
_cell_angle_beta   90.00000000
_cell_angle_gamma   119.99999969
_symmetry_Int_Tables_number   1
_chemical_formula_structural   Cu7P12S9Cl7
_chemical_formula_sum   'Cu14 P24 S18 Cl14'
_cell_volume   1531.77760980
_cell_formula_units_Z   2
loop_
 _symmetry_equiv_pos_site_id
 _symmetry_equiv_pos_as_xyz
  1  'x, y, z'
loop_
 _atom_site_type_symbol
 _atom_site_label
 _atom_site_symmetry_multiplicity
 _atom_site_fract_x
 _atom_site_fract_y
 _atom_site_fract_z
 _atom_site_occupancy
  Cu  Cu0  1  0.07930100  0.92069900  0.52510800  1
  Cu  Cu1  1  0.15860100  0.07930100  0.02510800  1
  Cu  Cu2  1  0.45587300  0.54412700  0.03708100  1
  Cu  Cu3  1  0.33333300  0.66666700  0.47644400  1
  Cu  Cu4  1  0.07930100  0.15860100  0.52510800  1
  Cu  Cu5  1  0.92069900  0.07930100  0.02510800  1
  Cu  Cu6  1  0.54412700  0.08825400  0.53708100  1
  Cu  Cu7  1  0.66666700  0.33333300  0.97644400  1
  Cu  Cu8  1  0.54412700  0.45587300  0.53708100  1
  Cu  Cu9  1  0.45587300  0.91174600  0.03708100  1
  Cu  Cu10  1  0.92069900  0.84139900  0.02510800  1
  Cu  Cu11  1  0.84139900  0.92069900  0.52510800  1
  Cu  Cu12  1  0.91174600  0.45587300  0.53708100  1
  Cu  Cu13  1  0.08825400  0.54412700  0.03708100  1
  P  P14  1  0.52407700  0.69226800  0.90771400  1
  P  P15  1  0.73927100  0.47854300  0.11839100  1
  P  P16  1  0.85043800  0.14956200  0.14266000  1
  P  P17  1  0.69226800  0.52407700  0.40771400  1
  P  P18  1  0.30773200  0.83180900  0.90771400  1
  P  P19  1  0.83180900  0.30773200  0.40771400  1
  P  P20  1  0.70087600  0.85043800  0.64266000  1
  P  P21  1  0.52407700  0.83180900  0.90771400  1
  P  P22  1  0.52145700  0.26072900  0.11839100  1
  P  P23  1  0.14956200  0.29912400  0.64266000  1
  P  P24  1  0.26072900  0.52145700  0.61839100  1
  P  P25  1  0.29912400  0.14956200  0.14266000  1
  P  P26  1  0.47592300  0.30773200  0.40771400  1
  P  P27  1  0.16819100  0.69226800  0.90771400  1
  P  P28  1  0.73927100  0.26072900  0.11839100  1
  P  P29  1  0.14956200  0.85043800  0.64266000  1
  P  P30  1  0.26072900  0.73927100  0.61839100  1
  P  P31  1  0.16819100  0.47592300  0.90771400  1
  P  P32  1  0.69226800  0.16819100  0.40771400  1
  P  P33  1  0.85043800  0.70087600  0.14266000  1
  P  P34  1  0.47592300  0.16819100  0.40771400  1
  P  P35  1  0.83180900  0.52407700  0.40771400  1
  P  P36  1  0.30773200  0.47592300  0.90771400  1
  P  P37  1  0.47854300  0.73927100  0.61839100  1
  S  S38  1  0.33912400  0.07184100  0.33470800  1
  S  S39  1  0.92815900  0.26728300  0.33470800  1
  S  S40  1  0.33912400  0.26728300  0.33470800  1
  S  S41  1  0.26728300  0.33912400  0.83470800  1
  S  S42  1  0.26728300  0.92815900  0.83470800  1
  S  S43  1  0.07184100  0.33912400  0.83470800  1
  S  S44  1  0.66087600  0.73271700  0.83470800  1
  S  S45  1  0.20373900  0.79626100  0.41644100  1
  S  S46  1  0.20373900  0.40747800  0.41644100  1
  S  S47  1  0.73271700  0.07184100  0.33470800  1
  S  S48  1  0.79626100  0.59252200  0.91644100  1
  S  S49  1  0.40747800  0.20373900  0.91644100  1
  S  S50  1  0.07184100  0.73271700  0.83470800  1
  S  S51  1  0.73271700  0.66087600  0.33470800  1
  S  S52  1  0.79626100  0.20373900  0.91644100  1
  S  S53  1  0.66087600  0.92815900  0.83470800  1
  S  S54  1  0.92815900  0.66087600  0.33470800  1
  S  S55  1  0.59252200  0.79626100  0.41644100  1
  Cl  Cl56  1  0.85321100  0.92660500  0.15221600  1
  Cl  Cl57  1  0.92660500  0.07339500  0.65221600  1
  Cl  Cl58  1  0.66666700  0.33333300  0.61433300  1
  Cl  Cl59  1  0.92660500  0.85321100  0.65221600  1
  Cl  Cl60  1  0.93938300  0.46969200  0.89827200  1
  Cl  Cl61  1  0.06061700  0.53030800  0.39827200  1
  Cl  Cl62  1  0.07339500  0.14678900  0.15221600  1
  Cl  Cl63  1  0.14678900  0.07339500  0.65221600  1
  Cl  Cl64  1  0.33333300  0.66666700  0.11433300  1
  Cl  Cl65  1  0.53030800  0.06061700  0.89827200  1
  Cl  Cl66  1  0.46969200  0.93938300  0.39827200  1
  Cl  Cl67  1  0.07339500  0.92660500  0.15221600  1
  Cl  Cl68  1  0.53030800  0.46969200  0.89827200  1
  Cl  Cl69  1  0.46969200  0.53030800  0.39827200  1
