# generated using pymatgen
data_FeTe2BrO5
_symmetry_space_group_name_H-M   'P 1'
_cell_length_a   6.70159300
_cell_length_b   13.62165800
_cell_length_c   14.55829116
_cell_angle_alpha   72.25758774
_cell_angle_beta   90.00000000
_cell_angle_gamma   90.00000000
_symmetry_Int_Tables_number   1
_chemical_formula_structural   FeTe2BrO5
_chemical_formula_sum   'Fe8 Te16 Br8 O40'
_cell_volume   1265.76854633
_cell_formula_units_Z   8
loop_
 _symmetry_equiv_pos_site_id
 _symmetry_equiv_pos_as_xyz
  1  'x, y, z'
loop_
 _atom_site_type_symbol
 _atom_site_label
 _atom_site_symmetry_multiplicity
 _atom_site_fract_x
 _atom_site_fract_y
 _atom_site_fract_z
 _atom_site_occupancy
  Fe  Fe0  1  0.50097600  0.11643100  0.52306900  1
  Fe  Fe1  1  0.70858100  0.93753900  0.14375500  1
  Fe  Fe2  1  0.79141900  0.93753900  0.64375500  1
  Fe  Fe3  1  0.00097600  0.88356900  0.97693100  1
  Fe  Fe4  1  0.29141900  0.06246100  0.85624500  1
  Fe  Fe5  1  0.20858100  0.06246100  0.35624500  1
  Fe  Fe6  1  0.99902400  0.11643100  0.02306900  1
  Fe  Fe7  1  0.49902400  0.88356900  0.47693100  1
  Te  Te8  1  0.51693100  0.19531600  0.98071600  1
  Te  Te9  1  0.02969200  0.36224400  0.86385200  1
  Te  Te10  1  0.97030800  0.63775600  0.13614800  1
  Te  Te11  1  0.30873700  0.89060600  0.71314600  1
  Te  Te12  1  0.71038100  0.72179800  0.35876100  1
  Te  Te13  1  0.21038100  0.27820200  0.14123900  1
  Te  Te14  1  0.48306900  0.80468400  0.01928400  1
  Te  Te15  1  0.80873700  0.10939400  0.78685400  1
  Te  Te16  1  0.28961900  0.27820200  0.64123900  1
  Te  Te17  1  0.19126300  0.89060600  0.21314600  1
  Te  Te18  1  0.52969200  0.63775600  0.63614800  1
  Te  Te19  1  0.01693100  0.80468400  0.51928400  1
  Te  Te20  1  0.47030800  0.36224400  0.36385200  1
  Te  Te21  1  0.78961900  0.72179800  0.85876100  1
  Te  Te22  1  0.98306900  0.19531600  0.48071600  1
  Te  Te23  1  0.69126300  0.10939400  0.28685400  1
  Br  Br24  1  0.63990500  0.38465500  0.72145400  1
  Br  Br25  1  0.27510300  0.56371600  0.54298500  1
  Br  Br26  1  0.77510300  0.43628400  0.95701500  1
  Br  Br27  1  0.22489700  0.56371600  0.04298500  1
  Br  Br28  1  0.86009500  0.38465500  0.22145400  1
  Br  Br29  1  0.72489700  0.43628400  0.45701500  1
  Br  Br30  1  0.13990500  0.61534500  0.77854600  1
  Br  Br31  1  0.36009500  0.61534500  0.27854600  1
  O  O32  1  0.23443700  0.33451400  0.95623500  1
  O  O33  1  0.25633100  0.01024900  0.74716600  1
  O  O34  1  0.26556300  0.33451400  0.45623500  1
  O  O35  1  0.76556300  0.66548600  0.04376500  1
  O  O36  1  0.75633100  0.98975100  0.75283400  1
  O  O37  1  0.21531300  0.11159300  0.48003200  1
  O  O38  1  0.95055100  0.79075700  0.39199400  1
  O  O39  1  0.22624000  0.20858700  0.77380300  1
  O  O40  1  0.92527600  0.09862000  0.36369100  1
  O  O41  1  0.29832000  0.91185000  0.94869200  1
  O  O42  1  0.72624000  0.79141300  0.72619700  1
  O  O43  1  0.20168000  0.91185000  0.44869200  1
  O  O44  1  0.79832000  0.08815000  0.55130800  1
  O  O45  1  0.51374900  0.03740100  0.39713600  1
  O  O46  1  0.01374900  0.96259900  0.10286400  1
  O  O47  1  0.77376000  0.79141300  0.22619700  1
  O  O48  1  0.98340600  0.81481700  0.87841600  1
  O  O49  1  0.51659400  0.81481700  0.37841600  1
  O  O50  1  0.71531300  0.88840700  0.01996800  1
  O  O51  1  0.42527600  0.90138000  0.13630900  1
  O  O52  1  0.28468700  0.11159300  0.98003200  1
  O  O53  1  0.48625100  0.96259900  0.60286400  1
  O  O54  1  0.74366900  0.98975100  0.25283400  1
  O  O55  1  0.73443700  0.66548600  0.54376500  1
  O  O56  1  0.70168000  0.08815000  0.05130800  1
  O  O57  1  0.48340600  0.18518300  0.62158400  1
  O  O58  1  0.54944900  0.79075700  0.89199400  1
  O  O59  1  0.24366900  0.01024900  0.24716600  1
  O  O60  1  0.07472400  0.90138000  0.63630900  1
  O  O61  1  0.57472400  0.09862000  0.86369100  1
  O  O62  1  0.90630300  0.22879000  0.90996200  1
  O  O63  1  0.01659400  0.18518300  0.12158400  1
  O  O64  1  0.40630300  0.77121000  0.59003800  1
  O  O65  1  0.04944900  0.20924300  0.60800600  1
  O  O66  1  0.98625100  0.03740100  0.89713600  1
  O  O67  1  0.78468700  0.88840700  0.51996800  1
  O  O68  1  0.27376000  0.20858700  0.27380300  1
  O  O69  1  0.09369700  0.77121000  0.09003800  1
  O  O70  1  0.59369700  0.22879000  0.40996200  1
  O  O71  1  0.45055100  0.20924300  0.10800600  1
