# generated using pymatgen
data_K10MnMo7O27
_symmetry_space_group_name_H-M   'P 1'
_cell_length_a   8.13197800
_cell_length_b   10.82050700
_cell_length_c   18.77775600
_cell_angle_alpha   90.00000000
_cell_angle_beta   90.00000000
_cell_angle_gamma   90.00000000
_symmetry_Int_Tables_number   1
_chemical_formula_structural   K10MnMo7O27
_chemical_formula_sum   'K20 Mn2 Mo14 O54'
_cell_volume   1652.29465078
_cell_formula_units_Z   2
loop_
 _symmetry_equiv_pos_site_id
 _symmetry_equiv_pos_as_xyz
  1  'x, y, z'
loop_
 _atom_site_type_symbol
 _atom_site_label
 _atom_site_symmetry_multiplicity
 _atom_site_fract_x
 _atom_site_fract_y
 _atom_site_fract_z
 _atom_site_occupancy
  K  K0  1  0.04877400  0.69286600  0.67786000  1
  K  K1  1  0.04877400  0.69286600  0.32214000  1
  K  K2  1  0.26488800  0.50863300  0.15227200  1
  K  K3  1  0.95122600  0.19286600  0.17786000  1
  K  K4  1  0.90802400  0.62308400  0.00000000  1
  K  K5  1  0.38180300  0.76642400  0.50000000  1
  K  K6  1  0.73511200  0.00863300  0.34772800  1
  K  K7  1  0.26488800  0.50863300  0.84772800  1
  K  K8  1  0.73978400  0.52239100  0.18398200  1
  K  K9  1  0.73511200  0.00863300  0.65227200  1
  K  K10  1  0.38199300  0.36533000  0.64078700  1
  K  K11  1  0.61800700  0.86533000  0.14078700  1
  K  K12  1  0.26021600  0.02239100  0.31601800  1
  K  K13  1  0.95122600  0.19286600  0.82214000  1
  K  K14  1  0.73978400  0.52239100  0.81601800  1
  K  K15  1  0.26021600  0.02239100  0.68398200  1
  K  K16  1  0.09197600  0.12308400  0.50000000  1
  K  K17  1  0.61819700  0.26642400  0.00000000  1
  K  K18  1  0.61800700  0.86533000  0.85921300  1
  K  K19  1  0.38199300  0.36533000  0.35921300  1
  Mn  Mn20  1  0.70604000  0.51247600  0.50000000  1
  Mn  Mn21  1  0.29396000  0.01247600  0.00000000  1
  Mo  Mo22  1  0.46753600  0.17820200  0.16891000  1
  Mo  Mo23  1  0.90660100  0.34762800  0.34587200  1
  Mo  Mo24  1  0.11155000  0.49992000  0.50000000  1
  Mo  Mo25  1  0.90004000  0.82270700  0.50000000  1
  Mo  Mo26  1  0.88845000  0.99992000  0.00000000  1
  Mo  Mo27  1  0.09339900  0.84762800  0.15412800  1
  Mo  Mo28  1  0.55639200  0.18135900  0.50000000  1
  Mo  Mo29  1  0.09339900  0.84762800  0.84587200  1
  Mo  Mo30  1  0.46753600  0.17820200  0.83109000  1
  Mo  Mo31  1  0.90660100  0.34762800  0.65412800  1
  Mo  Mo32  1  0.44360800  0.68135900  0.00000000  1
  Mo  Mo33  1  0.53246400  0.67820200  0.66891000  1
  Mo  Mo34  1  0.53246400  0.67820200  0.33109000  1
  Mo  Mo35  1  0.09996000  0.32270700  0.00000000  1
  O  O36  1  0.99854400  0.88684300  0.42263800  1
  O  O37  1  0.20749600  0.57172500  0.57451200  1
  O  O38  1  0.56413300  0.06823600  0.77285900  1
  O  O39  1  0.02332300  0.20773800  0.64656100  1
  O  O40  1  0.90659000  0.43751800  0.42996300  1
  O  O41  1  0.70369100  0.30811900  0.67891600  1
  O  O42  1  0.44931800  0.12807900  0.42171600  1
  O  O43  1  0.41018700  0.10077500  0.08674200  1
  O  O44  1  0.19850600  0.34992200  0.50000000  1
  O  O45  1  0.76240900  0.12490700  0.50000000  1
  O  O46  1  0.00145600  0.38684300  0.92263800  1
  O  O47  1  0.09341000  0.93751800  0.07003700  1
  O  O48  1  0.29630900  0.80811900  0.82108400  1
  O  O49  1  0.58981300  0.60077500  0.41325800  1
  O  O50  1  0.97667700  0.70773800  0.85343900  1
  O  O51  1  0.71394600  0.73521000  0.71245900  1
  O  O52  1  0.71394600  0.73521000  0.28754100  1
  O  O53  1  0.44931800  0.12807900  0.57828400  1
  O  O54  1  0.99191400  0.44024200  0.72421900  1
  O  O55  1  0.28605400  0.23521000  0.78754100  1
  O  O56  1  0.00808600  0.94024200  0.77578100  1
  O  O57  1  0.39831500  0.80462900  0.64768600  1
  O  O58  1  0.55068200  0.62807900  0.07828400  1
  O  O59  1  0.60168500  0.30462900  0.85231400  1
  O  O60  1  0.00808600  0.94024200  0.22421900  1
  O  O61  1  0.99191400  0.44024200  0.27578100  1
  O  O62  1  0.92046500  0.65271000  0.50000000  1
  O  O63  1  0.43586700  0.56823600  0.72714100  1
  O  O64  1  0.20749600  0.57172500  0.42548800  1
  O  O65  1  0.43586700  0.56823600  0.27285900  1
  O  O66  1  0.07953500  0.15271000  0.00000000  1
  O  O67  1  0.99854400  0.88684300  0.57736200  1
  O  O68  1  0.79250400  0.07172500  0.92548800  1
  O  O69  1  0.56404100  0.34915800  0.50000000  1
  O  O70  1  0.43595900  0.84915800  0.00000000  1
  O  O71  1  0.39831500  0.80462900  0.35231400  1
  O  O72  1  0.56413300  0.06823600  0.22714100  1
  O  O73  1  0.79250400  0.07172500  0.07451200  1
  O  O74  1  0.29630900  0.80811900  0.17891600  1
  O  O75  1  0.02332300  0.20773800  0.35343900  1
  O  O76  1  0.31100000  0.36066800  0.00000000  1
  O  O77  1  0.90659000  0.43751800  0.57003700  1
  O  O78  1  0.70369100  0.30811900  0.32108400  1
  O  O79  1  0.68900000  0.86066800  0.50000000  1
  O  O80  1  0.23759100  0.62490700  0.00000000  1
  O  O81  1  0.60168500  0.30462900  0.14768600  1
  O  O82  1  0.55068200  0.62807900  0.92171600  1
  O  O83  1  0.97667700  0.70773800  0.14656100  1
  O  O84  1  0.28605400  0.23521000  0.21245900  1
  O  O85  1  0.58981300  0.60077500  0.58674200  1
  O  O86  1  0.41018700  0.10077500  0.91325800  1
  O  O87  1  0.09341000  0.93751800  0.92996300  1
  O  O88  1  0.80149400  0.84992200  0.00000000  1
  O  O89  1  0.00145600  0.38684300  0.07736200  1
