# generated using pymatgen
data_SiO2
_symmetry_space_group_name_H-M   'P 1'
_cell_length_a   4.71915900
_cell_length_b   7.12291900
_cell_length_c   9.77474700
_cell_angle_alpha   90.00000000
_cell_angle_beta   90.00000000
_cell_angle_gamma   90.00000000
_symmetry_Int_Tables_number   1
_chemical_formula_structural   SiO2
_chemical_formula_sum   'Si8 O16'
_cell_volume   328.57017652
_cell_formula_units_Z   8
loop_
 _symmetry_equiv_pos_site_id
 _symmetry_equiv_pos_as_xyz
  1  'x, y, z'
loop_
 _atom_site_type_symbol
 _atom_site_label
 _atom_site_symmetry_multiplicity
 _atom_site_fract_x
 _atom_site_fract_y
 _atom_site_fract_z
 _atom_site_occupancy
  Si  Si0  1  0.22676000  0.42392700  0.60223600  1
  Si  Si1  1  0.22676000  0.07607300  0.10223600  1
  Si  Si2  1  0.22676000  0.92392700  0.39776400  1
  Si  Si3  1  0.22676000  0.57607300  0.89776400  1
  Si  Si4  1  0.77324000  0.92392700  0.89776400  1
  Si  Si5  1  0.77324000  0.07607300  0.60223600  1
  Si  Si6  1  0.77324000  0.42392700  0.10223600  1
  Si  Si7  1  0.77324000  0.57607300  0.39776400  1
  O  O8  1  0.00000000  0.50000000  0.00000000  1
  O  O9  1  0.66345200  0.50000000  0.25000000  1
  O  O10  1  0.50000000  0.00000000  0.00000000  1
  O  O11  1  0.00000000  0.75000000  0.33945900  1
  O  O12  1  0.50000000  0.00000000  0.50000000  1
  O  O13  1  0.00000000  0.25000000  0.66054100  1
  O  O14  1  0.00000000  0.25000000  0.16054100  1
  O  O15  1  0.66345200  0.00000000  0.75000000  1
  O  O16  1  0.00000000  0.75000000  0.83945900  1
  O  O17  1  0.50000000  0.50000000  0.50000000  1
  O  O18  1  0.00000000  0.00000000  0.50000000  1
  O  O19  1  0.33654800  0.00000000  0.25000000  1
  O  O20  1  0.50000000  0.50000000  0.00000000  1
  O  O21  1  0.33654800  0.50000000  0.75000000  1
  O  O22  1  0.00000000  0.00000000  0.00000000  1
  O  O23  1  0.00000000  0.50000000  0.50000000  1
