# generated using pymatgen
data_Rb4CO4
_symmetry_space_group_name_H-M   'P 1'
_cell_length_a   6.70271810
_cell_length_b   6.70271810
_cell_length_c   6.70271810
_cell_angle_alpha   127.17498085
_cell_angle_beta   127.17498085
_cell_angle_gamma   77.96539191
_symmetry_Int_Tables_number   1
_chemical_formula_structural   Rb4CO4
_chemical_formula_sum   'Rb4 C1 O4'
_cell_volume   185.27260039
_cell_formula_units_Z   1
loop_
 _symmetry_equiv_pos_site_id
 _symmetry_equiv_pos_as_xyz
  1  'x, y, z'
loop_
 _atom_site_type_symbol
 _atom_site_label
 _atom_site_symmetry_multiplicity
 _atom_site_fract_x
 _atom_site_fract_y
 _atom_site_fract_z
 _atom_site_occupancy
  Rb  Rb0  1  0.56516500  0.56516500  0.42024400  1
  Rb  Rb1  1  0.43483500  0.85507900  0.00000000  1
  Rb  Rb2  1  0.85507900  0.43483500  0.00000000  1
  Rb  Rb3  1  0.14492100  0.14492100  0.57975600  1
  C  C4  1  0.00000000  0.00000000  0.00000000  1
  O  O5  1  0.94378500  0.94378500  0.72333200  1
  O  O6  1  0.77954700  0.05621500  0.00000000  1
  O  O7  1  0.22045300  0.22045300  0.27666800  1
  O  O8  1  0.05621500  0.77954700  0.00000000  1
