# generated using pymatgen
data_Sr3Mg(SiO4)2
_symmetry_space_group_name_H-M   'P 1'
_cell_length_a   5.52594212
_cell_length_b   5.52594212
_cell_length_c   14.03528168
_cell_angle_alpha   89.22144044
_cell_angle_beta   89.22144044
_cell_angle_gamma   59.82592248
_symmetry_Int_Tables_number   1
_chemical_formula_structural   Sr3Mg(SiO4)2
_chemical_formula_sum   'Sr6 Mg2 Si4 O16'
_cell_volume   370.46448311
_cell_formula_units_Z   2
loop_
 _symmetry_equiv_pos_site_id
 _symmetry_equiv_pos_as_xyz
  1  'x, y, z'
loop_
 _atom_site_type_symbol
 _atom_site_label
 _atom_site_symmetry_multiplicity
 _atom_site_fract_x
 _atom_site_fract_y
 _atom_site_fract_z
 _atom_site_occupancy
  Sr  Sr0  1  0.05858600  0.94141400  0.25000000  1
  Sr  Sr1  1  0.94141400  0.05858600  0.75000000  1
  Sr  Sr2  1  0.31636900  0.34294400  0.58823000  1
  Sr  Sr3  1  0.65705600  0.68363100  0.91177000  1
  Sr  Sr4  1  0.68363100  0.65705600  0.41177000  1
  Sr  Sr5  1  0.34294400  0.31636900  0.08823000  1
  Mg  Mg6  1  0.00000000  0.00000000  0.50000000  1
  Mg  Mg7  1  0.00000000  0.00000000  0.00000000  1
  Si  Si8  1  0.35467100  0.32704800  0.36542400  1
  Si  Si9  1  0.67295200  0.64532900  0.13457600  1
  Si  Si10  1  0.64532900  0.67295200  0.63457600  1
  Si  Si11  1  0.32704800  0.35467100  0.86542400  1
  O  O12  1  0.22004200  0.62964900  0.42365700  1
  O  O13  1  0.37035100  0.77995800  0.07634300  1
  O  O14  1  0.84701700  0.78366700  0.08243100  1
  O  O15  1  0.21633300  0.15298300  0.41756900  1
  O  O16  1  0.26209600  0.40115400  0.25491000  1
  O  O17  1  0.59884600  0.73790400  0.24509000  1
  O  O18  1  0.78366700  0.84701700  0.58243100  1
  O  O19  1  0.15298300  0.21633300  0.91756900  1
  O  O20  1  0.73790400  0.59884600  0.74509000  1
  O  O21  1  0.40115400  0.26209600  0.75491000  1
  O  O22  1  0.31256300  0.84622200  0.61339800  1
  O  O23  1  0.15377800  0.68743700  0.88660200  1
  O  O24  1  0.77995800  0.37035100  0.57634300  1
  O  O25  1  0.62964900  0.22004200  0.92365700  1
  O  O26  1  0.68743700  0.15377800  0.38660200  1
  O  O27  1  0.84622200  0.31256300  0.11339800  1
