# generated using pymatgen
data_SrYbSi4N7
_symmetry_space_group_name_H-M   'P 1'
_cell_length_a   6.08390587
_cell_length_b   6.08390587
_cell_length_c   9.86528200
_cell_angle_alpha   90.00000000
_cell_angle_beta   90.00000000
_cell_angle_gamma   119.99999859
_symmetry_Int_Tables_number   1
_chemical_formula_structural   SrYbSi4N7
_chemical_formula_sum   'Sr2 Yb2 Si8 N14'
_cell_volume   316.23148980
_cell_formula_units_Z   2
loop_
 _symmetry_equiv_pos_site_id
 _symmetry_equiv_pos_as_xyz
  1  'x, y, z'
loop_
 _atom_site_type_symbol
 _atom_site_label
 _atom_site_symmetry_multiplicity
 _atom_site_fract_x
 _atom_site_fract_y
 _atom_site_fract_z
 _atom_site_occupancy
  Sr  Sr0  1  0.33333300  0.66666700  0.36908900  1
  Sr  Sr1  1  0.66666700  0.33333300  0.86908900  1
  Yb  Yb2  1  0.66666700  0.33333300  0.23487900  1
  Yb  Yb3  1  0.33333300  0.66666700  0.73487900  1
  Si  Si4  1  0.00000000  0.00000000  0.31295500  1
  Si  Si5  1  0.00000000  0.00000000  0.81295500  1
  Si  Si6  1  0.17418100  0.34836100  0.04715200  1
  Si  Si7  1  0.82581900  0.17418100  0.54715200  1
  Si  Si8  1  0.34836100  0.17418100  0.54715200  1
  Si  Si9  1  0.65163900  0.82581900  0.04715200  1
  Si  Si10  1  0.17418100  0.82581900  0.04715200  1
  Si  Si11  1  0.82581900  0.65163900  0.54715200  1
  N  N12  1  0.00000000  0.00000000  0.12446900  1
  N  N13  1  0.00000000  0.00000000  0.62446900  1
  N  N14  1  0.02337300  0.51168700  0.09527900  1
  N  N15  1  0.51168700  0.02337300  0.59527900  1
  N  N16  1  0.51168700  0.48831300  0.59527900  1
  N  N17  1  0.48831300  0.51168700  0.09527900  1
  N  N18  1  0.48831300  0.97662700  0.09527900  1
  N  N19  1  0.97662700  0.48831300  0.59527900  1
  N  N20  1  0.84919900  0.69839800  0.37467200  1
  N  N21  1  0.15080100  0.84919900  0.87467200  1
  N  N22  1  0.69839800  0.84919900  0.87467200  1
  N  N23  1  0.30160200  0.15080100  0.37467200  1
  N  N24  1  0.84919900  0.15080100  0.37467200  1
  N  N25  1  0.15080100  0.30160200  0.87467200  1
