# generated using pymatgen
data_K2Mn2Zn4Si4O15
_symmetry_space_group_name_H-M   'P 1'
_cell_length_a   9.57890531
_cell_length_b   10.54807742
_cell_length_c   9.57902594
_cell_angle_alpha   105.97852222
_cell_angle_beta   66.94704190
_cell_angle_gamma   74.01374830
_symmetry_Int_Tables_number   1
_chemical_formula_structural   K2Mn2Zn4Si4O15
_chemical_formula_sum   'K4 Mn4 Zn8 Si8 O30'
_cell_volume   771.65669364
_cell_formula_units_Z   2
loop_
 _symmetry_equiv_pos_site_id
 _symmetry_equiv_pos_as_xyz
  1  'x, y, z'
loop_
 _atom_site_type_symbol
 _atom_site_label
 _atom_site_symmetry_multiplicity
 _atom_site_fract_x
 _atom_site_fract_y
 _atom_site_fract_z
 _atom_site_occupancy
  K  K0  1  0.61656900  0.96780300  0.61643000  1
  K  K1  1  0.61657400  0.46778500  0.61642000  1
  K  K2  1  0.38347400  0.46793100  0.38353600  1
  K  K3  1  0.38347600  0.96794000  0.38351200  1
  Mn  Mn4  1  0.15624000  0.11616100  0.84378000  1
  Mn  Mn5  1  0.84379700  0.77242100  0.15619300  1
  Mn  Mn6  1  0.15605700  0.61631600  0.84396100  1
  Mn  Mn7  1  0.84395100  0.27236000  0.15603500  1
  Zn  Zn8  1  0.99610900  0.91677300  0.61816700  1
  Zn  Zn9  1  0.99612200  0.41676500  0.61816900  1
  Zn  Zn10  1  0.61813700  0.10576900  0.99613700  1
  Zn  Zn11  1  0.61813700  0.60576200  0.99612400  1
  Zn  Zn12  1  0.38182700  0.41677200  0.00387900  1
  Zn  Zn13  1  0.38182900  0.91678000  0.00389200  1
  Zn  Zn14  1  0.00386300  0.60575700  0.38186000  1
  Zn  Zn15  1  0.00385000  0.10576800  0.38186100  1
  Si  Si16  1  0.67220400  0.63487400  0.32777200  1
  Si  Si17  1  0.67220300  0.13490100  0.32777400  1
  Si  Si18  1  0.32782100  0.30708200  0.67218500  1
  Si  Si19  1  0.32780100  0.80703200  0.67220500  1
  Si  Si20  1  0.19455000  0.25484300  0.19457000  1
  Si  Si21  1  0.19455800  0.75485700  0.19460500  1
  Si  Si22  1  0.80543800  0.25485100  0.80544300  1
  Si  Si23  1  0.80540800  0.75486500  0.80543700  1
  O  O24  1  0.49997600  0.27014400  0.49996400  1
  O  O25  1  0.49996300  0.77017600  0.49997700  1
  O  O26  1  0.67700500  0.98065600  0.32298400  1
  O  O27  1  0.67703100  0.48060500  0.32295500  1
  O  O28  1  0.32313500  0.15761600  0.67690100  1
  O  O29  1  0.32297800  0.65758000  0.67706200  1
  O  O30  1  0.21499500  0.41065100  0.21501400  1
  O  O31  1  0.21500000  0.91065500  0.21501000  1
  O  O32  1  0.78499100  0.91066000  0.78498400  1
  O  O33  1  0.78498500  0.41065900  0.78499000  1
  O  O34  1  0.90574200  0.22889800  0.90558000  1
  O  O35  1  0.90559400  0.72897000  0.90569200  1
  O  O36  1  0.09441000  0.22888200  0.09428900  1
  O  O37  1  0.09430100  0.72895500  0.09443800  1
  O  O38  1  0.66763300  0.16919800  0.17189400  1
  O  O39  1  0.66762300  0.66920200  0.17190700  1
  O  O40  1  0.17184800  0.41707300  0.66769900  1
  O  O41  1  0.17190500  0.91702000  0.66765600  1
  O  O42  1  0.33242400  0.91699500  0.82803900  1
  O  O43  1  0.33238300  0.41704600  0.82809500  1
  O  O44  1  0.82803900  0.66922500  0.33242000  1
  O  O45  1  0.82805000  0.16922500  0.33241000  1
  O  O46  1  0.91023100  0.11466500  0.61451900  1
  O  O47  1  0.91023300  0.61466300  0.61451600  1
  O  O48  1  0.38548200  0.11465300  0.08978100  1
  O  O49  1  0.38548800  0.61465200  0.08977900  1
  O  O50  1  0.61451200  0.26253100  0.91023300  1
  O  O51  1  0.61450200  0.76253800  0.91024300  1
  O  O52  1  0.08977700  0.26251700  0.38550200  1
  O  O53  1  0.08976500  0.76252300  0.38551600  1
