# generated using pymatgen
data_Cr(PO3)3
_symmetry_space_group_name_H-M   'P 1'
_cell_length_a   6.53646570
_cell_length_b   10.85637130
_cell_length_c   9.53772350
_cell_angle_alpha   81.14111263
_cell_angle_beta   90.00000612
_cell_angle_gamma   90.00000976
_symmetry_Int_Tables_number   1
_chemical_formula_structural   Cr(PO3)3
_chemical_formula_sum   'Cr4 P12 O36'
_cell_volume   668.74475750
_cell_formula_units_Z   4
loop_
 _symmetry_equiv_pos_site_id
 _symmetry_equiv_pos_as_xyz
  1  'x, y, z'
loop_
 _atom_site_type_symbol
 _atom_site_label
 _atom_site_symmetry_multiplicity
 _atom_site_fract_x
 _atom_site_fract_y
 _atom_site_fract_z
 _atom_site_occupancy
  Cr  Cr0  1  0.75000000  0.75000000  0.25000000  1
  Cr  Cr1  1  0.25000100  0.75000000  0.75000100  1
  Cr  Cr2  1  0.25000100  0.25000000  0.75000000  1
  Cr  Cr3  1  0.74999900  0.25000100  0.25000100  1
  P  P4  1  0.04841400  0.50000400  0.24999800  1
  P  P5  1  0.54841400  0.99999600  0.75000100  1
  P  P6  1  0.95158600  0.50000400  0.74999900  1
  P  P7  1  0.45158600  0.99999600  0.25000100  1
  P  P8  1  0.59446500  0.38659300  0.93626100  1
  P  P9  1  0.09446500  0.88658600  0.43626200  1
  P  P10  1  0.09446500  0.11340700  0.06373900  1
  P  P11  1  0.59446500  0.61341400  0.56373700  1
  P  P12  1  0.90553500  0.88658600  0.93626200  1
  P  P13  1  0.40553500  0.38659300  0.43626100  1
  P  P14  1  0.40553500  0.61341400  0.06373700  1
  P  P15  1  0.90553500  0.11340700  0.56373900  1
  O  O16  1  0.99999500  0.00000700  0.00000000  1
  O  O17  1  0.50000500  0.49999300  0.50000100  1
  O  O18  1  0.49999500  0.49999300  0.00000100  1
  O  O19  1  0.00000500  0.00000700  0.49999900  1
  O  O20  1  0.53040300  0.64053000  0.18720800  1
  O  O21  1  0.03039600  0.14053700  0.68720900  1
  O  O22  1  0.46960400  0.35946300  0.81279100  1
  O  O23  1  0.96959800  0.85947000  0.31279200  1
  O  O24  1  0.46959700  0.64053000  0.68720800  1
  O  O25  1  0.96960400  0.14053700  0.18720900  1
  O  O26  1  0.53039600  0.35946300  0.31279100  1
  O  O27  1  0.03040300  0.85947000  0.81279200  1
  O  O28  1  0.06809000  0.39700500  0.69833600  1
  O  O29  1  0.56810000  0.89701400  0.19833600  1
  O  O30  1  0.93191100  0.39700600  0.19833600  1
  O  O31  1  0.43190000  0.89701400  0.69833600  1
  O  O32  1  0.06810000  0.60298600  0.80166400  1
  O  O33  1  0.56808900  0.10299400  0.30166400  1
  O  O34  1  0.93190000  0.60298600  0.30166400  1
  O  O35  1  0.43191000  0.10299400  0.80166400  1
  O  O36  1  0.80790400  0.55516800  0.62084200  1
  O  O37  1  0.30790800  0.05518500  0.12084200  1
  O  O38  1  0.19209500  0.55516800  0.12084200  1
  O  O39  1  0.69209200  0.05518500  0.62084100  1
  O  O40  1  0.80790800  0.44481500  0.87915900  1
  O  O41  1  0.30790500  0.94483200  0.37915800  1
  O  O42  1  0.19209200  0.44481500  0.37915800  1
  O  O43  1  0.69209500  0.94483200  0.87915800  1
  O  O44  1  0.13309700  0.22041500  0.94683400  1
  O  O45  1  0.63310200  0.72040600  0.44683100  1
  O  O46  1  0.86689800  0.77959400  0.05316900  1
  O  O47  1  0.36690300  0.27958500  0.55316600  1
  O  O48  1  0.36689800  0.72040600  0.94683100  1
  O  O49  1  0.86690300  0.22041500  0.44683400  1
  O  O50  1  0.63309700  0.27958500  0.05316600  1
  O  O51  1  0.13310200  0.77959400  0.55316900  1
