# generated using pymatgen
data_YbH7C3O8
_symmetry_space_group_name_H-M   'P 1'
_cell_length_a   6.72454900
_cell_length_b   6.82155422
_cell_length_c   9.94238892
_cell_angle_alpha   70.57305344
_cell_angle_beta   87.06688272
_cell_angle_gamma   83.51855406
_symmetry_Int_Tables_number   1
_chemical_formula_structural   YbH7C3O8
_chemical_formula_sum   'Yb2 H14 C6 O16'
_cell_volume   427.31570289
_cell_formula_units_Z   2
loop_
 _symmetry_equiv_pos_site_id
 _symmetry_equiv_pos_as_xyz
  1  'x, y, z'
loop_
 _atom_site_type_symbol
 _atom_site_label
 _atom_site_symmetry_multiplicity
 _atom_site_fract_x
 _atom_site_fract_y
 _atom_site_fract_z
 _atom_site_occupancy
  Yb  Yb0  1  0.74947000  0.73899600  0.74804800  1
  Yb  Yb1  1  0.25053000  0.26100400  0.25195200  1
  H  H2  1  0.60337800  0.17781600  0.57673500  1
  H  H3  1  0.84413500  0.70522100  0.04871200  1
  H  H4  1  0.39662200  0.82218400  0.42326500  1
  H  H5  1  0.79015400  0.12532600  0.91665000  1
  H  H6  1  0.15782000  0.83326700  0.42795400  1
  H  H7  1  0.60672500  0.70645900  0.04493000  1
  H  H8  1  0.18939500  0.32209300  0.63631000  1
  H  H9  1  0.26128500  0.65039600  0.70592900  1
  H  H10  1  0.81060500  0.67790700  0.36369000  1
  H  H11  1  0.15586500  0.29477900  0.95128800  1
  H  H12  1  0.84218000  0.16673300  0.57204600  1
  H  H13  1  0.39327500  0.29354100  0.95507000  1
  H  H14  1  0.20984600  0.87467400  0.08335000  1
  H  H15  1  0.73871500  0.34960400  0.29407100  1
  C  C16  1  0.22129600  0.70023900  0.12890300  1
  C  C17  1  0.75588100  0.22392100  0.24228500  1
  C  C18  1  0.79269900  0.70104400  0.46898000  1
  C  C19  1  0.24411900  0.77607900  0.75771500  1
  C  C20  1  0.20730100  0.29895600  0.53102000  1
  C  C21  1  0.77870400  0.29976100  0.87109700  1
  O  O22  1  0.94591900  0.72541500  0.52962800  1
  O  O23  1  0.72801200  0.74345300  0.98435300  1
  O  O24  1  0.27362700  0.90254800  0.37487200  1
  O  O25  1  0.59471500  0.15717400  0.22845500  1
  O  O26  1  0.06714500  0.82347100  0.79066000  1
  O  O27  1  0.72637300  0.09745200  0.62512800  1
  O  O28  1  0.27198800  0.25654700  0.01564700  1
  O  O29  1  0.40528500  0.84282600  0.77154500  1
  O  O30  1  0.05408100  0.27458500  0.47037200  1
  O  O31  1  0.93285500  0.17652900  0.20934000  1
  O  O32  1  0.60508000  0.39734700  0.85398400  1
  O  O33  1  0.61997300  0.70371700  0.52713000  1
  O  O34  1  0.05963600  0.61364000  0.16023200  1
  O  O35  1  0.39492000  0.60265300  0.14601600  1
  O  O36  1  0.94036400  0.38636000  0.83976800  1
  O  O37  1  0.38002700  0.29628300  0.47287000  1
