# generated using pymatgen
data_Ta9Pb12O20F29
_symmetry_space_group_name_H-M   'P 1'
_cell_length_a   16.63961044
_cell_length_b   16.63961044
_cell_length_c   16.63961044
_cell_angle_alpha   90.79881294
_cell_angle_beta   90.79881294
_cell_angle_gamma   166.43808121
_symmetry_Int_Tables_number   1
_chemical_formula_structural   Ta9Pb12O20F29
_chemical_formula_sum   'Ta9 Pb12 O20 F29'
_cell_volume   1072.79403933
_cell_formula_units_Z   1
loop_
 _symmetry_equiv_pos_site_id
 _symmetry_equiv_pos_as_xyz
  1  'x, y, z'
loop_
 _atom_site_type_symbol
 _atom_site_label
 _atom_site_symmetry_multiplicity
 _atom_site_fract_x
 _atom_site_fract_y
 _atom_site_fract_z
 _atom_site_occupancy
  Ta  Ta0  1  0.89910300  0.86982100  0.76892400  1
  Ta  Ta1  1  0.13017900  0.89910300  0.02928300  1
  Ta  Ta2  1  0.23175400  0.02818600  0.25993900  1
  Ta  Ta3  1  0.10089700  0.13017900  0.23107600  1
  Ta  Ta4  1  0.86982100  0.10089700  0.97071700  1
  Ta  Ta5  1  0.02818600  0.76824600  0.79643200  1
  Ta  Ta6  1  0.00000000  0.00000000  0.00000000  1
  Ta  Ta7  1  0.76824600  0.97181400  0.74006100  1
  Ta  Ta8  1  0.97181400  0.23175400  0.20356800  1
  Pb  Pb9  1  0.21061200  0.60187900  0.81249100  1
  Pb  Pb10  1  0.67230000  0.25404200  0.92634300  1
  Pb  Pb11  1  0.39812100  0.21061200  0.60873400  1
  Pb  Pb12  1  0.60187900  0.78938800  0.39126600  1
  Pb  Pb13  1  0.10153800  0.45247500  0.55401300  1
  Pb  Pb14  1  0.45247500  0.89846200  0.35093700  1
  Pb  Pb15  1  0.32770000  0.74595800  0.07365700  1
  Pb  Pb16  1  0.74595800  0.67230000  0.41825800  1
  Pb  Pb17  1  0.78938800  0.39812100  0.18750900  1
  Pb  Pb18  1  0.25404200  0.32770000  0.58174200  1
  Pb  Pb19  1  0.89846200  0.54752500  0.44598700  1
  Pb  Pb20  1  0.54752500  0.10153800  0.64906300  1
  O  O21  1  0.95664500  0.80707100  0.76371500  1
  O  O22  1  0.25599700  0.47011300  0.72611100  1
  O  O23  1  0.04744000  0.06829400  0.11573400  1
  O  O24  1  0.36370200  0.60660900  0.97031100  1
  O  O25  1  0.93170600  0.04744000  0.97914600  1
  O  O26  1  0.06829400  0.95256000  0.02085400  1
  O  O27  1  0.63629800  0.39339100  0.02968900  1
  O  O28  1  0.95256000  0.93170600  0.88426600  1
  O  O29  1  0.80707100  0.04335500  0.85042600  1
  O  O30  1  0.04335500  0.19292900  0.23628500  1
  O  O31  1  0.19292900  0.95664500  0.14957400  1
  O  O32  1  0.83003200  0.92020700  0.75023900  1
  O  O33  1  0.47011300  0.74400300  0.21411600  1
  O  O34  1  0.92020700  0.16996800  0.09017500  1
  O  O35  1  0.74400300  0.52988700  0.27389000  1
  O  O36  1  0.07979300  0.83003200  0.90982500  1
  O  O37  1  0.39339100  0.36370200  0.75709200  1
  O  O38  1  0.52988700  0.25599700  0.78588400  1
  O  O39  1  0.16996800  0.07979300  0.24976100  1
  O  O40  1  0.60660900  0.63629800  0.24290800  1
  F  F41  1  0.16267600  0.19588100  0.35855700  1
  F  F42  1  0.42226500  0.11409400  0.53635900  1
  F  F43  1  0.30760300  0.97984700  0.28744900  1
  F  F44  1  0.57773500  0.88590600  0.46364100  1
  F  F45  1  0.90095200  0.28640600  0.18735900  1
  F  F46  1  0.32931100  0.85232700  0.18163800  1
  F  F47  1  0.14767300  0.32931100  0.47698400  1
  F  F48  1  0.22411500  0.71494500  0.93906100  1
  F  F49  1  0.99601300  0.56622500  0.56223800  1
  F  F50  1  0.71494500  0.77588500  0.49083000  1
  F  F51  1  0.11409400  0.57773500  0.69182900  1
  F  F52  1  0.83732400  0.80411900  0.64144300  1
  F  F53  1  0.67068900  0.14767300  0.81836200  1
  F  F54  1  0.71359400  0.90095200  0.61454600  1
  F  F55  1  0.85232700  0.67068900  0.52301600  1
  F  F56  1  0.69239700  0.02015300  0.71255100  1
  F  F57  1  0.77588500  0.28505500  0.06093900  1
  F  F58  1  0.28640600  0.09904800  0.38545400  1
  F  F59  1  0.56622500  0.00398700  0.57021200  1
  F  F60  1  0.50000000  0.50000000  0.00000000  1
  F  F61  1  0.80411900  0.16267600  0.96679600  1
  F  F62  1  0.88590600  0.42226500  0.30817100  1
  F  F63  1  0.02015300  0.30760300  0.32775600  1
  F  F64  1  0.28505500  0.22411500  0.50917000  1
  F  F65  1  0.97984700  0.69239700  0.67224400  1
  F  F66  1  0.43377500  0.99601300  0.42978800  1
  F  F67  1  0.00398700  0.43377500  0.43776200  1
  F  F68  1  0.09904800  0.71359400  0.81264100  1
  F  F69  1  0.19588100  0.83732400  0.03320400  1
