# generated using pymatgen
data_Na2DyMoPO8
_symmetry_space_group_name_H-M   'P 1'
_cell_length_a   11.50283989
_cell_length_b   11.50283989
_cell_length_c   11.50283989
_cell_angle_alpha   144.79158081
_cell_angle_beta   115.83530880
_cell_angle_gamma   75.35401031
_symmetry_Int_Tables_number   1
_chemical_formula_structural   Na2DyMoPO8
_chemical_formula_sum   'Na8 Dy4 Mo4 P4 O32'
_cell_volume   774.02533837
_cell_formula_units_Z   4
loop_
 _symmetry_equiv_pos_site_id
 _symmetry_equiv_pos_as_xyz
  1  'x, y, z'
loop_
 _atom_site_type_symbol
 _atom_site_label
 _atom_site_symmetry_multiplicity
 _atom_site_fract_x
 _atom_site_fract_y
 _atom_site_fract_z
 _atom_site_occupancy
  Na  Na0  1  0.70933800  0.64335700  0.04618900  1
  Na  Na1  1  0.59716800  0.14335700  0.43401900  1
  Na  Na2  1  0.20933800  0.16314900  0.06598100  1
  Na  Na3  1  0.09716800  0.66314900  0.45381100  1
  Na  Na4  1  0.90283200  0.33685100  0.54618900  1
  Na  Na5  1  0.79066200  0.83685100  0.93401900  1
  Na  Na6  1  0.29066200  0.35664300  0.95381100  1
  Na  Na7  1  0.40283200  0.85664300  0.56598100  1
  Dy  Dy8  1  0.67791700  0.75000000  0.42791700  1
  Dy  Dy9  1  0.32208300  0.25000000  0.57208300  1
  Dy  Dy10  1  0.17791700  0.75000000  0.92791700  1
  Dy  Dy11  1  0.82208300  0.25000000  0.07208300  1
  Mo  Mo12  1  0.42799400  0.67799400  0.75000000  1
  Mo  Mo13  1  0.07200600  0.82200600  0.25000000  1
  Mo  Mo14  1  0.57200600  0.32200600  0.25000000  1
  Mo  Mo15  1  0.92799400  0.17799400  0.75000000  1
  P  P16  1  0.56916500  0.25000000  0.81916500  1
  P  P17  1  0.43083500  0.75000000  0.18083500  1
  P  P18  1  0.93083500  0.75000000  0.68083500  1
  P  P19  1  0.06916500  0.25000000  0.31916500  1
  O  O20  1  0.64035500  0.06755500  0.72398000  1
  O  O21  1  0.43854400  0.69472100  0.26933100  1
  O  O22  1  0.56145600  0.30527900  0.73066900  1
  O  O23  1  0.84641600  0.91156800  0.51581100  1
  O  O24  1  0.93854400  0.66921200  0.74382300  1
  O  O25  1  0.65642500  0.43244500  0.07280000  1
  O  O26  1  0.86209800  0.27324700  0.67169100  1
  O  O27  1  0.14035500  0.41637400  0.57280000  1
  O  O28  1  0.06145600  0.33078800  0.25617700  1
  O  O29  1  0.15642500  0.08362600  0.22398000  1
  O  O30  1  0.65358400  0.16939400  0.06515100  1
  O  O31  1  0.89575700  0.33060600  0.98418900  1
  O  O32  1  0.42539000  0.19472100  0.75617700  1
  O  O33  1  0.36209800  0.69040700  0.58885000  1
  O  O34  1  0.84357500  0.91637400  0.77602000  1
  O  O35  1  0.34641600  0.83060600  0.93484900  1
  O  O36  1  0.13790200  0.72675300  0.32830900  1
  O  O37  1  0.57461000  0.80527900  0.24382300  1
  O  O38  1  0.34357500  0.56755500  0.92720000  1
  O  O39  1  0.10424300  0.66939400  0.01581100  1
  O  O40  1  0.85964500  0.58362600  0.42720000  1
  O  O41  1  0.89844300  0.80959300  0.17169100  1
  O  O42  1  0.07461000  0.83078800  0.76933100  1
  O  O43  1  0.39844300  0.22675300  0.08885000  1
  O  O44  1  0.63790200  0.30959300  0.41115000  1
  O  O45  1  0.60424300  0.58843200  0.43484900  1
  O  O46  1  0.10155700  0.19040700  0.82830900  1
  O  O47  1  0.92539000  0.16921200  0.23066900  1
  O  O48  1  0.39575700  0.41156800  0.56515100  1
  O  O49  1  0.35964500  0.93244500  0.27602000  1
  O  O50  1  0.60155700  0.77324700  0.91115000  1
  O  O51  1  0.15358400  0.08843200  0.48418900  1
