# generated using pymatgen
data_Na2Th(PO4)2
_symmetry_space_group_name_H-M   'P 1'
_cell_length_a   11.53147197
_cell_length_b   11.53147197
_cell_length_c   9.26760753
_cell_angle_alpha   83.59479254
_cell_angle_beta   83.59479254
_cell_angle_gamma   144.03270086
_symmetry_Int_Tables_number   1
_chemical_formula_structural   Na2Th(PO4)2
_chemical_formula_sum   'Na8 Th4 P8 O32'
_cell_volume   674.89201549
_cell_formula_units_Z   4
loop_
 _symmetry_equiv_pos_site_id
 _symmetry_equiv_pos_as_xyz
  1  'x, y, z'
loop_
 _atom_site_type_symbol
 _atom_site_label
 _atom_site_symmetry_multiplicity
 _atom_site_fract_x
 _atom_site_fract_y
 _atom_site_fract_z
 _atom_site_occupancy
  Na  Na0  1  0.70851900  0.08829600  0.45488800  1
  Na  Na1  1  0.31217500  0.43826500  0.99296800  1
  Na  Na2  1  0.91170400  0.29148100  0.04511200  1
  Na  Na3  1  0.56173500  0.68782500  0.50703200  1
  Na  Na4  1  0.68782500  0.56173500  0.00703200  1
  Na  Na5  1  0.08829600  0.70851900  0.95488800  1
  Na  Na6  1  0.29148100  0.91170400  0.54511200  1
  Na  Na7  1  0.43826500  0.31217500  0.49296800  1
  Th  Th8  1  0.92820100  0.07179900  0.75000000  1
  Th  Th9  1  0.07179900  0.92820100  0.25000000  1
  Th  Th10  1  0.29623400  0.70376600  0.25000000  1
  Th  Th11  1  0.70376600  0.29623400  0.75000000  1
  P  P12  1  0.11743900  0.24967900  0.38033600  1
  P  P13  1  0.75032100  0.88256100  0.11966400  1
  P  P14  1  0.88256100  0.75032100  0.61966400  1
  P  P15  1  0.12854600  0.50700700  0.64762800  1
  P  P16  1  0.87145400  0.49299300  0.35237200  1
  P  P17  1  0.50700700  0.12854600  0.14762800  1
  P  P18  1  0.24967900  0.11743900  0.88033600  1
  P  P19  1  0.49299300  0.87145400  0.85237200  1
  O  O20  1  0.75951200  0.65860800  0.50509400  1
  O  O21  1  0.20721900  0.18388300  0.77151800  1
  O  O22  1  0.11810600  0.95322400  0.51418500  1
  O  O23  1  0.45027100  0.94431800  0.75025200  1
  O  O24  1  0.42173000  0.16080600  0.24380300  1
  O  O25  1  0.04677600  0.88189400  0.98581500  1
  O  O26  1  0.33042400  0.70785900  0.50614700  1
  O  O27  1  0.40159000  0.15731400  0.77655200  1
  O  O28  1  0.16080600  0.42173000  0.74380300  1
  O  O29  1  0.05811600  0.66706700  0.41027100  1
  O  O30  1  0.34139200  0.24048800  0.99490600  1
  O  O31  1  0.24048800  0.34139200  0.49490600  1
  O  O32  1  0.59841000  0.84268600  0.22344800  1
  O  O33  1  0.54972900  0.05568200  0.24974800  1
  O  O34  1  0.88189400  0.04677600  0.48581500  1
  O  O35  1  0.33293300  0.94188400  0.08972900  1
  O  O36  1  0.66957600  0.29214100  0.49385300  1
  O  O37  1  0.66706700  0.05811600  0.91027100  1
  O  O38  1  0.83919400  0.57827000  0.25619700  1
  O  O39  1  0.57827000  0.83919400  0.75619700  1
  O  O40  1  0.29214100  0.66957600  0.99385300  1
  O  O41  1  0.94431800  0.45027100  0.25025200  1
  O  O42  1  0.94188400  0.33293300  0.58972900  1
  O  O43  1  0.15731400  0.40159000  0.27655200  1
  O  O44  1  0.70785900  0.33042400  0.00614700  1
  O  O45  1  0.95322400  0.11810600  0.01418500  1
  O  O46  1  0.18388300  0.20721900  0.27151800  1
  O  O47  1  0.05568200  0.54972900  0.74974800  1
  O  O48  1  0.81611700  0.79278100  0.72848200  1
  O  O49  1  0.65860800  0.75951200  0.00509400  1
  O  O50  1  0.84268600  0.59841000  0.72344800  1
  O  O51  1  0.79278100  0.81611700  0.22848200  1
