# generated using pymatgen
data_CS2NF5
_symmetry_space_group_name_H-M   'P 1'
_cell_length_a   5.00973700
_cell_length_b   7.55060837
_cell_length_c   8.18644018
_cell_angle_alpha   97.15475627
_cell_angle_beta   90.57000387
_cell_angle_gamma   92.39641019
_symmetry_Int_Tables_number   1
_chemical_formula_structural   CS2NF5
_chemical_formula_sum   'C2 S4 N2 F10'
_cell_volume   306.94905295
_cell_formula_units_Z   2
loop_
 _symmetry_equiv_pos_site_id
 _symmetry_equiv_pos_as_xyz
  1  'x, y, z'
loop_
 _atom_site_type_symbol
 _atom_site_label
 _atom_site_symmetry_multiplicity
 _atom_site_fract_x
 _atom_site_fract_y
 _atom_site_fract_z
 _atom_site_occupancy
  C  C0  1  0.62432600  0.49285000  0.22112500  1
  C  C1  1  0.37567400  0.50715000  0.77887500  1
  S  S2  1  0.12029800  0.19263200  0.77433800  1
  S  S3  1  0.87970200  0.80736800  0.22566200  1
  S  S4  1  0.49389900  0.33091000  0.29306000  1
  S  S5  1  0.50610100  0.66909000  0.70694000  1
  N  N6  1  0.72101300  0.61296600  0.14871900  1
  N  N7  1  0.27898700  0.38703400  0.85128100  1
  F  F8  1  0.27092600  0.09185800  0.90748600  1
  F  F9  1  0.72907400  0.90814200  0.09251400  1
  F  F10  1  0.12024900  0.76699100  0.09972400  1
  F  F11  1  0.03324100  0.99479800  0.29361300  1
  F  F12  1  0.95967500  0.28366500  0.63521500  1
  F  F13  1  0.87975100  0.23300900  0.90027600  1
  F  F14  1  0.96675900  0.00520200  0.70638700  1
  F  F15  1  0.04032500  0.71633500  0.36478500  1
  F  F16  1  0.35393000  0.14135100  0.64291800  1
  F  F17  1  0.64607000  0.85864900  0.35708200  1
