# generated using pymatgen
data_SrGeO3
_symmetry_space_group_name_H-M   'P 1'
_cell_length_a   7.05351013
_cell_length_b   7.05351013
_cell_length_c   5.77136400
_cell_angle_alpha   90.00000000
_cell_angle_beta   90.00000000
_cell_angle_gamma   120.00000125
_symmetry_Int_Tables_number   1
_chemical_formula_structural   SrGeO3
_chemical_formula_sum   'Sr3 Ge3 O9'
_cell_volume   248.66787413
_cell_formula_units_Z   3
loop_
 _symmetry_equiv_pos_site_id
 _symmetry_equiv_pos_as_xyz
  1  'x, y, z'
loop_
 _atom_site_type_symbol
 _atom_site_label
 _atom_site_symmetry_multiplicity
 _atom_site_fract_x
 _atom_site_fract_y
 _atom_site_fract_z
 _atom_site_occupancy
  Sr  Sr0  1  0.00000000  0.33749300  0.50000000  1
  Sr  Sr1  1  0.33749300  0.00000000  0.50000000  1
  Sr  Sr2  1  0.66250700  0.66250700  0.50000000  1
  Ge  Ge3  1  0.26922400  0.26922400  0.00000000  1
  Ge  Ge4  1  0.73077600  0.00000000  0.00000000  1
  Ge  Ge5  1  0.00000000  0.73077600  0.00000000  1
  O  O6  1  0.75715000  0.75715000  0.00000000  1
  O  O7  1  0.36313100  0.36313100  0.27817400  1
  O  O8  1  0.63686900  0.00000000  0.72182600  1
  O  O9  1  0.63686900  0.00000000  0.27817400  1
  O  O10  1  0.00000000  0.63686900  0.72182600  1
  O  O11  1  0.00000000  0.24285000  0.00000000  1
  O  O12  1  0.36313100  0.36313100  0.72182600  1
  O  O13  1  0.00000000  0.63686900  0.27817400  1
  O  O14  1  0.24285000  0.00000000  0.00000000  1
