# generated using pymatgen
data_Sb2BrF15
_symmetry_space_group_name_H-M   'P 1'
_cell_length_a   14.82987300
_cell_length_b   5.41200700
_cell_length_c   14.62609834
_cell_angle_alpha   86.89496679
_cell_angle_beta   90.00000000
_cell_angle_gamma   90.00000000
_symmetry_Int_Tables_number   1
_chemical_formula_structural   Sb2BrF15
_chemical_formula_sum   'Sb8 Br4 F60'
_cell_volume   1172.15817656
_cell_formula_units_Z   4
loop_
 _symmetry_equiv_pos_site_id
 _symmetry_equiv_pos_as_xyz
  1  'x, y, z'
loop_
 _atom_site_type_symbol
 _atom_site_label
 _atom_site_symmetry_multiplicity
 _atom_site_fract_x
 _atom_site_fract_y
 _atom_site_fract_z
 _atom_site_occupancy
  Sb  Sb0  1  0.64717100  0.90738100  0.15193800  1
  Sb  Sb1  1  0.85484000  0.62068400  0.31560500  1
  Sb  Sb2  1  0.35282900  0.09261900  0.84806200  1
  Sb  Sb3  1  0.85282900  0.90738100  0.65193800  1
  Sb  Sb4  1  0.14717100  0.09261900  0.34806200  1
  Sb  Sb5  1  0.35484000  0.37931600  0.18439500  1
  Sb  Sb6  1  0.64516000  0.62068400  0.81560500  1
  Sb  Sb7  1  0.14516000  0.37931600  0.68439500  1
  Br  Br8  1  0.65365000  0.27238300  0.48171900  1
  Br  Br9  1  0.34635000  0.72761700  0.51828100  1
  Br  Br10  1  0.15365000  0.72761700  0.01828100  1
  Br  Br11  1  0.84635000  0.27238300  0.98171900  1
  F  F12  1  0.16399400  0.37545700  0.41640000  1
  F  F13  1  0.56501800  0.46855000  0.90068200  1
  F  F14  1  0.93945700  0.79365900  0.23970600  1
  F  F15  1  0.66839300  0.89824300  0.88501400  1
  F  F16  1  0.84253800  0.18302800  0.72500700  1
  F  F17  1  0.06501800  0.53145000  0.59931800  1
  F  F18  1  0.42839400  0.59060800  0.59015000  1
  F  F19  1  0.75077700  0.46254000  0.88044600  1
  F  F20  1  0.14867600  0.64794200  0.76152500  1
  F  F21  1  0.44267000  0.95071600  0.92450200  1
  F  F22  1  0.24521500  0.93789300  0.42508300  1
  F  F23  1  0.83160700  0.89824300  0.38501400  1
  F  F24  1  0.25077700  0.53746000  0.61955400  1
  F  F25  1  0.64830700  0.54763500  0.54558400  1
  F  F26  1  0.85169300  0.54763500  0.04558400  1
  F  F27  1  0.07256300  0.26384000  0.26120200  1
  F  F28  1  0.35169300  0.45236500  0.45441600  1
  F  F29  1  0.92839400  0.40939200  0.90985000  1
  F  F30  1  0.74922300  0.46254000  0.38044600  1
  F  F31  1  0.92641700  0.14380700  0.05832000  1
  F  F32  1  0.57358300  0.14380700  0.55832000  1
  F  F33  1  0.64867600  0.35205800  0.73847500  1
  F  F34  1  0.43945700  0.20634100  0.26029400  1
  F  F35  1  0.75623900  0.76974500  0.22879500  1
  F  F36  1  0.06054300  0.20634100  0.76029400  1
  F  F37  1  0.85909900  0.00018200  0.91759100  1
  F  F38  1  0.16839300  0.10175700  0.61498600  1
  F  F39  1  0.56054300  0.79365900  0.73970600  1
  F  F40  1  0.55733000  0.04928400  0.07549800  1
  F  F41  1  0.74521500  0.06210700  0.07491700  1
  F  F42  1  0.33160700  0.10175700  0.11498600  1
  F  F43  1  0.34253800  0.81697200  0.77499300  1
  F  F44  1  0.07358300  0.85619300  0.94168000  1
  F  F45  1  0.24376100  0.23025500  0.77120500  1
  F  F46  1  0.33600600  0.37545700  0.91640000  1
  F  F47  1  0.15746200  0.81697200  0.27499300  1
  F  F48  1  0.14830700  0.45236500  0.95441600  1
  F  F49  1  0.14090100  0.99981800  0.08240900  1
  F  F50  1  0.25478500  0.93789300  0.92508300  1
  F  F51  1  0.94267000  0.04928400  0.57549800  1
  F  F52  1  0.64090100  0.00018200  0.41759100  1
  F  F53  1  0.93498200  0.46855000  0.40068200  1
  F  F54  1  0.25623900  0.23025500  0.27120500  1
  F  F55  1  0.75478500  0.06210700  0.57491700  1
  F  F56  1  0.24922300  0.53746000  0.11955400  1
  F  F57  1  0.35132400  0.64794200  0.26152500  1
  F  F58  1  0.42743700  0.26384000  0.76120200  1
  F  F59  1  0.85132400  0.35205800  0.23847500  1
  F  F60  1  0.74376100  0.76974500  0.72879500  1
  F  F61  1  0.05733000  0.95071600  0.42450200  1
  F  F62  1  0.07160600  0.59060800  0.09015000  1
  F  F63  1  0.35909900  0.99981800  0.58240900  1
  F  F64  1  0.66399400  0.62454300  0.08360000  1
  F  F65  1  0.83600600  0.62454300  0.58360000  1
  F  F66  1  0.57160600  0.40939200  0.40985000  1
  F  F67  1  0.43498200  0.53145000  0.09931800  1
  F  F68  1  0.42641700  0.85619300  0.44168000  1
  F  F69  1  0.92743700  0.73616000  0.73879800  1
  F  F70  1  0.65746200  0.18302800  0.22500700  1
  F  F71  1  0.57256300  0.73616000  0.23879800  1
