# generated using pymatgen
data_Ba6Ti17O40
_symmetry_space_group_name_H-M   'P 1'
_cell_length_a   9.99281440
_cell_length_b   9.99281440
_cell_length_c   19.21628560
_cell_angle_alpha   85.53480708
_cell_angle_beta   85.53480708
_cell_angle_gamma   119.73213332
_symmetry_Int_Tables_number   1
_chemical_formula_structural   Ba6Ti17O40
_chemical_formula_sum   'Ba12 Ti34 O80'
_cell_volume   1646.09734911
_cell_formula_units_Z   2
loop_
 _symmetry_equiv_pos_site_id
 _symmetry_equiv_pos_as_xyz
  1  'x, y, z'
loop_
 _atom_site_type_symbol
 _atom_site_label
 _atom_site_symmetry_multiplicity
 _atom_site_fract_x
 _atom_site_fract_y
 _atom_site_fract_z
 _atom_site_occupancy
  Ba  Ba0  1  0.43088600  0.86335400  0.31495200  1
  Ba  Ba1  1  0.56018100  0.71067400  0.82268700  1
  Ba  Ba2  1  0.97923900  0.16280700  0.55565700  1
  Ba  Ba3  1  0.86335400  0.43088600  0.81495200  1
  Ba  Ba4  1  0.56911400  0.13664600  0.68504800  1
  Ba  Ba5  1  0.28932600  0.43981900  0.67731300  1
  Ba  Ba6  1  0.16280700  0.97923900  0.05565700  1
  Ba  Ba7  1  0.02076100  0.83719300  0.44434300  1
  Ba  Ba8  1  0.13664600  0.56911400  0.18504800  1
  Ba  Ba9  1  0.43981900  0.28932600  0.17731300  1
  Ba  Ba10  1  0.83719300  0.02076100  0.94434300  1
  Ba  Ba11  1  0.71067400  0.56018100  0.32268700  1
  Ti  Ti12  1  0.35038500  0.70829900  0.99650200  1
  Ti  Ti13  1  0.13016900  0.81815300  0.62278900  1
  Ti  Ti14  1  0.70829900  0.35038500  0.49650200  1
  Ti  Ti15  1  0.76848700  0.61957800  0.62778700  1
  Ti  Ti16  1  0.16369700  0.32483500  0.01268300  1
  Ti  Ti17  1  0.37310100  0.17546400  0.36034900  1
  Ti  Ti18  1  0.23151300  0.38042200  0.37221300  1
  Ti  Ti19  1  0.81815300  0.13016900  0.12278900  1
  Ti  Ti20  1  0.83630300  0.67516500  0.98731700  1
  Ti  Ti21  1  0.67516500  0.83630300  0.48731700  1
  Ti  Ti22  1  0.62689900  0.82453600  0.63965100  1
  Ti  Ti23  1  0.61957800  0.76848700  0.12778700  1
  Ti  Ti24  1  0.05988000  0.94012000  0.75000000  1
  Ti  Ti25  1  0.25347000  0.74653000  0.75000000  1
  Ti  Ti26  1  0.53619400  0.04390600  0.87291400  1
  Ti  Ti27  1  0.29170100  0.64961500  0.50349800  1
  Ti  Ti28  1  0.94012000  0.05988000  0.25000000  1
  Ti  Ti29  1  0.00000000  0.50000000  0.00000000  1
  Ti  Ti30  1  0.64961500  0.29170100  0.00349800  1
  Ti  Ti31  1  0.18184700  0.86983100  0.87721100  1
  Ti  Ti32  1  0.10556100  0.89443900  0.25000000  1
  Ti  Ti33  1  0.50000000  0.00000000  0.50000000  1
  Ti  Ti34  1  0.50000000  0.50000000  0.50000000  1
  Ti  Ti35  1  0.46380600  0.95609400  0.12708600  1
  Ti  Ti36  1  0.17546400  0.37310100  0.86034900  1
  Ti  Ti37  1  0.82453600  0.62689900  0.13965100  1
  Ti  Ti38  1  0.95609400  0.46380600  0.62708600  1
  Ti  Ti39  1  0.74653000  0.25347000  0.25000000  1
  Ti  Ti40  1  0.89443900  0.10556100  0.75000000  1
  Ti  Ti41  1  0.04390600  0.53619400  0.37291400  1
  Ti  Ti42  1  0.50000000  0.50000000  0.00000000  1
  Ti  Ti43  1  0.38042200  0.23151300  0.87221300  1
  Ti  Ti44  1  0.86983100  0.18184700  0.37721100  1
  Ti  Ti45  1  0.32483500  0.16369700  0.51268300  1
  O  O46  1  0.96963200  0.65598000  0.57525400  1
  O  O47  1  0.77906100  0.46410900  0.68352300  1
  O  O48  1  0.67228100  0.18533900  0.93028500  1
  O  O49  1  0.93660100  0.29770400  0.69133300  1
  O  O50  1  0.69655400  0.18434300  0.44924200  1
  O  O51  1  0.34884800  0.51044900  0.43950000  1
  O  O52  1  0.08234900  0.11951600  0.70052900  1
  O  O53  1  0.81565700  0.30344600  0.05075800  1
  O  O54  1  0.35670900  0.53145400  0.94766500  1
  O  O55  1  0.81466100  0.32771900  0.56971500  1
  O  O56  1  0.23891300  0.01417100  0.31881000  1
  O  O57  1  0.15058200  0.98710500  0.55773200  1
  O  O58  1  0.78152000  0.44123900  0.19628200  1
  O  O59  1  0.11579600  0.62847800  0.68200800  1
  O  O60  1  0.30344600  0.81565700  0.55075800  1
  O  O61  1  0.37152200  0.88420400  0.81799200  1
  O  O62  1  0.92867900  0.25349900  0.19168500  1
  O  O63  1  0.13820100  0.48797300  0.56673600  1
  O  O64  1  0.74650100  0.07132100  0.30831500  1
  O  O65  1  0.32771900  0.81466100  0.06971500  1
  O  O66  1  0.36113900  0.38435200  0.81520700  1
  O  O67  1  0.91765100  0.88048400  0.29947100  1
  O  O68  1  0.61564800  0.63886100  0.68479300  1
  O  O69  1  0.68254800  0.67576300  0.94081700  1
  O  O70  1  0.25349900  0.92867900  0.69168500  1
  O  O71  1  0.04347800  0.37556700  0.93919000  1
  O  O72  1  0.29770400  0.93660100  0.19133300  1
  O  O73  1  0.81225500  0.77885300  0.06685700  1
  O  O74  1  0.98582900  0.76108700  0.18119000  1
  O  O75  1  0.11951600  0.08234900  0.20052900  1
  O  O76  1  0.86179900  0.51202700  0.43326400  1
  O  O77  1  0.37556700  0.04347800  0.43919000  1
  O  O78  1  0.22093900  0.53589100  0.31647700  1
  O  O79  1  0.22114700  0.18774500  0.43314300  1
  O  O80  1  0.20204700  0.04408200  0.81977100  1
  O  O81  1  0.88420400  0.37152200  0.31799200  1
  O  O82  1  0.53589100  0.22093900  0.81647700  1
  O  O83  1  0.49078800  0.15098700  0.55496800  1
  O  O84  1  0.15098700  0.49078800  0.05496800  1
  O  O85  1  0.18774500  0.22114700  0.93314300  1
  O  O86  1  0.01417100  0.23891300  0.81881000  1
  O  O87  1  0.31745200  0.32423700  0.05918300  1
  O  O88  1  0.06339900  0.70229600  0.30866700  1
  O  O89  1  0.70229600  0.06339900  0.80866700  1
  O  O90  1  0.65598000  0.96963200  0.07525400  1
  O  O91  1  0.34402000  0.03036800  0.92474600  1
  O  O92  1  0.50921200  0.84901300  0.44503200  1
  O  O93  1  0.64329100  0.46854600  0.05233500  1
  O  O94  1  0.79795300  0.95591800  0.18022900  1
  O  O95  1  0.48797300  0.13820100  0.06673600  1
  O  O96  1  0.46410900  0.77906100  0.18352300  1
  O  O97  1  0.21848000  0.55876100  0.80371800  1
  O  O98  1  0.03036800  0.34402000  0.42474600  1
  O  O99  1  0.65115200  0.48955100  0.56050000  1
  O  O100  1  0.48955100  0.65115200  0.06050000  1
  O  O101  1  0.01289500  0.84941800  0.94226800  1
  O  O102  1  0.84941800  0.01289500  0.44226800  1
  O  O103  1  0.44123900  0.78152000  0.69628200  1
  O  O104  1  0.32423700  0.31745200  0.55918300  1
  O  O105  1  0.53145400  0.35670900  0.44766500  1
  O  O106  1  0.98710500  0.15058200  0.05773200  1
  O  O107  1  0.95652200  0.62443300  0.06081000  1
  O  O108  1  0.76108700  0.98582900  0.68119000  1
  O  O109  1  0.62443300  0.95652200  0.56081000  1
  O  O110  1  0.77885300  0.81225500  0.56685700  1
  O  O111  1  0.46854600  0.64329100  0.55233500  1
  O  O112  1  0.07132100  0.74650100  0.80831500  1
  O  O113  1  0.51044900  0.34884800  0.93950000  1
  O  O114  1  0.18434300  0.69655400  0.94924200  1
  O  O115  1  0.95591800  0.79795300  0.68022900  1
  O  O116  1  0.55876100  0.21848000  0.30371800  1
  O  O117  1  0.67576300  0.68254800  0.44081700  1
  O  O118  1  0.51202700  0.86179900  0.93326400  1
  O  O119  1  0.18533900  0.67228100  0.43028500  1
  O  O120  1  0.62847800  0.11579600  0.18200800  1
  O  O121  1  0.38435200  0.36113900  0.31520700  1
  O  O122  1  0.84901300  0.50921200  0.94503200  1
  O  O123  1  0.88048400  0.91765100  0.79947100  1
  O  O124  1  0.63886100  0.61564800  0.18479300  1
  O  O125  1  0.04408200  0.20204700  0.31977100  1
