# generated using pymatgen
data_Cu3TeS3Cl
_symmetry_space_group_name_H-M   'P 1'
_cell_length_a   5.48178004
_cell_length_b   5.48178004
_cell_length_c   5.48177999
_cell_angle_alpha   85.04968754
_cell_angle_beta   85.04968754
_cell_angle_gamma   85.04968686
_symmetry_Int_Tables_number   1
_chemical_formula_structural   Cu3TeS3Cl
_chemical_formula_sum   'Cu3 Te1 S3 Cl1'
_cell_volume   162.98372585
_cell_formula_units_Z   1
loop_
 _symmetry_equiv_pos_site_id
 _symmetry_equiv_pos_as_xyz
  1  'x, y, z'
loop_
 _atom_site_type_symbol
 _atom_site_label
 _atom_site_symmetry_multiplicity
 _atom_site_fract_x
 _atom_site_fract_y
 _atom_site_fract_z
 _atom_site_occupancy
  Cu  Cu0  1  0.22924400  0.22924400  0.80402200  1
  Cu  Cu1  1  0.22924400  0.80402200  0.22924400  1
  Cu  Cu2  1  0.80402200  0.22924400  0.22924400  1
  Te  Te3  1  0.74759100  0.74759100  0.74759100  1
  S  S4  1  0.52820300  0.02858500  0.02858500  1
  S  S5  1  0.02858500  0.52820300  0.02858500  1
  S  S6  1  0.02858500  0.02858500  0.52820300  1
  Cl  Cl7  1  0.43185700  0.43185700  0.43185700  1
