# generated using pymatgen
data_Ba4Fe3(S3F2)2
_symmetry_space_group_name_H-M   'P 1'
_cell_length_a   6.25158700
_cell_length_b   12.81374300
_cell_length_c   19.11516200
_cell_angle_alpha   90.00000000
_cell_angle_beta   90.00000000
_cell_angle_gamma   90.00000000
_symmetry_Int_Tables_number   1
_chemical_formula_structural   Ba4Fe3(S3F2)2
_chemical_formula_sum   'Ba16 Fe12 S24 F16'
_cell_volume   1531.24354761
_cell_formula_units_Z   4
loop_
 _symmetry_equiv_pos_site_id
 _symmetry_equiv_pos_as_xyz
  1  'x, y, z'
loop_
 _atom_site_type_symbol
 _atom_site_label
 _atom_site_symmetry_multiplicity
 _atom_site_fract_x
 _atom_site_fract_y
 _atom_site_fract_z
 _atom_site_occupancy
  Ba  Ba0  1  0.24529100  0.00063100  0.42127100  1
  Ba  Ba1  1  0.74529100  0.49936900  0.57872900  1
  Ba  Ba2  1  0.26366900  0.75040400  0.92138900  1
  Ba  Ba3  1  0.25470900  0.50063100  0.42127100  1
  Ba  Ba4  1  0.76366900  0.74959600  0.07861100  1
  Ba  Ba5  1  0.25470900  0.50063100  0.07872900  1
  Ba  Ba6  1  0.76366900  0.74959600  0.42138900  1
  Ba  Ba7  1  0.23633100  0.25040400  0.57861100  1
  Ba  Ba8  1  0.75470900  0.99936900  0.92127100  1
  Ba  Ba9  1  0.75470900  0.99936900  0.57872900  1
  Ba  Ba10  1  0.23633100  0.25040400  0.92138900  1
  Ba  Ba11  1  0.24529100  0.00063100  0.07872900  1
  Ba  Ba12  1  0.73633100  0.24959600  0.42138900  1
  Ba  Ba13  1  0.73633100  0.24959600  0.07861100  1
  Ba  Ba14  1  0.26366900  0.75040400  0.57861100  1
  Ba  Ba15  1  0.74529100  0.49936900  0.92127100  1
  Fe  Fe16  1  0.85726900  0.04879900  0.25000000  1
  Fe  Fe17  1  0.64273100  0.54879800  0.25000000  1
  Fe  Fe18  1  0.50331000  0.87517800  0.25000000  1
  Fe  Fe19  1  0.14649400  0.70231000  0.25000000  1
  Fe  Fe20  1  0.49669000  0.12482200  0.75000000  1
  Fe  Fe21  1  0.14273100  0.95120200  0.75000000  1
  Fe  Fe22  1  0.64649400  0.79769000  0.75000000  1
  Fe  Fe23  1  0.85350600  0.29769000  0.75000000  1
  Fe  Fe24  1  0.00331000  0.62482200  0.75000000  1
  Fe  Fe25  1  0.99669000  0.37517800  0.25000000  1
  Fe  Fe26  1  0.35726900  0.45120100  0.75000000  1
  Fe  Fe27  1  0.35350600  0.20231000  0.25000000  1
  S  S28  1  0.78135900  0.72815300  0.84915300  1
  S  S29  1  0.76649000  0.97265200  0.75000000  1
  S  S30  1  0.72465400  0.97816400  0.15088400  1
  S  S31  1  0.22465400  0.52183600  0.84911600  1
  S  S32  1  0.27534600  0.02183600  0.84911600  1
  S  S33  1  0.78135900  0.72815300  0.65084700  1
  S  S34  1  0.72465400  0.97816400  0.34911600  1
  S  S35  1  0.71864100  0.22815300  0.65084700  1
  S  S36  1  0.28135900  0.77184700  0.15084700  1
  S  S37  1  0.77534600  0.47816400  0.34911600  1
  S  S38  1  0.28135900  0.77184700  0.34915300  1
  S  S39  1  0.23351000  0.02734800  0.25000000  1
  S  S40  1  0.77534600  0.47816400  0.15088400  1
  S  S41  1  0.26649000  0.52734800  0.25000000  1
  S  S42  1  0.21864100  0.27184700  0.15084700  1
  S  S43  1  0.71864100  0.22815300  0.84915300  1
  S  S44  1  0.27038800  0.77723300  0.75000000  1
  S  S45  1  0.21864100  0.27184700  0.34915300  1
  S  S46  1  0.27534600  0.02183600  0.65088400  1
  S  S47  1  0.22961200  0.27723300  0.75000000  1
  S  S48  1  0.22465400  0.52183600  0.65088400  1
  S  S49  1  0.73351000  0.47265200  0.75000000  1
  S  S50  1  0.72961200  0.22276700  0.25000000  1
  S  S51  1  0.77038800  0.72276700  0.25000000  1
  F  F52  1  0.49077700  0.12503500  0.49872400  1
  F  F53  1  0.99077700  0.37496500  0.50127600  1
  F  F54  1  0.50916200  0.62506100  0.49787400  1
  F  F55  1  0.00916200  0.87493900  0.99787400  1
  F  F56  1  0.99083800  0.12506100  0.49787400  1
  F  F57  1  0.00916200  0.87493900  0.50212600  1
  F  F58  1  0.99083800  0.12506100  0.00212600  1
  F  F59  1  0.49083800  0.37493900  0.50212600  1
  F  F60  1  0.49083800  0.37493900  0.99787400  1
  F  F61  1  0.50922300  0.87496500  0.50127600  1
  F  F62  1  0.00922300  0.62503500  0.00127600  1
  F  F63  1  0.50922300  0.87496500  0.99872400  1
  F  F64  1  0.50916200  0.62506100  0.00212600  1
  F  F65  1  0.49077700  0.12503500  0.00127600  1
  F  F66  1  0.99077700  0.37496500  0.99872400  1
  F  F67  1  0.00922300  0.62503500  0.49872400  1
