# generated using pymatgen
data_Fe3B7IO13
_symmetry_space_group_name_H-M   'P 1'
_cell_length_a   8.71374897
_cell_length_b   8.71374897
_cell_length_c   8.71374849
_cell_angle_alpha   61.92061765
_cell_angle_beta   61.92061765
_cell_angle_gamma   61.92061404
_symmetry_Int_Tables_number   1
_chemical_formula_structural   Fe3B7IO13
_chemical_formula_sum   'Fe6 B14 I2 O26'
_cell_volume   487.95282295
_cell_formula_units_Z   2
loop_
 _symmetry_equiv_pos_site_id
 _symmetry_equiv_pos_as_xyz
  1  'x, y, z'
loop_
 _atom_site_type_symbol
 _atom_site_label
 _atom_site_symmetry_multiplicity
 _atom_site_fract_x
 _atom_site_fract_y
 _atom_site_fract_z
 _atom_site_occupancy
  Fe  Fe0  1  0.53270300  0.00809500  0.51920100  1
  Fe  Fe1  1  0.50809500  0.03270300  0.01920100  1
  Fe  Fe2  1  0.03270300  0.01920100  0.50809500  1
  Fe  Fe3  1  0.01920100  0.50809500  0.03270300  1
  Fe  Fe4  1  0.51920100  0.53270300  0.00809500  1
  Fe  Fe5  1  0.00809500  0.51920100  0.53270300  1
  B  B6  1  0.67448200  0.34432300  0.44682000  1
  B  B7  1  0.73587000  0.75038700  0.28190400  1
  B  B8  1  0.23587000  0.78190400  0.25038700  1
  B  B9  1  0.44682000  0.67448200  0.34432300  1
  B  B10  1  0.94682000  0.84432300  0.17448200  1
  B  B11  1  0.34432300  0.44682000  0.67448200  1
  B  B12  1  0.25038700  0.23587000  0.78190400  1
  B  B13  1  0.17448200  0.94682000  0.84432300  1
  B  B14  1  0.10698400  0.10698400  0.10698400  1
  B  B15  1  0.60698400  0.60698400  0.60698400  1
  B  B16  1  0.28190400  0.73587000  0.75038700  1
  B  B17  1  0.75038700  0.28190400  0.73587000  1
  B  B18  1  0.78190400  0.25038700  0.23587000  1
  B  B19  1  0.84432300  0.17448200  0.94682000  1
  I  I20  1  0.26996100  0.26996100  0.26996100  1
  I  I21  1  0.76996100  0.76996100  0.76996100  1
  O  O22  1  0.91451900  0.71374300  0.13485000  1
  O  O23  1  0.95950900  0.10304700  0.26553700  1
  O  O24  1  0.71374300  0.13485000  0.91451900  1
  O  O25  1  0.26553700  0.95950900  0.10304700  1
  O  O26  1  0.27859800  0.07481900  0.74947500  1
  O  O27  1  0.60304700  0.45950900  0.76553700  1
  O  O28  1  0.28181000  0.74893300  0.91374800  1
  O  O29  1  0.13485000  0.91451900  0.71374300  1
  O  O30  1  0.57481900  0.77859800  0.24947500  1
  O  O31  1  0.41374800  0.24893300  0.78181000  1
  O  O32  1  0.00028300  0.00028300  0.00028300  1
  O  O33  1  0.74893300  0.91374800  0.28181000  1
  O  O34  1  0.10304700  0.26553700  0.95950900  1
  O  O35  1  0.74947500  0.27859800  0.07481900  1
  O  O36  1  0.78181000  0.41374800  0.24893300  1
  O  O37  1  0.24893300  0.78181000  0.41374800  1
  O  O38  1  0.21374300  0.41451900  0.63485000  1
  O  O39  1  0.77859800  0.24947500  0.57481900  1
  O  O40  1  0.91374800  0.28181000  0.74893300  1
  O  O41  1  0.41451900  0.63485000  0.21374300  1
  O  O42  1  0.76553700  0.60304700  0.45950900  1
  O  O43  1  0.50028300  0.50028300  0.50028300  1
  O  O44  1  0.63485000  0.21374300  0.41451900  1
  O  O45  1  0.24947500  0.57481900  0.77859800  1
  O  O46  1  0.07481900  0.74947500  0.27859800  1
  O  O47  1  0.45950900  0.76553700  0.60304700  1
