# generated using pymatgen
data_Ti3O5
_symmetry_space_group_name_H-M   'P 1'
_cell_length_a   5.69429206
_cell_length_b   5.69429206
_cell_length_c   7.25376131
_cell_angle_alpha   70.26831402
_cell_angle_beta   70.26831402
_cell_angle_gamma   52.83530795
_symmetry_Int_Tables_number   1
_chemical_formula_structural   Ti3O5
_chemical_formula_sum   'Ti6 O10'
_cell_volume   173.60498985
_cell_formula_units_Z   2
loop_
 _symmetry_equiv_pos_site_id
 _symmetry_equiv_pos_as_xyz
  1  'x, y, z'
loop_
 _atom_site_type_symbol
 _atom_site_label
 _atom_site_symmetry_multiplicity
 _atom_site_fract_x
 _atom_site_fract_y
 _atom_site_fract_z
 _atom_site_occupancy
  Ti  Ti0  1  0.85970500  0.88454000  0.21825400  1
  Ti  Ti1  1  0.88454000  0.85970500  0.71825400  1
  Ti  Ti2  1  0.11546000  0.14029500  0.28174600  1
  Ti  Ti3  1  0.14029500  0.11546000  0.78174600  1
  Ti  Ti4  1  0.50000000  0.50000000  0.50000000  1
  Ti  Ti5  1  0.50000000  0.50000000  0.00000000  1
  O  O6  1  0.14802400  0.47244600  0.15425300  1
  O  O7  1  0.31230700  0.68769300  0.75000000  1
  O  O8  1  0.92367100  0.23906500  0.55856200  1
  O  O9  1  0.23906500  0.92367100  0.05856200  1
  O  O10  1  0.85197600  0.52755400  0.84574700  1
  O  O11  1  0.07632900  0.76093500  0.44143800  1
  O  O12  1  0.68769300  0.31230700  0.25000000  1
  O  O13  1  0.52755400  0.85197600  0.34574700  1
  O  O14  1  0.76093500  0.07632900  0.94143800  1
  O  O15  1  0.47244600  0.14802400  0.65425300  1
