# generated using pymatgen
data_CaMgAsO4F
_symmetry_space_group_name_H-M   'P 1'
_cell_length_a   5.66172082
_cell_length_b   5.66172082
_cell_length_c   7.20674338
_cell_angle_alpha   76.13931740
_cell_angle_beta   76.13931740
_cell_angle_gamma   106.19156377
_symmetry_Int_Tables_number   1
_chemical_formula_structural   CaMgAsO4F
_chemical_formula_sum   'Ca2 Mg2 As2 O8 F2'
_cell_volume   203.42988405
_cell_formula_units_Z   2
loop_
 _symmetry_equiv_pos_site_id
 _symmetry_equiv_pos_as_xyz
  1  'x, y, z'
loop_
 _atom_site_type_symbol
 _atom_site_label
 _atom_site_symmetry_multiplicity
 _atom_site_fract_x
 _atom_site_fract_y
 _atom_site_fract_z
 _atom_site_occupancy
  Ca  Ca0  1  0.83539200  0.17024300  0.24243200  1
  Ca  Ca1  1  0.17024300  0.83539200  0.74243200  1
  Mg  Mg2  1  0.50297900  0.50465100  0.00047200  1
  Mg  Mg3  1  0.50465100  0.50297900  0.50047200  1
  As  As4  1  0.82383600  0.18188700  0.74937900  1
  As  As5  1  0.18188700  0.82383600  0.24937900  1
  O  O6  1  0.24378600  0.12205300  0.07811500  1
  O  O7  1  0.60292000  0.17455000  0.62027000  1
  O  O8  1  0.83084200  0.40279800  0.87918800  1
  O  O9  1  0.76464800  0.88593000  0.92280100  1
  O  O10  1  0.17455000  0.60292000  0.12027000  1
  O  O11  1  0.40279800  0.83084200  0.37918800  1
  O  O12  1  0.12205300  0.24378600  0.57811500  1
  O  O13  1  0.88593000  0.76464800  0.42280100  1
  F  F14  1  0.42292000  0.58756600  0.74954400  1
  F  F15  1  0.58756600  0.42292000  0.24954400  1
