# generated using pymatgen
data_K2Mo7O20
_symmetry_space_group_name_H-M   'P 1'
_cell_length_a   3.90072600
_cell_length_b   18.52611600
_cell_length_c   22.40699200
_cell_angle_alpha   90.00000000
_cell_angle_beta   90.00000000
_cell_angle_gamma   90.00000000
_symmetry_Int_Tables_number   1
_chemical_formula_structural   K2Mo7O20
_chemical_formula_sum   'K8 Mo28 O80'
_cell_volume   1619.24805186
_cell_formula_units_Z   4
loop_
 _symmetry_equiv_pos_site_id
 _symmetry_equiv_pos_as_xyz
  1  'x, y, z'
loop_
 _atom_site_type_symbol
 _atom_site_label
 _atom_site_symmetry_multiplicity
 _atom_site_fract_x
 _atom_site_fract_y
 _atom_site_fract_z
 _atom_site_occupancy
  K  K0  1  0.50225500  0.40656000  0.94853100  1
  K  K1  1  0.50225500  0.09344000  0.44853100  1
  K  K2  1  0.49774500  0.59344000  0.44853100  1
  K  K3  1  0.50225500  0.09344000  0.05146900  1
  K  K4  1  0.50225500  0.40656000  0.55146900  1
  K  K5  1  0.49774500  0.59344000  0.05146900  1
  K  K6  1  0.49774500  0.90656000  0.94853100  1
  K  K7  1  0.49774500  0.90656000  0.55146900  1
  Mo  Mo8  1  0.04435300  0.09040500  0.60642200  1
  Mo  Mo9  1  0.98796800  0.25000000  0.50000000  1
  Mo  Mo10  1  0.98316300  0.14860600  0.75000000  1
  Mo  Mo11  1  0.01683700  0.85139400  0.25000000  1
  Mo  Mo12  1  0.01347600  0.96917900  0.75000000  1
  Mo  Mo13  1  0.98652400  0.03082100  0.25000000  1
  Mo  Mo14  1  0.95564700  0.90959500  0.10642200  1
  Mo  Mo15  1  0.04435300  0.09040500  0.89357800  1
  Mo  Mo16  1  0.01347600  0.53082100  0.25000000  1
  Mo  Mo17  1  0.01683700  0.64860600  0.75000000  1
  Mo  Mo18  1  0.04435300  0.40959500  0.10642200  1
  Mo  Mo19  1  0.01203200  0.75000000  0.00000000  1
  Mo  Mo20  1  0.98652400  0.46917900  0.75000000  1
  Mo  Mo21  1  0.04435300  0.40959500  0.39357800  1
  Mo  Mo22  1  0.04042900  0.20551300  0.16335000  1
  Mo  Mo23  1  0.95957100  0.70551300  0.16335000  1
  Mo  Mo24  1  0.95564700  0.90959500  0.39357800  1
  Mo  Mo25  1  0.95957100  0.79448700  0.83665000  1
  Mo  Mo26  1  0.95564700  0.59040500  0.60642200  1
  Mo  Mo27  1  0.04042900  0.29448700  0.83665000  1
  Mo  Mo28  1  0.01203200  0.75000000  0.50000000  1
  Mo  Mo29  1  0.04042900  0.29448700  0.66335000  1
  Mo  Mo30  1  0.95564700  0.59040500  0.89357800  1
  Mo  Mo31  1  0.04042900  0.20551300  0.33665000  1
  Mo  Mo32  1  0.98316300  0.35139400  0.25000000  1
  Mo  Mo33  1  0.95957100  0.79448700  0.66335000  1
  Mo  Mo34  1  0.98796800  0.25000000  0.00000000  1
  Mo  Mo35  1  0.95957100  0.70551300  0.33665000  1
  O  O36  1  0.00018500  0.55851000  0.69388200  1
  O  O37  1  0.99981500  0.44149000  0.30611800  1
  O  O38  1  0.00213900  0.64946000  0.53869200  1
  O  O39  1  0.00011500  0.99681100  0.07535600  1
  O  O40  1  0.50839700  0.64829200  0.75000000  1
  O  O41  1  0.99786100  0.14946000  0.53869200  1
  O  O42  1  0.00618800  0.80166400  0.91918700  1
  O  O43  1  0.49970600  0.79220300  0.83611500  1
  O  O44  1  0.00618900  0.61082100  0.18629500  1
  O  O45  1  0.50509400  0.09569300  0.88954100  1
  O  O46  1  0.99381100  0.38917900  0.81370500  1
  O  O47  1  0.49970600  0.70779700  0.33611500  1
  O  O48  1  0.50029400  0.29220300  0.66388500  1
  O  O49  1  0.00618900  0.88917900  0.81370500  1
  O  O50  1  0.00725000  0.68509400  0.66332300  1
  O  O51  1  0.00725000  0.68509400  0.83667700  1
  O  O52  1  0.99275000  0.31490600  0.16332300  1
  O  O53  1  0.99988500  0.49681100  0.42464400  1
  O  O54  1  0.50029400  0.29220300  0.83611500  1
  O  O55  1  0.50788700  0.75000000  0.00000000  1
  O  O56  1  0.50509400  0.40430700  0.38954100  1
  O  O57  1  0.99381100  0.38917900  0.68629500  1
  O  O58  1  0.50509400  0.09569300  0.61045900  1
  O  O59  1  0.99381200  0.30166400  0.91918700  1
  O  O60  1  0.49160300  0.14829200  0.75000000  1
  O  O61  1  0.99786100  0.35054000  0.46130800  1
  O  O62  1  0.99186400  0.26099900  0.75000000  1
  O  O63  1  0.99381100  0.11082100  0.18629500  1
  O  O64  1  0.99186400  0.23900100  0.25000000  1
  O  O65  1  0.00618800  0.80166400  0.58081300  1
  O  O66  1  0.50509400  0.40430700  0.11045900  1
  O  O67  1  0.00018500  0.94149000  0.19388200  1
  O  O68  1  0.00618900  0.61082100  0.31370500  1
  O  O69  1  0.49490600  0.90430700  0.11045900  1
  O  O70  1  0.00213900  0.64946000  0.96130800  1
  O  O71  1  0.50029400  0.20779700  0.16388500  1
  O  O72  1  0.49160300  0.35170800  0.25000000  1
  O  O73  1  0.00018500  0.55851000  0.80611800  1
  O  O74  1  0.00725000  0.81490600  0.16332300  1
  O  O75  1  0.00725000  0.81490600  0.33667700  1
  O  O76  1  0.99981500  0.05851000  0.69388200  1
  O  O77  1  0.50839700  0.85170800  0.25000000  1
  O  O78  1  0.99981500  0.44149000  0.19388200  1
  O  O79  1  0.49970600  0.70779700  0.16388500  1
  O  O80  1  0.00213900  0.85054000  0.46130800  1
  O  O81  1  0.50788700  0.75000000  0.50000000  1
  O  O82  1  0.99381100  0.11082100  0.31370500  1
  O  O83  1  0.99381200  0.30166400  0.58081300  1
  O  O84  1  0.00011500  0.99681100  0.42464400  1
  O  O85  1  0.99786100  0.14946000  0.96130800  1
  O  O86  1  0.49490600  0.59569300  0.61045900  1
  O  O87  1  0.00011500  0.50318900  0.92464400  1
  O  O88  1  0.99275000  0.18509400  0.66332300  1
  O  O89  1  0.99988500  0.00318900  0.57535600  1
  O  O90  1  0.00813600  0.76099900  0.75000000  1
  O  O91  1  0.99988500  0.00318900  0.92464400  1
  O  O92  1  0.00213900  0.85054000  0.03869200  1
  O  O93  1  0.99275000  0.18509400  0.83667700  1
  O  O94  1  0.00011500  0.50318900  0.57535600  1
  O  O95  1  0.99988500  0.49681100  0.07535600  1
  O  O96  1  0.49211300  0.25000000  0.50000000  1
  O  O97  1  0.00018500  0.94149000  0.30611800  1
  O  O98  1  0.49490600  0.59569300  0.88954100  1
  O  O99  1  0.49211300  0.25000000  0.00000000  1
  O  O100  1  0.49490600  0.90430700  0.38954100  1
  O  O101  1  0.49970600  0.79220300  0.66388500  1
  O  O102  1  0.00618800  0.69833600  0.41918600  1
  O  O103  1  0.50865200  0.96842100  0.75000000  1
  O  O104  1  0.99381200  0.19833600  0.41918600  1
  O  O105  1  0.50029400  0.20779700  0.33611500  1
  O  O106  1  0.50865200  0.53157900  0.25000000  1
  O  O107  1  0.99275000  0.31490600  0.33667700  1
  O  O108  1  0.49134800  0.03157900  0.25000000  1
  O  O109  1  0.00813600  0.73900100  0.25000000  1
  O  O110  1  0.49134800  0.46842100  0.75000000  1
  O  O111  1  0.99786100  0.35054000  0.03869200  1
  O  O112  1  0.99981500  0.05851000  0.80611800  1
  O  O113  1  0.00618900  0.88917900  0.68629500  1
  O  O114  1  0.00618800  0.69833600  0.08081300  1
  O  O115  1  0.99381200  0.19833600  0.08081300  1
