# generated using pymatgen
data_VZn2P2O9
_symmetry_space_group_name_H-M   'P 1'
_cell_length_a   7.88343736
_cell_length_b   7.88343736
_cell_length_c   7.88343736
_cell_angle_alpha   109.98699084
_cell_angle_beta   109.98699084
_cell_angle_gamma   108.44453284
_symmetry_Int_Tables_number   1
_chemical_formula_structural   VZn2P2O9
_chemical_formula_sum   'V2 Zn4 P4 O18'
_cell_volume   377.06880094
_cell_formula_units_Z   2
loop_
 _symmetry_equiv_pos_site_id
 _symmetry_equiv_pos_as_xyz
  1  'x, y, z'
loop_
 _atom_site_type_symbol
 _atom_site_label
 _atom_site_symmetry_multiplicity
 _atom_site_fract_x
 _atom_site_fract_y
 _atom_site_fract_z
 _atom_site_occupancy
  V  V0  1  0.39605800  0.39605800  0.00000000  1
  V  V1  1  0.89605800  0.89605800  0.00000000  1
  Zn  Zn2  1  0.85331400  0.11527500  0.50000000  1
  Zn  Zn3  1  0.11527500  0.61527500  0.26196000  1
  Zn  Zn4  1  0.35331400  0.85331400  0.73804000  1
  Zn  Zn5  1  0.61527500  0.35331400  0.50000000  1
  P  P6  1  0.07282100  0.57282100  0.88572400  1
  P  P7  1  0.57282100  0.68709700  0.50000000  1
  P  P8  1  0.18709700  0.07282100  0.50000000  1
  P  P9  1  0.68709700  0.18709700  0.11427600  1
  O  O10  1  0.07212100  0.07212100  0.00000000  1
  O  O11  1  0.66034200  0.16034100  0.29195000  1
  O  O12  1  0.70855400  0.67408600  0.69049700  1
  O  O13  1  0.51805700  0.48358800  0.30950300  1
  O  O14  1  0.48358800  0.17408600  0.96553100  1
  O  O15  1  0.57212100  0.57212100  0.00000000  1
  O  O16  1  0.17408600  0.20855400  0.69049700  1
  O  O17  1  0.68158400  0.88135200  0.50000000  1
  O  O18  1  0.16034100  0.86839200  0.50000000  1
  O  O19  1  0.98358800  0.01805700  0.30950300  1
  O  O20  1  0.88135200  0.38135200  0.19976700  1
  O  O21  1  0.01805700  0.70855400  0.03446900  1
  O  O22  1  0.20855400  0.51805700  0.03446900  1
  O  O23  1  0.86839200  0.36839200  0.70805000  1
  O  O24  1  0.67408600  0.98358800  0.96553100  1
  O  O25  1  0.36839200  0.66034200  0.50000000  1
  O  O26  1  0.38135200  0.18158400  0.50000000  1
  O  O27  1  0.18158400  0.68158400  0.80023300  1
