# generated using pymatgen
data_Sr3Sm
_symmetry_space_group_name_H-M   'P 1'
_cell_length_a   8.17713196
_cell_length_b   8.17713196
_cell_length_c   6.54846000
_cell_angle_alpha   90.00000000
_cell_angle_beta   90.00000000
_cell_angle_gamma   119.99999971
_symmetry_Int_Tables_number   1
_chemical_formula_structural   Sr3Sm
_chemical_formula_sum   'Sr6 Sm2'
_cell_volume   379.20305285
_cell_formula_units_Z   2
loop_
 _symmetry_equiv_pos_site_id
 _symmetry_equiv_pos_as_xyz
  1  'x, y, z'
loop_
 _atom_site_type_symbol
 _atom_site_label
 _atom_site_symmetry_multiplicity
 _atom_site_fract_x
 _atom_site_fract_y
 _atom_site_fract_z
 _atom_site_occupancy
  Sr  Sr0  1  0.17209300  0.34418600  0.25000000  1
  Sr  Sr1  1  0.65581400  0.82790700  0.25000000  1
  Sr  Sr2  1  0.17209300  0.82790700  0.25000000  1
  Sr  Sr3  1  0.82790700  0.65581400  0.75000000  1
  Sr  Sr4  1  0.34418600  0.17209300  0.75000000  1
  Sr  Sr5  1  0.82790700  0.17209300  0.75000000  1
  Sm  Sm6  1  0.33333300  0.66666700  0.75000000  1
  Sm  Sm7  1  0.66666700  0.33333300  0.25000000  1
