# generated using pymatgen
data_SrCa3
_symmetry_space_group_name_H-M   'P 1'
_cell_length_a   7.97294036
_cell_length_b   7.97294036
_cell_length_c   6.57879000
_cell_angle_alpha   90.00000000
_cell_angle_beta   90.00000000
_cell_angle_gamma   120.00000300
_symmetry_Int_Tables_number   1
_chemical_formula_structural   SrCa3
_chemical_formula_sum   'Sr2 Ca6'
_cell_volume   362.17100081
_cell_formula_units_Z   2
loop_
 _symmetry_equiv_pos_site_id
 _symmetry_equiv_pos_as_xyz
  1  'x, y, z'
loop_
 _atom_site_type_symbol
 _atom_site_label
 _atom_site_symmetry_multiplicity
 _atom_site_fract_x
 _atom_site_fract_y
 _atom_site_fract_z
 _atom_site_occupancy
  Sr  Sr0  1  0.33333300  0.66666700  0.75000000  1
  Sr  Sr1  1  0.66666700  0.33333300  0.25000000  1
  Ca  Ca2  1  0.16427400  0.32854700  0.25000000  1
  Ca  Ca3  1  0.67145300  0.83572600  0.25000000  1
  Ca  Ca4  1  0.16427400  0.83572600  0.25000000  1
  Ca  Ca5  1  0.83572600  0.67145300  0.75000000  1
  Ca  Ca6  1  0.32854700  0.16427400  0.75000000  1
  Ca  Ca7  1  0.83572600  0.16427400  0.75000000  1
