# generated using pymatgen
data_SiO2
_symmetry_space_group_name_H-M   'P 1'
_cell_length_a   4.93388067
_cell_length_b   7.18389734
_cell_length_c   7.00450095
_cell_angle_alpha   122.92115518
_cell_angle_beta   83.64618444
_cell_angle_gamma   109.08100450
_symmetry_Int_Tables_number   1
_chemical_formula_structural   SiO2
_chemical_formula_sum   'Si4 O8'
_cell_volume   196.24951180
_cell_formula_units_Z   4
loop_
 _symmetry_equiv_pos_site_id
 _symmetry_equiv_pos_as_xyz
  1  'x, y, z'
loop_
 _atom_site_type_symbol
 _atom_site_label
 _atom_site_symmetry_multiplicity
 _atom_site_fract_x
 _atom_site_fract_y
 _atom_site_fract_z
 _atom_site_occupancy
  Si  Si0  1  0.89625400  0.42259700  0.94907300  1
  Si  Si1  1  0.04448600  0.95917500  0.20083500  1
  Si  Si2  1  0.31002100  0.13632400  0.88909700  1
  Si  Si3  1  0.55655600  0.13020400  0.50309700  1
  O  O4  1  0.39047800  0.98212800  0.62286100  1
  O  O5  1  0.02738600  0.70084000  0.13504700  1
  O  O6  1  0.11016100  0.97003700  0.97299600  1
  O  O7  1  0.30617900  0.16204100  0.40009700  1
  O  O8  1  0.14572200  0.30567900  0.90333800  1
  O  O9  1  0.62082500  0.30047200  0.04452400  1
  O  O10  1  0.73874600  0.99925800  0.29190200  1
  O  O11  1  0.77623300  0.37674700  0.71038600  1
