# generated using pymatgen
data_BaMoSeO6
_symmetry_space_group_name_H-M   'P 1'
_cell_length_a   10.35112400
_cell_length_b   6.37519000
_cell_length_c   8.56481265
_cell_angle_alpha   85.17904808
_cell_angle_beta   90.00000000
_cell_angle_gamma   90.00000000
_symmetry_Int_Tables_number   1
_chemical_formula_structural   BaMoSeO6
_chemical_formula_sum   'Ba4 Mo4 Se4 O24'
_cell_volume   563.19570889
_cell_formula_units_Z   4
loop_
 _symmetry_equiv_pos_site_id
 _symmetry_equiv_pos_as_xyz
  1  'x, y, z'
loop_
 _atom_site_type_symbol
 _atom_site_label
 _atom_site_symmetry_multiplicity
 _atom_site_fract_x
 _atom_site_fract_y
 _atom_site_fract_z
 _atom_site_occupancy
  Ba  Ba0  1  0.30860900  0.26456600  0.01167300  1
  Ba  Ba1  1  0.19139100  0.26456600  0.51167300  1
  Ba  Ba2  1  0.80860900  0.73543400  0.48832700  1
  Ba  Ba3  1  0.69139100  0.73543400  0.98832700  1
  Mo  Mo4  1  0.07939000  0.77295300  0.76952700  1
  Mo  Mo5  1  0.92061000  0.22704700  0.23047300  1
  Mo  Mo6  1  0.57939000  0.22704700  0.73047300  1
  Mo  Mo7  1  0.42061000  0.77295300  0.26952700  1
  Se  Se8  1  0.10170600  0.70788900  0.17721900  1
  Se  Se9  1  0.60170600  0.29211100  0.32278100  1
  Se  Se10  1  0.89829400  0.29211100  0.82278100  1
  Se  Se11  1  0.39829400  0.70788900  0.67721900  1
  O  O12  1  0.41229400  0.81903000  0.06068700  1
  O  O13  1  0.15335000  0.00925700  0.82591700  1
  O  O14  1  0.61446000  0.39230500  0.50331500  1
  O  O15  1  0.88554000  0.39230500  0.00331500  1
  O  O16  1  0.08865300  0.18484900  0.19646700  1
  O  O17  1  0.98179500  0.55872100  0.27473100  1
  O  O18  1  0.58770600  0.18097000  0.93931300  1
  O  O19  1  0.58865300  0.81515100  0.30353300  1
  O  O20  1  0.73879500  0.41616500  0.23984100  1
  O  O21  1  0.65335000  0.99074300  0.67408300  1
  O  O22  1  0.26120500  0.58383500  0.76015900  1
  O  O23  1  0.76120500  0.41616500  0.73984100  1
  O  O24  1  0.38554000  0.60769500  0.49668500  1
  O  O25  1  0.34665000  0.00925700  0.32591700  1
  O  O26  1  0.23879500  0.58383500  0.26015900  1
  O  O27  1  0.91134700  0.81515100  0.80353300  1
  O  O28  1  0.11446000  0.60769500  0.99668500  1
  O  O29  1  0.48179500  0.44127900  0.22526900  1
  O  O30  1  0.08770600  0.81903000  0.56068700  1
  O  O31  1  0.51820500  0.55872100  0.77473100  1
  O  O32  1  0.41134700  0.18484900  0.69646700  1
  O  O33  1  0.91229400  0.18097000  0.43931300  1
  O  O34  1  0.01820500  0.44127900  0.72526900  1
  O  O35  1  0.84665000  0.99074300  0.17408300  1
