# generated using pymatgen
data_VS2N3Cl2
_symmetry_space_group_name_H-M   'P 1'
_cell_length_a   5.79601800
_cell_length_b   7.65972219
_cell_length_c   8.12700889
_cell_angle_alpha   90.13460004
_cell_angle_beta   98.15238923
_cell_angle_gamma   107.58655494
_symmetry_Int_Tables_number   1
_chemical_formula_structural   VS2N3Cl2
_chemical_formula_sum   'V2 S4 N6 Cl4'
_cell_volume   340.07581330
_cell_formula_units_Z   2
loop_
 _symmetry_equiv_pos_site_id
 _symmetry_equiv_pos_as_xyz
  1  'x, y, z'
loop_
 _atom_site_type_symbol
 _atom_site_label
 _atom_site_symmetry_multiplicity
 _atom_site_fract_x
 _atom_site_fract_y
 _atom_site_fract_z
 _atom_site_occupancy
  V  V0  1  0.24878600  0.00539400  0.13668400  1
  V  V1  1  0.75121400  0.99460600  0.86331600  1
  S  S2  1  0.22065500  0.29999400  0.80108200  1
  S  S3  1  0.22757000  0.73150900  0.41843300  1
  S  S4  1  0.77934500  0.70000600  0.19891800  1
  S  S5  1  0.77243000  0.26849100  0.58156700  1
  N  N6  1  0.94166100  0.64222100  0.35010700  1
  N  N7  1  0.65512600  0.10381300  0.69212700  1
  N  N8  1  0.34487400  0.89618700  0.30787300  1
  N  N9  1  0.92723800  0.87211900  0.10650100  1
  N  N10  1  0.05833900  0.35777900  0.64989300  1
  N  N11  1  0.07276200  0.12788100  0.89349900  1
  Cl  Cl12  1  0.73987200  0.73141600  0.73241900  1
  Cl  Cl13  1  0.65778100  0.19320900  0.06170100  1
  Cl  Cl14  1  0.26012800  0.26858400  0.26758100  1
  Cl  Cl15  1  0.34221900  0.80679100  0.93829900  1
