# generated using pymatgen
data_PH10C3N2O4F
_symmetry_space_group_name_H-M   'P 1'
_cell_length_a   17.88410200
_cell_length_b   5.59783200
_cell_length_c   8.70142739
_cell_angle_alpha   78.17495867
_cell_angle_beta   90.00000000
_cell_angle_gamma   90.00000000
_symmetry_Int_Tables_number   1
_chemical_formula_structural   PH10C3N2O4F
_chemical_formula_sum   'P4 H40 C12 N8 O16 F4'
_cell_volume   852.63206798
_cell_formula_units_Z   4
loop_
 _symmetry_equiv_pos_site_id
 _symmetry_equiv_pos_as_xyz
  1  'x, y, z'
loop_
 _atom_site_type_symbol
 _atom_site_label
 _atom_site_symmetry_multiplicity
 _atom_site_fract_x
 _atom_site_fract_y
 _atom_site_fract_z
 _atom_site_occupancy
  P  P0  1  0.56781400  0.53399400  0.18814700  1
  P  P1  1  0.93218600  0.53399400  0.68814700  1
  P  P2  1  0.43218600  0.46600600  0.81185300  1
  P  P3  1  0.06781400  0.46600600  0.31185300  1
  H  H4  1  0.70890200  0.27567300  0.76754300  1
  H  H5  1  0.49820200  0.73063200  0.91344200  1
  H  H6  1  0.93291600  0.08407500  0.00830300  1
  H  H7  1  0.56708400  0.08407500  0.50830300  1
  H  H8  1  0.29109800  0.72432700  0.23245700  1
  H  H9  1  0.10860500  0.07392100  0.81358500  1
  H  H10  1  0.20560200  0.33940700  0.31109900  1
  H  H11  1  0.10100000  0.21966500  0.97716300  1
  H  H12  1  0.86051600  0.93957800  0.51653200  1
  H  H13  1  0.60100000  0.78033500  0.52283700  1
  H  H14  1  0.70383600  0.42579500  0.92956100  1
  H  H15  1  0.13948400  0.06042200  0.48346800  1
  H  H16  1  0.29616400  0.57420500  0.07043900  1
  H  H17  1  0.06708400  0.91592500  0.99169700  1
  H  H18  1  0.12116600  0.68584000  0.64488300  1
  H  H19  1  0.79109800  0.27567300  0.26754300  1
  H  H20  1  0.62116600  0.31416000  0.85511700  1
  H  H21  1  0.63948400  0.93957800  0.01653200  1
  H  H22  1  0.60860500  0.92607900  0.68641500  1
  H  H23  1  0.20383600  0.57420500  0.57043900  1
  H  H24  1  0.79439800  0.66059300  0.68890100  1
  H  H25  1  0.81898700  0.21943300  0.91542700  1
  H  H26  1  0.18101300  0.78056700  0.08457300  1
  H  H27  1  0.37883400  0.68584000  0.14488300  1
  H  H28  1  0.36051600  0.06042200  0.98346800  1
  H  H29  1  0.31898700  0.78056700  0.58457300  1
  H  H30  1  0.43291600  0.91592500  0.49169700  1
  H  H31  1  0.00179800  0.73063200  0.41344200  1
  H  H32  1  0.99820200  0.26936800  0.58655800  1
  H  H33  1  0.89139500  0.92607900  0.18641500  1
  H  H34  1  0.87883400  0.31416000  0.35511700  1
  H  H35  1  0.20890200  0.72432700  0.73245700  1
  H  H36  1  0.89900000  0.78033500  0.02283700  1
  H  H37  1  0.68101300  0.21943300  0.41542700  1
  H  H38  1  0.50179800  0.26936800  0.08655800  1
  H  H39  1  0.79616400  0.42579500  0.42956100  1
  H  H40  1  0.70560200  0.66059300  0.18890100  1
  H  H41  1  0.39139500  0.07392100  0.31358500  1
  H  H42  1  0.39900000  0.21966500  0.47716300  1
  H  H43  1  0.29439800  0.33940700  0.81109900  1
  C  C44  1  0.24734400  0.05167600  0.95752900  1
  C  C45  1  0.81952100  0.27697000  0.37937600  1
  C  C46  1  0.74734400  0.94832400  0.54247100  1
  C  C47  1  0.11095300  0.04486200  0.94207200  1
  C  C48  1  0.25265600  0.05167600  0.45752900  1
  C  C49  1  0.18047900  0.72303000  0.62062400  1
  C  C50  1  0.61095300  0.95513800  0.55792800  1
  C  C51  1  0.31952100  0.72303000  0.12062400  1
  C  C52  1  0.38904700  0.04486200  0.44207200  1
  C  C53  1  0.75265600  0.94832400  0.04247100  1
  C  C54  1  0.88904700  0.95513800  0.05792800  1
  C  C55  1  0.68047900  0.27697000  0.87937600  1
  N  N56  1  0.18255900  0.93968200  0.00160700  1
  N  N57  1  0.81744100  0.06031800  0.99839300  1
  N  N58  1  0.68255900  0.06031800  0.49839300  1
  N  N59  1  0.31744100  0.93968200  0.50160700  1
  N  N60  1  0.81290200  0.04376400  0.48832300  1
  N  N61  1  0.68709800  0.04376400  0.98832300  1
  N  N62  1  0.31290200  0.95623600  0.01167700  1
  N  N63  1  0.18709800  0.95623600  0.51167700  1
  O  O64  1  0.04240800  0.72705900  0.32990100  1
  O  O65  1  0.45759200  0.72705900  0.82990100  1
  O  O66  1  0.74317500  0.73922100  0.64348400  1
  O  O67  1  0.85635800  0.51801700  0.76740700  1
  O  O68  1  0.55941800  0.72709900  0.03957000  1
  O  O69  1  0.64364200  0.51801700  0.26740700  1
  O  O70  1  0.75682500  0.73922100  0.14348400  1
  O  O71  1  0.25682500  0.26077900  0.35651600  1
  O  O72  1  0.95759200  0.27294100  0.67009900  1
  O  O73  1  0.44058200  0.27290100  0.96043000  1
  O  O74  1  0.94058200  0.72709900  0.53957000  1
  O  O75  1  0.24317500  0.26077900  0.85651600  1
  O  O76  1  0.14364200  0.48198300  0.23259300  1
  O  O77  1  0.54240800  0.27294100  0.17009900  1
  O  O78  1  0.05941800  0.27290100  0.46043000  1
  O  O79  1  0.35635800  0.48198300  0.73259300  1
  F  F80  1  0.49045700  0.40183300  0.68729300  1
  F  F81  1  0.99045700  0.59816700  0.81270700  1
  F  F82  1  0.00954300  0.40183300  0.18729300  1
  F  F83  1  0.50954300  0.59816700  0.31270700  1
