# generated using pymatgen
data_Na4Sr(SiO3)3
_symmetry_space_group_name_H-M   'P 1'
_cell_length_a   6.70404941
_cell_length_b   6.70404941
_cell_length_c   6.68464732
_cell_angle_alpha   70.53740683
_cell_angle_beta   70.53740683
_cell_angle_gamma   109.41805375
_symmetry_Int_Tables_number   1
_chemical_formula_structural   Na4Sr(SiO3)3
_chemical_formula_sum   'Na4 Sr1 Si3 O9'
_cell_volume   231.47699043
_cell_formula_units_Z   1
loop_
 _symmetry_equiv_pos_site_id
 _symmetry_equiv_pos_as_xyz
  1  'x, y, z'
loop_
 _atom_site_type_symbol
 _atom_site_label
 _atom_site_symmetry_multiplicity
 _atom_site_fract_x
 _atom_site_fract_y
 _atom_site_fract_z
 _atom_site_occupancy
  Na  Na0  1  0.50375300  0.49624700  0.00000000  1
  Na  Na1  1  0.97604600  0.02395400  0.50000000  1
  Na  Na2  1  0.97731700  0.44506800  0.02608200  1
  Na  Na3  1  0.55493200  0.02268300  0.97391800  1
  Sr  Sr4  1  0.50417300  0.49582700  0.50000000  1
  Si  Si5  1  0.43090400  0.96142600  0.53527200  1
  Si  Si6  1  0.03933100  0.96066900  0.00000000  1
  Si  Si7  1  0.03857400  0.56909600  0.46472800  1
  O  O8  1  0.02214400  0.75331300  0.23858800  1
  O  O9  1  0.16626500  0.42633900  0.37370900  1
  O  O10  1  0.76979300  0.42338600  0.70146900  1
  O  O11  1  0.57366100  0.83373500  0.62629100  1
  O  O12  1  0.57661400  0.23020700  0.29853100  1
  O  O13  1  0.16207200  0.22727200  0.97226600  1
  O  O14  1  0.24668700  0.97785600  0.76141200  1
  O  O15  1  0.23700600  0.76299400  0.50000000  1
  O  O16  1  0.77272800  0.83792800  0.02773400  1
