# generated using pymatgen
data_YSiNO2
_symmetry_space_group_name_H-M   'P 1'
_cell_length_a   7.08987828
_cell_length_b   7.08987828
_cell_length_c   9.20397000
_cell_angle_alpha   90.00000000
_cell_angle_beta   90.00000000
_cell_angle_gamma   120.32818325
_symmetry_Int_Tables_number   1
_chemical_formula_structural   YSiNO2
_chemical_formula_sum   'Y6 Si6 N6 O12'
_cell_volume   399.33525815
_cell_formula_units_Z   6
loop_
 _symmetry_equiv_pos_site_id
 _symmetry_equiv_pos_as_xyz
  1  'x, y, z'
loop_
 _atom_site_type_symbol
 _atom_site_label
 _atom_site_symmetry_multiplicity
 _atom_site_fract_x
 _atom_site_fract_y
 _atom_site_fract_z
 _atom_site_occupancy
  Y  Y0  1  0.82500500  0.17499500  0.50000000  1
  Y  Y1  1  0.17499500  0.82500500  0.00000000  1
  Y  Y2  1  0.82500500  0.17499500  0.00000000  1
  Y  Y3  1  0.17499500  0.82500500  0.50000000  1
  Y  Y4  1  0.50000000  0.50000000  0.50000000  1
  Y  Y5  1  0.50000000  0.50000000  0.00000000  1
  Si  Si6  1  0.16488800  0.40934700  0.25000000  1
  Si  Si7  1  0.59065300  0.83511200  0.75000000  1
  Si  Si8  1  0.91642400  0.91642400  0.25000000  1
  Si  Si9  1  0.83511200  0.59065300  0.75000000  1
  Si  Si10  1  0.08357600  0.08357600  0.75000000  1
  Si  Si11  1  0.40934700  0.16488800  0.25000000  1
  N  N12  1  0.59813900  0.59813900  0.75000000  1
  N  N13  1  0.83660800  0.07387500  0.75000000  1
  N  N14  1  0.07387500  0.83660800  0.75000000  1
  N  N15  1  0.92612500  0.16339200  0.25000000  1
  N  N16  1  0.40186100  0.40186100  0.25000000  1
  N  N17  1  0.16339200  0.92612500  0.25000000  1
  O  O18  1  0.16585900  0.52565800  0.09428800  1
  O  O19  1  0.47434200  0.83414100  0.90571200  1
  O  O20  1  0.47434200  0.83414100  0.59428800  1
  O  O21  1  0.52565800  0.16585900  0.09428800  1
  O  O22  1  0.80338800  0.80338800  0.40857600  1
  O  O23  1  0.83414100  0.47434200  0.90571200  1
  O  O24  1  0.83414100  0.47434200  0.59428800  1
  O  O25  1  0.19661200  0.19661200  0.59142400  1
  O  O26  1  0.19661200  0.19661200  0.90857600  1
  O  O27  1  0.80338800  0.80338800  0.09142400  1
  O  O28  1  0.52565800  0.16585900  0.40571200  1
  O  O29  1  0.16585900  0.52565800  0.40571200  1
