# generated using pymatgen
data_Na2Zr(WO4)3
_symmetry_space_group_name_H-M   'P 1'
_cell_length_a   19.51015365
_cell_length_b   19.51015365
_cell_length_c   19.51015365
_cell_angle_alpha   164.94686539
_cell_angle_beta   164.94686539
_cell_angle_gamma   21.35048763
_symmetry_Int_Tables_number   1
_chemical_formula_structural   Na2Zr(WO4)3
_chemical_formula_sum   'Na4 Zr2 W6 O24'
_cell_volume   500.85149631
_cell_formula_units_Z   2
loop_
 _symmetry_equiv_pos_site_id
 _symmetry_equiv_pos_as_xyz
  1  'x, y, z'
loop_
 _atom_site_type_symbol
 _atom_site_label
 _atom_site_symmetry_multiplicity
 _atom_site_fract_x
 _atom_site_fract_y
 _atom_site_fract_z
 _atom_site_occupancy
  Na  Na0  1  0.01430300  0.51430300  0.50000000  1
  Na  Na1  1  0.82316700  0.32316700  0.50000000  1
  Na  Na2  1  0.07316700  0.07316700  0.00000000  1
  Na  Na3  1  0.26430300  0.26430300  0.00000000  1
  Zr  Zr4  1  0.17773500  0.67773500  0.50000000  1
  Zr  Zr5  1  0.42773500  0.42773500  0.00000000  1
  W  W6  1  0.59542200  0.59542200  0.00000000  1
  W  W7  1  0.34542200  0.84542200  0.50000000  1
  W  W8  1  0.90123200  0.90123200  0.00000000  1
  W  W9  1  0.49536400  0.99536400  0.50000000  1
  W  W10  1  0.65123200  0.15123200  0.50000000  1
  W  W11  1  0.74536400  0.74536400  0.00000000  1
  O  O12  1  0.88239700  0.84257200  0.43566900  1
  O  O13  1  0.61923500  0.69593800  0.37440600  1
  O  O14  1  0.79274700  0.30238200  0.87229600  1
  O  O15  1  0.05238200  0.68008600  0.00963500  1
  O  O16  1  0.44593800  0.57153300  0.57670400  1
  O  O17  1  0.44703900  0.57909700  0.39306600  1
  O  O18  1  0.80397200  0.69703900  0.36794200  1
  O  O19  1  0.99482900  0.86923500  0.42329600  1
  O  O20  1  0.90640000  0.52336500  0.88519900  1
  O  O21  1  0.27336500  0.88816600  0.11696400  1
  O  O22  1  0.43008600  0.92045100  0.12770400  1
  O  O23  1  0.67045100  0.04274700  0.99036500  1
  O  O24  1  0.91080600  0.35615200  0.90432700  1
  O  O25  1  0.10615200  0.70182500  0.94534600  1
  O  O26  1  0.18603000  0.05397200  0.60693400  1
  O  O27  1  0.32909700  0.43603000  0.63205800  1
  O  O28  1  0.77120100  0.15640000  0.88303600  1
  O  O29  1  0.59257200  0.65690300  0.46017500  1
  O  O30  1  0.19672800  0.13239700  0.53982500  1
  O  O31  1  0.63816600  0.02120100  0.11480100  1
  O  O32  1  0.40690300  0.44672800  0.56433100  1
  O  O33  1  0.75647900  0.16080600  0.05465400  1
  O  O34  1  0.45182500  0.00647900  0.09567300  1
  O  O35  1  0.32153300  0.24482900  0.62559400  1
