# generated using pymatgen
data_ScF3
_symmetry_space_group_name_H-M   'P 1'
_cell_length_a   4.06874930
_cell_length_b   4.06874930
_cell_length_c   4.06874936
_cell_angle_alpha   89.82847603
_cell_angle_beta   89.82847603
_cell_angle_gamma   89.82849338
_symmetry_Int_Tables_number   1
_chemical_formula_structural   ScF3
_chemical_formula_sum   'Sc1 F3'
_cell_volume   67.35610630
_cell_formula_units_Z   1
loop_
 _symmetry_equiv_pos_site_id
 _symmetry_equiv_pos_as_xyz
  1  'x, y, z'
loop_
 _atom_site_type_symbol
 _atom_site_label
 _atom_site_symmetry_multiplicity
 _atom_site_fract_x
 _atom_site_fract_y
 _atom_site_fract_z
 _atom_site_occupancy
  Sc  Sc0  1  0.00000000  0.00000000  0.00000000  1
  F  F1  1  0.01156600  0.50000000  0.98843400  1
  F  F2  1  0.98843400  0.01156600  0.50000000  1
  F  F3  1  0.50000000  0.98843400  0.01156600  1
