# generated using pymatgen
data_Sc(ReO3)2
_symmetry_space_group_name_H-M   'P 1'
_cell_length_a   4.86713800
_cell_length_b   5.66547300
_cell_length_c   7.57549283
_cell_angle_alpha   82.19542226
_cell_angle_beta   90.00000000
_cell_angle_gamma   90.00000000
_symmetry_Int_Tables_number   1
_chemical_formula_structural   Sc(ReO3)2
_chemical_formula_sum   'Sc2 Re4 O12'
_cell_volume   206.95651660
_cell_formula_units_Z   2
loop_
 _symmetry_equiv_pos_site_id
 _symmetry_equiv_pos_as_xyz
  1  'x, y, z'
loop_
 _atom_site_type_symbol
 _atom_site_label
 _atom_site_symmetry_multiplicity
 _atom_site_fract_x
 _atom_site_fract_y
 _atom_site_fract_z
 _atom_site_occupancy
  Sc  Sc0  1  0.50000000  0.00000000  0.50000000  1
  Sc  Sc1  1  0.00000000  0.50000000  0.50000000  1
  Re  Re2  1  0.99127500  0.12919600  0.84969500  1
  Re  Re3  1  0.00872500  0.87080400  0.15030500  1
  Re  Re4  1  0.50872500  0.62919600  0.84969500  1
  Re  Re5  1  0.49127500  0.37080400  0.15030500  1
  O  O6  1  0.32462400  0.67427500  0.61709000  1
  O  O7  1  0.23066600  0.84179000  0.92990500  1
  O  O8  1  0.21643200  0.57789000  0.24716700  1
  O  O9  1  0.82462400  0.82572500  0.38291000  1
  O  O10  1  0.71643200  0.92211000  0.75283300  1
  O  O11  1  0.78356800  0.42211000  0.75283300  1
  O  O12  1  0.67537600  0.32572500  0.38291000  1
  O  O13  1  0.28356800  0.07789000  0.24716700  1
  O  O14  1  0.26933400  0.34179000  0.92990500  1
  O  O15  1  0.17537600  0.17427500  0.61709000  1
  O  O16  1  0.76933400  0.15821000  0.07009500  1
  O  O17  1  0.73066600  0.65821000  0.07009500  1
