# generated using pymatgen
data_RbH3WO7
_symmetry_space_group_name_H-M   'P 1'
_cell_length_a   6.54184800
_cell_length_b   8.28508379
_cell_length_c   12.67250425
_cell_angle_alpha   106.68701483
_cell_angle_beta   92.92909017
_cell_angle_gamma   104.70322567
_symmetry_Int_Tables_number   1
_chemical_formula_structural   RbH3WO7
_chemical_formula_sum   'Rb4 H12 W4 O28'
_cell_volume   630.65403877
_cell_formula_units_Z   4
loop_
 _symmetry_equiv_pos_site_id
 _symmetry_equiv_pos_as_xyz
  1  'x, y, z'
loop_
 _atom_site_type_symbol
 _atom_site_label
 _atom_site_symmetry_multiplicity
 _atom_site_fract_x
 _atom_site_fract_y
 _atom_site_fract_z
 _atom_site_occupancy
  Rb  Rb0  1  0.21600100  0.24251900  0.86070000  1
  Rb  Rb1  1  0.09862900  0.26249400  0.53911100  1
  Rb  Rb2  1  0.78399900  0.75748100  0.13930000  1
  Rb  Rb3  1  0.90137100  0.73750600  0.46088900  1
  H  H4  1  0.39753000  0.00691000  0.08222200  1
  H  H5  1  0.60338000  0.57481700  0.66684300  1
  H  H6  1  0.36208900  0.69131800  0.27531600  1
  H  H7  1  0.67310000  0.49142800  0.81259000  1
  H  H8  1  0.32690000  0.50857200  0.18741000  1
  H  H9  1  0.78109600  0.74955100  0.72806000  1
  H  H10  1  0.60247000  0.99309000  0.91777800  1
  H  H11  1  0.21890400  0.25044900  0.27194000  1
  H  H12  1  0.63791100  0.30868200  0.72468400  1
  H  H13  1  0.16456200  0.02292100  0.06552300  1
  H  H14  1  0.39662000  0.42518300  0.33315700  1
  H  H15  1  0.83543800  0.97707900  0.93447700  1
  W  W16  1  0.18432700  0.70706300  0.87541600  1
  W  W17  1  0.56051400  0.12503000  0.34241100  1
  W  W18  1  0.43948600  0.87497000  0.65758900  1
  W  W19  1  0.81567300  0.29293700  0.12458400  1
  O  O20  1  0.76221800  0.36365100  0.41167300  1
  O  O21  1  0.57389900  0.32579800  0.04056500  1
  O  O22  1  0.78354600  0.39761600  0.00433900  1
  O  O23  1  0.71446700  0.05917200  0.73107000  1
  O  O24  1  0.64379000  0.29258900  0.49447600  1
  O  O25  1  0.35621000  0.70741100  0.50552400  1
  O  O26  1  0.33460500  0.30485300  0.33672800  1
  O  O27  1  0.23778200  0.63634900  0.58832700  1
  O  O28  1  0.11351500  0.29951600  0.09026900  1
  O  O29  1  0.57328300  0.40547600  0.74843600  1
  O  O30  1  0.26611000  0.96374000  0.02727100  1
  O  O31  1  0.42671700  0.59452400  0.25156400  1
  O  O32  1  0.66539500  0.69514700  0.66327200  1
  O  O33  1  0.88712200  0.48694600  0.23810100  1
  O  O34  1  0.73472500  0.99418600  0.34906400  1
  O  O35  1  0.30521100  0.99698200  0.39357800  1
  O  O36  1  0.11287800  0.51305400  0.76189900  1
  O  O37  1  0.61059000  0.14247600  0.19026800  1
  O  O38  1  0.28553300  0.94082800  0.26893000  1
  O  O39  1  0.26527500  0.00581400  0.65093600  1
  O  O40  1  0.69478900  0.00301800  0.60642200  1
  O  O41  1  0.21645400  0.60238400  0.99566100  1
  O  O42  1  0.73389000  0.03626000  0.97272900  1
  O  O43  1  0.95762500  0.82707400  0.84560800  1
  O  O44  1  0.88648500  0.70048400  0.90973100  1
  O  O45  1  0.38941000  0.85752400  0.80973200  1
  O  O46  1  0.04237500  0.17292600  0.15439200  1
  O  O47  1  0.42610100  0.67420200  0.95943500  1
