# generated using pymatgen
data_La6B(NO2)3
_symmetry_space_group_name_H-M   'P 1'
_cell_length_a   12.65378517
_cell_length_b   12.65378517
_cell_length_c   11.00787800
_cell_angle_alpha   90.00000000
_cell_angle_beta   90.00000000
_cell_angle_gamma   163.27059571
_symmetry_Int_Tables_number   1
_chemical_formula_structural   La6B(NO2)3
_chemical_formula_sum   'La12 B2 N6 O12'
_cell_volume   507.35720314
_cell_formula_units_Z   2
loop_
 _symmetry_equiv_pos_site_id
 _symmetry_equiv_pos_as_xyz
  1  'x, y, z'
loop_
 _atom_site_type_symbol
 _atom_site_label
 _atom_site_symmetry_multiplicity
 _atom_site_fract_x
 _atom_site_fract_y
 _atom_site_fract_z
 _atom_site_occupancy
  La  La0  1  0.54755100  0.45244900  0.75000000  1
  La  La1  1  0.68719100  0.31280900  0.56924600  1
  La  La2  1  0.68719100  0.31280900  0.93075400  1
  La  La3  1  0.93205200  0.06794800  0.93457000  1
  La  La4  1  0.69925300  0.30074700  0.25000000  1
  La  La5  1  0.31280900  0.68719100  0.43075400  1
  La  La6  1  0.06794800  0.93205200  0.06543000  1
  La  La7  1  0.30074700  0.69925300  0.75000000  1
  La  La8  1  0.45244900  0.54755100  0.25000000  1
  La  La9  1  0.93205200  0.06794800  0.56543000  1
  La  La10  1  0.06794800  0.93205200  0.43457000  1
  La  La11  1  0.31280900  0.68719100  0.06924600  1
  B  B12  1  0.85963900  0.14036100  0.25000000  1
  B  B13  1  0.14036100  0.85963900  0.75000000  1
  N  N14  1  0.80061300  0.19938700  0.25000000  1
  N  N15  1  0.88927500  0.11072500  0.36608200  1
  N  N16  1  0.11072500  0.88927500  0.63391800  1
  N  N17  1  0.19938700  0.80061300  0.75000000  1
  N  N18  1  0.11072500  0.88927500  0.86608200  1
  N  N19  1  0.88927500  0.11072500  0.13391800  1
  O  O20  1  0.37650100  0.62349900  0.89359200  1
  O  O21  1  0.78257100  0.21742900  0.90812800  1
  O  O22  1  0.98706900  0.01293100  0.75000000  1
  O  O23  1  0.78257100  0.21742900  0.59187200  1
  O  O24  1  0.21742900  0.78257100  0.09187200  1
  O  O25  1  0.21742900  0.78257100  0.40812800  1
  O  O26  1  0.37650100  0.62349900  0.60640800  1
  O  O27  1  0.62349900  0.37650100  0.39359200  1
  O  O28  1  0.01293100  0.98706900  0.25000000  1
  O  O29  1  0.62349900  0.37650100  0.10640800  1
  O  O30  1  0.50000000  0.50000000  0.00000000  1
  O  O31  1  0.50000000  0.50000000  0.50000000  1
