# generated using pymatgen
data_BaV2ZnO7
_symmetry_space_group_name_H-M   'P 1'
_cell_length_a   15.41664300
_cell_length_b   5.66717100
_cell_length_c   8.94942124
_cell_angle_alpha   57.61062029
_cell_angle_beta   90.00000000
_cell_angle_gamma   90.00000000
_symmetry_Int_Tables_number   1
_chemical_formula_structural   BaV2ZnO7
_chemical_formula_sum   'Ba4 V8 Zn4 O28'
_cell_volume   660.25745460
_cell_formula_units_Z   4
loop_
 _symmetry_equiv_pos_site_id
 _symmetry_equiv_pos_as_xyz
  1  'x, y, z'
loop_
 _atom_site_type_symbol
 _atom_site_label
 _atom_site_symmetry_multiplicity
 _atom_site_fract_x
 _atom_site_fract_y
 _atom_site_fract_z
 _atom_site_occupancy
  Ba  Ba0  1  0.78471800  0.43005700  0.35462700  1
  Ba  Ba1  1  0.71528200  0.43005700  0.85462700  1
  Ba  Ba2  1  0.21528200  0.56994300  0.64537300  1
  Ba  Ba3  1  0.28471800  0.56994300  0.14537300  1
  V  V4  1  0.86619400  0.91864800  0.83309900  1
  V  V5  1  0.63380600  0.91864800  0.33309900  1
  V  V6  1  0.13380600  0.08135200  0.16690100  1
  V  V7  1  0.36619400  0.08135200  0.66690100  1
  V  V8  1  0.06201700  0.91691200  0.78730900  1
  V  V9  1  0.43798300  0.91691200  0.28730900  1
  V  V10  1  0.93798300  0.08308800  0.21269100  1
  V  V11  1  0.56201700  0.08308800  0.71269100  1
  Zn  Zn12  1  0.55077200  0.57747600  0.13112700  1
  Zn  Zn13  1  0.94922800  0.57747600  0.63112700  1
  Zn  Zn14  1  0.44922800  0.42252400  0.86887300  1
  Zn  Zn15  1  0.05077200  0.42252400  0.36887300  1
  O  O16  1  0.78308600  0.76805700  0.97762100  1
  O  O17  1  0.71691400  0.76805700  0.47762100  1
  O  O18  1  0.21691400  0.23194300  0.02237900  1
  O  O19  1  0.28308600  0.23194300  0.52237900  1
  O  O20  1  0.97165000  0.81440100  0.94117000  1
  O  O21  1  0.52835000  0.81440100  0.44117000  1
  O  O22  1  0.02835000  0.18559900  0.05883000  1
  O  O23  1  0.47165000  0.18559900  0.55883000  1
  O  O24  1  0.16019200  0.84595000  0.88354600  1
  O  O25  1  0.33980800  0.84595000  0.38354600  1
  O  O26  1  0.83980800  0.15405000  0.11645400  1
  O  O27  1  0.66019200  0.15405000  0.61645400  1
  O  O28  1  0.05197700  0.74029500  0.67918700  1
  O  O29  1  0.44802300  0.74029500  0.17918700  1
  O  O30  1  0.94802300  0.25970500  0.32081300  1
  O  O31  1  0.55197700  0.25970500  0.82081300  1
  O  O32  1  0.05387700  0.27995300  0.63069700  1
  O  O33  1  0.44612300  0.27995300  0.13069700  1
  O  O34  1  0.94612300  0.72004700  0.36930300  1
  O  O35  1  0.55387700  0.72004700  0.86930300  1
  O  O36  1  0.85658400  0.28470200  0.71034100  1
  O  O37  1  0.64341600  0.28470200  0.21034100  1
  O  O38  1  0.14341600  0.71529800  0.28965900  1
  O  O39  1  0.35658400  0.71529800  0.78965900  1
  O  O40  1  0.86181500  0.80124100  0.69123200  1
  O  O41  1  0.63818500  0.80124100  0.19123200  1
  O  O42  1  0.13818500  0.19875900  0.30876800  1
  O  O43  1  0.36181500  0.19875900  0.80876800  1
