# generated using pymatgen
data_Ga2PbO4
_symmetry_space_group_name_H-M   'P 1'
_cell_length_a   5.45248834
_cell_length_b   5.45248834
_cell_length_c   8.72008111
_cell_angle_alpha   89.98584466
_cell_angle_beta   89.98584466
_cell_angle_gamma   121.38245761
_symmetry_Int_Tables_number   1
_chemical_formula_structural   Ga2PbO4
_chemical_formula_sum   'Ga4 Pb2 O8'
_cell_volume   221.31990244
_cell_formula_units_Z   2
loop_
 _symmetry_equiv_pos_site_id
 _symmetry_equiv_pos_as_xyz
  1  'x, y, z'
loop_
 _atom_site_type_symbol
 _atom_site_label
 _atom_site_symmetry_multiplicity
 _atom_site_fract_x
 _atom_site_fract_y
 _atom_site_fract_z
 _atom_site_occupancy
  Ga  Ga0  1  0.70934900  0.36002300  0.05851100  1
  Ga  Ga1  1  0.70425100  0.36715700  0.45395900  1
  Ga  Ga2  1  0.36715700  0.70425100  0.95395900  1
  Ga  Ga3  1  0.36002300  0.70934900  0.55851100  1
  Pb  Pb4  1  0.02753700  0.96829900  0.25650600  1
  Pb  Pb5  1  0.96829900  0.02753700  0.75650600  1
  O  O6  1  0.67563000  0.66847700  0.00095300  1
  O  O7  1  0.00776700  0.36895900  0.94745100  1
  O  O8  1  0.36895900  0.00776700  0.44745100  1
  O  O9  1  0.66847700  0.67563000  0.50095300  1
  O  O10  1  0.00154700  0.37664100  0.56466400  1
  O  O11  1  0.86322700  0.48313700  0.25652700  1
  O  O12  1  0.48313700  0.86322700  0.75652700  1
  O  O13  1  0.37664100  0.00154700  0.06466400  1
