# generated using pymatgen
data_CsMn2V2ClO7
_symmetry_space_group_name_H-M   'P 1'
_cell_length_a   5.40999100
_cell_length_b   5.65171800
_cell_length_c   15.19317400
_cell_angle_alpha   90.00000000
_cell_angle_beta   90.00000000
_cell_angle_gamma   90.00000000
_symmetry_Int_Tables_number   1
_chemical_formula_structural   CsMn2V2ClO7
_chemical_formula_sum   'Cs2 Mn4 V4 Cl2 O14'
_cell_volume   464.54259140
_cell_formula_units_Z   2
loop_
 _symmetry_equiv_pos_site_id
 _symmetry_equiv_pos_as_xyz
  1  'x, y, z'
loop_
 _atom_site_type_symbol
 _atom_site_label
 _atom_site_symmetry_multiplicity
 _atom_site_fract_x
 _atom_site_fract_y
 _atom_site_fract_z
 _atom_site_occupancy
  Cs  Cs0  1  0.89557700  0.96379500  0.25000000  1
  Cs  Cs1  1  0.89557700  0.03620500  0.75000000  1
  Mn  Mn2  1  0.92689400  0.50000000  0.50000000  1
  Mn  Mn3  1  0.30753300  0.00000000  0.00000000  1
  Mn  Mn4  1  0.92689400  0.50000000  0.00000000  1
  Mn  Mn5  1  0.30753300  0.00000000  0.50000000  1
  V  V6  1  0.39997000  0.48293900  0.36374400  1
  V  V7  1  0.39997000  0.51706100  0.63625600  1
  V  V8  1  0.39997000  0.51706100  0.86374400  1
  V  V9  1  0.39997000  0.48293900  0.13625600  1
  Cl  Cl10  1  0.78781400  0.00000000  0.50000000  1
  Cl  Cl11  1  0.78781400  0.00000000  0.00000000  1
  O  O12  1  0.35118500  0.42554200  0.75000000  1
  O  O13  1  0.35118500  0.57445800  0.25000000  1
  O  O14  1  0.70818200  0.50186300  0.61258100  1
  O  O15  1  0.70818200  0.49813700  0.38741900  1
  O  O16  1  0.70818200  0.49813700  0.11258100  1
  O  O17  1  0.70818200  0.50186300  0.88741900  1
  O  O18  1  0.29724100  0.79991700  0.88038600  1
  O  O19  1  0.29724100  0.20008300  0.38038600  1
  O  O20  1  0.29724100  0.79991700  0.61961400  1
  O  O21  1  0.29724100  0.20008300  0.11961400  1
  O  O22  1  0.23039400  0.32477700  0.93127000  1
  O  O23  1  0.23039400  0.32477700  0.56873000  1
  O  O24  1  0.23039400  0.67522300  0.06873000  1
  O  O25  1  0.23039400  0.67522300  0.43127000  1
