# generated using pymatgen
data_YSbMo2O9
_symmetry_space_group_name_H-M   'P 1'
_cell_length_a   9.72805067
_cell_length_b   9.72805067
_cell_length_c   10.87354475
_cell_angle_alpha   68.14994162
_cell_angle_beta   68.14994162
_cell_angle_gamma   95.45166718
_symmetry_Int_Tables_number   1
_chemical_formula_structural   YSbMo2O9
_chemical_formula_sum   'Y4 Sb4 Mo8 O36'
_cell_volume   853.29055435
_cell_formula_units_Z   4
loop_
 _symmetry_equiv_pos_site_id
 _symmetry_equiv_pos_as_xyz
  1  'x, y, z'
loop_
 _atom_site_type_symbol
 _atom_site_label
 _atom_site_symmetry_multiplicity
 _atom_site_fract_x
 _atom_site_fract_y
 _atom_site_fract_z
 _atom_site_occupancy
  Y  Y0  1  0.87417900  0.12582100  0.75000000  1
  Y  Y1  1  0.32807000  0.67193000  0.75000000  1
  Y  Y2  1  0.12582100  0.87417900  0.25000000  1
  Y  Y3  1  0.67193000  0.32807000  0.25000000  1
  Sb  Sb4  1  0.65050900  0.61996400  0.46424500  1
  Sb  Sb5  1  0.34949100  0.38003600  0.53575500  1
  Sb  Sb6  1  0.38003600  0.34949100  0.03575500  1
  Sb  Sb7  1  0.61996400  0.65050900  0.96424500  1
  Mo  Mo8  1  0.94188600  0.56597900  0.69313900  1
  Mo  Mo9  1  0.05811400  0.43402100  0.30686100  1
  Mo  Mo10  1  0.56597900  0.94188600  0.19313900  1
  Mo  Mo11  1  0.74086700  0.95362700  0.52507000  1
  Mo  Mo12  1  0.43402100  0.05811400  0.80686100  1
  Mo  Mo13  1  0.25913300  0.04637300  0.47493000  1
  Mo  Mo14  1  0.04637300  0.25913300  0.97493000  1
  Mo  Mo15  1  0.95362700  0.74086700  0.02507000  1
  O  O16  1  0.42309200  0.54194600  0.59956500  1
  O  O17  1  0.06714100  0.09554100  0.10198700  1
  O  O18  1  0.63586500  0.79128000  0.29734500  1
  O  O19  1  0.62095000  0.14467100  0.77279200  1
  O  O20  1  0.90445900  0.93285900  0.39801300  1
  O  O21  1  0.36413500  0.20872000  0.70265500  1
  O  O22  1  0.45805400  0.57690800  0.90043500  1
  O  O23  1  0.54194600  0.42309200  0.09956500  1
  O  O24  1  0.09554100  0.06714100  0.60198700  1
  O  O25  1  0.37905000  0.85532900  0.22720800  1
  O  O26  1  0.85532900  0.37905000  0.72720800  1
  O  O27  1  0.98012500  0.30660200  0.49791100  1
  O  O28  1  0.09346500  0.55730200  0.74804900  1
  O  O29  1  0.20872000  0.36413500  0.20265500  1
  O  O30  1  0.57690800  0.45805400  0.40043500  1
  O  O31  1  0.70185300  0.12901000  0.43173600  1
  O  O32  1  0.29814700  0.87099000  0.56826400  1
  O  O33  1  0.22140000  0.40556700  0.92067600  1
  O  O34  1  0.69339800  0.01987500  0.00208900  1
  O  O35  1  0.04251100  0.22118800  0.82637500  1
  O  O36  1  0.59443300  0.77860000  0.57932400  1
  O  O37  1  0.22118800  0.04251100  0.32637500  1
  O  O38  1  0.14467100  0.62095000  0.27279200  1
  O  O39  1  0.44269800  0.90653500  0.75195100  1
  O  O40  1  0.30660200  0.98012500  0.99791100  1
  O  O41  1  0.95748900  0.77881200  0.17362500  1
  O  O42  1  0.01987500  0.69339800  0.50208900  1
  O  O43  1  0.93285900  0.90445900  0.89801300  1
  O  O44  1  0.77860000  0.59443300  0.07932400  1
  O  O45  1  0.77881200  0.95748900  0.67362500  1
  O  O46  1  0.12901000  0.70185300  0.93173600  1
  O  O47  1  0.87099000  0.29814700  0.06826400  1
  O  O48  1  0.79128000  0.63586500  0.79734500  1
  O  O49  1  0.90653500  0.44269800  0.25195100  1
  O  O50  1  0.55730200  0.09346500  0.24804900  1
  O  O51  1  0.40556700  0.22140000  0.42067600  1
