# generated using pymatgen
data_CaH2(CO2)2
_symmetry_space_group_name_H-M   'P 1'
_cell_length_a   6.88376200
_cell_length_b   6.88376200
_cell_length_c   9.49941200
_cell_angle_alpha   90.00000000
_cell_angle_beta   90.00000000
_cell_angle_gamma   90.00000000
_symmetry_Int_Tables_number   1
_chemical_formula_structural   CaH2(CO2)2
_chemical_formula_sum   'Ca4 H8 C8 O16'
_cell_volume   450.14084002
_cell_formula_units_Z   4
loop_
 _symmetry_equiv_pos_site_id
 _symmetry_equiv_pos_as_xyz
  1  'x, y, z'
loop_
 _atom_site_type_symbol
 _atom_site_label
 _atom_site_symmetry_multiplicity
 _atom_site_fract_x
 _atom_site_fract_y
 _atom_site_fract_z
 _atom_site_occupancy
  Ca  Ca0  1  0.78632300  0.78632300  0.00000000  1
  Ca  Ca1  1  0.71367700  0.28632300  0.75000000  1
  Ca  Ca2  1  0.21367700  0.21367700  0.50000000  1
  Ca  Ca3  1  0.28632300  0.71367700  0.25000000  1
  H  H4  1  0.12994500  0.67154100  0.67449800  1
  H  H5  1  0.37005500  0.17154100  0.07550200  1
  H  H6  1  0.17154100  0.37005500  0.92449800  1
  H  H7  1  0.62994500  0.82845900  0.57550200  1
  H  H8  1  0.32845900  0.87005500  0.82550200  1
  H  H9  1  0.82845900  0.62994500  0.42449800  1
  H  H10  1  0.67154100  0.12994500  0.32550200  1
  H  H11  1  0.87005500  0.32845900  0.17449800  1
  C  C12  1  0.29629800  0.81037200  0.93139600  1
  C  C13  1  0.81037200  0.29629800  0.06860400  1
  C  C14  1  0.79629800  0.68962800  0.31860400  1
  C  C15  1  0.68962800  0.79629800  0.68139600  1
  C  C16  1  0.31037200  0.20370200  0.18139600  1
  C  C17  1  0.70370200  0.18962800  0.43139600  1
  C  C18  1  0.20370200  0.31037200  0.81860400  1
  C  C19  1  0.18962800  0.70370200  0.56860400  1
  O  O20  1  0.37849600  0.28110000  0.78492100  1
  O  O21  1  0.06101800  0.27722500  0.73653600  1
  O  O22  1  0.77722500  0.43898200  0.98653600  1
  O  O23  1  0.28110000  0.37849600  0.21507900  1
  O  O24  1  0.21890000  0.87849600  0.53492100  1
  O  O25  1  0.56101800  0.22277500  0.51346400  1
  O  O26  1  0.87849600  0.21890000  0.46507900  1
  O  O27  1  0.27722500  0.06101800  0.26346400  1
  O  O28  1  0.62150400  0.71890000  0.28492100  1
  O  O29  1  0.22277500  0.56101800  0.48653600  1
  O  O30  1  0.12150400  0.78110000  0.96507900  1
  O  O31  1  0.72277500  0.93898200  0.76346400  1
  O  O32  1  0.78110000  0.12150400  0.03492100  1
  O  O33  1  0.71890000  0.62150400  0.71507900  1
  O  O34  1  0.43898200  0.77722500  0.01346400  1
  O  O35  1  0.93898200  0.72277500  0.23653600  1
