# generated using pymatgen
data_Th(MoO4)2
_symmetry_space_group_name_H-M   'P 1'
_cell_length_a   17.99512937
_cell_length_b   17.99512937
_cell_length_c   6.30578900
_cell_angle_alpha   90.00000000
_cell_angle_beta   90.00000000
_cell_angle_gamma   119.99999769
_symmetry_Int_Tables_number   1
_chemical_formula_structural   Th(MoO4)2
_chemical_formula_sum   'Th9 Mo18 O72'
_cell_volume   1768.39803208
_cell_formula_units_Z   9
loop_
 _symmetry_equiv_pos_site_id
 _symmetry_equiv_pos_as_xyz
  1  'x, y, z'
loop_
 _atom_site_type_symbol
 _atom_site_label
 _atom_site_symmetry_multiplicity
 _atom_site_fract_x
 _atom_site_fract_y
 _atom_site_fract_z
 _atom_site_occupancy
  Th  Th0  1  0.33373200  0.00031800  0.24685100  1
  Th  Th1  1  0.99968200  0.33341400  0.24685100  1
  Th  Th2  1  0.66666700  0.33333300  0.49632000  1
  Th  Th3  1  0.00031800  0.66658600  0.75314900  1
  Th  Th4  1  0.33333300  0.66666700  0.50368000  1
  Th  Th5  1  0.66626800  0.99968200  0.75314900  1
  Th  Th6  1  0.66658600  0.66626800  0.24685100  1
  Th  Th7  1  0.33341400  0.33373200  0.75314900  1
  Th  Th8  1  0.00000000  0.00000000  0.00000000  1
  Mo  Mo9  1  0.10260300  0.50381600  0.74287300  1
  Mo  Mo10  1  0.17044400  0.73442300  0.24095900  1
  Mo  Mo11  1  0.26557700  0.43602100  0.24095900  1
  Mo  Mo12  1  0.23116700  0.16479900  0.25767300  1
  Mo  Mo13  1  0.16479900  0.93363200  0.74232700  1
  Mo  Mo14  1  0.06636800  0.23116700  0.74232700  1
  Mo  Mo15  1  0.82955600  0.26557700  0.75904100  1
  Mo  Mo16  1  0.56397900  0.82955600  0.24095900  1
  Mo  Mo17  1  0.40121300  0.89739700  0.74287300  1
  Mo  Mo18  1  0.50381600  0.40121300  0.25712700  1
  Mo  Mo19  1  0.49618400  0.59878700  0.74287300  1
  Mo  Mo20  1  0.59878700  0.10260300  0.25712700  1
  Mo  Mo21  1  0.83520100  0.06636800  0.25767300  1
  Mo  Mo22  1  0.89739700  0.49618400  0.25712700  1
  Mo  Mo23  1  0.73442300  0.56397900  0.75904100  1
  Mo  Mo24  1  0.43602100  0.17044400  0.75904100  1
  Mo  Mo25  1  0.76883300  0.83520100  0.74232700  1
  Mo  Mo26  1  0.93363200  0.76883300  0.25767300  1
  O  O27  1  0.54695200  0.25335200  0.70607900  1
  O  O28  1  0.58765400  0.37260200  0.28288600  1
  O  O29  1  0.75778400  0.78718500  0.48751500  1
  O  O30  1  0.03610900  0.11938800  0.79244900  1
  O  O31  1  0.21690600  0.84730700  0.22069800  1
  O  O32  1  0.88185600  0.17934800  0.23892000  1
  O  O33  1  0.63215100  0.08202100  0.00772000  1
  O  O34  1  0.63040100  0.78309400  0.22069800  1
  O  O35  1  0.08327900  0.96389100  0.79244900  1
  O  O36  1  0.29749200  0.11814400  0.23892000  1
  O  O37  1  0.70250800  0.88185600  0.76108000  1
  O  O38  1  0.24221600  0.21281500  0.51248500  1
  O  O39  1  0.65408900  0.08178900  0.46399700  1
  O  O40  1  0.91797900  0.55012900  0.00772000  1
  O  O41  1  0.69660600  0.59918100  0.54126000  1
  O  O42  1  0.45304800  0.74664800  0.29392100  1
  O  O43  1  0.24660600  0.98396600  0.94005000  1
  O  O44  1  0.54904400  0.51361200  0.28700800  1
  O  O45  1  0.30339400  0.40081900  0.45874000  1
  O  O46  1  0.59918100  0.90257500  0.45874000  1
  O  O47  1  0.55012900  0.63215100  0.99228000  1
  O  O48  1  0.57074900  0.88721700  0.00302600  1
  O  O49  1  0.57230000  0.65408900  0.53600300  1
  O  O50  1  0.21505200  0.58765400  0.71711400  1
  O  O51  1  0.51361200  0.96456800  0.71299200  1
  O  O52  1  0.78494800  0.41234600  0.28288600  1
  O  O53  1  0.02940100  0.24221600  0.48751500  1
  O  O54  1  0.34591100  0.91821100  0.53600300  1
  O  O55  1  0.42770000  0.34591100  0.46399700  1
  O  O56  1  0.70640000  0.45304800  0.70607900  1
  O  O57  1  0.88061200  0.91672100  0.79244900  1
  O  O58  1  0.91672100  0.03610900  0.20755100  1
  O  O59  1  0.78309400  0.15269300  0.77930200  1
  O  O60  1  0.11814400  0.82065200  0.76108000  1
  O  O61  1  0.88721700  0.31646900  0.99697400  1
  O  O62  1  0.03543200  0.54904400  0.71299200  1
  O  O63  1  0.31646900  0.42925100  0.00302600  1
  O  O64  1  0.45095600  0.48638800  0.71299200  1
  O  O65  1  0.98396600  0.73736000  0.05995000  1
  O  O66  1  0.44987100  0.36784900  0.00772000  1
  O  O67  1  0.37260200  0.78494800  0.71711400  1
  O  O68  1  0.97059900  0.75778400  0.51248500  1
  O  O69  1  0.36959900  0.21690600  0.77930200  1
  O  O70  1  0.84730700  0.63040100  0.77930200  1
  O  O71  1  0.91821100  0.57230000  0.46399700  1
  O  O72  1  0.78718500  0.02940100  0.51248500  1
  O  O73  1  0.08178900  0.42770000  0.53600300  1
  O  O74  1  0.73736000  0.75339400  0.94005000  1
  O  O75  1  0.29360000  0.54695200  0.29392100  1
  O  O76  1  0.11938800  0.08327900  0.20755100  1
  O  O77  1  0.09742500  0.69660600  0.45874000  1
  O  O78  1  0.40081900  0.09742500  0.54126000  1
  O  O79  1  0.01603400  0.26264000  0.94005000  1
  O  O80  1  0.25335200  0.70640000  0.29392100  1
  O  O81  1  0.96456800  0.45095600  0.28700800  1
  O  O82  1  0.74664800  0.29360000  0.70607900  1
  O  O83  1  0.42925100  0.11278300  0.99697400  1
  O  O84  1  0.68353100  0.57074900  0.99697400  1
  O  O85  1  0.11278300  0.68353100  0.00302600  1
  O  O86  1  0.96389100  0.88061200  0.20755100  1
  O  O87  1  0.36784900  0.91797900  0.99228000  1
  O  O88  1  0.15269300  0.36959900  0.22069800  1
  O  O89  1  0.82065200  0.70250800  0.23892000  1
  O  O90  1  0.48638800  0.03543200  0.28700800  1
  O  O91  1  0.75339400  0.01603400  0.05995000  1
  O  O92  1  0.41234600  0.62739800  0.71711400  1
  O  O93  1  0.17934800  0.29749200  0.76108000  1
  O  O94  1  0.62739800  0.21505200  0.28288600  1
  O  O95  1  0.26264000  0.24660600  0.05995000  1
  O  O96  1  0.90257500  0.30339400  0.54126000  1
  O  O97  1  0.21281500  0.97059900  0.48751500  1
  O  O98  1  0.08202100  0.44987100  0.99228000  1
