# generated using pymatgen
data_Ca(ClO2)2
_symmetry_space_group_name_H-M   'P 1'
_cell_length_a   7.17893202
_cell_length_b   7.17893202
_cell_length_c   5.78997600
_cell_angle_alpha   90.00000000
_cell_angle_beta   90.00000000
_cell_angle_gamma   132.22754768
_symmetry_Int_Tables_number   1
_chemical_formula_structural   Ca(ClO2)2
_chemical_formula_sum   'Ca2 Cl4 O8'
_cell_volume   220.95848659
_cell_formula_units_Z   2
loop_
 _symmetry_equiv_pos_site_id
 _symmetry_equiv_pos_as_xyz
  1  'x, y, z'
loop_
 _atom_site_type_symbol
 _atom_site_label
 _atom_site_symmetry_multiplicity
 _atom_site_fract_x
 _atom_site_fract_y
 _atom_site_fract_z
 _atom_site_occupancy
  Ca  Ca0  1  0.50000000  0.50000000  0.50000000  1
  Ca  Ca1  1  0.00000000  0.00000000  0.00000000  1
  Cl  Cl2  1  0.66250200  0.33749800  0.00000000  1
  Cl  Cl3  1  0.16250200  0.83749800  0.50000000  1
  Cl  Cl4  1  0.33749800  0.66250200  0.00000000  1
  Cl  Cl5  1  0.83749800  0.16250200  0.50000000  1
  O  O6  1  0.43453600  0.24524100  0.15939600  1
  O  O7  1  0.56546400  0.75475900  0.15939600  1
  O  O8  1  0.06546400  0.25475900  0.34060400  1
  O  O9  1  0.24524100  0.43453600  0.84060400  1
  O  O10  1  0.74524100  0.93453600  0.65939600  1
  O  O11  1  0.25475900  0.06546400  0.65939600  1
  O  O12  1  0.93453600  0.74524100  0.34060400  1
  O  O13  1  0.75475900  0.56546400  0.84060400  1
