# generated using pymatgen
data_Al2(WO4)3
_symmetry_space_group_name_H-M   'P 1'
_cell_length_a   9.22254200
_cell_length_b   9.31104400
_cell_length_c   12.89263900
_cell_angle_alpha   90.00000000
_cell_angle_beta   90.00000000
_cell_angle_gamma   90.00000000
_symmetry_Int_Tables_number   1
_chemical_formula_structural   Al2(WO4)3
_chemical_formula_sum   'Al8 W12 O48'
_cell_volume   1107.11017709
_cell_formula_units_Z   4
loop_
 _symmetry_equiv_pos_site_id
 _symmetry_equiv_pos_as_xyz
  1  'x, y, z'
loop_
 _atom_site_type_symbol
 _atom_site_label
 _atom_site_symmetry_multiplicity
 _atom_site_fract_x
 _atom_site_fract_y
 _atom_site_fract_z
 _atom_site_occupancy
  Al  Al0  1  0.00160100  0.21738400  0.88241800  1
  Al  Al1  1  0.49825900  0.21740700  0.61970200  1
  Al  Al2  1  0.50174100  0.28259300  0.11970200  1
  Al  Al3  1  0.99839900  0.28261600  0.38241800  1
  Al  Al4  1  0.50174100  0.71740700  0.88029800  1
  Al  Al5  1  0.00160100  0.78261600  0.11758200  1
  Al  Al6  1  0.49825900  0.78259300  0.38029800  1
  Al  Al7  1  0.99839900  0.71738400  0.61758200  1
  W  W8  1  0.14510600  0.13302200  0.14570100  1
  W  W9  1  0.64252800  0.13462200  0.35664600  1
  W  W10  1  0.85489400  0.63302200  0.35429900  1
  W  W11  1  0.22334800  0.00000000  0.50000000  1
  W  W12  1  0.64252800  0.86537800  0.64335400  1
  W  W13  1  0.14510600  0.86697800  0.85429900  1
  W  W14  1  0.77665200  0.50000000  0.00000000  1
  W  W15  1  0.85489400  0.36697800  0.64570100  1
  W  W16  1  0.35747200  0.63462200  0.14335400  1
  W  W17  1  0.27412200  0.50000000  0.50000000  1
  W  W18  1  0.72587800  0.00000000  0.00000000  1
  W  W19  1  0.35747200  0.36537800  0.85664600  1
  O  O20  1  0.33663600  0.09267000  0.59364000  1
  O  O21  1  0.56486700  0.24468800  0.25514400  1
  O  O22  1  0.43611800  0.68473900  0.02058700  1
  O  O23  1  0.43513300  0.74468800  0.24485600  1
  O  O24  1  0.15899700  0.58941600  0.59483600  1
  O  O25  1  0.10784200  0.12683800  0.43436700  1
  O  O26  1  0.39316700  0.55507000  0.83419300  1
  O  O27  1  0.56388200  0.81526100  0.52058700  1
  O  O28  1  0.84100300  0.91058400  0.09483600  1
  O  O29  1  0.38345900  0.62924200  0.43106800  1
  O  O30  1  0.56388200  0.18473900  0.47941300  1
  O  O31  1  0.16336400  0.66037200  0.13821600  1
  O  O32  1  0.33863000  0.83738100  0.85692000  1
  O  O33  1  0.89215800  0.37316200  0.93436700  1
  O  O34  1  0.06078500  0.76051100  0.75374300  1
  O  O35  1  0.93921500  0.73948900  0.25374300  1
  O  O36  1  0.43513300  0.25531200  0.75514400  1
  O  O37  1  0.66336400  0.40733000  0.09364000  1
  O  O38  1  0.88891500  0.44319800  0.33433300  1
  O  O39  1  0.60683300  0.05507000  0.66580700  1
  O  O40  1  0.06859700  0.81847200  0.97802200  1
  O  O41  1  0.84100300  0.08941600  0.90516400  1
  O  O42  1  0.83663600  0.83962800  0.63821600  1
  O  O43  1  0.89215800  0.62683800  0.06563300  1
  O  O44  1  0.66137000  0.66261900  0.35692000  1
  O  O45  1  0.88891500  0.55680200  0.66566700  1
  O  O46  1  0.16336400  0.33962800  0.86178400  1
  O  O47  1  0.39316700  0.44493000  0.16580700  1
  O  O48  1  0.93140300  0.68152800  0.47802200  1
  O  O49  1  0.11108500  0.94319800  0.16566700  1
  O  O50  1  0.56486700  0.75531200  0.74485600  1
  O  O51  1  0.83663600  0.16037200  0.36178400  1
  O  O52  1  0.10784200  0.87316200  0.56563300  1
  O  O53  1  0.93921500  0.26051100  0.74625700  1
  O  O54  1  0.93140300  0.31847200  0.52197800  1
  O  O55  1  0.15899700  0.41058400  0.40516400  1
  O  O56  1  0.43611800  0.31526100  0.97941300  1
  O  O57  1  0.11108500  0.05680200  0.83433300  1
  O  O58  1  0.66137000  0.33738100  0.64308000  1
  O  O59  1  0.06078500  0.23948900  0.24625700  1
  O  O60  1  0.61654100  0.12924200  0.06893200  1
  O  O61  1  0.06859700  0.18152800  0.02197800  1
  O  O62  1  0.33663600  0.90733000  0.40636000  1
  O  O63  1  0.33863000  0.16261900  0.14308000  1
  O  O64  1  0.61654100  0.87075800  0.93106800  1
  O  O65  1  0.38345900  0.37075800  0.56893200  1
  O  O66  1  0.60683300  0.94493000  0.33419300  1
  O  O67  1  0.66336400  0.59267000  0.90636000  1
