# generated using pymatgen
data_Sr3CePC3O13
_symmetry_space_group_name_H-M   'P 1'
_cell_length_a   6.65766181
_cell_length_b   6.65766181
_cell_length_c   6.65766157
_cell_angle_alpha   99.98873497
_cell_angle_beta   99.98873497
_cell_angle_gamma   99.98873197
_symmetry_Int_Tables_number   1
_chemical_formula_structural   Sr3CePC3O13
_chemical_formula_sum   'Sr3 Ce1 P1 C3 O13'
_cell_volume   279.84546305
_cell_formula_units_Z   1
loop_
 _symmetry_equiv_pos_site_id
 _symmetry_equiv_pos_as_xyz
  1  'x, y, z'
loop_
 _atom_site_type_symbol
 _atom_site_label
 _atom_site_symmetry_multiplicity
 _atom_site_fract_x
 _atom_site_fract_y
 _atom_site_fract_z
 _atom_site_occupancy
  Sr  Sr0  1  0.92088400  0.47410100  0.47410100  1
  Sr  Sr1  1  0.47410100  0.47410100  0.92088400  1
  Sr  Sr2  1  0.47410100  0.92088400  0.47410100  1
  Ce  Ce3  1  0.00012000  0.00012000  0.00012000  1
  P  P4  1  0.42049300  0.42049300  0.42049300  1
  C  C5  1  0.93307800  0.93307800  0.43412300  1
  C  C6  1  0.43412300  0.93307800  0.93307800  1
  C  C7  1  0.93307800  0.43412300  0.93307800  1
  O  O8  1  0.06001100  0.84054200  0.34279500  1
  O  O9  1  0.34279500  0.06001100  0.84054200  1
  O  O10  1  0.60533900  0.88879200  0.88879200  1
  O  O11  1  0.56138000  0.56138000  0.31392100  1
  O  O12  1  0.25545500  0.25545500  0.25545500  1
  O  O13  1  0.84054200  0.34279500  0.06001100  1
  O  O14  1  0.84054200  0.06001100  0.34279500  1
  O  O15  1  0.31392100  0.56138000  0.56138000  1
  O  O16  1  0.88879200  0.88879200  0.60533900  1
  O  O17  1  0.06001100  0.34279500  0.84054200  1
  O  O18  1  0.34279500  0.84054200  0.06001100  1
  O  O19  1  0.56138000  0.31392100  0.56138000  1
  O  O20  1  0.88879200  0.60533900  0.88879200  1
