# generated using pymatgen
data_LuSBr
_symmetry_space_group_name_H-M   'P 1'
_cell_length_a   3.97652300
_cell_length_b   5.63539200
_cell_length_c   8.34777300
_cell_angle_alpha   90.00000000
_cell_angle_beta   90.00000000
_cell_angle_gamma   90.00000000
_symmetry_Int_Tables_number   1
_chemical_formula_structural   LuSBr
_chemical_formula_sum   'Lu2 S2 Br2'
_cell_volume   187.06746485
_cell_formula_units_Z   2
loop_
 _symmetry_equiv_pos_site_id
 _symmetry_equiv_pos_as_xyz
  1  'x, y, z'
loop_
 _atom_site_type_symbol
 _atom_site_label
 _atom_site_symmetry_multiplicity
 _atom_site_fract_x
 _atom_site_fract_y
 _atom_site_fract_z
 _atom_site_occupancy
  Lu  Lu0  1  0.50000000  0.50000000  0.80942700  1
  Lu  Lu1  1  0.00000000  0.00000000  0.19057300  1
  S  S2  1  0.50000000  0.00000000  0.36186800  1
  S  S3  1  0.00000000  0.50000000  0.63813200  1
  Br  Br4  1  0.00000000  0.50000000  0.09461900  1
  Br  Br5  1  0.50000000  0.00000000  0.90538100  1
