# generated using pymatgen
data_H10C3NClO4
_symmetry_space_group_name_H-M   'P 1'
_cell_length_a   8.84602800
_cell_length_b   5.64603700
_cell_length_c   7.75742877
_cell_angle_alpha   75.69526089
_cell_angle_beta   90.00000000
_cell_angle_gamma   90.00000000
_symmetry_Int_Tables_number   1
_chemical_formula_structural   H10C3NClO4
_chemical_formula_sum   'H20 C6 N2 Cl2 O8'
_cell_volume   375.43218030
_cell_formula_units_Z   2
loop_
 _symmetry_equiv_pos_site_id
 _symmetry_equiv_pos_as_xyz
  1  'x, y, z'
loop_
 _atom_site_type_symbol
 _atom_site_label
 _atom_site_symmetry_multiplicity
 _atom_site_fract_x
 _atom_site_fract_y
 _atom_site_fract_z
 _atom_site_occupancy
  H  H0  1  0.39385500  0.78300700  0.85737200  1
  H  H1  1  0.48849300  0.05168500  0.73206900  1
  H  H2  1  0.75000000  0.96909800  0.97539100  1
  H  H3  1  0.25000000  0.22842800  0.63408200  1
  H  H4  1  0.51150700  0.94831500  0.26793100  1
  H  H5  1  0.64830200  0.70609600  0.09795300  1
  H  H6  1  0.11594600  0.86164400  0.61872800  1
  H  H7  1  0.38405400  0.86164400  0.61872800  1
  H  H8  1  0.75000000  0.77157200  0.36591800  1
  H  H9  1  0.35169800  0.29390400  0.90204700  1
  H  H10  1  0.85169800  0.70609600  0.09795300  1
  H  H11  1  0.98849300  0.94831500  0.26793100  1
  H  H12  1  0.61594600  0.13835600  0.38127200  1
  H  H13  1  0.25000000  0.03090200  0.02460900  1
  H  H14  1  0.14830200  0.29390400  0.90204700  1
  H  H15  1  0.01150700  0.05168500  0.73206900  1
  H  H16  1  0.88405400  0.13835600  0.38127200  1
  H  H17  1  0.10614500  0.78300700  0.85737200  1
  H  H18  1  0.60614500  0.21699300  0.14262800  1
  H  H19  1  0.89385500  0.21699300  0.14262800  1
  C  C20  1  0.11039700  0.93355500  0.73726700  1
  C  C21  1  0.61039700  0.06644500  0.26273300  1
  C  C22  1  0.25000000  0.18245100  0.90522000  1
  C  C23  1  0.38960300  0.93355500  0.73726700  1
  C  C24  1  0.75000000  0.81754900  0.09478000  1
  C  C25  1  0.88960300  0.06644500  0.26273300  1
  N  N26  1  0.25000000  0.08005400  0.74494100  1
  N  N27  1  0.75000000  0.91994600  0.25505900  1
  Cl  Cl28  1  0.25000000  0.48045900  0.29373400  1
  Cl  Cl29  1  0.75000000  0.51954100  0.70626600  1
  O  O30  1  0.88480300  0.41758900  0.80623700  1
  O  O31  1  0.25000000  0.54225400  0.46796700  1
  O  O32  1  0.25000000  0.21399000  0.32535900  1
  O  O33  1  0.75000000  0.45774600  0.53203300  1
  O  O34  1  0.11519700  0.58241100  0.19376300  1
  O  O35  1  0.75000000  0.78601000  0.67464100  1
  O  O36  1  0.61519700  0.41758900  0.80623700  1
  O  O37  1  0.38480300  0.58241100  0.19376300  1
