# generated using pymatgen
data_SrPr3
_symmetry_space_group_name_H-M   'P 1'
_cell_length_a   7.72985319
_cell_length_b   7.72985319
_cell_length_c   6.12481100
_cell_angle_alpha   90.00000000
_cell_angle_beta   90.00000000
_cell_angle_gamma   119.99999310
_symmetry_Int_Tables_number   1
_chemical_formula_structural   SrPr3
_chemical_formula_sum   'Sr2 Pr6'
_cell_volume   316.93182047
_cell_formula_units_Z   2
loop_
 _symmetry_equiv_pos_site_id
 _symmetry_equiv_pos_as_xyz
  1  'x, y, z'
loop_
 _atom_site_type_symbol
 _atom_site_label
 _atom_site_symmetry_multiplicity
 _atom_site_fract_x
 _atom_site_fract_y
 _atom_site_fract_z
 _atom_site_occupancy
  Sr  Sr0  1  0.33333300  0.66666700  0.75000000  1
  Sr  Sr1  1  0.66666700  0.33333300  0.25000000  1
  Pr  Pr2  1  0.16040100  0.32080100  0.25000000  1
  Pr  Pr3  1  0.67919900  0.83959900  0.25000000  1
  Pr  Pr4  1  0.16040100  0.83959900  0.25000000  1
  Pr  Pr5  1  0.83959900  0.67919900  0.75000000  1
  Pr  Pr6  1  0.32080100  0.16040100  0.75000000  1
  Pr  Pr7  1  0.83959900  0.16040100  0.75000000  1
