# generated using pymatgen
data_XeO3
_symmetry_space_group_name_H-M   'P 1'
_cell_length_a   5.53131500
_cell_length_b   6.15503000
_cell_length_c   8.25016200
_cell_angle_alpha   90.00000000
_cell_angle_beta   90.00000000
_cell_angle_gamma   90.00000000
_symmetry_Int_Tables_number   1
_chemical_formula_structural   XeO3
_chemical_formula_sum   'Xe4 O12'
_cell_volume   280.88014591
_cell_formula_units_Z   4
loop_
 _symmetry_equiv_pos_site_id
 _symmetry_equiv_pos_as_xyz
  1  'x, y, z'
loop_
 _atom_site_type_symbol
 _atom_site_label
 _atom_site_symmetry_multiplicity
 _atom_site_fract_x
 _atom_site_fract_y
 _atom_site_fract_z
 _atom_site_occupancy
  Xe  Xe0  1  0.78295200  0.43992000  0.34787000  1
  Xe  Xe1  1  0.21704800  0.93992000  0.15213000  1
  Xe  Xe2  1  0.71704800  0.56008000  0.84787000  1
  Xe  Xe3  1  0.28295200  0.06008000  0.65213000  1
  O  O4  1  0.41616700  0.17630000  0.09840800  1
  O  O5  1  0.60966700  0.64173500  0.06101100  1
  O  O6  1  0.91616700  0.32370000  0.90159200  1
  O  O7  1  0.57464300  0.94995000  0.74270900  1
  O  O8  1  0.07464300  0.55005000  0.25729100  1
  O  O9  1  0.39033300  0.14173500  0.43898900  1
  O  O10  1  0.58383300  0.67630000  0.40159200  1
  O  O11  1  0.42535700  0.44995000  0.75729100  1
  O  O12  1  0.89033300  0.35826500  0.56101100  1
  O  O13  1  0.92535700  0.05005000  0.24270900  1
  O  O14  1  0.08383300  0.82370000  0.59840800  1
  O  O15  1  0.10966700  0.85826500  0.93898900  1
