# generated using pymatgen
data_ZnCoTeBr2O3
_symmetry_space_group_name_H-M   'P 1'
_cell_length_a   7.80623900
_cell_length_b   10.79540300
_cell_length_c   16.43975300
_cell_angle_alpha   90.00000000
_cell_angle_beta   90.00000000
_cell_angle_gamma   90.00000000
_symmetry_Int_Tables_number   1
_chemical_formula_structural   ZnCoTeBr2O3
_chemical_formula_sum   'Zn8 Co8 Te8 Br16 O24'
_cell_volume   1385.40257785
_cell_formula_units_Z   8
loop_
 _symmetry_equiv_pos_site_id
 _symmetry_equiv_pos_as_xyz
  1  'x, y, z'
loop_
 _atom_site_type_symbol
 _atom_site_label
 _atom_site_symmetry_multiplicity
 _atom_site_fract_x
 _atom_site_fract_y
 _atom_site_fract_z
 _atom_site_occupancy
  Zn  Zn0  1  0.34356600  0.99699100  0.60226800  1
  Zn  Zn1  1  0.65643400  0.49699100  0.10226800  1
  Zn  Zn2  1  0.15643400  0.00300900  0.10226800  1
  Zn  Zn3  1  0.84356600  0.50300900  0.60226800  1
  Zn  Zn4  1  0.84356600  0.99699100  0.89773200  1
  Zn  Zn5  1  0.34356600  0.50300900  0.89773200  1
  Zn  Zn6  1  0.15643400  0.49699100  0.39773200  1
  Zn  Zn7  1  0.65643400  0.00300900  0.39773200  1
  Co  Co8  1  0.60752300  0.77116200  0.96502400  1
  Co  Co9  1  0.39247700  0.27116200  0.46502400  1
  Co  Co10  1  0.89247700  0.27116200  0.03497600  1
  Co  Co11  1  0.60752300  0.72883800  0.53497600  1
  Co  Co12  1  0.10752300  0.72883800  0.96502400  1
  Co  Co13  1  0.89247700  0.22883800  0.46502400  1
  Co  Co14  1  0.10752300  0.77116200  0.53497600  1
  Co  Co15  1  0.39247700  0.22883800  0.03497600  1
  Te  Te16  1  0.78689800  0.97100600  0.59595300  1
  Te  Te17  1  0.28689800  0.52899400  0.59595300  1
  Te  Te18  1  0.28689800  0.97100600  0.90404700  1
  Te  Te19  1  0.21310200  0.02899400  0.40404700  1
  Te  Te20  1  0.78689800  0.52899400  0.90404700  1
  Te  Te21  1  0.71310200  0.47100600  0.40404700  1
  Te  Te22  1  0.21310200  0.47100600  0.09595300  1
  Te  Te23  1  0.71310200  0.02899400  0.09595300  1
  Br  Br24  1  0.65709400  0.90825400  0.79815000  1
  Br  Br25  1  0.15709400  0.90825400  0.70185000  1
  Br  Br26  1  0.43936900  0.29188000  0.88247000  1
  Br  Br27  1  0.43936900  0.20812000  0.61753000  1
  Br  Br28  1  0.15709400  0.59174600  0.79815000  1
  Br  Br29  1  0.34290600  0.40825400  0.29815000  1
  Br  Br30  1  0.06063100  0.79188000  0.11753000  1
  Br  Br31  1  0.56063100  0.70812000  0.11753000  1
  Br  Br32  1  0.84290600  0.09174600  0.29815000  1
  Br  Br33  1  0.56063100  0.79188000  0.38247000  1
  Br  Br34  1  0.93936900  0.20812000  0.88247000  1
  Br  Br35  1  0.34290600  0.09174600  0.20185000  1
  Br  Br36  1  0.06063100  0.70812000  0.38247000  1
  Br  Br37  1  0.65709400  0.59174600  0.70185000  1
  Br  Br38  1  0.84290600  0.40825400  0.20185000  1
  Br  Br39  1  0.93936900  0.29188000  0.61753000  1
  O  O40  1  0.19677000  0.94403500  0.50712800  1
  O  O41  1  0.56101700  0.59194800  0.91910600  1
  O  O42  1  0.85742300  0.68742900  0.94305900  1
  O  O43  1  0.30323000  0.44403500  0.49287200  1
  O  O44  1  0.14257700  0.18742900  0.44305900  1
  O  O45  1  0.06101700  0.59194800  0.58089400  1
  O  O46  1  0.43898300  0.09194800  0.41910600  1
  O  O47  1  0.64257700  0.31257100  0.44305900  1
  O  O48  1  0.69677000  0.55596500  0.50712800  1
  O  O49  1  0.19677000  0.55596500  0.99287200  1
  O  O50  1  0.06101700  0.90805200  0.91910600  1
  O  O51  1  0.93898300  0.40805200  0.41910600  1
  O  O52  1  0.30323000  0.05596500  0.00712800  1
  O  O53  1  0.93898300  0.09194800  0.08089400  1
  O  O54  1  0.56101700  0.90805200  0.58089400  1
  O  O55  1  0.64257700  0.18742900  0.05694100  1
  O  O56  1  0.69677000  0.94403500  0.99287200  1
  O  O57  1  0.80323000  0.44403500  0.00712800  1
  O  O58  1  0.35742300  0.81257100  0.94305900  1
  O  O59  1  0.85742300  0.81257100  0.55694100  1
  O  O60  1  0.35742300  0.68742900  0.55694100  1
  O  O61  1  0.80323000  0.05596500  0.49287200  1
  O  O62  1  0.14257700  0.31257100  0.05694100  1
  O  O63  1  0.43898300  0.40805200  0.08089400  1
