# generated using pymatgen
data_Sb
_symmetry_space_group_name_H-M   'P 1'
_cell_length_a   6.15227282
_cell_length_b   6.15227282
_cell_length_c   6.15227282
_cell_angle_alpha   96.24223602
_cell_angle_beta   96.24223602
_cell_angle_gamma   141.49332751
_symmetry_Int_Tables_number   1
_chemical_formula_structural   Sb
_chemical_formula_sum   Sb4
_cell_volume   136.87496310
_cell_formula_units_Z   4
loop_
 _symmetry_equiv_pos_site_id
 _symmetry_equiv_pos_as_xyz
  1  'x, y, z'
loop_
 _atom_site_type_symbol
 _atom_site_label
 _atom_site_symmetry_multiplicity
 _atom_site_fract_x
 _atom_site_fract_y
 _atom_site_fract_z
 _atom_site_occupancy
  Sb  Sb0  1  0.65012200  0.84987800  0.50000000  1
  Sb  Sb1  1  0.15012200  0.65012200  0.80024300  1
  Sb  Sb2  1  0.34987800  0.15012200  0.50000000  1
  Sb  Sb3  1  0.84987800  0.34987800  0.19975700  1
