# generated using pymatgen
data_Si3PH27C9BrN2
_symmetry_space_group_name_H-M   'P 1'
_cell_length_a   9.20510000
_cell_length_b   9.74866445
_cell_length_c   12.67255382
_cell_angle_alpha   76.26109766
_cell_angle_beta   81.31903547
_cell_angle_gamma   62.87677425
_symmetry_Int_Tables_number   1
_chemical_formula_structural   Si3PH27C9BrN2
_chemical_formula_sum   'Si6 P2 H54 C18 Br2 N4'
_cell_volume   981.98537976
_cell_formula_units_Z   2
loop_
 _symmetry_equiv_pos_site_id
 _symmetry_equiv_pos_as_xyz
  1  'x, y, z'
loop_
 _atom_site_type_symbol
 _atom_site_label
 _atom_site_symmetry_multiplicity
 _atom_site_fract_x
 _atom_site_fract_y
 _atom_site_fract_z
 _atom_site_occupancy
  Si  Si0  1  0.21100600  0.01688800  0.76639800  1
  Si  Si1  1  0.11659900  0.55204900  0.20541000  1
  Si  Si2  1  0.23023900  0.72702200  0.33362400  1
  Si  Si3  1  0.78899400  0.98311200  0.23360200  1
  Si  Si4  1  0.88340100  0.44795100  0.79459000  1
  Si  Si5  1  0.76976100  0.27297800  0.66637600  1
  P  P6  1  0.09873500  0.91886300  0.06245300  1
  P  P7  1  0.90126500  0.08113700  0.93754700  1
  H  H8  1  0.25567300  0.40470600  0.05674600  1
  H  H9  1  0.62630000  0.50853400  0.91233900  1
  H  H10  1  0.85077900  0.61857600  0.60710700  1
  H  H11  1  0.96123300  0.03354500  0.58919500  1
  H  H12  1  0.36850000  0.75294300  0.72558200  1
  H  H13  1  0.84200400  0.18681400  0.29102600  1
  H  H14  1  0.78589300  0.75495600  0.37379700  1
  H  H15  1  0.14922100  0.38142400  0.39289300  1
  H  H16  1  0.14788500  0.13455200  0.56927700  1
  H  H17  1  0.15204200  0.01743800  0.29420400  1
  H  H18  1  0.65561600  0.65261100  0.67350700  1
  H  H19  1  0.64224200  0.93866000  0.40665300  1
  H  H20  1  0.34438400  0.34738900  0.32649300  1
  H  H21  1  0.37370000  0.49146600  0.08766100  1
  H  H22  1  0.44366000  0.74180600  0.19048500  1
  H  H23  1  0.49512300  0.92569100  0.80680300  1
  H  H24  1  0.55634000  0.25819400  0.80951500  1
  H  H25  1  0.31976400  0.60086300  0.51962200  1
  H  H26  1  0.37482600  0.10382300  0.85458300  1
  H  H27  1  0.71707900  0.53087000  0.53496200  1
  H  H28  1  0.28292100  0.46913000  0.46503800  1
  H  H29  1  0.75245300  0.08226000  0.58041600  1
  H  H30  1  0.22169600  0.27386500  0.28598500  1
  H  H31  1  0.37774600  0.92463100  0.93100800  1
  H  H32  1  0.15799600  0.81318600  0.70897400  1
  H  H33  1  0.84795800  0.98256200  0.70579600  1
  H  H34  1  0.83564200  0.57588100  0.26579500  1
  H  H35  1  0.92806000  0.45833800  0.16515600  1
  H  H36  1  0.50487700  0.07430900  0.19319700  1
  H  H37  1  0.23518900  0.74549500  0.84104700  1
  H  H38  1  0.20038200  0.60715700  0.00723500  1
  H  H39  1  0.50345800  0.45630900  0.74561000  1
  H  H40  1  0.84218600  0.66552500  0.12607700  1
  H  H41  1  0.21410700  0.24504400  0.62620300  1
  H  H42  1  0.62517400  0.89617700  0.14541700  1
  H  H43  1  0.79961800  0.39284300  0.99276500  1
  H  H44  1  0.07194000  0.54166200  0.83484400  1
  H  H45  1  0.15781400  0.33447500  0.87392300  1
  H  H46  1  0.77830400  0.72613500  0.71401500  1
  H  H47  1  0.68023600  0.39913700  0.48037800  1
  H  H48  1  0.11626600  0.63054300  0.51224800  1
  H  H49  1  0.03876700  0.96645500  0.41080500  1
  H  H50  1  0.76481100  0.25450500  0.15895300  1
  H  H51  1  0.47482300  0.33092000  0.67830800  1
  H  H52  1  0.63150000  0.24705700  0.27441800  1
  H  H53  1  0.85211500  0.86544800  0.43072300  1
  H  H54  1  0.88373400  0.36945700  0.48775200  1
  H  H55  1  0.16435800  0.42411900  0.73420500  1
  H  H56  1  0.49654200  0.54369100  0.25439000  1
  H  H57  1  0.74432700  0.59529400  0.94325400  1
  H  H58  1  0.52517700  0.66908000  0.32169200  1
  H  H59  1  0.62225400  0.07536900  0.06899200  1
  H  H60  1  0.24754700  0.91774000  0.41958400  1
  H  H61  1  0.35775800  0.06134000  0.59334700  1
  C  C62  1  0.62209600  0.00776900  0.15165600  1
  C  C63  1  0.15814700  0.92698900  0.36620200  1
  C  C64  1  0.76282200  0.40705000  0.53068000  1
  C  C65  1  0.24869100  0.51133300  0.07719900  1
  C  C66  1  0.91065400  0.56636000  0.18929100  1
  C  C67  1  0.75634000  0.18592300  0.23999100  1
  C  C68  1  0.55673500  0.33570400  0.73081100  1
  C  C69  1  0.76765300  0.87418800  0.37419900  1
  C  C70  1  0.23234700  0.12581200  0.62580100  1
  C  C71  1  0.08934600  0.43364000  0.81070900  1
  C  C72  1  0.37790400  0.99223100  0.84834400  1
  C  C73  1  0.23717800  0.59295000  0.46932000  1
  C  C74  1  0.78204700  0.62589500  0.68589000  1
  C  C75  1  0.44326500  0.66429600  0.26918900  1
  C  C76  1  0.21795300  0.37410500  0.31411000  1
  C  C77  1  0.24366000  0.81407700  0.76000900  1
  C  C78  1  0.75130900  0.48866700  0.92280100  1
  C  C79  1  0.84185300  0.07301100  0.63379800  1
  Br  Br80  1  0.13356300  0.13787200  0.08212700  1
  Br  Br81  1  0.86643700  0.86212800  0.91787300  1
  N  N82  1  0.00710000  0.12681200  0.82393100  1
  N  N83  1  0.90253500  0.27599300  0.75464000  1
  N  N84  1  0.99290000  0.87318800  0.17606900  1
  N  N85  1  0.09746500  0.72400700  0.24536000  1
