# generated using pymatgen
data_Zn3As2
_symmetry_space_group_name_H-M   'P 1'
_cell_length_a   14.63075564
_cell_length_b   14.63075564
_cell_length_c   14.63075564
_cell_angle_alpha   131.98986971
_cell_angle_beta   131.98986971
_cell_angle_gamma   70.24502705
_symmetry_Int_Tables_number   1
_chemical_formula_structural   Zn3As2
_chemical_formula_sum   'Zn48 As32'
_cell_volume   1695.79014195
_cell_formula_units_Z   16
loop_
 _symmetry_equiv_pos_site_id
 _symmetry_equiv_pos_as_xyz
  1  'x, y, z'
loop_
 _atom_site_type_symbol
 _atom_site_label
 _atom_site_symmetry_multiplicity
 _atom_site_fract_x
 _atom_site_fract_y
 _atom_site_fract_z
 _atom_site_occupancy
  Zn  Zn0  1  0.71010900  0.18364400  0.76678600  1
  Zn  Zn1  1  0.05667700  0.28989100  0.47353600  1
  Zn  Zn2  1  0.33366600  0.33594200  0.77692700  1
  Zn  Zn3  1  0.41633400  0.91405800  0.72307300  1
  Zn  Zn4  1  0.29411000  0.04196700  0.97769600  1
  Zn  Zn5  1  0.80673900  0.30901500  0.72307300  1
  Zn  Zn6  1  0.19098500  0.69326100  0.27692700  1
  Zn  Zn7  1  0.05901500  0.83594200  0.00227500  1
  Zn  Zn8  1  0.55901500  0.55673900  0.22307300  1
  Zn  Zn9  1  0.03989100  0.06635600  0.73321400  1
  Zn  Zn10  1  0.31635600  0.78989100  0.23321400  1
  Zn  Zn11  1  0.91633400  0.19326100  0.50227500  1
  Zn  Zn12  1  0.21010900  0.44332300  0.52646400  1
  Zn  Zn13  1  0.58594200  0.08366600  0.27692700  1
  Zn  Zn14  1  0.06427100  0.31641400  0.02230400  1
  Zn  Zn15  1  0.94326100  0.94098500  0.77692700  1
  Zn  Zn16  1  0.19332300  0.16685900  0.73321400  1
  Zn  Zn17  1  0.29196700  0.04411000  0.47769600  1
  Zn  Zn18  1  0.93364400  0.66685900  0.97353600  1
  Zn  Zn19  1  0.83366600  0.05673900  0.99772500  1
  Zn  Zn20  1  0.56427100  0.54196700  0.74785700  1
  Zn  Zn21  1  0.53989100  0.80667700  0.97353600  1
  Zn  Zn22  1  0.43364400  0.46010900  0.26678600  1
  Zn  Zn23  1  0.45803300  0.20589000  0.02230400  1
  Zn  Zn24  1  0.69332300  0.96010900  0.02646400  1
  Zn  Zn25  1  0.33314100  0.30667700  0.26678600  1
  Zn  Zn26  1  0.83314100  0.56635600  0.02646400  1
  Zn  Zn27  1  0.06641400  0.54411000  0.75214300  1
  Zn  Zn28  1  0.81635600  0.58314100  0.52646400  1
  Zn  Zn29  1  0.45589000  0.20803300  0.52230400  1
  Zn  Zn30  1  0.95803300  0.93572900  0.25214300  1
  Zn  Zn31  1  0.91685900  0.68364400  0.47353600  1
  Zn  Zn32  1  0.66405800  0.44098500  0.99772500  1
  Zn  Zn33  1  0.79196700  0.31427100  0.24785700  1
  Zn  Zn34  1  0.18572900  0.70803300  0.75214300  1
  Zn  Zn35  1  0.95589000  0.43358600  0.24785700  1
  Zn  Zn36  1  0.55667700  0.08314100  0.76678600  1
  Zn  Zn37  1  0.08594200  0.80901500  0.50227500  1
  Zn  Zn38  1  0.18358600  0.43572900  0.97769600  1
  Zn  Zn39  1  0.41685900  0.94332300  0.23321400  1
  Zn  Zn40  1  0.68358600  0.70589000  0.74785700  1
  Zn  Zn41  1  0.30673900  0.58366600  0.49772500  1
  Zn  Zn42  1  0.79411000  0.81641400  0.25214300  1
  Zn  Zn43  1  0.69098500  0.41405800  0.49772500  1
  Zn  Zn44  1  0.56641400  0.81427100  0.52230400  1
  Zn  Zn45  1  0.16405800  0.16633400  0.22307300  1
  Zn  Zn46  1  0.44326100  0.66633400  0.00227500  1
  Zn  Zn47  1  0.68572900  0.93358600  0.47769600  1
  As  As48  1  0.50681100  0.75358800  0.25701000  1
  As  As49  1  0.87405800  0.37405800  0.50000000  1
  As  As50  1  0.74641200  0.99318900  0.74299000  1
  As  As51  1  0.12500000  0.12968400  0.50468400  1
  As  As52  1  0.62500000  0.62031600  0.49531600  1
  As  As53  1  0.75342200  0.99641200  0.25322300  1
  As  As54  1  0.37968400  0.87500000  0.00468400  1
  As  As55  1  0.37594200  0.37594200  0.00000000  1
  As  As56  1  0.49980100  0.24657800  0.24299000  1
  As  As57  1  0.25019900  0.00342200  0.25701000  1
  As  As58  1  0.50358800  0.74657800  0.74677700  1
  As  As59  1  0.12500000  0.62968400  0.00468400  1
  As  As60  1  0.24641200  0.50342200  0.75322300  1
  As  As61  1  0.74318900  0.50019900  0.74677700  1
  As  As62  1  0.62405800  0.62405800  0.00000000  1
  As  As63  1  0.99657800  0.25358800  0.24677700  1
  As  As64  1  0.00358800  0.25681100  0.75701000  1
  As  As65  1  0.87968400  0.87500000  0.50468400  1
  As  As66  1  0.62500000  0.12031600  0.99531600  1
  As  As67  1  0.12594200  0.62594200  0.50000000  1
  As  As68  1  0.87594200  0.87594200  0.00000000  1
  As  As69  1  0.49657800  0.24980100  0.74299000  1
  As  As70  1  0.87031600  0.37500000  0.99531600  1
  As  As71  1  0.75019900  0.49318900  0.24677700  1
  As  As72  1  0.99980100  0.75681100  0.25322300  1
  As  As73  1  0.62594200  0.12594200  0.50000000  1
  As  As74  1  0.24318900  0.49641200  0.24299000  1
  As  As75  1  0.00681100  0.74980100  0.75322300  1
  As  As76  1  0.37405800  0.87405800  0.50000000  1
  As  As77  1  0.37031600  0.37500000  0.49531600  1
  As  As78  1  0.25342200  0.00019900  0.75701000  1
  As  As79  1  0.12405800  0.12405800  0.00000000  1
