# generated using pymatgen
data_Rb5CeCo2(NO2)12
_symmetry_space_group_name_H-M   'P 1'
_cell_length_a   10.80662100
_cell_length_b   10.80662100
_cell_length_c   10.80662100
_cell_angle_alpha   90.00000000
_cell_angle_beta   90.00000000
_cell_angle_gamma   90.00000000
_symmetry_Int_Tables_number   1
_chemical_formula_structural   Rb5CeCo2(NO2)12
_chemical_formula_sum   'Rb10 Ce2 Co4 N24 O48'
_cell_volume   1262.03024095
_cell_formula_units_Z   2
loop_
 _symmetry_equiv_pos_site_id
 _symmetry_equiv_pos_as_xyz
  1  'x, y, z'
loop_
 _atom_site_type_symbol
 _atom_site_label
 _atom_site_symmetry_multiplicity
 _atom_site_fract_x
 _atom_site_fract_y
 _atom_site_fract_z
 _atom_site_occupancy
  Rb  Rb0  1  0.25000000  0.25000000  0.75000000  1
  Rb  Rb1  1  0.25000000  0.75000000  0.25000000  1
  Rb  Rb2  1  0.00000000  0.50000000  0.50000000  1
  Rb  Rb3  1  0.50000000  0.00000000  0.00000000  1
  Rb  Rb4  1  0.50000000  0.00000000  0.50000000  1
  Rb  Rb5  1  0.75000000  0.75000000  0.75000000  1
  Rb  Rb6  1  0.50000000  0.50000000  0.00000000  1
  Rb  Rb7  1  0.00000000  0.50000000  0.00000000  1
  Rb  Rb8  1  0.75000000  0.25000000  0.25000000  1
  Rb  Rb9  1  0.00000000  0.00000000  0.50000000  1
  Ce  Ce10  1  0.00000000  0.00000000  0.00000000  1
  Ce  Ce11  1  0.50000000  0.50000000  0.50000000  1
  Co  Co12  1  0.75000000  0.75000000  0.25000000  1
  Co  Co13  1  0.25000000  0.75000000  0.75000000  1
  Co  Co14  1  0.75000000  0.25000000  0.75000000  1
  Co  Co15  1  0.25000000  0.25000000  0.25000000  1
  N  N16  1  0.25466400  0.25469100  0.43616500  1
  N  N17  1  0.56383500  0.74533600  0.25469100  1
  N  N18  1  0.43616500  0.74533600  0.74530900  1
  N  N19  1  0.25469100  0.56383500  0.74533600  1
  N  N20  1  0.74533600  0.74530900  0.43616500  1
  N  N21  1  0.75469100  0.06383500  0.75466400  1
  N  N22  1  0.06383500  0.75466400  0.75469100  1
  N  N23  1  0.56383500  0.25466400  0.74530900  1
  N  N24  1  0.25469100  0.43616500  0.25466400  1
  N  N25  1  0.75466400  0.24530900  0.93616500  1
  N  N26  1  0.74530900  0.56383500  0.25466400  1
  N  N27  1  0.24533600  0.24530900  0.06383500  1
  N  N28  1  0.25466400  0.74530900  0.56383500  1
  N  N29  1  0.75469100  0.93616500  0.24533600  1
  N  N30  1  0.43616500  0.25466400  0.25469100  1
  N  N31  1  0.24530900  0.93616500  0.75466400  1
  N  N32  1  0.24530900  0.06383500  0.24533600  1
  N  N33  1  0.93616500  0.75466400  0.24530900  1
  N  N34  1  0.74530900  0.43616500  0.74533600  1
  N  N35  1  0.74533600  0.25469100  0.56383500  1
  N  N36  1  0.24533600  0.75469100  0.93616500  1
  N  N37  1  0.75466400  0.75469100  0.06383500  1
  N  N38  1  0.93616500  0.24533600  0.75469100  1
  N  N39  1  0.06383500  0.24533600  0.24530900  1
  O  O40  1  0.26262200  0.99521100  0.65640000  1
  O  O41  1  0.76262200  0.49521100  0.84360000  1
  O  O42  1  0.15640000  0.76262200  0.50478900  1
  O  O43  1  0.00478900  0.34360000  0.26262200  1
  O  O44  1  0.65640000  0.26262200  0.99521100  1
  O  O45  1  0.99717500  0.85094300  0.21513300  1
  O  O46  1  0.14905700  0.21513300  0.00282500  1
  O  O47  1  0.71513300  0.50282500  0.35094300  1
  O  O48  1  0.34360000  0.73737800  0.99521100  1
  O  O49  1  0.78486700  0.99717500  0.14905700  1
  O  O50  1  0.84360000  0.76262200  0.49521100  1
  O  O51  1  0.14905700  0.78486700  0.99717500  1
  O  O52  1  0.50478900  0.15640000  0.76262200  1
  O  O53  1  0.64905700  0.71513300  0.49717500  1
  O  O54  1  0.78486700  0.00282500  0.85094300  1
  O  O55  1  0.65640000  0.73737800  0.00478900  1
  O  O56  1  0.64905700  0.28486700  0.50282500  1
  O  O57  1  0.99521100  0.65640000  0.26262200  1
  O  O58  1  0.84360000  0.23737800  0.50478900  1
  O  O59  1  0.85094300  0.78486700  0.00282500  1
  O  O60  1  0.28486700  0.50282500  0.64905700  1
  O  O61  1  0.99521100  0.34360000  0.73737800  1
  O  O62  1  0.99717500  0.14905700  0.78486700  1
  O  O63  1  0.50478900  0.84360000  0.23737800  1
  O  O64  1  0.76262200  0.50478900  0.15640000  1
  O  O65  1  0.00282500  0.14905700  0.21513300  1
  O  O66  1  0.15640000  0.23737800  0.49521100  1
  O  O67  1  0.73737800  0.99521100  0.34360000  1
  O  O68  1  0.34360000  0.26262200  0.00478900  1
  O  O69  1  0.28486700  0.49717500  0.35094300  1
  O  O70  1  0.50282500  0.35094300  0.71513300  1
  O  O71  1  0.35094300  0.71513300  0.50282500  1
  O  O72  1  0.00478900  0.65640000  0.73737800  1
  O  O73  1  0.49717500  0.64905700  0.71513300  1
  O  O74  1  0.49521100  0.84360000  0.76262200  1
  O  O75  1  0.26262200  0.00478900  0.34360000  1
  O  O76  1  0.50282500  0.64905700  0.28486700  1
  O  O77  1  0.49521100  0.15640000  0.23737800  1
  O  O78  1  0.73737800  0.00478900  0.65640000  1
  O  O79  1  0.23737800  0.50478900  0.84360000  1
  O  O80  1  0.85094300  0.21513300  0.99717500  1
  O  O81  1  0.00282500  0.85094300  0.78486700  1
  O  O82  1  0.21513300  0.00282500  0.14905700  1
  O  O83  1  0.35094300  0.28486700  0.49717500  1
  O  O84  1  0.23737800  0.49521100  0.15640000  1
  O  O85  1  0.71513300  0.49717500  0.64905700  1
  O  O86  1  0.49717500  0.35094300  0.28486700  1
  O  O87  1  0.21513300  0.99717500  0.85094300  1
