# generated using pymatgen
data_KSm2Cl5
_symmetry_space_group_name_H-M   'P 1'
_cell_length_a   7.12424000
_cell_length_b   8.65881300
_cell_length_c   13.36956939
_cell_angle_alpha   89.91890048
_cell_angle_beta   90.00000000
_cell_angle_gamma   90.00000000
_symmetry_Int_Tables_number   1
_chemical_formula_structural   KSm2Cl5
_chemical_formula_sum   'K4 Sm8 Cl20'
_cell_volume   824.73397673
_cell_formula_units_Z   4
loop_
 _symmetry_equiv_pos_site_id
 _symmetry_equiv_pos_as_xyz
  1  'x, y, z'
loop_
 _atom_site_type_symbol
 _atom_site_label
 _atom_site_symmetry_multiplicity
 _atom_site_fract_x
 _atom_site_fract_y
 _atom_site_fract_z
 _atom_site_occupancy
  K  K0  1  0.05302300  0.49875400  0.83283600  1
  K  K1  1  0.55302300  0.50124600  0.66716400  1
  K  K2  1  0.94697700  0.50124600  0.16716400  1
  K  K3  1  0.44697700  0.49875400  0.33283600  1
  Sm  Sm4  1  0.47000400  0.20550000  0.99979200  1
  Sm  Sm5  1  0.52999600  0.79450000  0.00020800  1
  Sm  Sm6  1  0.89783000  0.00864900  0.15797300  1
  Sm  Sm7  1  0.97000400  0.79450000  0.50020800  1
  Sm  Sm8  1  0.39783000  0.99135100  0.34202700  1
  Sm  Sm9  1  0.02999600  0.20550000  0.49979200  1
  Sm  Sm10  1  0.60217000  0.00864900  0.65797300  1
  Sm  Sm11  1  0.10217000  0.99135100  0.84202700  1
  Cl  Cl12  1  0.32900300  0.52450000  0.07769200  1
  Cl  Cl13  1  0.67099700  0.47550000  0.92230800  1
  Cl  Cl14  1  0.54813600  0.79303800  0.49976700  1
  Cl  Cl15  1  0.66150400  0.76166300  0.20418600  1
  Cl  Cl16  1  0.16150400  0.23833700  0.29581400  1
  Cl  Cl17  1  0.82900300  0.47550000  0.42230800  1
  Cl  Cl18  1  0.45186400  0.20696200  0.50023300  1
  Cl  Cl19  1  0.69230300  0.02367200  0.86555400  1
  Cl  Cl20  1  0.33849600  0.23833700  0.79581400  1
  Cl  Cl21  1  0.04813600  0.20696200  0.00023300  1
  Cl  Cl22  1  0.35174300  0.75078000  0.81381500  1
  Cl  Cl23  1  0.14825700  0.75078000  0.31381500  1
  Cl  Cl24  1  0.85174300  0.24922000  0.68618500  1
  Cl  Cl25  1  0.83849600  0.76166300  0.70418600  1
  Cl  Cl26  1  0.30769700  0.97632800  0.13444600  1
  Cl  Cl27  1  0.17099700  0.52450000  0.57769200  1
  Cl  Cl28  1  0.95186400  0.79303800  0.99976700  1
  Cl  Cl29  1  0.64825700  0.24922000  0.18618500  1
  Cl  Cl30  1  0.80769700  0.02367200  0.36555400  1
  Cl  Cl31  1  0.19230300  0.97632800  0.63444600  1
