# generated using pymatgen
data_CrC7N2O5
_symmetry_space_group_name_H-M   'P 1'
_cell_length_a   13.72943900
_cell_length_b   6.49287800
_cell_length_c   12.07024233
_cell_angle_alpha   90.00000000
_cell_angle_beta   96.84373110
_cell_angle_gamma   90.00000000
_symmetry_Int_Tables_number   1
_chemical_formula_structural   CrC7N2O5
_chemical_formula_sum   'Cr4 C28 N8 O20'
_cell_volume   1068.31796652
_cell_formula_units_Z   4
loop_
 _symmetry_equiv_pos_site_id
 _symmetry_equiv_pos_as_xyz
  1  'x, y, z'
loop_
 _atom_site_type_symbol
 _atom_site_label
 _atom_site_symmetry_multiplicity
 _atom_site_fract_x
 _atom_site_fract_y
 _atom_site_fract_z
 _atom_site_occupancy
  Cr  Cr0  1  0.71226300  0.55191500  0.90028200  1
  Cr  Cr1  1  0.28773700  0.05191500  0.59971800  1
  Cr  Cr2  1  0.28773700  0.44808500  0.09971800  1
  Cr  Cr3  1  0.71226300  0.94808500  0.40028200  1
  C  C4  1  0.28912500  0.69898400  0.01431300  1
  C  C5  1  0.19077500  0.55639900  0.18188700  1
  C  C6  1  0.71669900  0.80075800  0.81479200  1
  C  C7  1  0.71087500  0.19898400  0.48568700  1
  C  C8  1  0.80626600  0.83413400  0.51619200  1
  C  C9  1  0.80922500  0.44360100  0.81811300  1
  C  C10  1  0.61010700  0.05652600  0.29455400  1
  C  C11  1  0.80922500  0.05639900  0.31811300  1
  C  C12  1  0.71087500  0.30101600  0.98568700  1
  C  C13  1  0.71669900  0.69924200  0.31479200  1
  C  C14  1  0.28330100  0.19924200  0.18520800  1
  C  C15  1  0.93990400  0.18185300  0.20730400  1
  C  C16  1  0.61354800  0.83046100  0.48144800  1
  C  C17  1  0.19077500  0.94360100  0.68188700  1
  C  C18  1  0.28330100  0.30075800  0.68520800  1
  C  C19  1  0.06009600  0.81814700  0.79269600  1
  C  C20  1  0.19373400  0.33413400  0.98380800  1
  C  C21  1  0.06009600  0.68185300  0.29269600  1
  C  C22  1  0.38989300  0.55652600  0.20544600  1
  C  C23  1  0.61354800  0.66953900  0.98144800  1
  C  C24  1  0.38645200  0.16953900  0.51855200  1
  C  C25  1  0.19373400  0.16586600  0.48380800  1
  C  C26  1  0.38989300  0.94347400  0.70544600  1
  C  C27  1  0.80626600  0.66586600  0.01619200  1
  C  C28  1  0.38645200  0.33046100  0.01855200  1
  C  C29  1  0.61010700  0.44347400  0.79455400  1
  C  C30  1  0.93990400  0.31814700  0.70730400  1
  C  C31  1  0.28912500  0.80101600  0.51431300  1
  N  N32  1  0.87466400  0.38136400  0.76156100  1
  N  N33  1  0.03853500  0.72875000  0.01740100  1
  N  N34  1  0.96146500  0.27125000  0.98259900  1
  N  N35  1  0.87466400  0.11863600  0.26156100  1
  N  N36  1  0.12533600  0.61863600  0.23843900  1
  N  N37  1  0.96146500  0.22875000  0.48259900  1
  N  N38  1  0.03853500  0.77125000  0.51740100  1
  N  N39  1  0.12533600  0.88136400  0.73843900  1
  O  O40  1  0.28106100  0.04947000  0.23686700  1
  O  O41  1  0.85698700  0.73539000  0.08994300  1
  O  O42  1  0.44450800  0.25891700  0.96794200  1
  O  O43  1  0.54722200  0.37999000  0.73112400  1
  O  O44  1  0.28837600  0.65185400  0.46169900  1
  O  O45  1  0.85698700  0.76461000  0.58994300  1
  O  O46  1  0.54722200  0.12001000  0.23112400  1
  O  O47  1  0.28837600  0.84814600  0.96169900  1
  O  O48  1  0.45277800  0.62001000  0.26887600  1
  O  O49  1  0.55549200  0.74108300  0.03205800  1
  O  O50  1  0.71893900  0.54947000  0.26313300  1
  O  O51  1  0.45277800  0.87999000  0.76887600  1
  O  O52  1  0.71893900  0.95053000  0.76313300  1
  O  O53  1  0.14301300  0.26461000  0.91005700  1
  O  O54  1  0.44450800  0.24108300  0.46794200  1
  O  O55  1  0.71162400  0.15185400  0.03830100  1
  O  O56  1  0.14301300  0.23539000  0.41005700  1
  O  O57  1  0.55549200  0.75891700  0.53205800  1
  O  O58  1  0.28106100  0.45053000  0.73686700  1
  O  O59  1  0.71162400  0.34814600  0.53830100  1
