# generated using pymatgen
data_CdI2
_symmetry_space_group_name_H-M   'P 1'
_cell_length_a   4.33444657
_cell_length_b   4.33444657
_cell_length_c   127.15438700
_cell_angle_alpha   90.00000000
_cell_angle_beta   90.00000000
_cell_angle_gamma   120.00000863
_symmetry_Int_Tables_number   1
_chemical_formula_structural   CdI2
_chemical_formula_sum   'Cd17 I34'
_cell_volume   2068.85116948
_cell_formula_units_Z   17
loop_
 _symmetry_equiv_pos_site_id
 _symmetry_equiv_pos_as_xyz
  1  'x, y, z'
loop_
 _atom_site_type_symbol
 _atom_site_label
 _atom_site_symmetry_multiplicity
 _atom_site_fract_x
 _atom_site_fract_y
 _atom_site_fract_z
 _atom_site_occupancy
  Cd  Cd0  1  0.00000000  0.00000000  0.60296500  1
  Cd  Cd1  1  0.00000000  0.00000000  0.72057000  1
  Cd  Cd2  1  0.66666700  0.33333300  0.36767400  1
  Cd  Cd3  1  0.00000000  0.00000000  0.48528200  1
  Cd  Cd4  1  0.00000000  0.00000000  0.95585800  1
  Cd  Cd5  1  0.00000000  0.00000000  0.54414600  1
  Cd  Cd6  1  0.00000000  0.00000000  0.89703500  1
  Cd  Cd7  1  0.00000000  0.00000000  0.30881100  1
  Cd  Cd8  1  0.66666700  0.33333300  0.25000800  1
  Cd  Cd9  1  0.00000000  0.00000000  0.83822700  1
  Cd  Cd10  1  0.00000000  0.00000000  0.42646700  1
  Cd  Cd11  1  0.00000000  0.00000000  0.66176800  1
  Cd  Cd12  1  0.66666700  0.33333300  0.01472200  1
  Cd  Cd13  1  0.66666700  0.33333300  0.13236100  1
  Cd  Cd14  1  0.00000000  0.00000000  0.07352200  1
  Cd  Cd15  1  0.00000000  0.00000000  0.77940300  1
  Cd  Cd16  1  0.00000000  0.00000000  0.19117500  1
  I  I17  1  0.33333300  0.66666700  0.32237600  1
  I  I18  1  0.33333300  0.66666700  0.44003300  1
  I  I19  1  0.33333300  0.66666700  0.55770700  1
  I  I20  1  0.66666700  0.33333300  0.47171200  1
  I  I21  1  0.66666700  0.33333300  0.58939300  1
  I  I22  1  0.66666700  0.33333300  0.88347100  1
  I  I23  1  0.33333300  0.66666700  0.14592700  1
  I  I24  1  0.66666700  0.33333300  0.17761000  1
  I  I25  1  0.66666700  0.33333300  0.64821200  1
  I  I26  1  0.00000000  0.00000000  0.23645100  1
  I  I27  1  0.33333300  0.66666700  0.20474200  1
  I  I28  1  0.33333300  0.66666700  0.67532900  1
  I  I29  1  0.00000000  0.00000000  0.11879700  1
  I  I30  1  0.33333300  0.66666700  0.38123500  1
  I  I31  1  0.66666700  0.33333300  0.41289600  1
  I  I32  1  0.66666700  0.33333300  0.05995900  1
  I  I33  1  0.66666700  0.33333300  0.94229700  1
  I  I34  1  0.33333300  0.66666700  0.02829000  1
  I  I35  1  0.00000000  0.00000000  0.00115600  1
  I  I36  1  0.66666700  0.33333300  0.53058200  1
  I  I37  1  0.00000000  0.00000000  0.35411400  1
  I  I38  1  0.33333300  0.66666700  0.61652600  1
  I  I39  1  0.66666700  0.33333300  0.70700900  1
  I  I40  1  0.33333300  0.66666700  0.91060900  1
  I  I41  1  0.33333300  0.66666700  0.08709000  1
  I  I42  1  0.33333300  0.66666700  0.79296700  1
  I  I43  1  0.66666700  0.33333300  0.29524700  1
  I  I44  1  0.66666700  0.33333300  0.82466700  1
  I  I45  1  0.33333300  0.66666700  0.96942700  1
  I  I46  1  0.66666700  0.33333300  0.76585500  1
  I  I47  1  0.33333300  0.66666700  0.73412100  1
  I  I48  1  0.33333300  0.66666700  0.26356900  1
  I  I49  1  0.33333300  0.66666700  0.85178400  1
  I  I50  1  0.33333300  0.66666700  0.49884300  1
