# generated using pymatgen
data_HgN6
_symmetry_space_group_name_H-M   'P 1'
_cell_length_a   6.42729000
_cell_length_b   6.76456800
_cell_length_c   11.05247000
_cell_angle_alpha   90.00000000
_cell_angle_beta   90.00000000
_cell_angle_gamma   90.00000000
_symmetry_Int_Tables_number   1
_chemical_formula_structural   HgN6
_chemical_formula_sum   'Hg4 N24'
_cell_volume   480.53752515
_cell_formula_units_Z   4
loop_
 _symmetry_equiv_pos_site_id
 _symmetry_equiv_pos_as_xyz
  1  'x, y, z'
loop_
 _atom_site_type_symbol
 _atom_site_label
 _atom_site_symmetry_multiplicity
 _atom_site_fract_x
 _atom_site_fract_y
 _atom_site_fract_z
 _atom_site_occupancy
  Hg  Hg0  1  0.23981200  0.93629700  0.52964000  1
  Hg  Hg1  1  0.76018800  0.43629700  0.47036000  1
  Hg  Hg2  1  0.23981200  0.43629700  0.97036000  1
  Hg  Hg3  1  0.76018800  0.93629700  0.02964000  1
  N  N4  1  0.96506500  0.07726200  0.58036200  1
  N  N5  1  0.03493500  0.57726200  0.41963800  1
  N  N6  1  0.96506500  0.57726200  0.91963800  1
  N  N7  1  0.03493500  0.07726200  0.08036200  1
  N  N8  1  0.90019800  0.06951400  0.68369400  1
  N  N9  1  0.09980200  0.56951400  0.31630600  1
  N  N10  1  0.90019800  0.56951400  0.81630600  1
  N  N11  1  0.09980200  0.06951400  0.18369400  1
  N  N12  1  0.82164400  0.07440400  0.77794400  1
  N  N13  1  0.17835600  0.57440400  0.22205600  1
  N  N14  1  0.82164400  0.57440400  0.72205600  1
  N  N15  1  0.17835600  0.07440400  0.27794400  1
  N  N16  1  0.51687800  0.81422400  0.46293800  1
  N  N17  1  0.48312200  0.31422400  0.53706200  1
  N  N18  1  0.51687800  0.31422400  0.03706200  1
  N  N19  1  0.48312200  0.81422400  0.96293800  1
  N  N20  1  0.59874600  0.91539000  0.38494300  1
  N  N21  1  0.40125400  0.41539000  0.61505700  1
  N  N22  1  0.59874600  0.41539000  0.11505700  1
  N  N23  1  0.40125400  0.91539000  0.88494300  1
  N  N24  1  0.68757500  0.00270900  0.31110900  1
  N  N25  1  0.31242500  0.50270900  0.68889100  1
  N  N26  1  0.68757500  0.50270900  0.18889100  1
  N  N27  1  0.31242500  0.00270900  0.81110900  1
