# generated using pymatgen
data_Dy4Ni12Sn25
_symmetry_space_group_name_H-M   'P 1'
_cell_length_a   10.35010862
_cell_length_b   10.35010862
_cell_length_c   10.35010862
_cell_angle_alpha   109.47122063
_cell_angle_beta   109.47122063
_cell_angle_gamma   109.47122063
_symmetry_Int_Tables_number   1
_chemical_formula_structural   Dy4Ni12Sn25
_chemical_formula_sum   'Dy4 Ni12 Sn25'
_cell_volume   853.51829067
_cell_formula_units_Z   1
loop_
 _symmetry_equiv_pos_site_id
 _symmetry_equiv_pos_as_xyz
  1  'x, y, z'
loop_
 _atom_site_type_symbol
 _atom_site_label
 _atom_site_symmetry_multiplicity
 _atom_site_fract_x
 _atom_site_fract_y
 _atom_site_fract_z
 _atom_site_occupancy
  Dy  Dy0  1  0.50000000  0.50000000  0.50000000  1
  Dy  Dy1  1  0.00000000  0.50000000  0.00000000  1
  Dy  Dy2  1  0.50000000  0.00000000  0.00000000  1
  Dy  Dy3  1  0.00000000  0.00000000  0.50000000  1
  Ni  Ni4  1  0.31995500  0.15706000  0.83710500  1
  Ni  Ni5  1  0.31995500  0.48285000  0.16289500  1
  Ni  Ni6  1  0.48285000  0.16289500  0.31995500  1
  Ni  Ni7  1  0.51715000  0.83710500  0.68004500  1
  Ni  Ni8  1  0.83710500  0.31995500  0.15706000  1
  Ni  Ni9  1  0.83710500  0.68004500  0.51715000  1
  Ni  Ni10  1  0.68004500  0.84294000  0.16289500  1
  Ni  Ni11  1  0.16289500  0.68004500  0.84294000  1
  Ni  Ni12  1  0.15706000  0.83710500  0.31995500  1
  Ni  Ni13  1  0.68004500  0.51715000  0.83710500  1
  Ni  Ni14  1  0.84294000  0.16289500  0.68004500  1
  Ni  Ni15  1  0.16289500  0.31995500  0.48285000  1
  Sn  Sn16  1  0.87342300  0.62482000  0.75139700  1
  Sn  Sn17  1  0.62482000  0.75139700  0.87342300  1
  Sn  Sn18  1  0.37257900  0.74329300  0.37071400  1
  Sn  Sn19  1  0.37257900  0.00186500  0.62928600  1
  Sn  Sn20  1  0.12657700  0.87797300  0.75139700  1
  Sn  Sn21  1  0.24860300  0.12657700  0.37518000  1
  Sn  Sn22  1  0.37518000  0.24860300  0.12657700  1
  Sn  Sn23  1  0.37071400  0.62742100  0.99813500  1
  Sn  Sn24  1  0.62742100  0.25670700  0.62928600  1
  Sn  Sn25  1  0.87342300  0.12202700  0.24860300  1
  Sn  Sn26  1  0.99813500  0.37071400  0.62742100  1
  Sn  Sn27  1  0.24860300  0.87342300  0.12202700  1
  Sn  Sn28  1  0.12657700  0.37518000  0.24860300  1
  Sn  Sn29  1  0.62928600  0.62742100  0.25670700  1
  Sn  Sn30  1  0.75139700  0.12657700  0.87797300  1
  Sn  Sn31  1  0.00000000  0.00000000  0.00000000  1
  Sn  Sn32  1  0.75139700  0.87342300  0.62482000  1
  Sn  Sn33  1  0.62928600  0.37257900  0.00186500  1
  Sn  Sn34  1  0.00186500  0.62928600  0.37257900  1
  Sn  Sn35  1  0.87797300  0.75139700  0.12657700  1
  Sn  Sn36  1  0.37071400  0.37257900  0.74329300  1
  Sn  Sn37  1  0.25670800  0.62928600  0.62742100  1
  Sn  Sn38  1  0.74329300  0.37071400  0.37257900  1
  Sn  Sn39  1  0.12202700  0.24860300  0.87342300  1
  Sn  Sn40  1  0.62742100  0.99813500  0.37071400  1
