# generated using pymatgen
data_Ba(ZnAs)2
_symmetry_space_group_name_H-M   'P 1'
_cell_length_a   7.44218265
_cell_length_b   7.44218265
_cell_length_c   7.44218265
_cell_angle_alpha   147.49898372
_cell_angle_beta   147.49898372
_cell_angle_gamma   46.62551919
_symmetry_Int_Tables_number   1
_chemical_formula_structural   Ba(ZnAs)2
_chemical_formula_sum   'Ba1 Zn2 As2'
_cell_volume   118.57278495
_cell_formula_units_Z   1
loop_
 _symmetry_equiv_pos_site_id
 _symmetry_equiv_pos_as_xyz
  1  'x, y, z'
loop_
 _atom_site_type_symbol
 _atom_site_label
 _atom_site_symmetry_multiplicity
 _atom_site_fract_x
 _atom_site_fract_y
 _atom_site_fract_z
 _atom_site_occupancy
  Ba  Ba0  1  0.00000000  0.00000000  0.00000000  1
  Zn  Zn1  1  0.75000000  0.25000000  0.50000000  1
  Zn  Zn2  1  0.25000000  0.75000000  0.50000000  1
  As  As3  1  0.63592700  0.63592700  0.00000000  1
  As  As4  1  0.36407300  0.36407300  0.00000000  1
