# generated using pymatgen
data_SnH16C4(Br3N)2
_symmetry_space_group_name_H-M   'P 1'
_cell_length_a   7.74246800
_cell_length_b   7.77723600
_cell_length_c   15.13976000
_cell_angle_alpha   90.00000000
_cell_angle_beta   90.00000000
_cell_angle_gamma   90.00000000
_symmetry_Int_Tables_number   1
_chemical_formula_structural   SnH16C4(Br3N)2
_chemical_formula_sum   'Sn2 H32 C8 Br12 N4'
_cell_volume   911.64066140
_cell_formula_units_Z   2
loop_
 _symmetry_equiv_pos_site_id
 _symmetry_equiv_pos_as_xyz
  1  'x, y, z'
loop_
 _atom_site_type_symbol
 _atom_site_label
 _atom_site_symmetry_multiplicity
 _atom_site_fract_x
 _atom_site_fract_y
 _atom_site_fract_z
 _atom_site_occupancy
  Sn  Sn0  1  0.50000000  0.50000000  0.50000000  1
  Sn  Sn1  1  0.00000000  0.00000000  0.00000000  1
  H  H2  1  0.61552800  0.85442300  0.73906500  1
  H  H3  1  0.60632400  0.13843300  0.10047200  1
  H  H4  1  0.61552800  0.14557700  0.26093500  1
  H  H5  1  0.00000000  0.91903100  0.43203500  1
  H  H6  1  0.89367600  0.36156700  0.60047200  1
  H  H7  1  0.88400300  0.08136100  0.67054800  1
  H  H8  1  0.50000000  0.03707300  0.78187500  1
  H  H9  1  0.50000000  0.96292700  0.21812500  1
  H  H10  1  0.50000000  0.41903100  0.06796500  1
  H  H11  1  0.11599700  0.91863900  0.32945200  1
  H  H12  1  0.38400300  0.41863900  0.17054800  1
  H  H13  1  0.89367600  0.63843300  0.39952800  1
  H  H14  1  0.11552800  0.64557700  0.23906500  1
  H  H15  1  0.39367600  0.86156700  0.89952800  1
  H  H16  1  0.00000000  0.46292700  0.28187500  1
  H  H17  1  0.61599700  0.41863900  0.17054800  1
  H  H18  1  0.38447200  0.14557700  0.26093500  1
  H  H19  1  0.11599700  0.08136100  0.67054800  1
  H  H20  1  0.10632400  0.63843300  0.39952800  1
  H  H21  1  0.50000000  0.58096900  0.93203500  1
  H  H22  1  0.61599700  0.58136100  0.82945200  1
  H  H23  1  0.38447200  0.85442300  0.73906500  1
  H  H24  1  0.00000000  0.08096900  0.56796500  1
  H  H25  1  0.88447200  0.35442300  0.76093500  1
  H  H26  1  0.39367600  0.13843300  0.10047200  1
  H  H27  1  0.10632400  0.36156700  0.60047200  1
  H  H28  1  0.88400300  0.91863900  0.32945200  1
  H  H29  1  0.11552800  0.35442300  0.76093500  1
  H  H30  1  0.00000000  0.53707300  0.71812500  1
  H  H31  1  0.38400300  0.58136100  0.82945200  1
  H  H32  1  0.60632400  0.86156700  0.89952800  1
  H  H33  1  0.88447200  0.64557700  0.23906500  1
  C  C34  1  0.50000000  0.89711100  0.77455100  1
  C  C35  1  0.00000000  0.87370400  0.36369000  1
  C  C36  1  0.00000000  0.12629600  0.63631000  1
  C  C37  1  0.00000000  0.39711100  0.72544900  1
  C  C38  1  0.50000000  0.37370400  0.13631000  1
  C  C39  1  0.50000000  0.62629600  0.86369000  1
  C  C40  1  0.50000000  0.10288900  0.22544900  1
  C  C41  1  0.00000000  0.60288900  0.27455100  1
  Br  Br42  1  0.00000000  0.18327100  0.14789700  1
  Br  Br43  1  0.25302700  0.69947700  0.56593200  1
  Br  Br44  1  0.74697300  0.30052300  0.43406800  1
  Br  Br45  1  0.50000000  0.31672900  0.64789700  1
  Br  Br46  1  0.24697300  0.19947700  0.93406800  1
  Br  Br47  1  0.50000000  0.68327100  0.35210300  1
  Br  Br48  1  0.75302700  0.19947700  0.93406800  1
  Br  Br49  1  0.24697300  0.80052300  0.06593200  1
  Br  Br50  1  0.75302700  0.80052300  0.06593200  1
  Br  Br51  1  0.00000000  0.81672900  0.85210300  1
  Br  Br52  1  0.25302700  0.30052300  0.43406800  1
  Br  Br53  1  0.74697300  0.69947700  0.56593200  1
  N  N54  1  0.00000000  0.68187100  0.36435000  1
  N  N55  1  0.00000000  0.31812900  0.63565000  1
  N  N56  1  0.50000000  0.81812900  0.86435000  1
  N  N57  1  0.50000000  0.18187100  0.13565000  1
