# generated using pymatgen
data_TeMo2Se2S
_symmetry_space_group_name_H-M   'P 1'
_cell_length_a   3.34434189
_cell_length_b   3.34434189
_cell_length_c   37.99416100
_cell_angle_alpha   90.00000000
_cell_angle_beta   90.00000000
_cell_angle_gamma   119.99999776
_symmetry_Int_Tables_number   1
_chemical_formula_structural   TeMo2Se2S
_chemical_formula_sum   'Te2 Mo4 Se4 S2'
_cell_volume   368.01781011
_cell_formula_units_Z   2
loop_
 _symmetry_equiv_pos_site_id
 _symmetry_equiv_pos_as_xyz
  1  'x, y, z'
loop_
 _atom_site_type_symbol
 _atom_site_label
 _atom_site_symmetry_multiplicity
 _atom_site_fract_x
 _atom_site_fract_y
 _atom_site_fract_z
 _atom_site_occupancy
  Te  Te0  1  0.33333300  0.66666700  0.70745800  1
  Te  Te1  1  0.33333300  0.66666700  0.60761500  1
  Mo  Mo2  1  0.33333300  0.66666700  0.09390900  1
  Mo  Mo3  1  0.33333300  0.66666700  0.46964900  1
  Mo  Mo4  1  0.66666700  0.33333300  0.28180700  1
  Mo  Mo5  1  0.66666700  0.33333300  0.65755600  1
  Se  Se6  1  0.33333300  0.66666700  0.32566900  1
  Se  Se7  1  0.66666700  0.33333300  0.05006200  1
  Se  Se8  1  0.66666700  0.33333300  0.13776500  1
  Se  Se9  1  0.33333300  0.66666700  0.23794200  1
  S  S10  1  0.66666700  0.33333300  0.42973600  1
  S  S11  1  0.66666700  0.33333300  0.50958000  1
