# generated using pymatgen
data_Yb3Pt4
_symmetry_space_group_name_H-M   'P 1'
_cell_length_a   7.75421955
_cell_length_b   7.75421955
_cell_length_c   7.75421860
_cell_angle_alpha   114.26271537
_cell_angle_beta   114.26271537
_cell_angle_gamma   114.26271699
_symmetry_Int_Tables_number   1
_chemical_formula_structural   Yb3Pt4
_chemical_formula_sum   'Yb6 Pt8'
_cell_volume   277.66374403
_cell_formula_units_Z   2
loop_
 _symmetry_equiv_pos_site_id
 _symmetry_equiv_pos_as_xyz
  1  'x, y, z'
loop_
 _atom_site_type_symbol
 _atom_site_label
 _atom_site_symmetry_multiplicity
 _atom_site_fract_x
 _atom_site_fract_y
 _atom_site_fract_z
 _atom_site_occupancy
  Yb  Yb0  1  0.60082000  0.72192600  0.97894500  1
  Yb  Yb1  1  0.27807400  0.02105500  0.39918000  1
  Yb  Yb2  1  0.72192600  0.97894500  0.60082000  1
  Yb  Yb3  1  0.39918000  0.27807400  0.02105500  1
  Yb  Yb4  1  0.97894500  0.60082000  0.72192600  1
  Yb  Yb5  1  0.02105500  0.39918000  0.27807400  1
  Pt  Pt6  1  0.55506800  0.06428100  0.22828900  1
  Pt  Pt7  1  0.93571900  0.77171100  0.44493200  1
  Pt  Pt8  1  0.06428100  0.22828900  0.55506800  1
  Pt  Pt9  1  0.22828900  0.55506800  0.06428100  1
  Pt  Pt10  1  0.77171100  0.44493200  0.93571900  1
  Pt  Pt11  1  0.44493200  0.93571900  0.77171100  1
  Pt  Pt12  1  0.50000000  0.50000000  0.50000000  1
  Pt  Pt13  1  0.00000000  0.00000000  0.00000000  1
