# generated using pymatgen
data_Sr4Nb2O9
_symmetry_space_group_name_H-M   'P 1'
_cell_length_a   5.93270800
_cell_length_b   5.96043175
_cell_length_c   15.81185849
_cell_angle_alpha   89.99844169
_cell_angle_beta   90.02231048
_cell_angle_gamma   119.79587510
_symmetry_Int_Tables_number   1
_chemical_formula_structural   Sr4Nb2O9
_chemical_formula_sum   'Sr8 Nb4 O18'
_cell_volume   485.21456839
_cell_formula_units_Z   2
loop_
 _symmetry_equiv_pos_site_id
 _symmetry_equiv_pos_as_xyz
  1  'x, y, z'
loop_
 _atom_site_type_symbol
 _atom_site_label
 _atom_site_symmetry_multiplicity
 _atom_site_fract_x
 _atom_site_fract_y
 _atom_site_fract_z
 _atom_site_occupancy
  Sr  Sr0  1  0.33673500  0.64085300  0.13305900  1
  Sr  Sr1  1  0.66326500  0.35914700  0.86694100  1
  Sr  Sr2  1  0.00371000  0.99116300  0.25243000  1
  Sr  Sr3  1  0.99629000  0.00883700  0.74757000  1
  Sr  Sr4  1  0.00000000  0.00000000  0.00000000  1
  Sr  Sr5  1  0.00000000  0.00000000  0.50000000  1
  Sr  Sr6  1  0.66583900  0.33965500  0.64346700  1
  Sr  Sr7  1  0.33416100  0.66034500  0.35653300  1
  Nb  Nb8  1  0.66874200  0.32444700  0.34363900  1
  Nb  Nb9  1  0.33125800  0.67555300  0.65636100  1
  Nb  Nb10  1  0.33693100  0.69433500  0.84910500  1
  Nb  Nb11  1  0.66306900  0.30566500  0.15089500  1
  O  O12  1  0.65239000  0.92756400  0.60534900  1
  O  O13  1  0.34761000  0.07243600  0.39465100  1
  O  O14  1  0.07621200  0.73803000  0.60508900  1
  O  O15  1  0.92378800  0.26197000  0.39491100  1
  O  O16  1  0.27254100  0.36237300  0.60328300  1
  O  O17  1  0.72745900  0.63762700  0.39671700  1
  O  O18  1  0.96021600  0.54409600  0.24764300  1
  O  O19  1  0.03978400  0.45590400  0.75235700  1
  O  O20  1  0.44936600  0.39376500  0.24379800  1
  O  O21  1  0.55063400  0.60623500  0.75620200  1
  O  O22  1  0.58832200  0.01583800  0.25044400  1
  O  O23  1  0.41167800  0.98416200  0.74955600  1
  O  O24  1  0.35374300  0.04677900  0.09793300  1
  O  O25  1  0.64625700  0.95322100  0.90206700  1
  O  O26  1  0.92633600  0.23212900  0.11221100  1
  O  O27  1  0.07366400  0.76787100  0.88778900  1
  O  O28  1  0.72236700  0.59902400  0.08614900  1
  O  O29  1  0.27763300  0.40097600  0.91385100  1
