# generated using pymatgen
data_CaCl2
_symmetry_space_group_name_H-M   'P 1'
_cell_length_a   5.14143200
_cell_length_b   7.62454200
_cell_length_c   11.57787800
_cell_angle_alpha   90.00000000
_cell_angle_beta   90.00000000
_cell_angle_gamma   90.00000000
_symmetry_Int_Tables_number   1
_chemical_formula_structural   CaCl2
_chemical_formula_sum   'Ca4 Cl8'
_cell_volume   453.86513906
_cell_formula_units_Z   4
loop_
 _symmetry_equiv_pos_site_id
 _symmetry_equiv_pos_as_xyz
  1  'x, y, z'
loop_
 _atom_site_type_symbol
 _atom_site_label
 _atom_site_symmetry_multiplicity
 _atom_site_fract_x
 _atom_site_fract_y
 _atom_site_fract_z
 _atom_site_occupancy
  Ca  Ca0  1  0.25000000  0.35995600  0.61860000  1
  Ca  Ca1  1  0.25000000  0.85995600  0.88140000  1
  Ca  Ca2  1  0.75000000  0.64004400  0.38140000  1
  Ca  Ca3  1  0.75000000  0.14004400  0.11860000  1
  Cl  Cl4  1  0.75000000  0.47258000  0.18452500  1
  Cl  Cl5  1  0.25000000  0.02742000  0.68452500  1
  Cl  Cl6  1  0.25000000  0.52742000  0.81547500  1
  Cl  Cl7  1  0.75000000  0.97258000  0.31547500  1
  Cl  Cl8  1  0.75000000  0.35863400  0.53687800  1
  Cl  Cl9  1  0.25000000  0.64136600  0.46312200  1
  Cl  Cl10  1  0.75000000  0.85863400  0.96312200  1
  Cl  Cl11  1  0.25000000  0.14136600  0.03687800  1
