# generated using pymatgen
data_SbH16C4N2Cl5
_symmetry_space_group_name_H-M   'P 1'
_cell_length_a   8.74704500
_cell_length_b   12.14475400
_cell_length_c   14.97061200
_cell_angle_alpha   90.00000000
_cell_angle_beta   90.00000000
_cell_angle_gamma   90.00000000
_symmetry_Int_Tables_number   1
_chemical_formula_structural   SbH16C4N2Cl5
_chemical_formula_sum   'Sb4 H64 C16 N8 Cl20'
_cell_volume   1590.33873818
_cell_formula_units_Z   4
loop_
 _symmetry_equiv_pos_site_id
 _symmetry_equiv_pos_as_xyz
  1  'x, y, z'
loop_
 _atom_site_type_symbol
 _atom_site_label
 _atom_site_symmetry_multiplicity
 _atom_site_fract_x
 _atom_site_fract_y
 _atom_site_fract_z
 _atom_site_occupancy
  Sb  Sb0  1  0.30359600  0.75000000  0.90412300  1
  Sb  Sb1  1  0.80359600  0.75000000  0.59587700  1
  Sb  Sb2  1  0.19640400  0.25000000  0.40412300  1
  Sb  Sb3  1  0.69640400  0.25000000  0.09587700  1
  H  H4  1  0.45675700  0.58899800  0.18389600  1
  H  H5  1  0.12626400  0.11868200  0.06760500  1
  H  H6  1  0.36564300  0.40712000  0.14541600  1
  H  H7  1  0.10060100  0.41532200  0.18300600  1
  H  H8  1  0.65746700  0.50382800  0.93941400  1
  H  H9  1  0.65746700  0.99617200  0.93941400  1
  H  H10  1  0.26762300  0.64046200  0.16422600  1
  H  H11  1  0.07443600  0.51890300  0.09794200  1
  H  H12  1  0.76762300  0.64046200  0.33577400  1
  H  H13  1  0.54324300  0.08899800  0.81610400  1
  H  H14  1  0.57443600  0.98109700  0.40205800  1
  H  H15  1  0.19917600  0.04477100  0.75431200  1
  H  H16  1  0.23237700  0.35953800  0.66422600  1
  H  H17  1  0.69917600  0.04477100  0.74568800  1
  H  H18  1  0.86564300  0.40712000  0.35458400  1
  H  H19  1  0.84253300  0.00382800  0.43941400  1
  H  H20  1  0.15746700  0.50382800  0.56058600  1
  H  H21  1  0.87373600  0.88131800  0.93239500  1
  H  H22  1  0.63435700  0.90712000  0.85458400  1
  H  H23  1  0.73237700  0.35953800  0.83577400  1
  H  H24  1  0.62626400  0.11868200  0.43239500  1
  H  H25  1  0.84253300  0.49617200  0.43941400  1
  H  H26  1  0.57443600  0.51890300  0.40205800  1
  H  H27  1  0.04324300  0.41100200  0.68389600  1
  H  H28  1  0.45675700  0.91100200  0.18389600  1
  H  H29  1  0.26762300  0.85953800  0.16422600  1
  H  H30  1  0.23237700  0.14046200  0.66422600  1
  H  H31  1  0.60060100  0.41532200  0.31699400  1
  H  H32  1  0.86564300  0.09288000  0.35458400  1
  H  H33  1  0.54324300  0.41100200  0.81610400  1
  H  H34  1  0.89939900  0.58467800  0.81699400  1
  H  H35  1  0.39939900  0.58467800  0.68300600  1
  H  H36  1  0.30082400  0.54477100  0.25431200  1
  H  H37  1  0.15746700  0.99617200  0.56058600  1
  H  H38  1  0.34253300  0.00382800  0.06058600  1
  H  H39  1  0.36564300  0.09288000  0.14541600  1
  H  H40  1  0.80082400  0.95522900  0.24568800  1
  H  H41  1  0.63435700  0.59288000  0.85458400  1
  H  H42  1  0.13435700  0.59288000  0.64541600  1
  H  H43  1  0.76762300  0.85953800  0.33577400  1
  H  H44  1  0.95675700  0.91100200  0.31610400  1
  H  H45  1  0.19917600  0.45522900  0.75431200  1
  H  H46  1  0.04324300  0.08899800  0.68389600  1
  H  H47  1  0.69917600  0.45522900  0.74568800  1
  H  H48  1  0.42556400  0.01890300  0.59794200  1
  H  H49  1  0.34253300  0.49617200  0.06058600  1
  H  H50  1  0.73237700  0.14046200  0.83577400  1
  H  H51  1  0.13435700  0.90712000  0.64541600  1
  H  H52  1  0.92556400  0.48109700  0.90205800  1
  H  H53  1  0.42556400  0.48109700  0.59794200  1
  H  H54  1  0.30082400  0.95522900  0.25431200  1
  H  H55  1  0.80082400  0.54477100  0.24568800  1
  H  H56  1  0.37373600  0.61868200  0.56760500  1
  H  H57  1  0.95675700  0.58899800  0.31610400  1
  H  H58  1  0.10060100  0.08467800  0.18300600  1
  H  H59  1  0.07443600  0.98109700  0.09794200  1
  H  H60  1  0.92556400  0.01890300  0.90205800  1
  H  H61  1  0.39939900  0.91532200  0.68300600  1
  H  H62  1  0.12626400  0.38131800  0.06760500  1
  H  H63  1  0.87373600  0.61868200  0.93239500  1
  H  H64  1  0.60060100  0.08467800  0.31699400  1
  H  H65  1  0.62626400  0.38131800  0.43239500  1
  H  H66  1  0.37373600  0.88131800  0.56760500  1
  H  H67  1  0.89939900  0.91532200  0.81699400  1
  C  C68  1  0.63942200  0.44591200  0.38197300  1
  C  C69  1  0.13942200  0.05408800  0.11802700  1
  C  C70  1  0.86057800  0.55408800  0.88197300  1
  C  C71  1  0.66532700  0.06946800  0.81331400  1
  C  C72  1  0.36057800  0.55408800  0.61802700  1
  C  C73  1  0.33467300  0.56946800  0.18668600  1
  C  C74  1  0.16532700  0.43053200  0.68668600  1
  C  C75  1  0.83467300  0.56946800  0.31331400  1
  C  C76  1  0.36057800  0.94591200  0.61802700  1
  C  C77  1  0.63942200  0.05408800  0.38197300  1
  C  C78  1  0.83467300  0.93053200  0.31331400  1
  C  C79  1  0.16532700  0.06946800  0.68668600  1
  C  C80  1  0.86057800  0.94591200  0.88197300  1
  C  C81  1  0.33467300  0.93053200  0.18668600  1
  C  C82  1  0.13942200  0.44591200  0.11802700  1
  C  C83  1  0.66532700  0.43053200  0.81331400  1
  N  N84  1  0.19571400  0.52382300  0.62443900  1
  N  N85  1  0.80428600  0.02382300  0.37556100  1
  N  N86  1  0.30428600  0.02382300  0.12443900  1
  N  N87  1  0.69571400  0.97617700  0.87556100  1
  N  N88  1  0.80428600  0.47617700  0.37556100  1
  N  N89  1  0.30428600  0.47617700  0.12443900  1
  N  N90  1  0.69571400  0.52382300  0.87556100  1
  N  N91  1  0.19571400  0.97617700  0.62443900  1
  Cl  Cl92  1  0.43811100  0.25000000  0.21686700  1
  Cl  Cl93  1  0.69050200  0.03184000  0.08925500  1
  Cl  Cl94  1  0.06188900  0.75000000  0.71686700  1
  Cl  Cl95  1  0.60098800  0.75000000  0.47522000  1
  Cl  Cl96  1  0.56188900  0.75000000  0.78313300  1
  Cl  Cl97  1  0.69050200  0.46816000  0.08925500  1
  Cl  Cl98  1  0.50701500  0.75000000  0.01499500  1
  Cl  Cl99  1  0.00701500  0.75000000  0.48500500  1
  Cl  Cl100  1  0.93811100  0.25000000  0.28313300  1
  Cl  Cl101  1  0.30949800  0.96816000  0.91074500  1
  Cl  Cl102  1  0.19050200  0.46816000  0.41074500  1
  Cl  Cl103  1  0.10098800  0.75000000  0.02478000  1
  Cl  Cl104  1  0.19050200  0.03184000  0.41074500  1
  Cl  Cl105  1  0.99298500  0.25000000  0.51499500  1
  Cl  Cl106  1  0.30949800  0.53184000  0.91074500  1
  Cl  Cl107  1  0.80949800  0.53184000  0.58925500  1
  Cl  Cl108  1  0.49298500  0.25000000  0.98500500  1
  Cl  Cl109  1  0.80949800  0.96816000  0.58925500  1
  Cl  Cl110  1  0.39901200  0.25000000  0.52478000  1
  Cl  Cl111  1  0.89901200  0.25000000  0.97522000  1
