# generated using pymatgen
data_CsUV3O11
_symmetry_space_group_name_H-M   'P 1'
_cell_length_a   6.90933400
_cell_length_b   12.06167900
_cell_length_c   12.64290798
_cell_angle_alpha   73.35560780
_cell_angle_beta   90.00000000
_cell_angle_gamma   90.00000000
_symmetry_Int_Tables_number   1
_chemical_formula_structural   CsUV3O11
_chemical_formula_sum   'Cs4 U4 V12 O44'
_cell_volume   1009.49040636
_cell_formula_units_Z   4
loop_
 _symmetry_equiv_pos_site_id
 _symmetry_equiv_pos_as_xyz
  1  'x, y, z'
loop_
 _atom_site_type_symbol
 _atom_site_label
 _atom_site_symmetry_multiplicity
 _atom_site_fract_x
 _atom_site_fract_y
 _atom_site_fract_z
 _atom_site_occupancy
  Cs  Cs0  1  0.26593900  0.11756900  0.55175800  1
  Cs  Cs1  1  0.23406100  0.61756900  0.55175800  1
  Cs  Cs2  1  0.73406100  0.88243100  0.44824200  1
  Cs  Cs3  1  0.76593900  0.38243100  0.44824200  1
  U  U4  1  0.50226400  0.80435500  0.81525200  1
  U  U5  1  0.49773600  0.19564500  0.18474800  1
  U  U6  1  0.99773600  0.30435500  0.81525200  1
  U  U7  1  0.00226400  0.69564500  0.18474800  1
  V  V8  1  0.74944100  0.06833900  0.76927000  1
  V  V9  1  0.25055900  0.93166100  0.23073000  1
  V  V10  1  0.75055900  0.56833900  0.76927000  1
  V  V11  1  0.50496600  0.68278400  0.22867800  1
  V  V12  1  0.24927600  0.04128600  0.85925000  1
  V  V13  1  0.00496600  0.81721600  0.77132200  1
  V  V14  1  0.74927600  0.45871400  0.14075000  1
  V  V15  1  0.99503400  0.18278400  0.22867800  1
  V  V16  1  0.25072400  0.54128600  0.85925000  1
  V  V17  1  0.49503400  0.31721600  0.77132200  1
  V  V18  1  0.75072400  0.95871400  0.14075000  1
  V  V19  1  0.24944100  0.43166100  0.23073000  1
  O  O20  1  0.99454100  0.26015000  0.96366600  1
  O  O21  1  0.50545900  0.76015000  0.96366600  1
  O  O22  1  0.19189500  0.29444100  0.19435000  1
  O  O23  1  0.99257600  0.64999900  0.33569900  1
  O  O24  1  0.98123200  0.14370400  0.36421500  1
  O  O25  1  0.74797700  0.49920900  0.00735600  1
  O  O26  1  0.25332500  0.88950400  0.36640400  1
  O  O27  1  0.80828900  0.90968200  0.80377800  1
  O  O28  1  0.19256900  0.70077100  0.81588400  1
  O  O29  1  0.50243400  0.40015800  0.19253000  1
  O  O30  1  0.69256900  0.79922900  0.18411600  1
  O  O31  1  0.50742400  0.14999900  0.33569900  1
  O  O32  1  0.99748400  0.48683300  0.19122100  1
  O  O33  1  0.49748400  0.01316700  0.80877900  1
  O  O34  1  0.30730400  0.40861100  0.81339400  1
  O  O35  1  0.30743100  0.20077100  0.81588400  1
  O  O36  1  0.99756600  0.90015800  0.19253000  1
  O  O37  1  0.69269600  0.59138900  0.18660600  1
  O  O38  1  0.80810500  0.70555900  0.80565000  1
  O  O39  1  0.50251600  0.98683300  0.19122100  1
  O  O40  1  0.75332500  0.61049600  0.63359600  1
  O  O41  1  0.49756600  0.59984200  0.80747000  1
  O  O42  1  0.80730400  0.09138900  0.18660600  1
  O  O43  1  0.00251600  0.51316700  0.80877900  1
  O  O44  1  0.49257600  0.85000100  0.66430100  1
  O  O45  1  0.24797700  0.00079100  0.99264400  1
  O  O46  1  0.24667500  0.38950400  0.36640400  1
  O  O47  1  0.80743100  0.29922900  0.18411600  1
  O  O48  1  0.49454100  0.23985000  0.03633400  1
  O  O49  1  0.00545900  0.73985000  0.03633400  1
  O  O50  1  0.74667500  0.11049600  0.63359600  1
  O  O51  1  0.75202300  0.99920900  0.00735600  1
  O  O52  1  0.19171100  0.09031800  0.19622200  1
  O  O53  1  0.01876800  0.85629600  0.63578500  1
  O  O54  1  0.19269600  0.90861100  0.81339400  1
  O  O55  1  0.69171100  0.40968200  0.80377800  1
  O  O56  1  0.30828900  0.59031800  0.19622200  1
  O  O57  1  0.00742400  0.35000100  0.66430100  1
  O  O58  1  0.30810500  0.79444100  0.19435000  1
  O  O59  1  0.25202300  0.50079100  0.99264400  1
  O  O60  1  0.69189500  0.20555900  0.80565000  1
  O  O61  1  0.48123200  0.35629600  0.63578500  1
  O  O62  1  0.00243400  0.09984200  0.80747000  1
  O  O63  1  0.51876800  0.64370400  0.36421500  1
