# generated using pymatgen
data_H10PtC(N4O)2
_symmetry_space_group_name_H-M   'P 1'
_cell_length_a   5.12097100
_cell_length_b   5.73490973
_cell_length_c   14.77626123
_cell_angle_alpha   86.72125347
_cell_angle_beta   82.58439200
_cell_angle_gamma   82.52301435
_symmetry_Int_Tables_number   1
_chemical_formula_structural   H10PtC(N4O)2
_chemical_formula_sum   'H20 Pt2 C2 N16 O4'
_cell_volume   426.30492099
_cell_formula_units_Z   2
loop_
 _symmetry_equiv_pos_site_id
 _symmetry_equiv_pos_as_xyz
  1  'x, y, z'
loop_
 _atom_site_type_symbol
 _atom_site_label
 _atom_site_symmetry_multiplicity
 _atom_site_fract_x
 _atom_site_fract_y
 _atom_site_fract_z
 _atom_site_occupancy
  H  H0  1  0.07080500  0.50067600  0.08873900  1
  H  H1  1  0.67694700  0.94406700  0.56698900  1
  H  H2  1  0.62293400  0.73599300  0.64980700  1
  H  H3  1  0.01499000  0.19128800  0.90646600  1
  H  H4  1  0.98501000  0.80871200  0.09353400  1
  H  H5  1  0.13410500  0.09415100  0.34730000  1
  H  H6  1  0.92919500  0.49932400  0.91126100  1
  H  H7  1  0.05346000  0.61743400  0.24199900  1
  H  H8  1  0.98227500  0.05831200  0.21803900  1
  H  H9  1  0.32305300  0.05593300  0.43301100  1
  H  H10  1  0.18216100  0.55380700  0.76461000  1
  H  H11  1  0.23944400  0.64209500  0.37046800  1
  H  H12  1  0.94654000  0.38256600  0.75800100  1
  H  H13  1  0.81783900  0.44619300  0.23539000  1
  H  H14  1  0.76055600  0.35790500  0.62953200  1
  H  H15  1  0.26877300  0.37671900  0.91287700  1
  H  H16  1  0.37706600  0.26400700  0.35019300  1
  H  H17  1  0.86589500  0.90584900  0.65270000  1
  H  H18  1  0.73122700  0.62328100  0.08712300  1
  H  H19  1  0.01772500  0.94168800  0.78196100  1
  Pt  Pt20  1  0.59373700  0.85690700  0.28818900  1
  Pt  Pt21  1  0.40626300  0.14309300  0.71181100  1
  C  C22  1  0.91565000  0.63911600  0.11507100  1
  C  C23  1  0.08435000  0.36088400  0.88492900  1
  N  N24  1  0.77106400  0.75612000  0.40589800  1
  N  N25  1  0.23281900  0.44849500  0.56756900  1
  N  N26  1  0.49535500  0.09244500  0.11774900  1
  N  N27  1  0.67606800  0.90437300  0.63565100  1
  N  N28  1  0.50464500  0.90755500  0.88225100  1
  N  N29  1  0.12639400  0.38725400  0.78398500  1
  N  N30  1  0.39172300  0.96375300  0.17632100  1
  N  N31  1  0.77556400  0.35896100  0.46198800  1
  N  N32  1  0.76718100  0.55150500  0.43243100  1
  N  N33  1  0.32393200  0.09562700  0.36434900  1
  N  N34  1  0.41879800  0.78750300  0.94176900  1
  N  N35  1  0.87360600  0.61274600  0.21601500  1
  N  N36  1  0.22443600  0.64103900  0.53801200  1
  N  N37  1  0.60827700  0.03624700  0.82367900  1
  N  N38  1  0.22893600  0.24388000  0.59410200  1
  N  N39  1  0.58120200  0.21249700  0.05823100  1
  O  O40  1  0.83291700  0.11882400  0.26243000  1
  O  O41  1  0.16708300  0.88117600  0.73757000  1
  O  O42  1  0.65106500  0.40272300  0.68656700  1
  O  O43  1  0.34893500  0.59727700  0.31343300  1
