# generated using pymatgen
data_Bi14Rh3
_symmetry_space_group_name_H-M   'P 1'
_cell_length_a   18.35657574
_cell_length_b   16.43819856
_cell_length_c   9.52758615
_cell_angle_alpha   85.60101118
_cell_angle_beta   63.23431650
_cell_angle_gamma   31.16467232
_symmetry_Int_Tables_number   1
_chemical_formula_structural   Bi14Rh3
_chemical_formula_sum   'Bi28 Rh6'
_cell_volume   988.52743669
_cell_formula_units_Z   2
loop_
 _symmetry_equiv_pos_site_id
 _symmetry_equiv_pos_as_xyz
  1  'x, y, z'
loop_
 _atom_site_type_symbol
 _atom_site_label
 _atom_site_symmetry_multiplicity
 _atom_site_fract_x
 _atom_site_fract_y
 _atom_site_fract_z
 _atom_site_occupancy
  Bi  Bi0  1  0.08220700  0.81285500  0.79704700  1
  Bi  Bi1  1  0.17254300  0.54397000  0.88852500  1
  Bi  Bi2  1  0.22317500  0.77682500  0.22317500  1
  Bi  Bi3  1  0.94210900  0.45295300  0.43714500  1
  Bi  Bi4  1  0.82043900  0.78566800  0.44412500  1
  Bi  Bi5  1  0.30023300  0.80587500  0.46433200  1
  Bi  Bi6  1  0.79704700  0.30789100  0.08220700  1
  Bi  Bi7  1  0.54397000  0.17254300  0.39496200  1
  Bi  Bi8  1  0.39496200  0.88852500  0.54397000  1
  Bi  Bi9  1  0.94976700  0.44412500  0.78566800  1
  Bi  Bi10  1  0.42956100  0.46433200  0.80587500  1
  Bi  Bi11  1  0.36147500  0.85503800  0.07745700  1
  Bi  Bi12  1  0.16779300  0.43714500  0.45295300  1
  Bi  Bi13  1  0.88852500  0.39496200  0.17254300  1
  Bi  Bi14  1  0.07745700  0.70603000  0.36147500  1
  Bi  Bi15  1  0.80587500  0.30023300  0.42956100  1
  Bi  Bi16  1  0.47317500  0.02682500  0.47317500  1
  Bi  Bi17  1  0.30789100  0.79704700  0.81285500  1
  Bi  Bi18  1  0.46433200  0.42956100  0.30023300  1
  Bi  Bi19  1  0.45295300  0.94210900  0.16779300  1
  Bi  Bi20  1  0.77682500  0.22317500  0.77682500  1
  Bi  Bi21  1  0.43714500  0.16779300  0.94210900  1
  Bi  Bi22  1  0.02682500  0.47317500  0.02682500  1
  Bi  Bi23  1  0.44412500  0.94976700  0.82043900  1
  Bi  Bi24  1  0.78566800  0.82043900  0.94976700  1
  Bi  Bi25  1  0.85503800  0.36147500  0.70603000  1
  Bi  Bi26  1  0.81285500  0.08220700  0.30789100  1
  Bi  Bi27  1  0.70603000  0.07745700  0.85503800  1
  Rh  Rh28  1  0.62500000  0.62500000  0.12500000  1
  Rh  Rh29  1  0.75000000  0.75000000  0.75000000  1
  Rh  Rh30  1  0.62500000  0.12500000  0.62500000  1
  Rh  Rh31  1  0.62500000  0.62500000  0.62500000  1
  Rh  Rh32  1  0.12500000  0.62500000  0.62500000  1
  Rh  Rh33  1  0.50000000  0.50000000  0.50000000  1
