# generated using pymatgen
data_Gd2Ni17
_symmetry_space_group_name_H-M   'P 1'
_cell_length_a   8.29000308
_cell_length_b   8.29000308
_cell_length_c   8.01101300
_cell_angle_alpha   90.00000000
_cell_angle_beta   90.00000000
_cell_angle_gamma   119.99999266
_symmetry_Int_Tables_number   1
_chemical_formula_structural   Gd2Ni17
_chemical_formula_sum   'Gd4 Ni34'
_cell_volume   476.79037993
_cell_formula_units_Z   2
loop_
 _symmetry_equiv_pos_site_id
 _symmetry_equiv_pos_as_xyz
  1  'x, y, z'
loop_
 _atom_site_type_symbol
 _atom_site_label
 _atom_site_symmetry_multiplicity
 _atom_site_fract_x
 _atom_site_fract_y
 _atom_site_fract_z
 _atom_site_occupancy
  Gd  Gd0  1  0.00000000  0.00000000  0.25000000  1
  Gd  Gd1  1  0.00000000  0.00000000  0.75000000  1
  Gd  Gd2  1  0.66666700  0.33333300  0.25000000  1
  Gd  Gd3  1  0.33333300  0.66666700  0.75000000  1
  Ni  Ni4  1  0.04388900  0.67204000  0.25000000  1
  Ni  Ni5  1  0.33173400  0.16586700  0.02052400  1
  Ni  Ni6  1  0.83413300  0.66826600  0.02052400  1
  Ni  Ni7  1  0.50000000  0.00000000  0.00000000  1
  Ni  Ni8  1  0.66666700  0.33333300  0.60228500  1
  Ni  Ni9  1  0.16586700  0.83413300  0.52052400  1
  Ni  Ni10  1  0.67204000  0.04388900  0.75000000  1
  Ni  Ni11  1  0.37184900  0.32796000  0.75000000  1
  Ni  Ni12  1  0.95611100  0.62815100  0.75000000  1
  Ni  Ni13  1  0.16586700  0.33173400  0.97947600  1
  Ni  Ni14  1  0.33333300  0.66666700  0.39771500  1
  Ni  Ni15  1  0.66826600  0.83413300  0.52052400  1
  Ni  Ni16  1  0.16586700  0.83413300  0.97947600  1
  Ni  Ni17  1  0.32796000  0.95611100  0.25000000  1
  Ni  Ni18  1  0.00000000  0.50000000  0.50000000  1
  Ni  Ni19  1  0.83413300  0.66826600  0.47947600  1
  Ni  Ni20  1  0.37184900  0.04388900  0.75000000  1
  Ni  Ni21  1  0.33333300  0.66666700  0.10228500  1
  Ni  Ni22  1  0.95611100  0.32796000  0.75000000  1
  Ni  Ni23  1  0.66826600  0.83413300  0.97947600  1
  Ni  Ni24  1  0.62815100  0.67204000  0.25000000  1
  Ni  Ni25  1  0.16586700  0.33173400  0.52052400  1
  Ni  Ni26  1  0.00000000  0.50000000  0.00000000  1
  Ni  Ni27  1  0.83413300  0.16586700  0.47947600  1
  Ni  Ni28  1  0.67204000  0.62815100  0.75000000  1
  Ni  Ni29  1  0.62815100  0.95611100  0.25000000  1
  Ni  Ni30  1  0.83413300  0.16586700  0.02052400  1
  Ni  Ni31  1  0.33173400  0.16586700  0.47947600  1
  Ni  Ni32  1  0.66666700  0.33333300  0.89771500  1
  Ni  Ni33  1  0.04388900  0.37184900  0.25000000  1
  Ni  Ni34  1  0.32796000  0.37184900  0.25000000  1
  Ni  Ni35  1  0.50000000  0.50000000  0.00000000  1
  Ni  Ni36  1  0.50000000  0.00000000  0.50000000  1
  Ni  Ni37  1  0.50000000  0.50000000  0.50000000  1
