# generated using pymatgen
data_Ag(CO)2
_symmetry_space_group_name_H-M   'P 1'
_cell_length_a   10.78638861
_cell_length_b   10.78638861
_cell_length_c   7.63557949
_cell_angle_alpha   77.20002921
_cell_angle_beta   77.20002921
_cell_angle_gamma   39.04362404
_symmetry_Int_Tables_number   1
_chemical_formula_structural   Ag(CO)2
_chemical_formula_sum   'Ag8 C16 O16'
_cell_volume   543.91570516
_cell_formula_units_Z   8
loop_
 _symmetry_equiv_pos_site_id
 _symmetry_equiv_pos_as_xyz
  1  'x, y, z'
loop_
 _atom_site_type_symbol
 _atom_site_label
 _atom_site_symmetry_multiplicity
 _atom_site_fract_x
 _atom_site_fract_y
 _atom_site_fract_z
 _atom_site_occupancy
  Ag  Ag0  1  0.07744400  0.09567500  0.05609000  1
  Ag  Ag1  1  0.92121200  0.91058300  0.44124300  1
  Ag  Ag2  1  0.90432500  0.92255600  0.94391000  1
  Ag  Ag3  1  0.08941700  0.07878800  0.55875700  1
  Ag  Ag4  1  0.53397800  0.15438200  0.18840800  1
  Ag  Ag5  1  0.14913700  0.53938200  0.68993500  1
  Ag  Ag6  1  0.84561800  0.46602200  0.81159200  1
  Ag  Ag7  1  0.46061800  0.85086300  0.31006500  1
  C  C8  1  0.38866900  0.01910900  0.77166900  1
  C  C9  1  0.45868100  0.44568600  0.83602500  1
  C  C10  1  0.60746800  0.99116900  0.73025600  1
  C  C11  1  0.44510300  0.45975700  0.33544400  1
  C  C12  1  0.00883100  0.39253200  0.26974400  1
  C  C13  1  0.50439800  0.00515800  0.61235900  1
  C  C14  1  0.63320600  0.35556500  0.22934300  1
  C  C15  1  0.35478100  0.63331100  0.72902900  1
  C  C16  1  0.98089100  0.61133100  0.22833100  1
  C  C17  1  0.64443500  0.36679400  0.77065700  1
  C  C18  1  0.00005600  0.50844700  0.11388900  1
  C  C19  1  0.54024300  0.55489700  0.66455600  1
  C  C20  1  0.55431400  0.54131900  0.16397500  1
  C  C21  1  0.49155300  0.99994400  0.88611100  1
  C  C22  1  0.99484200  0.49560200  0.38764100  1
  C  C23  1  0.36668900  0.64521900  0.27097100  1
  O  O24  1  0.25344200  0.04067500  0.79269500  1
  O  O25  1  0.82740900  0.20355000  0.80073400  1
  O  O26  1  0.99896300  0.51346300  0.94760600  1
  O  O27  1  0.51209500  0.00263100  0.44637700  1
  O  O28  1  0.40053000  0.38493800  0.93425200  1
  O  O29  1  0.17511200  0.79546900  0.70406300  1
  O  O30  1  0.48653700  0.00103700  0.05239400  1
  O  O31  1  0.79645000  0.17259100  0.19926600  1
  O  O32  1  0.99736900  0.48790500  0.55362300  1
  O  O33  1  0.95932500  0.74655800  0.20730500  1
  O  O34  1  0.60078300  0.61442100  0.56412900  1
  O  O35  1  0.03406100  0.25840100  0.29509100  1
  O  O36  1  0.20453100  0.82488800  0.29593700  1
  O  O37  1  0.38557900  0.39921700  0.43587100  1
  O  O38  1  0.74159900  0.96593900  0.70490900  1
  O  O39  1  0.61506200  0.59947000  0.06574800  1
