# generated using pymatgen
data_SiO2
_symmetry_space_group_name_H-M   'P 1'
_cell_length_a   15.10729831
_cell_length_b   15.10729831
_cell_length_c   15.10729831
_cell_angle_alpha   159.83075935
_cell_angle_beta   124.30593976
_cell_angle_gamma   59.84838229
_symmetry_Int_Tables_number   1
_chemical_formula_structural   SiO2
_chemical_formula_sum   'Si16 O32'
_cell_volume   977.67853010
_cell_formula_units_Z   16
loop_
 _symmetry_equiv_pos_site_id
 _symmetry_equiv_pos_as_xyz
  1  'x, y, z'
loop_
 _atom_site_type_symbol
 _atom_site_label
 _atom_site_symmetry_multiplicity
 _atom_site_fract_x
 _atom_site_fract_y
 _atom_site_fract_z
 _atom_site_occupancy
  Si  Si0  1  0.92290800  0.78382100  0.13908700  1
  Si  Si1  1  0.85526600  0.21617900  0.63908700  1
  Si  Si2  1  0.07709200  0.21617900  0.86091300  1
  Si  Si3  1  0.14473400  0.78382100  0.36091300  1
  Si  Si4  1  0.90130100  0.44131300  0.45998800  1
  Si  Si5  1  0.51867500  0.55868700  0.95998800  1
  Si  Si6  1  0.09869900  0.55868700  0.54001200  1
  Si  Si7  1  0.48132500  0.44131300  0.04001200  1
  Si  Si8  1  0.94743400  0.89397900  0.05345500  1
  Si  Si9  1  0.65947600  0.10602100  0.55345500  1
  Si  Si10  1  0.05256600  0.10602100  0.94654500  1
  Si  Si11  1  0.34052400  0.89397900  0.44654500  1
  Si  Si12  1  0.27548500  0.52548500  0.75000000  1
  Si  Si13  1  0.72451500  0.47451500  0.25000000  1
  Si  Si14  1  0.20534300  0.95534300  0.25000000  1
  Si  Si15  1  0.79465700  0.04465700  0.75000000  1
  O  O16  1  0.05236300  0.80236300  0.25000000  1
  O  O17  1  0.94763700  0.19763700  0.75000000  1
  O  O18  1  0.07698100  0.91994500  0.15703600  1
  O  O19  1  0.73709000  0.08005500  0.65703600  1
  O  O20  1  0.92301900  0.08005500  0.84296400  1
  O  O21  1  0.26291000  0.91994500  0.34296400  1
  O  O22  1  0.24015900  0.24055700  0.50039700  1
  O  O23  1  0.75984100  0.75944300  0.49960300  1
  O  O24  1  0.75984100  0.26023800  0.00039700  1
  O  O25  1  0.24015900  0.73976200  0.99960300  1
  O  O26  1  0.86758300  0.50000000  0.86758300  1
  O  O27  1  0.13241700  0.00000000  0.63241700  1
  O  O28  1  0.13241700  0.50000000  0.13241700  1
  O  O29  1  0.86758300  0.00000000  0.36758300  1
  O  O30  1  0.90042700  0.83249800  0.06792900  1
  O  O31  1  0.73543100  0.16750200  0.56792900  1
  O  O32  1  0.09957300  0.16750200  0.93207100  1
  O  O33  1  0.26456900  0.83249800  0.43207100  1
  O  O34  1  0.00000000  0.50000000  0.50000000  1
  O  O35  1  0.50000000  0.50000000  0.00000000  1
  O  O36  1  0.21568900  0.56044000  0.65524800  1
  O  O37  1  0.59480800  0.43956000  0.15524800  1
  O  O38  1  0.78431100  0.43956000  0.34475200  1
  O  O39  1  0.40519200  0.56044000  0.84475200  1
  O  O40  1  0.90705700  0.16129000  0.24563900  1
  O  O41  1  0.58434900  0.83871000  0.24576700  1
  O  O42  1  0.09294300  0.33858200  0.25423300  1
  O  O43  1  0.41565100  0.66141800  0.25436100  1
  O  O44  1  0.09294300  0.83871000  0.75436100  1
  O  O45  1  0.41565100  0.16129000  0.75423300  1
  O  O46  1  0.90705700  0.66141800  0.74576700  1
  O  O47  1  0.58434900  0.33858200  0.74563900  1
