# generated using pymatgen
data_Cs5CeCu2(NO2)12
_symmetry_space_group_name_H-M   'P 1'
_cell_length_a   11.28883200
_cell_length_b   11.28883200
_cell_length_c   11.28883200
_cell_angle_alpha   90.00000000
_cell_angle_beta   90.00000000
_cell_angle_gamma   90.00000000
_symmetry_Int_Tables_number   1
_chemical_formula_structural   Cs5CeCu2(NO2)12
_chemical_formula_sum   'Cs10 Ce2 Cu4 N24 O48'
_cell_volume   1438.62310100
_cell_formula_units_Z   2
loop_
 _symmetry_equiv_pos_site_id
 _symmetry_equiv_pos_as_xyz
  1  'x, y, z'
loop_
 _atom_site_type_symbol
 _atom_site_label
 _atom_site_symmetry_multiplicity
 _atom_site_fract_x
 _atom_site_fract_y
 _atom_site_fract_z
 _atom_site_occupancy
  Cs  Cs0  1  0.25000000  0.25000000  0.75000000  1
  Cs  Cs1  1  0.25000000  0.75000000  0.25000000  1
  Cs  Cs2  1  0.00000000  0.50000000  0.50000000  1
  Cs  Cs3  1  0.50000000  0.00000000  0.00000000  1
  Cs  Cs4  1  0.50000000  0.00000000  0.50000000  1
  Cs  Cs5  1  0.75000000  0.75000000  0.75000000  1
  Cs  Cs6  1  0.50000000  0.50000000  0.00000000  1
  Cs  Cs7  1  0.00000000  0.50000000  0.00000000  1
  Cs  Cs8  1  0.75000000  0.25000000  0.25000000  1
  Cs  Cs9  1  0.00000000  0.00000000  0.50000000  1
  Ce  Ce10  1  0.00000000  0.00000000  0.00000000  1
  Ce  Ce11  1  0.50000000  0.50000000  0.50000000  1
  Cu  Cu12  1  0.75000000  0.75000000  0.25000000  1
  Cu  Cu13  1  0.25000000  0.75000000  0.75000000  1
  Cu  Cu14  1  0.75000000  0.25000000  0.75000000  1
  Cu  Cu15  1  0.25000000  0.25000000  0.25000000  1
  N  N16  1  0.26042000  0.25893500  0.43953700  1
  N  N17  1  0.56046300  0.73958000  0.25893500  1
  N  N18  1  0.43953700  0.73958000  0.74106500  1
  N  N19  1  0.25893500  0.56046300  0.73958000  1
  N  N20  1  0.73958000  0.74106500  0.43953700  1
  N  N21  1  0.75893500  0.06046300  0.76042000  1
  N  N22  1  0.06046300  0.76042000  0.75893500  1
  N  N23  1  0.56046300  0.26042000  0.74106500  1
  N  N24  1  0.25893500  0.43953700  0.26042000  1
  N  N25  1  0.76042000  0.24106500  0.93953700  1
  N  N26  1  0.74106500  0.56046300  0.26042000  1
  N  N27  1  0.23958000  0.24106500  0.06046300  1
  N  N28  1  0.26042000  0.74106500  0.56046300  1
  N  N29  1  0.75893500  0.93953700  0.23958000  1
  N  N30  1  0.43953700  0.26042000  0.25893500  1
  N  N31  1  0.24106500  0.93953700  0.76042000  1
  N  N32  1  0.24106500  0.06046300  0.23958000  1
  N  N33  1  0.93953700  0.76042000  0.24106500  1
  N  N34  1  0.74106500  0.43953700  0.73958000  1
  N  N35  1  0.73958000  0.25893500  0.56046300  1
  N  N36  1  0.23958000  0.75893500  0.93953700  1
  N  N37  1  0.76042000  0.75893500  0.06046300  1
  N  N38  1  0.93953700  0.23958000  0.75893500  1
  N  N39  1  0.06046300  0.23958000  0.24106500  1
  O  O40  1  0.25041700  0.99315000  0.66348700  1
  O  O41  1  0.75041700  0.49315000  0.83651300  1
  O  O42  1  0.16348700  0.75041700  0.50685000  1
  O  O43  1  0.00685000  0.33651300  0.25041700  1
  O  O44  1  0.66348700  0.25041700  0.99315000  1
  O  O45  1  0.99712100  0.84949900  0.20326900  1
  O  O46  1  0.15050100  0.20326900  0.00287900  1
  O  O47  1  0.70326900  0.50287900  0.34949900  1
  O  O48  1  0.33651300  0.74958300  0.99315000  1
  O  O49  1  0.79673100  0.99712100  0.15050100  1
  O  O50  1  0.83651300  0.75041700  0.49315000  1
  O  O51  1  0.15050100  0.79673100  0.99712100  1
  O  O52  1  0.50685000  0.16348700  0.75041700  1
  O  O53  1  0.65050100  0.70326900  0.49712100  1
  O  O54  1  0.79673100  0.00287900  0.84949900  1
  O  O55  1  0.66348700  0.74958300  0.00685000  1
  O  O56  1  0.65050100  0.29673100  0.50287900  1
  O  O57  1  0.99315000  0.66348700  0.25041700  1
  O  O58  1  0.83651300  0.24958300  0.50685000  1
  O  O59  1  0.84949900  0.79673100  0.00287900  1
  O  O60  1  0.29673100  0.50287900  0.65050100  1
  O  O61  1  0.99315000  0.33651300  0.74958300  1
  O  O62  1  0.99712100  0.15050100  0.79673100  1
  O  O63  1  0.50685000  0.83651300  0.24958300  1
  O  O64  1  0.75041700  0.50685000  0.16348700  1
  O  O65  1  0.00287900  0.15050100  0.20326900  1
  O  O66  1  0.16348700  0.24958300  0.49315000  1
  O  O67  1  0.74958300  0.99315000  0.33651300  1
  O  O68  1  0.33651300  0.25041700  0.00685000  1
  O  O69  1  0.29673100  0.49712100  0.34949900  1
  O  O70  1  0.50287900  0.34949900  0.70326900  1
  O  O71  1  0.34949900  0.70326900  0.50287900  1
  O  O72  1  0.00685000  0.66348700  0.74958300  1
  O  O73  1  0.49712100  0.65050100  0.70326900  1
  O  O74  1  0.49315000  0.83651300  0.75041700  1
  O  O75  1  0.25041700  0.00685000  0.33651300  1
  O  O76  1  0.50287900  0.65050100  0.29673100  1
  O  O77  1  0.49315000  0.16348700  0.24958300  1
  O  O78  1  0.74958300  0.00685000  0.66348700  1
  O  O79  1  0.24958300  0.50685000  0.83651300  1
  O  O80  1  0.84949900  0.20326900  0.99712100  1
  O  O81  1  0.00287900  0.84949900  0.79673100  1
  O  O82  1  0.20326900  0.00287900  0.15050100  1
  O  O83  1  0.34949900  0.29673100  0.49712100  1
  O  O84  1  0.24958300  0.49315000  0.16348700  1
  O  O85  1  0.70326900  0.49712100  0.65050100  1
  O  O86  1  0.49712100  0.34949900  0.29673100  1
  O  O87  1  0.20326900  0.99712100  0.84949900  1
