# generated using pymatgen
data_MnH9C4NO6
_symmetry_space_group_name_H-M   'P 1'
_cell_length_a   8.33339859
_cell_length_b   8.58373085
_cell_length_c   11.97872132
_cell_angle_alpha   90.05295449
_cell_angle_beta   90.04778765
_cell_angle_gamma   90.07676631
_symmetry_Int_Tables_number   1
_chemical_formula_structural   MnH9C4NO6
_chemical_formula_sum   'Mn4 H36 C16 N4 O24'
_cell_volume   856.85627379
_cell_formula_units_Z   4
loop_
 _symmetry_equiv_pos_site_id
 _symmetry_equiv_pos_as_xyz
  1  'x, y, z'
loop_
 _atom_site_type_symbol
 _atom_site_label
 _atom_site_symmetry_multiplicity
 _atom_site_fract_x
 _atom_site_fract_y
 _atom_site_fract_z
 _atom_site_occupancy
  Mn  Mn0  1  0.50005400  0.49997600  0.00004400  1
  Mn  Mn1  1  0.49996900  0.49992300  0.50000300  1
  Mn  Mn2  1  0.00002400  0.99999300  0.99999700  1
  Mn  Mn3  1  0.99979200  0.99989600  0.49994300  1
  H  H4  1  0.65538000  0.08535800  0.24991400  1
  H  H5  1  0.48723200  0.14537800  0.67965400  1
  H  H6  1  0.01288700  0.64468900  0.67956000  1
  H  H7  1  0.52270200  0.86131500  0.82486400  1
  H  H8  1  0.97712100  0.36120400  0.82480800  1
  H  H9  1  0.48648700  0.14557900  0.82075600  1
  H  H10  1  0.02288000  0.63880700  0.17519500  1
  H  H11  1  0.28219200  0.77920300  0.03771900  1
  H  H12  1  0.07240600  0.00071400  0.74936000  1
  H  H13  1  0.77893000  0.71506500  0.96272500  1
  H  H14  1  0.22107100  0.28498800  0.03729800  1
  H  H15  1  0.98711600  0.35531400  0.32044000  1
  H  H16  1  0.42278000  0.49972800  0.75120100  1
  H  H17  1  0.02281000  0.63885500  0.32474600  1
  H  H18  1  0.84486900  0.58508600  0.24983300  1
  H  H19  1  0.52292300  0.86179500  0.67542600  1
  H  H20  1  0.77779200  0.72007300  0.53524000  1
  H  H21  1  0.71780600  0.22088900  0.96232900  1
  H  H22  1  0.22217400  0.27994000  0.46474300  1
  H  H23  1  0.27812900  0.77995000  0.46458000  1
  H  H24  1  0.51352400  0.85442100  0.17924400  1
  H  H25  1  0.47707400  0.13821000  0.32457700  1
  H  H26  1  0.34628000  0.91190200  0.24944900  1
  H  H27  1  0.15513300  0.41492200  0.75017000  1
  H  H28  1  0.92761200  0.99929300  0.25061000  1
  H  H29  1  0.97719400  0.36115400  0.67525700  1
  H  H30  1  0.65371800  0.08810600  0.75055800  1
  H  H31  1  0.57725900  0.50028500  0.24886200  1
  H  H32  1  0.51276100  0.85463000  0.32034400  1
  H  H33  1  0.01359900  0.64467900  0.82102700  1
  H  H34  1  0.72188500  0.22006100  0.53542300  1
  H  H35  1  0.47729600  0.13868900  0.17513800  1
  H  H36  1  0.84548500  0.58704500  0.74855600  1
  H  H37  1  0.34462000  0.91465100  0.75008600  1
  H  H38  1  0.15451700  0.41296200  0.25144900  1
  H  H39  1  0.98640900  0.35532600  0.17897800  1
  C  C40  1  0.97609900  0.58094200  0.24992000  1
  C  C41  1  0.02390200  0.41907000  0.75008500  1
  C  C42  1  0.77828400  0.28777900  0.02985900  1
  C  C43  1  0.47581100  0.91931000  0.75021700  1
  C  C44  1  0.21579600  0.71541200  0.53213300  1
  C  C45  1  0.28474700  0.21588000  0.53246000  1
  C  C46  1  0.52419000  0.08069500  0.24978600  1
  C  C47  1  0.05932500  0.97968200  0.24972200  1
  C  C48  1  0.78421200  0.28457700  0.46785700  1
  C  C49  1  0.71395800  0.77699900  0.03065700  1
  C  C50  1  0.94068200  0.02031900  0.75021800  1
  C  C51  1  0.55480900  0.51879000  0.75459100  1
  C  C52  1  0.28608200  0.22305400  0.96937500  1
  C  C53  1  0.44523200  0.48123100  0.24542800  1
  C  C54  1  0.22178500  0.71223500  0.97016700  1
  C  C55  1  0.71515300  0.78405500  0.46751400  1
  N  N56  1  0.97029800  0.58463900  0.75013900  1
  N  N57  1  0.52905200  0.08520600  0.75048100  1
  N  N58  1  0.02970700  0.41537200  0.24986400  1
  N  N59  1  0.47094800  0.91480200  0.24952000  1
  O  O60  1  0.87009200  0.03171400  0.84364700  1
  O  O61  1  0.91231800  0.23581000  0.06582400  1
  O  O62  1  0.28142100  0.59539000  0.57217800  1
  O  O63  1  0.12991300  0.96832500  0.15630700  1
  O  O64  1  0.08072800  0.76841600  0.56470700  1
  O  O65  1  0.37717100  0.47248000  0.15109300  1
  O  O66  1  0.58010100  0.72044000  0.06283400  1
  O  O67  1  0.42011200  0.26911200  0.56455800  1
  O  O68  1  0.78075500  0.90385800  0.42681900  1
  O  O69  1  0.13213200  0.96809800  0.34240300  1
  O  O70  1  0.22483500  0.10132200  0.92825200  1
  O  O71  1  0.36920600  0.46757700  0.33686800  1
  O  O72  1  0.08772900  0.76415900  0.93417100  1
  O  O73  1  0.77524900  0.89875200  0.07172400  1
  O  O74  1  0.62284900  0.52756200  0.84892800  1
  O  O75  1  0.63080000  0.53240700  0.66313400  1
  O  O76  1  0.21908300  0.09608000  0.57309300  1
  O  O77  1  0.91924900  0.23153500  0.43525600  1
  O  O78  1  0.71860200  0.40461800  0.42782800  1
  O  O79  1  0.41996200  0.27958500  0.93722100  1
  O  O80  1  0.57980700  0.73076400  0.43546800  1
  O  O81  1  0.71188600  0.40899000  0.06717100  1
  O  O82  1  0.28816400  0.59103800  0.93285700  1
  O  O83  1  0.86787300  0.03186500  0.65756100  1
