# generated using pymatgen
data_SiO2
_symmetry_space_group_name_H-M   'P 1'
_cell_length_a   7.14285242
_cell_length_b   7.14285242
_cell_length_c   7.14285242
_cell_angle_alpha   136.53537334
_cell_angle_beta   103.97057995
_cell_angle_gamma   91.87832883
_symmetry_Int_Tables_number   1
_chemical_formula_structural   SiO2
_chemical_formula_sum   'Si4 O8'
_cell_volume   231.16778170
_cell_formula_units_Z   4
loop_
 _symmetry_equiv_pos_site_id
 _symmetry_equiv_pos_as_xyz
  1  'x, y, z'
loop_
 _atom_site_type_symbol
 _atom_site_label
 _atom_site_symmetry_multiplicity
 _atom_site_fract_x
 _atom_site_fract_y
 _atom_site_fract_z
 _atom_site_occupancy
  Si  Si0  1  0.94179900  0.09225000  0.84955000  1
  Si  Si1  1  0.74270000  0.59225000  0.15045000  1
  Si  Si2  1  0.05820100  0.90775000  0.15045000  1
  Si  Si3  1  0.25730000  0.40775000  0.84955000  1
  O  O4  1  0.15020900  0.25000000  0.90020900  1
  O  O5  1  0.84979100  0.75000000  0.09979100  1
  O  O6  1  0.80816800  0.80816800  0.50000000  1
  O  O7  1  0.19183200  0.69183200  0.00000000  1
  O  O8  1  0.19183200  0.19183200  0.50000000  1
  O  O9  1  0.80816800  0.30816800  0.00000000  1
  O  O10  1  0.00000000  0.00000000  0.00000000  1
  O  O11  1  0.50000000  0.50000000  0.00000000  1
