# generated using pymatgen
data_Cs2SbCl6
_symmetry_space_group_name_H-M   'P 1'
_cell_length_a   13.21463497
_cell_length_b   13.21463497
_cell_length_c   13.21463497
_cell_angle_alpha   132.03021446
_cell_angle_beta   132.03021446
_cell_angle_gamma   70.18131063
_symmetry_Int_Tables_number   1
_chemical_formula_structural   Cs2SbCl6
_chemical_formula_sum   'Cs8 Sb4 Cl24'
_cell_volume   1248.01581241
_cell_formula_units_Z   4
loop_
 _symmetry_equiv_pos_site_id
 _symmetry_equiv_pos_as_xyz
  1  'x, y, z'
loop_
 _atom_site_type_symbol
 _atom_site_label
 _atom_site_symmetry_multiplicity
 _atom_site_fract_x
 _atom_site_fract_y
 _atom_site_fract_z
 _atom_site_occupancy
  Cs  Cs0  1  0.65036900  0.62500000  0.52536900  1
  Cs  Cs1  1  0.87500000  0.34963100  0.97463100  1
  Cs  Cs2  1  0.09963100  0.12500000  0.47463100  1
  Cs  Cs3  1  0.37500000  0.90036900  0.02536900  1
  Cs  Cs4  1  0.09963100  0.62500000  0.97463100  1
  Cs  Cs5  1  0.87500000  0.90036900  0.52536900  1
  Cs  Cs6  1  0.37500000  0.34963100  0.47463100  1
  Cs  Cs7  1  0.65036900  0.12500000  0.02536900  1
  Sb  Sb8  1  0.25000000  0.75000000  0.50000000  1
  Sb  Sb9  1  0.50000000  0.50000000  0.00000000  1
  Sb  Sb10  1  0.75000000  0.25000000  0.50000000  1
  Sb  Sb11  1  0.00000000  0.00000000  0.00000000  1
  Cl  Cl12  1  0.12279900  0.12279900  0.00000000  1
  Cl  Cl13  1  0.47658400  0.74907800  0.72750600  1
  Cl  Cl14  1  0.87279900  0.37279900  0.50000000  1
  Cl  Cl15  1  0.00211300  0.25500100  0.74711300  1
  Cl  Cl16  1  0.87720100  0.87720100  0.00000000  1
  Cl  Cl17  1  0.25092200  0.97842800  0.72750600  1
  Cl  Cl18  1  0.27341600  0.50092200  0.77249400  1
  Cl  Cl19  1  0.49907800  0.27157200  0.77249400  1
  Cl  Cl20  1  0.49907800  0.72658400  0.22750600  1
  Cl  Cl21  1  0.50788800  0.25500100  0.25288700  1
  Cl  Cl22  1  0.00500100  0.75788800  0.75288700  1
  Cl  Cl23  1  0.25092200  0.52341600  0.27249400  1
  Cl  Cl24  1  0.13713900  0.63713900  0.50000000  1
  Cl  Cl25  1  0.72842800  0.50092200  0.22750600  1
  Cl  Cl26  1  0.24211200  0.99499900  0.24711300  1
  Cl  Cl27  1  0.74499900  0.99788700  0.25288700  1
  Cl  Cl28  1  0.74788700  0.99499900  0.75288700  1
  Cl  Cl29  1  0.62720100  0.12720100  0.50000000  1
  Cl  Cl30  1  0.38713900  0.38713900  0.00000000  1
  Cl  Cl31  1  0.61286100  0.61286100  0.00000000  1
  Cl  Cl32  1  0.74499900  0.49211200  0.74711300  1
  Cl  Cl33  1  0.02157200  0.74907800  0.27249400  1
  Cl  Cl34  1  0.00500100  0.25211300  0.24711300  1
  Cl  Cl35  1  0.36286100  0.86286100  0.50000000  1
