# generated using pymatgen
data_CsYb3F10
_symmetry_space_group_name_H-M   'P 1'
_cell_length_a   8.16426398
_cell_length_b   8.16426398
_cell_length_c   17.83951900
_cell_angle_alpha   90.00000000
_cell_angle_beta   90.00000000
_cell_angle_gamma   119.99999981
_symmetry_Int_Tables_number   1
_chemical_formula_structural   CsYb3F10
_chemical_formula_sum   'Cs4 Yb12 F40'
_cell_volume   1029.78805465
_cell_formula_units_Z   4
loop_
 _symmetry_equiv_pos_site_id
 _symmetry_equiv_pos_as_xyz
  1  'x, y, z'
loop_
 _atom_site_type_symbol
 _atom_site_label
 _atom_site_symmetry_multiplicity
 _atom_site_fract_x
 _atom_site_fract_y
 _atom_site_fract_z
 _atom_site_occupancy
  Cs  Cs0  1  0.00000000  0.00000000  0.62632200  1
  Cs  Cs1  1  0.00000000  0.00000000  0.12632200  1
  Cs  Cs2  1  0.00000000  0.00000000  0.87223600  1
  Cs  Cs3  1  0.00000000  0.00000000  0.37223600  1
  Yb  Yb4  1  0.48683100  0.97366100  0.75004400  1
  Yb  Yb5  1  0.02633900  0.51316900  0.75004400  1
  Yb  Yb6  1  0.48742700  0.51257300  0.50173700  1
  Yb  Yb7  1  0.97366100  0.48683100  0.25004400  1
  Yb  Yb8  1  0.02514500  0.51257300  0.50173700  1
  Yb  Yb9  1  0.48683100  0.51316900  0.75004400  1
  Yb  Yb10  1  0.51257300  0.02514500  0.00173700  1
  Yb  Yb11  1  0.48742700  0.97485500  0.50173700  1
  Yb  Yb12  1  0.51316900  0.48683100  0.25004400  1
  Yb  Yb13  1  0.51257300  0.48742700  0.00173700  1
  Yb  Yb14  1  0.97485500  0.48742700  0.00173700  1
  Yb  Yb15  1  0.51316900  0.02633900  0.25004400  1
  F  F16  1  0.21526100  0.78473900  0.00245900  1
  F  F17  1  0.52044400  0.47955600  0.12580500  1
  F  F18  1  0.32442100  0.16221000  0.24530300  1
  F  F19  1  0.67557900  0.83779000  0.74530300  1
  F  F20  1  0.47955600  0.95911200  0.62580500  1
  F  F21  1  0.15903900  0.31807800  0.50109900  1
  F  F22  1  0.43686500  0.21843200  0.74627700  1
  F  F23  1  0.47955600  0.52044400  0.62580500  1
  F  F24  1  0.84096100  0.68192200  0.00109900  1
  F  F25  1  0.66666700  0.33333300  0.29043300  1
  F  F26  1  0.95911200  0.47955600  0.12580500  1
  F  F27  1  0.43052300  0.21526100  0.50245900  1
  F  F28  1  0.66666700  0.33333300  0.97402700  1
  F  F29  1  0.78156800  0.56313500  0.74627700  1
  F  F30  1  0.83779000  0.67557900  0.24530300  1
  F  F31  1  0.50018200  0.00036300  0.37577000  1
  F  F32  1  0.83779000  0.16221000  0.24530300  1
  F  F33  1  0.21843200  0.43686500  0.24627700  1
  F  F34  1  0.99963700  0.49981800  0.37577000  1
  F  F35  1  0.15903900  0.84096100  0.50109900  1
  F  F36  1  0.50018200  0.49981800  0.37577000  1
  F  F37  1  0.16221000  0.83779000  0.74530300  1
  F  F38  1  0.33333300  0.66666700  0.47402700  1
  F  F39  1  0.56313500  0.78156800  0.24627700  1
  F  F40  1  0.49981800  0.99963700  0.87577000  1
  F  F41  1  0.78473900  0.56947700  0.50245900  1
  F  F42  1  0.31807800  0.15903900  0.00109900  1
  F  F43  1  0.00036300  0.50018200  0.87577000  1
  F  F44  1  0.21526100  0.43052300  0.00245900  1
  F  F45  1  0.49981800  0.50018200  0.87577000  1
  F  F46  1  0.78473900  0.21526100  0.50245900  1
  F  F47  1  0.68192200  0.84096100  0.50109900  1
  F  F48  1  0.04088800  0.52044400  0.62580500  1
  F  F49  1  0.56947700  0.78473900  0.00245900  1
  F  F50  1  0.78156800  0.21843200  0.74627700  1
  F  F51  1  0.33333300  0.66666700  0.79043300  1
  F  F52  1  0.84096100  0.15903900  0.00109900  1
  F  F53  1  0.52044400  0.04088800  0.12580500  1
  F  F54  1  0.21843200  0.78156800  0.24627700  1
  F  F55  1  0.16221000  0.32442100  0.74530300  1
