# generated using pymatgen
data_Ag4Te(NO3)2
_symmetry_space_group_name_H-M   'P 1'
_cell_length_a   9.53511400
_cell_length_b   9.53511400
_cell_length_c   9.53511400
_cell_angle_alpha   90.00000000
_cell_angle_beta   90.00000000
_cell_angle_gamma   90.00000000
_symmetry_Int_Tables_number   1
_chemical_formula_structural   Ag4Te(NO3)2
_chemical_formula_sum   'Ag16 Te4 N8 O24'
_cell_volume   866.91729910
_cell_formula_units_Z   4
loop_
 _symmetry_equiv_pos_site_id
 _symmetry_equiv_pos_as_xyz
  1  'x, y, z'
loop_
 _atom_site_type_symbol
 _atom_site_label
 _atom_site_symmetry_multiplicity
 _atom_site_fract_x
 _atom_site_fract_y
 _atom_site_fract_z
 _atom_site_occupancy
  Ag  Ag0  1  0.49268800  0.63096100  0.74469100  1
  Ag  Ag1  1  0.13096100  0.75530900  0.50731200  1
  Ag  Ag2  1  0.25530900  0.99268800  0.86903900  1
  Ag  Ag3  1  0.99268800  0.86903900  0.25530900  1
  Ag  Ag4  1  0.00731200  0.36903900  0.24469100  1
  Ag  Ag5  1  0.24469100  0.00731200  0.36903900  1
  Ag  Ag6  1  0.36903900  0.24469100  0.00731200  1
  Ag  Ag7  1  0.01273500  0.51273500  0.98726500  1
  Ag  Ag8  1  0.51273500  0.98726500  0.01273500  1
  Ag  Ag9  1  0.63096100  0.74469100  0.49268800  1
  Ag  Ag10  1  0.50731200  0.13096100  0.75530900  1
  Ag  Ag11  1  0.86903900  0.25530900  0.99268800  1
  Ag  Ag12  1  0.48726500  0.48726500  0.48726500  1
  Ag  Ag13  1  0.74469100  0.49268800  0.63096100  1
  Ag  Ag14  1  0.75530900  0.50731200  0.13096100  1
  Ag  Ag15  1  0.98726500  0.01273500  0.51273500  1
  Te  Te16  1  0.89593300  0.60406700  0.39593300  1
  Te  Te17  1  0.10406700  0.10406700  0.10406700  1
  Te  Te18  1  0.39593300  0.89593300  0.60406700  1
  Te  Te19  1  0.60406700  0.39593300  0.89593300  1
  N  N20  1  0.19286900  0.69286900  0.80713100  1
  N  N21  1  0.28019700  0.71980300  0.21980300  1
  N  N22  1  0.80713100  0.19286900  0.69286900  1
  N  N23  1  0.69286900  0.80713100  0.19286900  1
  N  N24  1  0.21980300  0.28019700  0.71980300  1
  N  N25  1  0.78019700  0.78019700  0.78019700  1
  N  N26  1  0.30713100  0.30713100  0.30713100  1
  N  N27  1  0.71980300  0.21980300  0.28019700  1
  O  O28  1  0.31551800  0.65395700  0.33038900  1
  O  O29  1  0.29751500  0.67602400  0.88821400  1
  O  O30  1  0.67602400  0.88821400  0.29751500  1
  O  O31  1  0.83038900  0.18448200  0.34604300  1
  O  O32  1  0.15395700  0.16961100  0.68448200  1
  O  O33  1  0.79751500  0.82397600  0.11178600  1
  O  O34  1  0.18448200  0.34604300  0.83038900  1
  O  O35  1  0.81551800  0.84604300  0.66961100  1
  O  O36  1  0.38821400  0.20248500  0.32397600  1
  O  O37  1  0.34604300  0.83038900  0.18448200  1
  O  O38  1  0.33038900  0.31551800  0.65395700  1
  O  O39  1  0.61178600  0.70248500  0.17602400  1
  O  O40  1  0.88821400  0.29751500  0.67602400  1
  O  O41  1  0.66961100  0.81551800  0.84604300  1
  O  O42  1  0.84604300  0.66961100  0.81551800  1
  O  O43  1  0.11178600  0.79751500  0.82397600  1
  O  O44  1  0.20248500  0.32397600  0.38821400  1
  O  O45  1  0.68448200  0.15395700  0.16961100  1
  O  O46  1  0.17602400  0.61178600  0.70248500  1
  O  O47  1  0.82397600  0.11178600  0.79751500  1
  O  O48  1  0.32397600  0.38821400  0.20248500  1
  O  O49  1  0.70248500  0.17602400  0.61178600  1
  O  O50  1  0.65395700  0.33038900  0.31551800  1
  O  O51  1  0.16961100  0.68448200  0.15395700  1
