# generated using pymatgen
data_CaCuAs2O7
_symmetry_space_group_name_H-M   'P 1'
_cell_length_a   9.06198800
_cell_length_b   7.33780200
_cell_length_c   9.45469214
_cell_angle_alpha   70.74735252
_cell_angle_beta   90.00000000
_cell_angle_gamma   90.00000000
_symmetry_Int_Tables_number   1
_chemical_formula_structural   CaCuAs2O7
_chemical_formula_sum   'Ca4 Cu4 As8 O28'
_cell_volume   593.53017344
_cell_formula_units_Z   4
loop_
 _symmetry_equiv_pos_site_id
 _symmetry_equiv_pos_as_xyz
  1  'x, y, z'
loop_
 _atom_site_type_symbol
 _atom_site_label
 _atom_site_symmetry_multiplicity
 _atom_site_fract_x
 _atom_site_fract_y
 _atom_site_fract_z
 _atom_site_occupancy
  Ca  Ca0  1  0.06578900  0.75257900  0.93781700  1
  Ca  Ca1  1  0.56578900  0.24742100  0.56218300  1
  Ca  Ca2  1  0.93421100  0.24742100  0.06218300  1
  Ca  Ca3  1  0.43421100  0.75257900  0.43781700  1
  Cu  Cu4  1  0.94890100  0.21705900  0.67916800  1
  Cu  Cu5  1  0.44890100  0.78294100  0.82083200  1
  Cu  Cu6  1  0.05109900  0.78294100  0.32083200  1
  Cu  Cu7  1  0.55109900  0.21705900  0.17916800  1
  As  As8  1  0.76262100  0.57871700  0.73802300  1
  As  As9  1  0.26262100  0.42128300  0.76197700  1
  As  As10  1  0.23737900  0.42128300  0.26197700  1
  As  As11  1  0.73737900  0.57871700  0.23802300  1
  As  As12  1  0.69963400  0.97501900  0.95873200  1
  As  As13  1  0.19963400  0.02498100  0.54126800  1
  As  As14  1  0.30036600  0.02498100  0.04126800  1
  As  As15  1  0.80036600  0.97501900  0.45873200  1
  O  O16  1  0.68197200  0.15290500  0.03819100  1
  O  O17  1  0.18197200  0.84709500  0.46180900  1
  O  O18  1  0.31802800  0.84709500  0.96180900  1
  O  O19  1  0.81802800  0.15290500  0.53819100  1
  O  O20  1  0.58154200  0.64967700  0.72113100  1
  O  O21  1  0.08154200  0.35032300  0.77886900  1
  O  O22  1  0.41845800  0.35032300  0.27886900  1
  O  O23  1  0.91845800  0.64967700  0.22113100  1
  O  O24  1  0.86082900  0.56910300  0.89329500  1
  O  O25  1  0.36082900  0.43089700  0.60670500  1
  O  O26  1  0.13917100  0.43089700  0.10670500  1
  O  O27  1  0.63917100  0.56910300  0.39329500  1
  O  O28  1  0.86208500  0.74869900  0.58531300  1
  O  O29  1  0.36208500  0.25130100  0.91468700  1
  O  O30  1  0.13791500  0.25130100  0.41468700  1
  O  O31  1  0.63791500  0.74869900  0.08531300  1
  O  O32  1  0.91323900  0.99392200  0.30897600  1
  O  O33  1  0.41323900  0.00607800  0.19102400  1
  O  O34  1  0.08676100  0.00607800  0.69102400  1
  O  O35  1  0.58676100  0.99392200  0.80897600  1
  O  O36  1  0.72995600  0.36528700  0.20092500  1
  O  O37  1  0.22995600  0.63471300  0.29907500  1
  O  O38  1  0.27004400  0.63471300  0.79907500  1
  O  O39  1  0.77004400  0.36528700  0.70092500  1
  O  O40  1  0.61872300  0.98644800  0.41663500  1
  O  O41  1  0.11872300  0.01355200  0.08336500  1
  O  O42  1  0.38127700  0.01355200  0.58336500  1
  O  O43  1  0.88127700  0.98644800  0.91663500  1
