# generated using pymatgen
data_P(HO)3
_symmetry_space_group_name_H-M   'P 1'
_cell_length_a   7.14944000
_cell_length_b   7.53609300
_cell_length_c   11.86611100
_cell_angle_alpha   90.00000000
_cell_angle_beta   90.00000000
_cell_angle_gamma   90.00000000
_symmetry_Int_Tables_number   1
_chemical_formula_structural   P(HO)3
_chemical_formula_sum   'P8 H24 O24'
_cell_volume   639.33235221
_cell_formula_units_Z   8
loop_
 _symmetry_equiv_pos_site_id
 _symmetry_equiv_pos_as_xyz
  1  'x, y, z'
loop_
 _atom_site_type_symbol
 _atom_site_label
 _atom_site_symmetry_multiplicity
 _atom_site_fract_x
 _atom_site_fract_y
 _atom_site_fract_z
 _atom_site_occupancy
  P  P0  1  0.03342000  0.51105600  0.38591100  1
  P  P1  1  0.53342000  0.48894400  0.61408900  1
  P  P2  1  0.53342000  0.98894400  0.88591100  1
  P  P3  1  0.03342000  0.01105600  0.11408900  1
  P  P4  1  0.46722000  0.57859800  0.13570100  1
  P  P5  1  0.96722000  0.42140200  0.86429900  1
  P  P6  1  0.96722000  0.92140200  0.63570100  1
  P  P7  1  0.46722000  0.07859800  0.36429900  1
  H  H8  1  0.82218500  0.73084500  0.41834500  1
  H  H9  1  0.32218500  0.26915500  0.58165500  1
  H  H10  1  0.32218500  0.76915500  0.91834500  1
  H  H11  1  0.82218500  0.23084500  0.08165500  1
  H  H12  1  0.93482500  0.33926600  0.24133100  1
  H  H13  1  0.43482500  0.66073400  0.75866900  1
  H  H14  1  0.43482500  0.16073400  0.74133100  1
  H  H15  1  0.93482500  0.83926600  0.25866900  1
  H  H16  1  0.96999700  0.50888500  0.57522600  1
  H  H17  1  0.46999700  0.49111500  0.42477400  1
  H  H18  1  0.46999700  0.99111500  0.07522600  1
  H  H19  1  0.96999700  0.00888500  0.92477400  1
  H  H20  1  0.65278700  0.46042800  0.26900500  1
  H  H21  1  0.15278700  0.53957200  0.73099500  1
  H  H22  1  0.15278700  0.03957200  0.76900500  1
  H  H23  1  0.65278700  0.96042800  0.23099500  1
  H  H24  1  0.16488200  0.55942200  0.08062100  1
  H  H25  1  0.66488200  0.44057800  0.91937900  1
  H  H26  1  0.66488200  0.94057800  0.58062100  1
  H  H27  1  0.16488200  0.05942200  0.41937900  1
  H  H28  1  0.45307200  0.30542400  0.04339900  1
  H  H29  1  0.95307200  0.69457600  0.95660100  1
  H  H30  1  0.95307200  0.19457600  0.54339900  1
  H  H31  1  0.45307200  0.80542400  0.45660100  1
  O  O32  1  0.94531500  0.71646300  0.38224500  1
  O  O33  1  0.44531500  0.28353700  0.61775500  1
  O  O34  1  0.44531500  0.78353700  0.88224500  1
  O  O35  1  0.94531500  0.21646300  0.11775500  1
  O  O36  1  0.88091500  0.40438000  0.30687300  1
  O  O37  1  0.38091500  0.59562000  0.69312700  1
  O  O38  1  0.38091500  0.09562000  0.80687300  1
  O  O39  1  0.88091500  0.90438000  0.19312700  1
  O  O40  1  0.93779500  0.44230100  0.50605300  1
  O  O41  1  0.43779500  0.55769900  0.49394700  1
  O  O42  1  0.43779500  0.05769900  0.00605300  1
  O  O43  1  0.93779500  0.94230100  0.99394700  1
  O  O44  1  0.51620800  0.47649800  0.25540200  1
  O  O45  1  0.01620800  0.52350200  0.74459800  1
  O  O46  1  0.01620800  0.02350200  0.75540200  1
  O  O47  1  0.51620800  0.97649800  0.24459800  1
  O  O48  1  0.24087500  0.56078400  0.15117800  1
  O  O49  1  0.74087500  0.43921600  0.84882200  1
  O  O50  1  0.74087500  0.93921600  0.65117800  1
  O  O51  1  0.24087500  0.06078400  0.34882200  1
  O  O52  1  0.51500900  0.42282100  0.03942800  1
  O  O53  1  0.01500900  0.57717900  0.96057200  1
  O  O54  1  0.01500900  0.07717900  0.53942800  1
  O  O55  1  0.51500900  0.92282100  0.46057200  1
