# generated using pymatgen
data_Sr(H2O3)2
_symmetry_space_group_name_H-M   'P 1'
_cell_length_a   5.87200098
_cell_length_b   5.87200098
_cell_length_c   6.05792322
_cell_angle_alpha   89.42833321
_cell_angle_beta   89.42833321
_cell_angle_gamma   96.36060479
_symmetry_Int_Tables_number   1
_chemical_formula_structural   Sr(H2O3)2
_chemical_formula_sum   'Sr2 H8 O12'
_cell_volume   207.57055321
_cell_formula_units_Z   2
loop_
 _symmetry_equiv_pos_site_id
 _symmetry_equiv_pos_as_xyz
  1  'x, y, z'
loop_
 _atom_site_type_symbol
 _atom_site_label
 _atom_site_symmetry_multiplicity
 _atom_site_fract_x
 _atom_site_fract_y
 _atom_site_fract_z
 _atom_site_occupancy
  Sr  Sr0  1  0.80756800  0.19243200  0.25000000  1
  Sr  Sr1  1  0.19243200  0.80756800  0.75000000  1
  H  H2  1  0.68021200  0.99983100  0.74552600  1
  H  H3  1  0.00016900  0.31978800  0.75447400  1
  H  H4  1  0.31978800  0.00016900  0.25447400  1
  H  H5  1  0.99983100  0.68021200  0.24552600  1
  H  H6  1  0.71046000  0.60463500  0.57649700  1
  H  H7  1  0.60463500  0.71046000  0.07649700  1
  H  H8  1  0.28954000  0.39536500  0.42350300  1
  H  H9  1  0.39536500  0.28954000  0.92350300  1
  O  O10  1  0.76796700  0.93193000  0.61072800  1
  O  O11  1  0.06807000  0.23203300  0.88927200  1
  O  O12  1  0.23203300  0.06807000  0.38927200  1
  O  O13  1  0.93193000  0.76796700  0.11072800  1
  O  O14  1  0.60037600  0.73184800  0.56147300  1
  O  O15  1  0.26815200  0.39962400  0.93852700  1
  O  O16  1  0.39962400  0.26815200  0.43852700  1
  O  O17  1  0.73184800  0.60037600  0.06147300  1
  O  O18  1  0.45893600  0.90957800  0.08598400  1
  O  O19  1  0.09042200  0.54106400  0.41401600  1
  O  O20  1  0.54106400  0.09042200  0.91401600  1
  O  O21  1  0.90957800  0.45893600  0.58598400  1
