# generated using pymatgen
data_InCu(MoO4)2
_symmetry_space_group_name_H-M   'P 1'
_cell_length_a   7.60677581
_cell_length_b   7.60677581
_cell_length_c   5.05161494
_cell_angle_alpha   89.29364273
_cell_angle_beta   89.29364273
_cell_angle_gamma   100.75382009
_symmetry_Int_Tables_number   1
_chemical_formula_structural   InCu(MoO4)2
_chemical_formula_sum   'In2 Cu2 Mo4 O16'
_cell_volume   287.11471261
_cell_formula_units_Z   2
loop_
 _symmetry_equiv_pos_site_id
 _symmetry_equiv_pos_as_xyz
  1  'x, y, z'
loop_
 _atom_site_type_symbol
 _atom_site_label
 _atom_site_symmetry_multiplicity
 _atom_site_fract_x
 _atom_site_fract_y
 _atom_site_fract_z
 _atom_site_occupancy
  In  In0  1  0.84497300  0.15502700  0.75000000  1
  In  In1  1  0.15502700  0.84497300  0.25000000  1
  Cu  Cu2  1  0.34140400  0.65859600  0.75000000  1
  Cu  Cu3  1  0.65859600  0.34140400  0.25000000  1
  Mo  Mo4  1  0.16814900  0.34904600  0.26008100  1
  Mo  Mo5  1  0.83185100  0.65095400  0.73991900  1
  Mo  Mo6  1  0.34904600  0.16814900  0.76008100  1
  Mo  Mo7  1  0.65095400  0.83185100  0.23991900  1
  O  O8  1  0.94096300  0.31438000  0.40017500  1
  O  O9  1  0.43156700  0.80873800  0.39799000  1
  O  O10  1  0.09365500  0.19291600  0.95366400  1
  O  O11  1  0.31438000  0.94096300  0.90017500  1
  O  O12  1  0.68562000  0.05903700  0.09982500  1
  O  O13  1  0.19126200  0.56843300  0.10201000  1
  O  O14  1  0.41072200  0.30420900  0.07071000  1
  O  O15  1  0.80873800  0.43156700  0.89799000  1
  O  O16  1  0.90634500  0.80708400  0.04633600  1
  O  O17  1  0.30420900  0.41072200  0.57071000  1
  O  O18  1  0.69579100  0.58927800  0.42929000  1
  O  O19  1  0.58927800  0.69579100  0.92929000  1
  O  O20  1  0.56843300  0.19126200  0.60201000  1
  O  O21  1  0.19291600  0.09365500  0.45366400  1
  O  O22  1  0.80708400  0.90634500  0.54633600  1
  O  O23  1  0.05903700  0.68562000  0.59982500  1
