# generated using pymatgen
data_Os3C10SO10
_symmetry_space_group_name_H-M   'P 1'
_cell_length_a   6.98725100
_cell_length_b   9.65831066
_cell_length_c   13.42037127
_cell_angle_alpha   82.60378591
_cell_angle_beta   87.62905148
_cell_angle_gamma   72.35856062
_symmetry_Int_Tables_number   1
_chemical_formula_structural   Os3C10SO10
_chemical_formula_sum   'Os6 C20 S2 O20'
_cell_volume   855.89821903
_cell_formula_units_Z   2
loop_
 _symmetry_equiv_pos_site_id
 _symmetry_equiv_pos_as_xyz
  1  'x, y, z'
loop_
 _atom_site_type_symbol
 _atom_site_label
 _atom_site_symmetry_multiplicity
 _atom_site_fract_x
 _atom_site_fract_y
 _atom_site_fract_z
 _atom_site_occupancy
  Os  Os0  1  0.16872800  0.23674600  0.36082000  1
  Os  Os1  1  0.83127200  0.76325400  0.63918000  1
  Os  Os2  1  0.35521500  0.18219800  0.16549800  1
  Os  Os3  1  0.23828800  0.47469400  0.22410900  1
  Os  Os4  1  0.64478500  0.81780200  0.83450200  1
  Os  Os5  1  0.76171200  0.52530600  0.77589100  1
  C  C6  1  0.33629400  0.24638000  0.02459900  1
  C  C7  1  0.24018400  0.57203000  0.09078800  1
  C  C8  1  0.96839500  0.37291000  0.72221700  1
  C  C9  1  0.70199000  0.99933800  0.83561600  1
  C  C10  1  0.04988900  0.64675500  0.56637000  1
  C  C11  1  0.43937300  0.55278300  0.26544900  1
  C  C12  1  0.55039500  0.73178600  0.70512400  1
  C  C13  1  0.66370600  0.75362000  0.97540100  1
  C  C14  1  0.90988600  0.93857400  0.62163200  1
  C  C15  1  0.63862700  0.08877500  0.15672800  1
  C  C16  1  0.44960500  0.26821400  0.29487600  1
  C  C17  1  0.29801000  0.00066200  0.16438400  1
  C  C18  1  0.66528700  0.81983400  0.52143900  1
  C  C19  1  0.33471300  0.18016600  0.47856100  1
  C  C20  1  0.09011400  0.06142600  0.37836800  1
  C  C21  1  0.95011100  0.35324500  0.43363000  1
  C  C22  1  0.75981600  0.42797000  0.90921200  1
  C  C23  1  0.36137300  0.91122500  0.84327200  1
  C  C24  1  0.03160500  0.62709000  0.27778300  1
  C  C25  1  0.56062700  0.44721700  0.73455100  1
  S  S26  1  0.98221000  0.66852900  0.80216200  1
  S  S27  1  0.01779000  0.33147100  0.19783800  1
  O  O28  1  0.31791300  0.28599900  0.93899900  1
  O  O29  1  0.73448400  0.10988800  0.83771000  1
  O  O30  1  0.26551600  0.89011200  0.16229000  1
  O  O31  1  0.81582500  0.42220300  0.47741300  1
  O  O32  1  0.18417500  0.57779700  0.52258700  1
  O  O33  1  0.44240600  0.39902100  0.70695300  1
  O  O34  1  0.56109200  0.84940900  0.45196800  1
  O  O35  1  0.61370700  0.24375300  0.33121700  1
  O  O36  1  0.04547600  0.95408200  0.38744800  1
  O  O37  1  0.81034100  0.03413200  0.15014900  1
  O  O38  1  0.43890800  0.15059100  0.54803200  1
  O  O39  1  0.68208700  0.71400100  0.06100100  1
  O  O40  1  0.38629300  0.75624700  0.66878300  1
  O  O41  1  0.18965900  0.96586800  0.84985100  1
  O  O42  1  0.90540900  0.72139500  0.30741500  1
  O  O43  1  0.09459100  0.27860500  0.69258500  1
  O  O44  1  0.55759400  0.60097900  0.29304700  1
  O  O45  1  0.75610800  0.36694700  0.98947400  1
  O  O46  1  0.95452400  0.04591800  0.61255200  1
  O  O47  1  0.24389200  0.63305300  0.01052600  1
