# generated using pymatgen
data_TbOs3
_symmetry_space_group_name_H-M   'P 1'
_cell_length_a   5.89616776
_cell_length_b   5.89616776
_cell_length_c   4.57957000
_cell_angle_alpha   90.00000000
_cell_angle_beta   90.00000000
_cell_angle_gamma   119.99999735
_symmetry_Int_Tables_number   1
_chemical_formula_structural   TbOs3
_chemical_formula_sum   'Tb2 Os6'
_cell_volume   137.87801077
_cell_formula_units_Z   2
loop_
 _symmetry_equiv_pos_site_id
 _symmetry_equiv_pos_as_xyz
  1  'x, y, z'
loop_
 _atom_site_type_symbol
 _atom_site_label
 _atom_site_symmetry_multiplicity
 _atom_site_fract_x
 _atom_site_fract_y
 _atom_site_fract_z
 _atom_site_occupancy
  Tb  Tb0  1  0.33333300  0.66666700  0.75000000  1
  Tb  Tb1  1  0.66666700  0.33333300  0.25000000  1
  Os  Os2  1  0.15534900  0.31069900  0.25000000  1
  Os  Os3  1  0.68930100  0.84465100  0.25000000  1
  Os  Os4  1  0.15534900  0.84465100  0.25000000  1
  Os  Os5  1  0.84465100  0.68930100  0.75000000  1
  Os  Os6  1  0.31069900  0.15534900  0.75000000  1
  Os  Os7  1  0.84465100  0.15534900  0.75000000  1
