# generated using pymatgen
data_KYb3F10
_symmetry_space_group_name_H-M   'P 1'
_cell_length_a   8.21132607
_cell_length_b   8.21132607
_cell_length_c   13.47746900
_cell_angle_alpha   90.00000000
_cell_angle_beta   90.00000000
_cell_angle_gamma   120.00000059
_symmetry_Int_Tables_number   1
_chemical_formula_structural   KYb3F10
_chemical_formula_sum   'K4 Yb12 F40'
_cell_volume   786.98339220
_cell_formula_units_Z   4
loop_
 _symmetry_equiv_pos_site_id
 _symmetry_equiv_pos_as_xyz
  1  'x, y, z'
loop_
 _atom_site_type_symbol
 _atom_site_label
 _atom_site_symmetry_multiplicity
 _atom_site_fract_x
 _atom_site_fract_y
 _atom_site_fract_z
 _atom_site_occupancy
  K  K0  1  0.00000000  0.00000000  0.98973400  1
  K  K1  1  0.66666700  0.33333300  0.24454400  1
  K  K2  1  0.33333300  0.66666700  0.74454400  1
  K  K3  1  0.00000000  0.00000000  0.48973400  1
  Yb  Yb4  1  0.81845400  0.63690900  0.75377000  1
  Yb  Yb5  1  0.03266700  0.51633400  0.48071100  1
  Yb  Yb6  1  0.36309100  0.18154600  0.75377000  1
  Yb  Yb7  1  0.51633400  0.03266700  0.98071100  1
  Yb  Yb8  1  0.48366600  0.96733300  0.48071100  1
  Yb  Yb9  1  0.48366600  0.51633400  0.48071100  1
  Yb  Yb10  1  0.96733300  0.48366600  0.98071100  1
  Yb  Yb11  1  0.63690900  0.81845400  0.25377000  1
  Yb  Yb12  1  0.81845400  0.18154600  0.75377000  1
  Yb  Yb13  1  0.18154600  0.81845400  0.25377000  1
  Yb  Yb14  1  0.51633400  0.48366600  0.98071100  1
  Yb  Yb15  1  0.18154600  0.36309100  0.25377000  1
  F  F16  1  0.11344200  0.22688400  0.78369600  1
  F  F17  1  0.22688400  0.11344200  0.28369600  1
  F  F18  1  0.49158000  0.50842000  0.30887700  1
  F  F19  1  0.33333300  0.66666700  0.20075500  1
  F  F20  1  0.78741400  0.21258600  0.46065300  1
  F  F21  1  0.21258600  0.42517200  0.96065300  1
  F  F22  1  0.81269100  0.18730900  0.92096300  1
  F  F23  1  0.62538100  0.81269100  0.42096300  1
  F  F24  1  0.88655800  0.11344200  0.28369600  1
  F  F25  1  0.01684000  0.50842000  0.30887700  1
  F  F26  1  0.50842000  0.01684000  0.80887700  1
  F  F27  1  0.01045100  0.31917300  0.10907200  1
  F  F28  1  0.69127800  0.68082700  0.60907200  1
  F  F29  1  0.98954900  0.68082700  0.60907200  1
  F  F30  1  0.21258600  0.78741400  0.96065300  1
  F  F31  1  0.31917300  0.01045100  0.60907200  1
  F  F32  1  0.30872200  0.98954900  0.10907200  1
  F  F33  1  0.77311600  0.88655800  0.78369600  1
  F  F34  1  0.81269100  0.62538100  0.92096300  1
  F  F35  1  0.66666700  0.33333300  0.70075500  1
  F  F36  1  0.37461900  0.18730900  0.92096300  1
  F  F37  1  0.78741400  0.57482800  0.46065300  1
  F  F38  1  0.30872200  0.31917300  0.10907200  1
  F  F39  1  0.66666700  0.33333300  0.04773300  1
  F  F40  1  0.18730900  0.37461900  0.42096300  1
  F  F41  1  0.98316000  0.49158000  0.80887700  1
  F  F42  1  0.88655800  0.77311600  0.28369600  1
  F  F43  1  0.31917300  0.30872200  0.60907200  1
  F  F44  1  0.49158000  0.98316000  0.30887700  1
  F  F45  1  0.33333300  0.66666700  0.54773300  1
  F  F46  1  0.42517200  0.21258600  0.46065300  1
  F  F47  1  0.69127800  0.01045100  0.60907200  1
  F  F48  1  0.68082700  0.69127800  0.10907200  1
  F  F49  1  0.50842000  0.49158000  0.80887700  1
  F  F50  1  0.68082700  0.98954900  0.10907200  1
  F  F51  1  0.18730900  0.81269100  0.42096300  1
  F  F52  1  0.57482800  0.78741400  0.96065300  1
  F  F53  1  0.98954900  0.30872200  0.60907200  1
  F  F54  1  0.11344200  0.88655800  0.78369600  1
  F  F55  1  0.01045100  0.69127800  0.10907200  1
