# generated using pymatgen
data_U(HO2)2
_symmetry_space_group_name_H-M   'P 1'
_cell_length_a   6.16202899
_cell_length_b   6.08592063
_cell_length_c   4.16240666
_cell_angle_alpha   71.12096952
_cell_angle_beta   69.15026970
_cell_angle_gamma   39.72876077
_symmetry_Int_Tables_number   1
_chemical_formula_structural   U(HO2)2
_chemical_formula_sum   'U1 H2 O4'
_cell_volume   92.91160190
_cell_formula_units_Z   1
loop_
 _symmetry_equiv_pos_site_id
 _symmetry_equiv_pos_as_xyz
  1  'x, y, z'
loop_
 _atom_site_type_symbol
 _atom_site_label
 _atom_site_symmetry_multiplicity
 _atom_site_fract_x
 _atom_site_fract_y
 _atom_site_fract_z
 _atom_site_occupancy
  U  U0  1  0.00312800  0.99687200  0.99687200  1
  H  H1  1  0.39376200  0.08633500  0.60623800  1
  H  H2  1  0.91366500  0.60623800  0.08633500  1
  O  O3  1  0.19954900  0.19243000  0.80045100  1
  O  O4  1  0.80757000  0.80045100  0.19243000  1
  O  O5  1  0.99918700  0.00081300  0.50265600  1
  O  O6  1  0.49734400  0.50265600  0.00081300  1
