# generated using pymatgen
data_K2SbF5
_symmetry_space_group_name_H-M   'P 1'
_cell_length_a   7.30810300
_cell_length_b   7.36429600
_cell_length_c   12.99962271
_cell_angle_alpha   63.99910022
_cell_angle_beta   90.00000000
_cell_angle_gamma   90.00000000
_symmetry_Int_Tables_number   1
_chemical_formula_structural   K2SbF5
_chemical_formula_sum   'K8 Sb4 F20'
_cell_volume   628.81588482
_cell_formula_units_Z   4
loop_
 _symmetry_equiv_pos_site_id
 _symmetry_equiv_pos_as_xyz
  1  'x, y, z'
loop_
 _atom_site_type_symbol
 _atom_site_label
 _atom_site_symmetry_multiplicity
 _atom_site_fract_x
 _atom_site_fract_y
 _atom_site_fract_z
 _atom_site_occupancy
  K  K0  1  0.75541000  0.06074400  0.43883600  1
  K  K1  1  0.75332200  0.49807500  0.09255500  1
  K  K2  1  0.25541000  0.93925600  0.06116400  1
  K  K3  1  0.74459000  0.06074400  0.93883600  1
  K  K4  1  0.24667800  0.50192500  0.90744500  1
  K  K5  1  0.25332200  0.50192500  0.40744500  1
  K  K6  1  0.74667800  0.49807500  0.59255500  1
  K  K7  1  0.24459000  0.93925600  0.56116400  1
  Sb  Sb8  1  0.75496800  0.81384800  0.25402000  1
  Sb  Sb9  1  0.24503200  0.18615200  0.74598000  1
  Sb  Sb10  1  0.74503200  0.81384800  0.75402000  1
  Sb  Sb11  1  0.25496800  0.18615200  0.24598000  1
  F  F12  1  0.92889200  0.79092200  0.63379500  1
  F  F13  1  0.96102100  0.74865600  0.38322900  1
  F  F14  1  0.94067000  0.79805100  0.13284300  1
  F  F15  1  0.03897900  0.25134400  0.61677100  1
  F  F16  1  0.44067000  0.20194900  0.36715700  1
  F  F17  1  0.53897900  0.74865600  0.88322900  1
  F  F18  1  0.23938400  0.48262700  0.68834100  1
  F  F19  1  0.42889200  0.20907800  0.86620500  1
  F  F20  1  0.46102100  0.25134400  0.11677100  1
  F  F21  1  0.07110800  0.20907800  0.36620500  1
  F  F22  1  0.05933000  0.20194900  0.86715700  1
  F  F23  1  0.55933000  0.79805100  0.63284300  1
  F  F24  1  0.57110800  0.79092200  0.13379500  1
  F  F25  1  0.26061600  0.48262700  0.18834100  1
  F  F26  1  0.73938400  0.51737300  0.81165900  1
  F  F27  1  0.45032200  0.26103400  0.61591700  1
  F  F28  1  0.95032200  0.73896600  0.88408300  1
  F  F29  1  0.76061600  0.51737300  0.31165900  1
  F  F30  1  0.04967800  0.26103400  0.11591700  1
  F  F31  1  0.54967800  0.73896600  0.38408300  1
