# generated using pymatgen
data_Pr(HO)3
_symmetry_space_group_name_H-M   'P 1'
_cell_length_a   3.77059100
_cell_length_b   6.56126700
_cell_length_c   6.59709241
_cell_angle_alpha   60.78916714
_cell_angle_beta   90.00000000
_cell_angle_gamma   90.00000000
_symmetry_Int_Tables_number   1
_chemical_formula_structural   Pr(HO)3
_chemical_formula_sum   'Pr2 H6 O6'
_cell_volume   142.45551989
_cell_formula_units_Z   2
loop_
 _symmetry_equiv_pos_site_id
 _symmetry_equiv_pos_as_xyz
  1  'x, y, z'
loop_
 _atom_site_type_symbol
 _atom_site_label
 _atom_site_symmetry_multiplicity
 _atom_site_fract_x
 _atom_site_fract_y
 _atom_site_fract_z
 _atom_site_occupancy
  Pr  Pr0  1  0.00000000  0.66545700  0.66469400  1
  Pr  Pr1  1  0.50000000  0.33953700  0.32405600  1
  H  H2  1  0.00000000  0.14026700  0.14110200  1
  H  H3  1  0.00000000  0.14138000  0.68821900  1
  H  H4  1  0.00000000  0.71810000  0.14000700  1
  H  H5  1  0.50000000  0.86407000  0.85372700  1
  H  H6  1  0.50000000  0.85885900  0.28553700  1
  H  H7  1  0.50000000  0.28037000  0.85754200  1
  O  O8  1  0.00000000  0.08862500  0.30700200  1
  O  O9  1  0.00000000  0.31017700  0.59240200  1
  O  O10  1  0.00000000  0.60778900  0.08168200  1
  O  O11  1  0.50000000  0.91216100  0.68860400  1
  O  O12  1  0.50000000  0.69214500  0.39405800  1
  O  O13  1  0.50000000  0.39666000  0.90842000  1
