# generated using pymatgen
data_NaHO
_symmetry_space_group_name_H-M   'P 1'
_cell_length_a   5.97040227
_cell_length_b   5.97040227
_cell_length_c   3.35204038
_cell_angle_alpha   80.87722951
_cell_angle_beta   80.87722951
_cell_angle_gamma   34.93847214
_symmetry_Int_Tables_number   1
_chemical_formula_structural   NaHO
_chemical_formula_sum   'Na2 H2 O2'
_cell_volume   67.47721433
_cell_formula_units_Z   2
loop_
 _symmetry_equiv_pos_site_id
 _symmetry_equiv_pos_as_xyz
  1  'x, y, z'
loop_
 _atom_site_type_symbol
 _atom_site_label
 _atom_site_symmetry_multiplicity
 _atom_site_fract_x
 _atom_site_fract_y
 _atom_site_fract_z
 _atom_site_occupancy
  Na  Na0  1  0.36113000  0.36113000  0.74879800  1
  Na  Na1  1  0.64944000  0.64944000  0.19363500  1
  H  H2  1  0.18348500  0.18348500  0.52179700  1
  H  H3  1  0.94406900  0.94406900  0.12411000  1
  O  O4  1  0.13354500  0.13354500  0.78543200  1
  O  O5  1  0.85982600  0.85982600  0.24867500  1
