# generated using pymatgen
data_FeSiGe
_symmetry_space_group_name_H-M   'P 1'
_cell_length_a   6.46673230
_cell_length_b   6.46673230
_cell_length_c   8.02976100
_cell_angle_alpha   90.00000000
_cell_angle_beta   90.00000000
_cell_angle_gamma   104.51389998
_symmetry_Int_Tables_number   1
_chemical_formula_structural   FeSiGe
_chemical_formula_sum   'Fe8 Si8 Ge8'
_cell_volume   325.07735291
_cell_formula_units_Z   8
loop_
 _symmetry_equiv_pos_site_id
 _symmetry_equiv_pos_as_xyz
  1  'x, y, z'
loop_
 _atom_site_type_symbol
 _atom_site_label
 _atom_site_symmetry_multiplicity
 _atom_site_fract_x
 _atom_site_fract_y
 _atom_site_fract_z
 _atom_site_occupancy
  Fe  Fe0  1  0.71729900  0.28270100  0.50000000  1
  Fe  Fe1  1  0.80547400  0.80547400  0.18523300  1
  Fe  Fe2  1  0.28270100  0.71729900  0.50000000  1
  Fe  Fe3  1  0.30547400  0.30547400  0.31476700  1
  Fe  Fe4  1  0.78270100  0.21729900  0.00000000  1
  Fe  Fe5  1  0.19452600  0.19452600  0.81476700  1
  Fe  Fe6  1  0.69452600  0.69452600  0.68523300  1
  Fe  Fe7  1  0.21729900  0.78270100  0.00000000  1
  Si  Si8  1  0.35695400  0.10186200  0.54439000  1
  Si  Si9  1  0.10186200  0.35695400  0.54439000  1
  Si  Si10  1  0.60186200  0.85695400  0.95561000  1
  Si  Si11  1  0.14304600  0.39813800  0.04439000  1
  Si  Si12  1  0.64304600  0.89813800  0.45561000  1
  Si  Si13  1  0.39813800  0.14304600  0.04439000  1
  Si  Si14  1  0.85695400  0.60186200  0.95561000  1
  Si  Si15  1  0.89813800  0.64304600  0.45561000  1
  Ge  Ge16  1  0.41695300  0.66960700  0.22689400  1
  Ge  Ge17  1  0.33039300  0.58304700  0.77310600  1
  Ge  Ge18  1  0.83039300  0.08304700  0.72689400  1
  Ge  Ge19  1  0.66960700  0.41695300  0.22689400  1
  Ge  Ge20  1  0.16960700  0.91695300  0.27310600  1
  Ge  Ge21  1  0.08304700  0.83039300  0.72689400  1
  Ge  Ge22  1  0.91695300  0.16960700  0.27310600  1
  Ge  Ge23  1  0.58304700  0.33039300  0.77310600  1
