# generated using pymatgen
data_Mn5Ge2
_symmetry_space_group_name_H-M   'P 1'
_cell_length_a   6.98873169
_cell_length_b   6.98873169
_cell_length_c   6.98873169
_cell_angle_alpha   135.36581716
_cell_angle_beta   129.38589767
_cell_angle_gamma   69.74815231
_symmetry_Int_Tables_number   1
_chemical_formula_structural   Mn5Ge2
_chemical_formula_sum   'Mn10 Ge4'
_cell_volume   181.83123541
_cell_formula_units_Z   2
loop_
 _symmetry_equiv_pos_site_id
 _symmetry_equiv_pos_as_xyz
  1  'x, y, z'
loop_
 _atom_site_type_symbol
 _atom_site_label
 _atom_site_symmetry_multiplicity
 _atom_site_fract_x
 _atom_site_fract_y
 _atom_site_fract_z
 _atom_site_occupancy
  Mn  Mn0  1  0.23047500  0.48047500  0.25000000  1
  Mn  Mn1  1  0.39543000  0.10916800  0.28626200  1
  Mn  Mn2  1  0.23047500  0.98047500  0.75000000  1
  Mn  Mn3  1  0.76952500  0.01952500  0.25000000  1
  Mn  Mn4  1  0.00000000  0.75000000  0.75000000  1
  Mn  Mn5  1  0.82290600  0.60916800  0.21373800  1
  Mn  Mn6  1  0.17709400  0.39083200  0.78626200  1
  Mn  Mn7  1  0.60457000  0.89083200  0.71373800  1
  Mn  Mn8  1  0.00000000  0.25000000  0.25000000  1
  Mn  Mn9  1  0.76952500  0.51952500  0.75000000  1
  Ge  Ge10  1  0.83041700  0.11641000  0.71400800  1
  Ge  Ge11  1  0.40240200  0.61641000  0.78599200  1
  Ge  Ge12  1  0.16958300  0.88359000  0.28599200  1
  Ge  Ge13  1  0.59759800  0.38359000  0.21400800  1
