# generated using pymatgen
data_TbPr3
_symmetry_space_group_name_H-M   'P 1'
_cell_length_a   7.37972224
_cell_length_b   7.37972224
_cell_length_c   6.05717100
_cell_angle_alpha   90.00000000
_cell_angle_beta   90.00000000
_cell_angle_gamma   120.00000214
_symmetry_Int_Tables_number   1
_chemical_formula_structural   TbPr3
_chemical_formula_sum   'Tb2 Pr6'
_cell_volume   285.68042852
_cell_formula_units_Z   2
loop_
 _symmetry_equiv_pos_site_id
 _symmetry_equiv_pos_as_xyz
  1  'x, y, z'
loop_
 _atom_site_type_symbol
 _atom_site_label
 _atom_site_symmetry_multiplicity
 _atom_site_fract_x
 _atom_site_fract_y
 _atom_site_fract_z
 _atom_site_occupancy
  Tb  Tb0  1  0.33333300  0.66666700  0.75000000  1
  Tb  Tb1  1  0.66666700  0.33333300  0.25000000  1
  Pr  Pr2  1  0.16775500  0.33550900  0.25000000  1
  Pr  Pr3  1  0.66449100  0.83224500  0.25000000  1
  Pr  Pr4  1  0.16775500  0.83224500  0.25000000  1
  Pr  Pr5  1  0.83224500  0.66449100  0.75000000  1
  Pr  Pr6  1  0.33550900  0.16775500  0.75000000  1
  Pr  Pr7  1  0.83224500  0.16775500  0.75000000  1
