# generated using pymatgen
data_BaH4O3
_symmetry_space_group_name_H-M   'P 1'
_cell_length_a   4.17621300
_cell_length_b   6.43950385
_cell_length_c   7.20690655
_cell_angle_alpha   70.63074735
_cell_angle_beta   89.39181227
_cell_angle_gamma   89.31601162
_symmetry_Int_Tables_number   1
_chemical_formula_structural   BaH4O3
_chemical_formula_sum   'Ba2 H8 O6'
_cell_volume   182.82619089
_cell_formula_units_Z   2
loop_
 _symmetry_equiv_pos_site_id
 _symmetry_equiv_pos_as_xyz
  1  'x, y, z'
loop_
 _atom_site_type_symbol
 _atom_site_label
 _atom_site_symmetry_multiplicity
 _atom_site_fract_x
 _atom_site_fract_y
 _atom_site_fract_z
 _atom_site_occupancy
  Ba  Ba0  1  0.74884700  0.13489200  0.71798700  1
  Ba  Ba1  1  0.25115300  0.86510800  0.28201300  1
  H  H2  1  0.24816400  0.35070300  0.93743500  1
  H  H3  1  0.75183600  0.64929700  0.06256500  1
  H  H4  1  0.24990700  0.76749300  0.83225800  1
  H  H5  1  0.75009300  0.23250700  0.16774200  1
  H  H6  1  0.44062600  0.31508300  0.33879800  1
  H  H7  1  0.05633700  0.31942100  0.33820800  1
  H  H8  1  0.94932100  0.65971400  0.65890100  1
  H  H9  1  0.55937400  0.68491700  0.66120200  1
  O  O10  1  0.24805100  0.38925600  0.37860900  1
  O  O11  1  0.75622300  0.59818600  0.61385300  1
  O  O12  1  0.24257900  0.20037600  0.93612800  1
  O  O13  1  0.75742100  0.79962400  0.06387200  1
  O  O14  1  0.26699200  0.81887900  0.68884800  1
  O  O15  1  0.75058700  0.17110200  0.30652100  1
