# generated using pymatgen
data_C
_symmetry_space_group_name_H-M   'P 1'
_cell_length_a   2.46468630
_cell_length_b   2.46468630
_cell_length_c   3.73812947
_cell_angle_alpha   86.54699616
_cell_angle_beta   86.54699616
_cell_angle_gamma   60.25253029
_symmetry_Int_Tables_number   1
_chemical_formula_structural   C
_chemical_formula_sum   C2
_cell_volume   19.66763956
_cell_formula_units_Z   2
loop_
 _symmetry_equiv_pos_site_id
 _symmetry_equiv_pos_as_xyz
  1  'x, y, z'
loop_
 _atom_site_type_symbol
 _atom_site_label
 _atom_site_symmetry_multiplicity
 _atom_site_fract_x
 _atom_site_fract_y
 _atom_site_fract_z
 _atom_site_occupancy
  C  C0  1  0.83381700  0.83381700  0.99990500  1
  C  C1  1  0.16618300  0.16618300  0.00009500  1
