# generated using pymatgen
data_Sr2GaSbO6
_symmetry_space_group_name_H-M   'P 1'
_cell_length_a   5.66360335
_cell_length_b   5.66360335
_cell_length_c   5.66360335
_cell_angle_alpha   120.80457974
_cell_angle_beta   120.80457974
_cell_angle_gamma   88.61198614
_symmetry_Int_Tables_number   1
_chemical_formula_structural   Sr2GaSbO6
_chemical_formula_sum   'Sr2 Ga1 Sb1 O6'
_cell_volume   126.85609036
_cell_formula_units_Z   1
loop_
 _symmetry_equiv_pos_site_id
 _symmetry_equiv_pos_as_xyz
  1  'x, y, z'
loop_
 _atom_site_type_symbol
 _atom_site_label
 _atom_site_symmetry_multiplicity
 _atom_site_fract_x
 _atom_site_fract_y
 _atom_site_fract_z
 _atom_site_occupancy
  Sr  Sr0  1  0.75000000  0.25000000  0.50000000  1
  Sr  Sr1  1  0.25000000  0.75000000  0.50000000  1
  Ga  Ga2  1  0.00000000  0.00000000  0.00000000  1
  Sb  Sb3  1  0.50000000  0.50000000  0.00000000  1
  O  O4  1  0.79194800  0.70861300  0.50056100  1
  O  O5  1  0.29138700  0.79194800  0.08333500  1
  O  O6  1  0.70861300  0.20805200  0.91666500  1
  O  O7  1  0.20805200  0.29138700  0.49943900  1
  O  O8  1  0.74790800  0.74790800  0.00000000  1
  O  O9  1  0.25209200  0.25209200  0.00000000  1
