# generated using pymatgen
data_Si2H2O3
_symmetry_space_group_name_H-M   'P 1'
_cell_length_a   8.06123600
_cell_length_b   10.25171415
_cell_length_c   12.79516283
_cell_angle_alpha   84.05734903
_cell_angle_beta   72.65638596
_cell_angle_gamma   69.75104327
_symmetry_Int_Tables_number   1
_chemical_formula_structural   Si2H2O3
_chemical_formula_sum   'Si20 H20 O30'
_cell_volume   946.95581565
_cell_formula_units_Z   10
loop_
 _symmetry_equiv_pos_site_id
 _symmetry_equiv_pos_as_xyz
  1  'x, y, z'
loop_
 _atom_site_type_symbol
 _atom_site_label
 _atom_site_symmetry_multiplicity
 _atom_site_fract_x
 _atom_site_fract_y
 _atom_site_fract_z
 _atom_site_occupancy
  Si  Si0  1  0.29118600  0.18209800  0.87570100  1
  Si  Si1  1  0.30091300  0.36352600  0.64272500  1
  Si  Si2  1  0.66649900  0.92731300  0.09176100  1
  Si  Si3  1  0.66484100  0.50916800  0.41519900  1
  Si  Si4  1  0.27030800  0.90573900  0.71593200  1
  Si  Si5  1  0.84723700  0.61429500  0.82534700  1
  Si  Si6  1  0.76030400  0.12479200  0.23610700  1
  Si  Si7  1  0.02267100  0.42457100  0.19123000  1
  Si  Si8  1  0.81304900  0.99310900  0.78090000  1
  Si  Si9  1  0.61116300  0.51575400  0.69753000  1
  Si  Si10  1  0.20829000  0.00547400  0.20698900  1
  Si  Si11  1  0.43093500  0.55424800  0.29043000  1
  Si  Si12  1  0.82191200  0.23297600  0.54637500  1
  Si  Si13  1  0.54119700  0.22809400  0.94205400  1
  Si  Si14  1  0.17166000  0.80230700  0.46422200  1
  Si  Si15  1  0.40766300  0.70576400  0.04977700  1
  Si  Si16  1  0.28690100  0.13795300  0.49845900  1
  Si  Si17  1  0.92140700  0.37515600  0.03712200  1
  Si  Si18  1  0.75531700  0.82599500  0.48630300  1
  Si  Si19  1  0.09872400  0.61980100  0.98792700  1
  H  H20  1  0.10785600  0.05619700  0.88887900  1
  H  H21  1  0.10432300  0.59395200  0.62968000  1
  H  H22  1  0.04186700  0.07320300  0.62486700  1
  H  H23  1  0.50593700  0.31493900  0.31165800  1
  H  H24  1  0.94378800  0.36757600  0.62601400  1
  H  H25  1  0.08767200  0.83777500  0.15473800  1
  H  H26  1  0.10564000  0.69587800  0.33247200  1
  H  H27  1  0.72352000  0.24382800  0.05506600  1
  H  H28  1  0.04593500  0.85298600  0.98088600  1
  H  H29  1  0.90279600  0.59114000  0.44736500  1
  H  H30  1  0.06414600  0.33879900  0.80865700  1
  H  H31  1  0.62088600  0.73183200  0.19870400  1
  H  H32  1  0.50356300  0.94458700  0.56859600  1
  H  H33  1  0.75219700  0.40768800  0.89675600  1
  H  H34  1  0.76694200  0.83641300  0.30279400  1
  H  H35  1  0.89668800  0.67916500  0.17091500  1
  H  H36  1  0.59758200  0.17284200  0.67707400  1
  H  H37  1  0.46546800  0.46792400  0.91050100  1
  H  H38  1  0.00337200  0.97464600  0.36804000  1
  H  H39  1  0.25424800  0.55939500  0.16848400  1
  O  O40  1  0.24123400  0.03352700  0.85536300  1
  O  O41  1  0.10573700  0.51677500  0.68171900  1
  O  O42  1  0.76140900  0.01787700  0.14463300  1
  O  O43  1  0.84832500  0.47538100  0.30819200  1
  O  O44  1  0.04186500  0.98927300  0.72637500  1
  O  O45  1  0.72107300  0.58916100  0.75288600  1
  O  O46  1  0.98522200  0.09209300  0.22034500  1
  O  O47  1  0.40058200  0.40345400  0.32899500  1
  O  O48  1  0.74962800  0.12324500  0.87128800  1
  O  O49  1  0.81647800  0.37095100  0.63225500  1
  O  O50  1  0.20847100  0.85066900  0.12735500  1
  O  O51  1  0.20688200  0.66030400  0.36794900  1
  O  O52  1  0.04657200  0.12651300  0.55088200  1
  O  O53  1  0.76036300  0.29799700  0.09836500  1
  O  O54  1  0.94860000  0.81553300  0.51988400  1
  O  O55  1  0.30481500  0.64179600  0.97798900  1
  O  O56  1  0.10861000  0.24264300  0.98175400  1
  O  O57  1  0.21474800  0.29119800  0.56768500  1
  O  O58  1  0.96775600  0.79607800  0.98957300  1
  O  O59  1  0.77462300  0.64655200  0.48063500  1
  O  O60  1  0.19965400  0.29294000  0.77673500  1
  O  O61  1  0.69694700  0.79158800  0.19138300  1
  O  O62  1  0.35705800  0.01078000  0.61023800  1
  O  O63  1  0.85459400  0.43609300  0.90756600  1
  O  O64  1  0.84506400  0.84573300  0.34702300  1
  O  O65  1  0.02421700  0.60402800  0.14564900  1
  O  O66  1  0.73313400  0.13435700  0.65468300  1
  O  O67  1  0.56270600  0.38659400  0.86799700  1
  O  O68  1  0.13762600  0.93367900  0.35341000  1
  O  O69  1  0.36628100  0.58159600  0.16514200  1
