# generated using pymatgen
data_CaP(HO3)2
_symmetry_space_group_name_H-M   'P 1'
_cell_length_a   8.29723051
_cell_length_b   8.29723051
_cell_length_c   5.62757211
_cell_angle_alpha   78.68337325
_cell_angle_beta   78.68337325
_cell_angle_gamma   134.41111822
_symmetry_Int_Tables_number   1
_chemical_formula_structural   CaP(HO3)2
_chemical_formula_sum   'Ca2 P2 H4 O12'
_cell_volume   238.62673388
_cell_formula_units_Z   2
loop_
 _symmetry_equiv_pos_site_id
 _symmetry_equiv_pos_as_xyz
  1  'x, y, z'
loop_
 _atom_site_type_symbol
 _atom_site_label
 _atom_site_symmetry_multiplicity
 _atom_site_fract_x
 _atom_site_fract_y
 _atom_site_fract_z
 _atom_site_occupancy
  Ca  Ca0  1  0.83444100  0.17341100  0.74902800  1
  Ca  Ca1  1  0.17341100  0.83444100  0.24902800  1
  P  P2  1  0.32594200  0.67030300  0.73878200  1
  P  P3  1  0.67030300  0.32594200  0.23878200  1
  H  H4  1  0.28136600  0.29093300  0.39785100  1
  H  H5  1  0.29093300  0.28136600  0.89785100  1
  H  H6  1  0.18537400  0.35173000  0.22124600  1
  H  H7  1  0.35173000  0.18537400  0.72124600  1
  O  O8  1  0.60820300  0.84270000  0.51448300  1
  O  O9  1  0.84270000  0.60820300  0.01448300  1
  O  O10  1  0.37787700  0.81862000  0.89822100  1
  O  O11  1  0.81862000  0.37787700  0.39822100  1
  O  O12  1  0.18943500  0.40288200  0.91705300  1
  O  O13  1  0.40288200  0.18943500  0.41705300  1
  O  O14  1  0.16964500  0.63593700  0.60139300  1
  O  O15  1  0.63593700  0.16964500  0.10139300  1
  O  O16  1  0.18504500  0.32164200  0.40294200  1
  O  O17  1  0.32164200  0.18504500  0.90294200  1
  O  O18  1  0.69341100  0.80510400  0.15800000  1
  O  O19  1  0.80510400  0.69341100  0.65800000  1
