# generated using pymatgen
data_Fe2CuH4(OF4)2
_symmetry_space_group_name_H-M   'P 1'
_cell_length_a   5.40147269
_cell_length_b   5.40147269
_cell_length_c   13.19835777
_cell_angle_alpha   89.56321363
_cell_angle_beta   90.43678637
_cell_angle_gamma   89.95738784
_symmetry_Int_Tables_number   1
_chemical_formula_structural   Fe2CuH4(OF4)2
_chemical_formula_sum   'Fe4 Cu2 H8 O4 F16'
_cell_volume   385.05156030
_cell_formula_units_Z   2
loop_
 _symmetry_equiv_pos_site_id
 _symmetry_equiv_pos_as_xyz
  1  'x, y, z'
loop_
 _atom_site_type_symbol
 _atom_site_label
 _atom_site_symmetry_multiplicity
 _atom_site_fract_x
 _atom_site_fract_y
 _atom_site_fract_z
 _atom_site_occupancy
  Fe  Fe0  1  0.20553800  0.70600800  0.75278900  1
  Fe  Fe1  1  0.70600800  0.20553800  0.74721100  1
  Fe  Fe2  1  0.79446200  0.29399200  0.24721100  1
  Fe  Fe3  1  0.29399200  0.79446200  0.25278900  1
  Cu  Cu4  1  0.00000000  0.50000000  0.50000000  1
  Cu  Cu5  1  0.50000000  0.00000000  0.00000000  1
  H  H6  1  0.24838500  0.40962600  0.96197500  1
  H  H7  1  0.40962600  0.24838500  0.53802500  1
  H  H8  1  0.75161500  0.59037400  0.03802500  1
  H  H9  1  0.59037400  0.75161500  0.46197500  1
  H  H10  1  0.90949400  0.75675600  0.95916000  1
  H  H11  1  0.75675600  0.90949400  0.54084000  1
  H  H12  1  0.09050600  0.24324400  0.04084000  1
  H  H13  1  0.24324400  0.09050600  0.45916000  1
  O  O14  1  0.24537000  0.25486600  0.00177400  1
  O  O15  1  0.25486600  0.24537000  0.49822600  1
  O  O16  1  0.75463000  0.74513400  0.99822600  1
  O  O17  1  0.74513400  0.75463000  0.50177400  1
  F  F18  1  0.00739500  0.39859600  0.76814600  1
  F  F19  1  0.39859600  0.00739500  0.73185400  1
  F  F20  1  0.99260500  0.60140400  0.23185400  1
  F  F21  1  0.60140400  0.99260500  0.26814600  1
  F  F22  1  0.17619600  0.66935000  0.60622100  1
  F  F23  1  0.66935000  0.17619600  0.89377900  1
  F  F24  1  0.82380400  0.33065000  0.39377900  1
  F  F25  1  0.33065000  0.82380400  0.10622100  1
  F  F26  1  0.21435200  0.72031700  0.89919700  1
  F  F27  1  0.72031700  0.21435200  0.60080300  1
  F  F28  1  0.78564800  0.27968300  0.10080300  1
  F  F29  1  0.27968300  0.78564800  0.39919700  1
  F  F30  1  0.89855100  0.89855100  0.75000000  1
  F  F31  1  0.10144900  0.10144900  0.25000000  1
  F  F32  1  0.50843300  0.50843300  0.75000000  1
  F  F33  1  0.49156700  0.49156700  0.25000000  1
