# generated using pymatgen
data_Gd13Ge6O31F
_symmetry_space_group_name_H-M   'P 1'
_cell_length_a   9.83357532
_cell_length_b   9.83357532
_cell_length_c   9.83357527
_cell_angle_alpha   109.80993865
_cell_angle_beta   109.80993865
_cell_angle_gamma   109.80993369
_symmetry_Int_Tables_number   1
_chemical_formula_structural   Gd13Ge6O31F
_chemical_formula_sum   'Gd13 Ge6 O31 F1'
_cell_volume   722.67683180
_cell_formula_units_Z   1
loop_
 _symmetry_equiv_pos_site_id
 _symmetry_equiv_pos_as_xyz
  1  'x, y, z'
loop_
 _atom_site_type_symbol
 _atom_site_label
 _atom_site_symmetry_multiplicity
 _atom_site_fract_x
 _atom_site_fract_y
 _atom_site_fract_z
 _atom_site_occupancy
  Gd  Gd0  1  0.05756300  0.72466000  0.14838300  1
  Gd  Gd1  1  0.72466000  0.14838300  0.05756300  1
  Gd  Gd2  1  0.53088500  0.67059200  0.81477900  1
  Gd  Gd3  1  0.99494500  0.99494500  0.99494500  1
  Gd  Gd4  1  0.93934800  0.27437400  0.84531800  1
  Gd  Gd5  1  0.84531800  0.93934800  0.27437400  1
  Gd  Gd6  1  0.47529600  0.32352600  0.17181300  1
  Gd  Gd7  1  0.27437400  0.84531800  0.93934800  1
  Gd  Gd8  1  0.32352600  0.17181300  0.47529600  1
  Gd  Gd9  1  0.14838300  0.05756300  0.72466000  1
  Gd  Gd10  1  0.67059200  0.81477900  0.53088500  1
  Gd  Gd11  1  0.17181300  0.47529600  0.32352600  1
  Gd  Gd12  1  0.81477900  0.53088500  0.67059200  1
  Ge  Ge13  1  0.65789700  0.44318100  0.93070800  1
  Ge  Ge14  1  0.06613800  0.33980800  0.55321400  1
  Ge  Ge15  1  0.55321400  0.06613800  0.33980800  1
  Ge  Ge16  1  0.33980800  0.55321400  0.06613800  1
  Ge  Ge17  1  0.93070800  0.65789700  0.44318100  1
  Ge  Ge18  1  0.44318100  0.93070800  0.65789700  1
  O  O19  1  0.82324600  0.44403500  0.89336100  1
  O  O20  1  0.74974000  0.66106500  0.06877700  1
  O  O21  1  0.33368900  0.92789200  0.24783300  1
  O  O22  1  0.49083000  0.40229100  0.74827400  1
  O  O23  1  0.25150500  0.49681700  0.58458600  1
  O  O24  1  0.40229100  0.74827400  0.49083000  1
  O  O25  1  0.44403500  0.89336100  0.82324600  1
  O  O26  1  0.59198300  0.30772900  0.00573700  1
  O  O27  1  0.99073700  0.40595100  0.68603100  1
  O  O28  1  0.24783300  0.33368900  0.92789200  1
  O  O29  1  0.68603100  0.99073700  0.40595100  1
  O  O30  1  0.89336100  0.82324600  0.44403500  1
  O  O31  1  0.40595100  0.68603100  0.99073700  1
  O  O32  1  0.92789200  0.24783300  0.33368900  1
  O  O33  1  0.30772900  0.00573700  0.59198300  1
  O  O34  1  0.58458600  0.25150500  0.49681700  1
  O  O35  1  0.06908800  0.97702100  0.24472400  1
  O  O36  1  0.09897400  0.16985900  0.54961100  1
  O  O37  1  0.49681700  0.58458600  0.25150500  1
  O  O38  1  0.54961100  0.09897400  0.16985900  1
  O  O39  1  0.02236900  0.75712900  0.92883000  1
  O  O40  1  0.92883000  0.02236900  0.75712900  1
  O  O41  1  0.68460700  0.68460700  0.68460700  1
  O  O42  1  0.97702100  0.24472300  0.06908800  1
  O  O43  1  0.00573700  0.59198300  0.30772900  1
  O  O44  1  0.16985900  0.54961100  0.09897400  1
  O  O45  1  0.06877700  0.74974000  0.66106500  1
  O  O46  1  0.74827400  0.49083000  0.40229100  1
  O  O47  1  0.24472300  0.06908800  0.97702100  1
  O  O48  1  0.75712900  0.92883000  0.02236900  1
  O  O49  1  0.66106500  0.06877700  0.74974000  1
  F  F50  1  0.29735400  0.29735400  0.29735400  1
