# generated using pymatgen
data_Fe3C9(SO5)2
_symmetry_space_group_name_H-M   'P 1'
_cell_length_a   9.10901800
_cell_length_b   9.58965158
_cell_length_c   10.41716568
_cell_angle_alpha   97.08900775
_cell_angle_beta   91.27991551
_cell_angle_gamma   116.94954004
_symmetry_Int_Tables_number   1
_chemical_formula_structural   Fe3C9(SO5)2
_chemical_formula_sum   'Fe6 C18 S4 O20'
_cell_volume   801.78926027
_cell_formula_units_Z   2
loop_
 _symmetry_equiv_pos_site_id
 _symmetry_equiv_pos_as_xyz
  1  'x, y, z'
loop_
 _atom_site_type_symbol
 _atom_site_label
 _atom_site_symmetry_multiplicity
 _atom_site_fract_x
 _atom_site_fract_y
 _atom_site_fract_z
 _atom_site_occupancy
  Fe  Fe0  1  0.87932400  0.61050500  0.75843000  1
  Fe  Fe1  1  0.68618600  0.74879000  0.80227900  1
  Fe  Fe2  1  0.12067600  0.38949500  0.24157000  1
  Fe  Fe3  1  0.31381400  0.25121000  0.19772100  1
  Fe  Fe4  1  0.41633200  0.64706900  0.28248200  1
  Fe  Fe5  1  0.58366800  0.35293100  0.71751800  1
  C  C6  1  0.99520900  0.34362500  0.09132800  1
  C  C7  1  0.77252000  0.91595100  0.71177900  1
  C  C8  1  0.00479100  0.65637500  0.90867200  1
  C  C9  1  0.59153500  0.24021000  0.56525300  1
  C  C10  1  0.47864700  0.72160400  0.79864200  1
  C  C11  1  0.52135300  0.27839600  0.20135800  1
  C  C12  1  0.23560300  0.12561800  0.04237900  1
  C  C13  1  0.22748000  0.08404900  0.28822100  1
  C  C14  1  0.42384200  0.79689200  0.18756500  1
  C  C15  1  0.40846500  0.75979000  0.43474700  1
  C  C16  1  0.06033700  0.52876800  0.32207500  1
  C  C17  1  0.97764300  0.21985200  0.30853100  1
  C  C18  1  0.76439700  0.87438200  0.95762100  1
  C  C19  1  0.63415200  0.70677800  0.29626200  1
  C  C20  1  0.36584800  0.29322200  0.70373800  1
  C  C21  1  0.02235700  0.78014800  0.69146900  1
  C  C22  1  0.93966300  0.47123200  0.67792500  1
  C  C23  1  0.57615800  0.20310800  0.81243500  1
  S  S24  1  0.66443000  0.57567800  0.62078900  1
  S  S25  1  0.66286800  0.54160300  0.88034200  1
  S  S26  1  0.33713200  0.45839700  0.11965800  1
  S  S27  1  0.33557000  0.42432200  0.37921100  1
  O  O28  1  0.81316500  0.94970100  0.05906100  1
  O  O29  1  0.88398200  0.11300900  0.35319800  1
  O  O30  1  0.59346400  0.16972200  0.46777200  1
  O  O31  1  0.17791500  0.97975800  0.34689400  1
  O  O32  1  0.32619800  0.47427000  0.97872800  1
  O  O33  1  0.65513900  0.29480300  0.20596800  1
  O  O34  1  0.99015400  0.39058300  0.62481200  1
  O  O35  1  0.22665200  0.25733900  0.69311600  1
  O  O36  1  0.08017500  0.68845200  0.00793400  1
  O  O37  1  0.43274000  0.89277800  0.12684900  1
  O  O38  1  0.82208500  0.02024200  0.65310600  1
  O  O39  1  0.56726000  0.10722200  0.87315100  1
  O  O40  1  0.11601800  0.88699100  0.64680200  1
  O  O41  1  0.18683500  0.05029900  0.94093900  1
  O  O42  1  0.77334800  0.74266100  0.30688400  1
  O  O43  1  0.40653600  0.83027800  0.53222800  1
  O  O44  1  0.67380200  0.52573000  0.02127200  1
  O  O45  1  0.00984600  0.60941700  0.37518800  1
  O  O46  1  0.91982500  0.31154800  0.99206600  1
  O  O47  1  0.34486100  0.70519700  0.79403200  1
