# generated using pymatgen
data_InCo3(CO)12
_symmetry_space_group_name_H-M   'P 1'
_cell_length_a   6.87290900
_cell_length_b   16.71896100
_cell_length_c   19.60039491
_cell_angle_alpha   62.15711862
_cell_angle_beta   90.00000000
_cell_angle_gamma   90.00000000
_symmetry_Int_Tables_number   1
_chemical_formula_structural   InCo3(CO)12
_chemical_formula_sum   'In4 Co12 C48 O48'
_cell_volume   1991.50209534
_cell_formula_units_Z   4
loop_
 _symmetry_equiv_pos_site_id
 _symmetry_equiv_pos_as_xyz
  1  'x, y, z'
loop_
 _atom_site_type_symbol
 _atom_site_label
 _atom_site_symmetry_multiplicity
 _atom_site_fract_x
 _atom_site_fract_y
 _atom_site_fract_z
 _atom_site_occupancy
  In  In0  1  0.85746200  0.22949300  0.78252200  1
  In  In1  1  0.35746200  0.77050700  0.71747800  1
  In  In2  1  0.64253800  0.22949300  0.28252200  1
  In  In3  1  0.14253800  0.77050700  0.21747800  1
  Co  Co4  1  0.28005500  0.93593400  0.14322700  1
  Co  Co5  1  0.68856500  0.32490000  0.13232100  1
  Co  Co6  1  0.81143500  0.32490000  0.63232100  1
  Co  Co7  1  0.49227700  0.30812200  0.35911300  1
  Co  Co8  1  0.21994500  0.93593400  0.64322700  1
  Co  Co9  1  0.50772300  0.69187800  0.64088700  1
  Co  Co10  1  0.18856500  0.67510000  0.36767900  1
  Co  Co11  1  0.31143500  0.67510000  0.86767900  1
  Co  Co12  1  0.71994500  0.06406600  0.85677300  1
  Co  Co13  1  0.99227700  0.69187800  0.14088700  1
  Co  Co14  1  0.78005500  0.06406600  0.35677300  1
  Co  Co15  1  0.00772300  0.30812200  0.85911300  1
  C  C16  1  0.56886600  0.67827000  0.86430600  1
  C  C17  1  0.30050700  0.76842100  0.37259900  1
  C  C18  1  0.55860200  0.59732000  0.73191000  1
  C  C19  1  0.99432500  0.11862200  0.30789200  1
  C  C20  1  0.76510200  0.06730000  0.94492400  1
  C  C21  1  0.29304800  0.59436100  0.96570800  1
  C  C22  1  0.83624100  0.38216700  0.16906700  1
  C  C23  1  0.19949300  0.76842100  0.87259900  1
  C  C24  1  0.63951800  0.95096600  0.89385800  1
  C  C25  1  0.93113400  0.67827000  0.36430600  1
  C  C26  1  0.61031100  0.64805400  0.58288900  1
  C  C27  1  0.50567500  0.11862200  0.80789200  1
  C  C28  1  0.80050700  0.23157900  0.12740100  1
  C  C29  1  0.05860200  0.40268000  0.76809000  1
  C  C30  1  0.94139800  0.59732000  0.23191000  1
  C  C31  1  0.08698200  0.94900800  0.19612600  1
  C  C32  1  0.86048200  0.95096600  0.39385800  1
  C  C33  1  0.76289500  0.29956700  0.88909300  1
  C  C34  1  0.73489800  0.06730000  0.44492400  1
  C  C35  1  0.84700000  0.79005100  0.10166300  1
  C  C36  1  0.91301800  0.05099200  0.80387400  1
  C  C37  1  0.66375900  0.38216700  0.66906700  1
  C  C38  1  0.23489800  0.93270000  0.05507600  1
  C  C39  1  0.26510200  0.93270000  0.55507600  1
  C  C40  1  0.23710500  0.70043300  0.11090700  1
  C  C41  1  0.69949300  0.23157900  0.62740100  1
  C  C42  1  0.11031100  0.35194600  0.91711100  1
  C  C43  1  0.88968900  0.64805400  0.08288900  1
  C  C44  1  0.34700000  0.20994900  0.39833700  1
  C  C45  1  0.16375900  0.61783300  0.83093300  1
  C  C46  1  0.43113400  0.32173000  0.13569400  1
  C  C47  1  0.65300000  0.79005100  0.60166300  1
  C  C48  1  0.73710500  0.29956700  0.38909300  1
  C  C49  1  0.33624100  0.61783300  0.33093300  1
  C  C50  1  0.79304800  0.40563900  0.53429200  1
  C  C51  1  0.49432500  0.88137800  0.19210800  1
  C  C52  1  0.20695200  0.59436100  0.46570800  1
  C  C53  1  0.36048200  0.04903400  0.10614200  1
  C  C54  1  0.00567500  0.88137800  0.69210800  1
  C  C55  1  0.38968900  0.35194600  0.41711100  1
  C  C56  1  0.13951800  0.04903400  0.60614200  1
  C  C57  1  0.41301800  0.94900800  0.69612600  1
  C  C58  1  0.26289500  0.70043300  0.61090700  1
  C  C59  1  0.58698200  0.05099200  0.30387400  1
  C  C60  1  0.15300000  0.20994900  0.89833700  1
  C  C61  1  0.44139800  0.40268000  0.26809000  1
  C  C62  1  0.70695200  0.40563900  0.03429200  1
  C  C63  1  0.06886600  0.32173000  0.63569400  1
  O  O64  1  0.36085200  0.15087900  0.77610700  1
  O  O65  1  0.68042800  0.62033700  0.54459100  1
  O  O66  1  0.75324500  0.85281600  0.57023400  1
  O  O67  1  0.91004800  0.87689600  0.41647400  1
  O  O68  1  0.90889700  0.53216000  0.28857400  1
  O  O69  1  0.28895400  0.93318500  0.49632600  1
  O  O70  1  0.24675500  0.14718400  0.42976600  1
  O  O71  1  0.23796400  0.32179600  0.63289200  1
  O  O72  1  0.39494300  0.70440700  0.08808000  1
  O  O73  1  0.46599700  0.03624800  0.26966700  1
  O  O74  1  0.87699000  0.17507800  0.11908800  1
  O  O75  1  0.09110300  0.46784000  0.71142600  1
  O  O76  1  0.59110300  0.53216000  0.78857400  1
  O  O77  1  0.25324500  0.14718400  0.92976600  1
  O  O78  1  0.60505700  0.29559300  0.91192000  1
  O  O79  1  0.21104600  0.93318500  0.99632600  1
  O  O80  1  0.89494300  0.29559300  0.41192000  1
  O  O81  1  0.12301000  0.82492200  0.88091200  1
  O  O82  1  0.73796400  0.67820400  0.86710800  1
  O  O83  1  0.96599700  0.96375200  0.23033300  1
  O  O84  1  0.58995200  0.87689600  0.91647400  1
  O  O85  1  0.40889700  0.46784000  0.21142600  1
  O  O86  1  0.93689600  0.42304200  0.18946600  1
  O  O87  1  0.56310400  0.42304200  0.68946600  1
  O  O88  1  0.86085200  0.84912100  0.72389300  1
  O  O89  1  0.78174500  0.45828900  0.46997500  1
  O  O90  1  0.74675500  0.85281600  0.07023400  1
  O  O91  1  0.41004800  0.12310400  0.08352600  1
  O  O92  1  0.26203600  0.32179600  0.13289200  1
  O  O93  1  0.71104600  0.06681500  0.50367400  1
  O  O94  1  0.10505700  0.70440700  0.58808000  1
  O  O95  1  0.81957200  0.62033700  0.04459100  1
  O  O96  1  0.53400300  0.96375200  0.73033300  1
  O  O97  1  0.37699000  0.82492200  0.38091200  1
  O  O98  1  0.28174500  0.54171100  0.03002500  1
  O  O99  1  0.63914800  0.84912100  0.22389300  1
  O  O100  1  0.03400300  0.03624800  0.76966700  1
  O  O101  1  0.08995200  0.12310400  0.58352600  1
  O  O102  1  0.78895400  0.06681500  0.00367400  1
  O  O103  1  0.31957200  0.37966300  0.45540900  1
  O  O104  1  0.18042800  0.37966300  0.95540900  1
  O  O105  1  0.71825500  0.45828900  0.96997500  1
  O  O106  1  0.13914800  0.15087900  0.27610700  1
  O  O107  1  0.43689600  0.57695800  0.31053400  1
  O  O108  1  0.62301000  0.17507800  0.61908800  1
  O  O109  1  0.06310400  0.57695800  0.81053400  1
  O  O110  1  0.21825500  0.54171100  0.53002500  1
  O  O111  1  0.76203600  0.67820400  0.36710800  1
