# generated using pymatgen
data_Nd2InRh2
_symmetry_space_group_name_H-M   'P 1'
_cell_length_a   7.58675400
_cell_length_b   7.58675400
_cell_length_c   4.00338700
_cell_angle_alpha   90.00000000
_cell_angle_beta   90.00000000
_cell_angle_gamma   90.00000000
_symmetry_Int_Tables_number   1
_chemical_formula_structural   Nd2InRh2
_chemical_formula_sum   'Nd4 In2 Rh4'
_cell_volume   230.43029680
_cell_formula_units_Z   2
loop_
 _symmetry_equiv_pos_site_id
 _symmetry_equiv_pos_as_xyz
  1  'x, y, z'
loop_
 _atom_site_type_symbol
 _atom_site_label
 _atom_site_symmetry_multiplicity
 _atom_site_fract_x
 _atom_site_fract_y
 _atom_site_fract_z
 _atom_site_occupancy
  Nd  Nd0  1  0.67300500  0.17300500  0.50000000  1
  Nd  Nd1  1  0.32699500  0.82699500  0.50000000  1
  Nd  Nd2  1  0.82699500  0.67300500  0.50000000  1
  Nd  Nd3  1  0.17300500  0.32699500  0.50000000  1
  In  In4  1  0.50000000  0.50000000  0.00000000  1
  In  In5  1  0.00000000  0.00000000  0.00000000  1
  Rh  Rh6  1  0.36986200  0.13013800  0.00000000  1
  Rh  Rh7  1  0.13013800  0.63013800  0.00000000  1
  Rh  Rh8  1  0.86986200  0.36986200  0.00000000  1
  Rh  Rh9  1  0.63013800  0.86986200  0.00000000  1
