# generated using pymatgen
data_Os4C13S2O13
_symmetry_space_group_name_H-M   'P 1'
_cell_length_a   12.73000900
_cell_length_b   10.31670400
_cell_length_c   19.14854564
_cell_angle_alpha   64.61426874
_cell_angle_beta   90.00000000
_cell_angle_gamma   90.00000000
_symmetry_Int_Tables_number   1
_chemical_formula_structural   Os4C13S2O13
_chemical_formula_sum   'Os16 C52 S8 O52'
_cell_volume   2271.98674150
_cell_formula_units_Z   4
loop_
 _symmetry_equiv_pos_site_id
 _symmetry_equiv_pos_as_xyz
  1  'x, y, z'
loop_
 _atom_site_type_symbol
 _atom_site_label
 _atom_site_symmetry_multiplicity
 _atom_site_fract_x
 _atom_site_fract_y
 _atom_site_fract_z
 _atom_site_occupancy
  Os  Os0  1  0.35262100  0.64522400  0.69781600  1
  Os  Os1  1  0.22250300  0.93597300  0.16850900  1
  Os  Os2  1  0.14737900  0.64522400  0.19781600  1
  Os  Os3  1  0.72250300  0.06402700  0.33149100  1
  Os  Os4  1  0.21980000  0.79671000  0.03484600  1
  Os  Os5  1  0.77749700  0.06402700  0.83149100  1
  Os  Os6  1  0.71980000  0.20329000  0.46515400  1
  Os  Os7  1  0.78020000  0.20329000  0.96515400  1
  Os  Os8  1  0.64737900  0.35477600  0.30218400  1
  Os  Os9  1  0.30182100  0.14983700  0.02667400  1
  Os  Os10  1  0.28020000  0.79671000  0.53484600  1
  Os  Os11  1  0.19817900  0.14983700  0.52667400  1
  Os  Os12  1  0.27749700  0.93597300  0.66850900  1
  Os  Os13  1  0.85262100  0.35477600  0.80218400  1
  Os  Os14  1  0.80182100  0.85016300  0.47332600  1
  Os  Os15  1  0.69817900  0.85016300  0.97332600  1
  C  C16  1  0.79773700  0.17304800  0.23731900  1
  C  C17  1  0.76762800  0.10305200  0.56851100  1
  C  C18  1  0.27046100  0.11135700  0.17031500  1
  C  C19  1  0.22870700  0.32972500  0.99603600  1
  C  C20  1  0.56771000  0.77657000  0.95391900  1
  C  C21  1  0.79285700  0.41996300  0.28174100  1
  C  C22  1  0.70452000  0.37467200  0.94630700  1
  C  C23  1  0.70226300  0.17304800  0.73731900  1
  C  C24  1  0.60661400  0.51839700  0.31839100  1
  C  C25  1  0.22953900  0.11135700  0.67031500  1
  C  C26  1  0.61039100  0.41831300  0.19529900  1
  C  C27  1  0.93229000  0.77657000  0.45391900  1
  C  C28  1  0.29773700  0.82695200  0.26268100  1
  C  C29  1  0.51270000  0.26021200  0.34038600  1
  C  C30  1  0.20714300  0.58003700  0.71825900  1
  C  C31  1  0.29285700  0.58003700  0.21825900  1
  C  C32  1  0.77129300  0.67027500  0.00396400  1
  C  C33  1  0.70714300  0.41996300  0.78174100  1
  C  C34  1  0.27129300  0.32972500  0.49603600  1
  C  C35  1  0.59400000  0.04908800  0.28290700  1
  C  C36  1  0.09400000  0.95091200  0.21709300  1
  C  C37  1  0.39338600  0.48160300  0.68160900  1
  C  C38  1  0.33723300  0.20091600  0.92204500  1
  C  C39  1  0.40337900  0.72834700  0.50415600  1
  C  C40  1  0.26762800  0.89694800  0.93148900  1
  C  C41  1  0.79548000  0.37467200  0.44630700  1
  C  C42  1  0.66276700  0.79908400  0.07795500  1
  C  C43  1  0.88960900  0.41831300  0.69529900  1
  C  C44  1  0.89338600  0.51839700  0.81839100  1
  C  C45  1  0.48730000  0.73978800  0.65961400  1
  C  C46  1  0.01270000  0.73978800  0.15961400  1
  C  C47  1  0.72953900  0.88864300  0.82968500  1
  C  C48  1  0.38960900  0.58168700  0.80470100  1
  C  C49  1  0.83723300  0.79908400  0.57795500  1
  C  C50  1  0.20452000  0.62532800  0.55369300  1
  C  C51  1  0.77046100  0.88864300  0.32968500  1
  C  C52  1  0.98730000  0.26021200  0.84038600  1
  C  C53  1  0.10661400  0.48160300  0.18160900  1
  C  C54  1  0.11039100  0.58168700  0.30470100  1
  C  C55  1  0.20226300  0.82695200  0.76268100  1
  C  C56  1  0.90600000  0.04908800  0.78290700  1
  C  C57  1  0.09662100  0.72834700  0.00415600  1
  C  C58  1  0.29548000  0.62532800  0.05369300  1
  C  C59  1  0.72870700  0.67027500  0.50396400  1
  C  C60  1  0.23237200  0.89694800  0.43148900  1
  C  C61  1  0.59662100  0.27165300  0.49584400  1
  C  C62  1  0.43229000  0.22343000  0.04608100  1
  C  C63  1  0.73237200  0.10305200  0.06851100  1
  C  C64  1  0.40600000  0.95091200  0.71709300  1
  C  C65  1  0.16276700  0.20091600  0.42204500  1
  C  C66  1  0.90337900  0.27165300  0.99584400  1
  C  C67  1  0.06771000  0.22343000  0.54608100  1
  S  S68  1  0.63977900  0.10060200  0.91270400  1
  S  S69  1  0.85900500  0.98635100  0.96008400  1
  S  S70  1  0.35900500  0.01364900  0.53991600  1
  S  S71  1  0.64099500  0.98635100  0.46008400  1
  S  S72  1  0.13977900  0.89939800  0.58729600  1
  S  S73  1  0.36022100  0.89939800  0.08729600  1
  S  S74  1  0.14099500  0.01364900  0.03991600  1
  S  S75  1  0.86022100  0.10060200  0.41270400  1
  O  O76  1  0.41122700  0.53435300  0.86993800  1
  O  O77  1  0.01634000  0.96404600  0.24524100  1
  O  O78  1  0.91122700  0.46564700  0.63006200  1
  O  O79  1  0.65381300  0.23643700  0.68166300  1
  O  O80  1  0.29689800  0.94898200  0.86771700  1
  O  O81  1  0.15381300  0.76356300  0.81833700  1
  O  O82  1  0.48934300  0.73493600  0.94048200  1
  O  O83  1  0.68510700  0.56134900  0.52651000  1
  O  O84  1  0.91913900  0.61839200  0.82715000  1
  O  O85  1  0.37870500  0.53850400  0.23116800  1
  O  O86  1  0.70831000  0.80196000  0.80781000  1
  O  O87  1  0.31489300  0.43865100  0.47349000  1
  O  O88  1  0.02384400  0.68756200  0.98289700  1
  O  O89  1  0.56973500  0.79008800  0.64000400  1
  O  O90  1  0.48366000  0.96404600  0.74524100  1
  O  O91  1  0.41913900  0.38160800  0.67285000  1
  O  O92  1  0.06973500  0.20991200  0.85999600  1
  O  O93  1  0.52384400  0.31243800  0.51710300  1
  O  O94  1  0.84504500  0.47663000  0.43442100  1
  O  O95  1  0.12129500  0.53850400  0.73116800  1
  O  O96  1  0.79689800  0.05101800  0.63228300  1
  O  O97  1  0.47615600  0.68756200  0.48289700  1
  O  O98  1  0.20831000  0.19804000  0.69219000  1
  O  O99  1  0.98934300  0.26506400  0.55951800  1
  O  O100  1  0.84618700  0.23643700  0.18166300  1
  O  O101  1  0.35844500  0.23522200  0.85755200  1
  O  O102  1  0.14155500  0.23522200  0.35755200  1
  O  O103  1  0.43026500  0.20991200  0.35999600  1
  O  O104  1  0.20310200  0.94898200  0.36771700  1
  O  O105  1  0.98366000  0.03595400  0.75475900  1
  O  O106  1  0.97615600  0.31243800  0.01710300  1
  O  O107  1  0.01065700  0.73493600  0.44048200  1
  O  O108  1  0.81489300  0.56134900  0.02651000  1
  O  O109  1  0.70310200  0.05101800  0.13228300  1
  O  O110  1  0.18510700  0.43865100  0.97349000  1
  O  O111  1  0.08877300  0.53435300  0.36993800  1
  O  O112  1  0.51634000  0.03595400  0.25475900  1
  O  O113  1  0.85844500  0.76477800  0.64244800  1
  O  O114  1  0.29169000  0.19804000  0.19219000  1
  O  O115  1  0.62129500  0.46149600  0.76883200  1
  O  O116  1  0.87870500  0.46149600  0.26883200  1
  O  O117  1  0.64155500  0.76477800  0.14244800  1
  O  O118  1  0.15495500  0.52337000  0.56557900  1
  O  O119  1  0.93026500  0.79008800  0.14000400  1
  O  O120  1  0.51065700  0.26506400  0.05951800  1
  O  O121  1  0.08086100  0.38160800  0.17285000  1
  O  O122  1  0.34504500  0.52337000  0.06557900  1
  O  O123  1  0.58086100  0.61839200  0.32715000  1
  O  O124  1  0.65495500  0.47663000  0.93442100  1
  O  O125  1  0.34618700  0.76356300  0.31833700  1
  O  O126  1  0.58877300  0.46564700  0.13006200  1
  O  O127  1  0.79169000  0.80196000  0.30781000  1
