# generated using pymatgen
data_K3Yb(SO4)3
_symmetry_space_group_name_H-M   'P 1'
_cell_length_a   9.48342709
_cell_length_b   9.48342709
_cell_length_c   9.03653741
_cell_angle_alpha   73.01911433
_cell_angle_beta   73.01911433
_cell_angle_gamma   111.93782749
_symmetry_Int_Tables_number   1
_chemical_formula_structural   K3Yb(SO4)3
_chemical_formula_sum   'K6 Yb2 S6 O24'
_cell_volume   643.06501472
_cell_formula_units_Z   2
loop_
 _symmetry_equiv_pos_site_id
 _symmetry_equiv_pos_as_xyz
  1  'x, y, z'
loop_
 _atom_site_type_symbol
 _atom_site_label
 _atom_site_symmetry_multiplicity
 _atom_site_fract_x
 _atom_site_fract_y
 _atom_site_fract_z
 _atom_site_occupancy
  K  K0  1  0.06450400  0.57660700  0.59073300  1
  K  K1  1  0.57660700  0.06450400  0.09073300  1
  K  K2  1  0.80566900  0.72045900  0.95138100  1
  K  K3  1  0.72045900  0.80566900  0.45138100  1
  K  K4  1  0.19532900  0.19765100  0.33217500  1
  K  K5  1  0.19765100  0.19532900  0.83217500  1
  Yb  Yb6  1  0.65269400  0.34927500  0.48751200  1
  Yb  Yb7  1  0.34927500  0.65269400  0.98751200  1
  S  S8  1  0.00162800  0.30773900  0.10779300  1
  S  S9  1  0.71311800  0.04112100  0.67412800  1
  S  S10  1  0.43907700  0.57561400  0.35172500  1
  S  S11  1  0.04112100  0.71311800  0.17412800  1
  S  S12  1  0.57561400  0.43907700  0.85172500  1
  S  S13  1  0.30773900  0.00162800  0.60779300  1
  O  O14  1  0.54503500  0.58459300  0.84823400  1
  O  O15  1  0.61390600  0.10639000  0.42415500  1
  O  O16  1  0.44276400  0.98248800  0.46441900  1
  O  O17  1  0.91105600  0.60424600  0.36497300  1
  O  O18  1  0.60424600  0.91105600  0.86497300  1
  O  O19  1  0.10639000  0.61390600  0.92415500  1
  O  O20  1  0.39922600  0.54164700  0.21220400  1
  O  O21  1  0.14583800  0.89438100  0.61418500  1
  O  O22  1  0.32815600  0.95351600  0.76450900  1
  O  O23  1  0.28577900  0.46018500  0.52153100  1
  O  O24  1  0.89438100  0.14583800  0.11418500  1
  O  O25  1  0.46018500  0.28577900  0.02153100  1
  O  O26  1  0.02578300  0.86737700  0.10057700  1
  O  O27  1  0.95351600  0.32815600  0.26450900  1
  O  O28  1  0.75630900  0.49714600  0.81235900  1
  O  O29  1  0.86737700  0.02578300  0.60057700  1
  O  O30  1  0.58459300  0.54503500  0.34823400  1
  O  O31  1  0.36276500  0.18532800  0.52798200  1
  O  O32  1  0.98248800  0.44276400  0.96441900  1
  O  O33  1  0.21631100  0.75729200  0.15942500  1
  O  O34  1  0.18532800  0.36276500  0.02798200  1
  O  O35  1  0.75729200  0.21631100  0.65942500  1
  O  O36  1  0.49714600  0.75630900  0.31235900  1
  O  O37  1  0.54164700  0.39922600  0.71220400  1
