# generated using pymatgen
data_H5N2Cl
_symmetry_space_group_name_H-M   'P 1'
_cell_length_a   13.81760390
_cell_length_b   10.68999713
_cell_length_c   8.84935467
_cell_angle_alpha   89.49700610
_cell_angle_beta   50.68015249
_cell_angle_gamma   39.82284141
_symmetry_Int_Tables_number   1
_chemical_formula_structural   H5N2Cl
_chemical_formula_sum   'H20 N8 Cl4'
_cell_volume   170.87641463
_cell_formula_units_Z   4
loop_
 _symmetry_equiv_pos_site_id
 _symmetry_equiv_pos_as_xyz
  1  'x, y, z'
loop_
 _atom_site_type_symbol
 _atom_site_label
 _atom_site_symmetry_multiplicity
 _atom_site_fract_x
 _atom_site_fract_y
 _atom_site_fract_z
 _atom_site_occupancy
  H  H0  1  0.54944100  0.88206100  0.22995200  1
  H  H1  1  0.33854600  0.22995200  0.88206100  1
  H  H2  1  0.36793900  0.70055900  0.91145400  1
  H  H3  1  0.02004800  0.91145400  0.70055900  1
  H  H4  1  0.76183000  0.76630800  0.93031900  1
  H  H5  1  0.54154400  0.93031900  0.76630700  1
  H  H6  1  0.48369200  0.48817000  0.70845600  1
  H  H7  1  0.31968100  0.70845600  0.48817000  1
  H  H8  1  0.91494800  0.67998700  0.00413700  1
  H  H9  1  0.40092800  0.00413700  0.67998700  1
  H  H10  1  0.57001300  0.33505200  0.84907200  1
  H  H11  1  0.24586300  0.84907200  0.33505200  1
  H  H12  1  0.91606800  0.81271000  0.89589400  1
  H  H13  1  0.37532800  0.89589400  0.81271000  1
  H  H14  1  0.43729000  0.33393200  0.87467200  1
  H  H15  1  0.35410600  0.87467200  0.33393200  1
  H  H16  1  0.36579100  0.34618900  0.76604000  1
  H  H17  1  0.52198000  0.76604000  0.34618900  1
  H  H18  1  0.90381100  0.88420900  0.72802000  1
  H  H19  1  0.48396000  0.72802000  0.88420900  1
  N  N20  1  0.57071900  0.81431700  0.31695600  1
  N  N21  1  0.29800800  0.31695600  0.81431700  1
  N  N22  1  0.43568300  0.67928100  0.95199200  1
  N  N23  1  0.93304400  0.95199200  0.67928100  1
  N  N24  1  0.86362500  0.76632300  0.93985300  1
  N  N25  1  0.43019900  0.93985300  0.76632300  1
  N  N26  1  0.48367700  0.38637500  0.81980100  1
  N  N27  1  0.31014700  0.81980100  0.38637500  1
  Cl  Cl28  1  0.66328900  0.20172100  0.31383400  1
  Cl  Cl29  1  0.82115600  0.31383400  0.20172100  1
  Cl  Cl30  1  0.04827900  0.58671100  0.42884400  1
  Cl  Cl31  1  0.93616600  0.42884400  0.58671100  1
