# generated using pymatgen
data_MoP4C5S3O5
_symmetry_space_group_name_H-M   'P 1'
_cell_length_a   35.34706100
_cell_length_b   6.85523600
_cell_length_c   12.74128963
_cell_angle_alpha   82.71408560
_cell_angle_beta   90.00000000
_cell_angle_gamma   90.00000000
_symmetry_Int_Tables_number   1
_chemical_formula_structural   MoP4C5S3O5
_chemical_formula_sum   'Mo8 P32 C40 S24 O40'
_cell_volume   3062.44451341
_cell_formula_units_Z   8
loop_
 _symmetry_equiv_pos_site_id
 _symmetry_equiv_pos_as_xyz
  1  'x, y, z'
loop_
 _atom_site_type_symbol
 _atom_site_label
 _atom_site_symmetry_multiplicity
 _atom_site_fract_x
 _atom_site_fract_y
 _atom_site_fract_z
 _atom_site_occupancy
  Mo  Mo0  1  0.36884500  0.73666500  0.50735500  1
  Mo  Mo1  1  0.70499100  0.84380200  0.99908100  1
  Mo  Mo2  1  0.13115500  0.73666500  0.00735500  1
  Mo  Mo3  1  0.79500900  0.84380200  0.49908100  1
  Mo  Mo4  1  0.63115500  0.26333500  0.49264500  1
  Mo  Mo5  1  0.86884500  0.26333500  0.99264500  1
  Mo  Mo6  1  0.29500900  0.15619800  0.00091900  1
  Mo  Mo7  1  0.20499100  0.15619800  0.50091900  1
  P  P8  1  0.06935000  0.74628600  0.61410300  1
  P  P9  1  0.99753000  0.67839100  0.82445300  1
  P  P10  1  0.49120000  0.37606800  0.27656200  1
  P  P11  1  0.45155700  0.06100100  0.08231000  1
  P  P12  1  0.07571300  0.60860500  0.11742500  1
  P  P13  1  0.36187200  0.03634200  0.02232500  1
  P  P14  1  0.49753000  0.32160900  0.67554700  1
  P  P15  1  0.05644700  0.88084600  0.44587500  1
  P  P16  1  0.94355300  0.11915400  0.55412500  1
  P  P17  1  0.52901300  0.59174600  0.17462700  1
  P  P18  1  0.95155700  0.93899900  0.41769000  1
  P  P19  1  0.93065000  0.25371400  0.38589700  1
  P  P20  1  0.55644700  0.11915400  0.05412500  1
  P  P21  1  0.99120000  0.62393200  0.22343800  1
  P  P22  1  0.04844300  0.06100100  0.58231000  1
  P  P23  1  0.00247000  0.32160900  0.17554700  1
  P  P24  1  0.50880000  0.62393200  0.72343800  1
  P  P25  1  0.63812800  0.96365800  0.97767500  1
  P  P26  1  0.42428700  0.60860500  0.61742500  1
  P  P27  1  0.02901300  0.40825400  0.32537300  1
  P  P28  1  0.97098700  0.59174600  0.67462700  1
  P  P29  1  0.50247000  0.67839100  0.32445300  1
  P  P30  1  0.13812800  0.03634200  0.52232500  1
  P  P31  1  0.56935000  0.25371400  0.88589700  1
  P  P32  1  0.86187200  0.96365800  0.47767500  1
  P  P33  1  0.47098700  0.40825400  0.82537300  1
  P  P34  1  0.43065000  0.74628600  0.11410300  1
  P  P35  1  0.54844300  0.93899900  0.91769000  1
  P  P36  1  0.44355300  0.88084600  0.94587500  1
  P  P37  1  0.00880000  0.37606800  0.77656200  1
  P  P38  1  0.92428700  0.39139500  0.88257500  1
  P  P39  1  0.57571300  0.39139500  0.38257500  1
  C  C40  1  0.13581100  0.97684700  0.08761800  1
  C  C41  1  0.20912700  0.06740400  0.35188700  1
  C  C42  1  0.81326600  0.56850300  0.56424500  1
  C  C43  1  0.16765900  0.58052600  0.11465700  1
  C  C44  1  0.09522100  0.90380700  0.90748200  1
  C  C45  1  0.75871800  0.75007300  0.01594000  1
  C  C46  1  0.36418900  0.97684700  0.58761800  1
  C  C47  1  0.31326600  0.43149700  0.93575500  1
  C  C48  1  0.70912700  0.93259600  0.14811300  1
  C  C49  1  0.27491800  0.88717400  0.06780500  1
  C  C50  1  0.86418900  0.02315300  0.91238200  1
  C  C51  1  0.79756200  0.74731500  0.35230600  1
  C  C52  1  0.22508200  0.88717400  0.56780500  1
  C  C53  1  0.83234100  0.41947400  0.88534300  1
  C  C54  1  0.74128200  0.75007300  0.51594000  1
  C  C55  1  0.66765900  0.41947400  0.38534300  1
  C  C56  1  0.72508200  0.11282600  0.93219500  1
  C  C57  1  0.79087300  0.93259600  0.64811300  1
  C  C58  1  0.67564600  0.17310000  0.58560800  1
  C  C59  1  0.82435400  0.17310000  0.08560800  1
  C  C60  1  0.77491800  0.11282600  0.43219500  1
  C  C61  1  0.59522100  0.09619300  0.59251800  1
  C  C62  1  0.40477900  0.90380700  0.40748200  1
  C  C63  1  0.87358700  0.49636100  0.08094500  1
  C  C64  1  0.18673400  0.43149700  0.43575500  1
  C  C65  1  0.29756200  0.25268500  0.14769400  1
  C  C66  1  0.17564600  0.82690000  0.91439200  1
  C  C67  1  0.20243800  0.25268500  0.64769400  1
  C  C68  1  0.25871800  0.24992700  0.48406000  1
  C  C69  1  0.63581100  0.02315300  0.41238200  1
  C  C70  1  0.24128200  0.24992700  0.98406000  1
  C  C71  1  0.62641300  0.49636100  0.58094500  1
  C  C72  1  0.29087300  0.06740400  0.85188700  1
  C  C73  1  0.90477900  0.09619300  0.09251800  1
  C  C74  1  0.68673400  0.56850300  0.06424500  1
  C  C75  1  0.32435400  0.82690000  0.41439200  1
  C  C76  1  0.37358700  0.50363900  0.41905500  1
  C  C77  1  0.70243800  0.74731500  0.85230600  1
  C  C78  1  0.12641300  0.50363900  0.91905500  1
  C  C79  1  0.33234100  0.58052600  0.61465700  1
  S  S80  1  0.41611600  0.49349200  0.77912200  1
  S  S81  1  0.45398300  0.37012900  0.56491900  1
  S  S82  1  0.54601700  0.62987100  0.43508100  1
  S  S83  1  0.59814700  0.77288400  0.91896600  1
  S  S84  1  0.62788300  0.22522400  0.87140900  1
  S  S85  1  0.37211700  0.77477600  0.12859100  1
  S  S86  1  0.89024000  0.03375000  0.61360100  1
  S  S87  1  0.46999400  0.80462000  0.63338000  1
  S  S88  1  0.39024000  0.96625000  0.88639900  1
  S  S89  1  0.60976000  0.03375000  0.11360100  1
  S  S90  1  0.95398300  0.62987100  0.93508100  1
  S  S91  1  0.12788300  0.77477600  0.62859100  1
  S  S92  1  0.09814700  0.22711600  0.58103400  1
  S  S93  1  0.03000600  0.80462000  0.13338000  1
  S  S94  1  0.91611600  0.50650800  0.72087800  1
  S  S95  1  0.58388400  0.50650800  0.22087800  1
  S  S96  1  0.08388400  0.49349200  0.27912200  1
  S  S97  1  0.10976000  0.96625000  0.38639900  1
  S  S98  1  0.04601700  0.37012900  0.06491900  1
  S  S99  1  0.40185300  0.22711600  0.08103400  1
  S  S100  1  0.90185300  0.77288400  0.41896600  1
  S  S101  1  0.96999400  0.19538000  0.86662000  1
  S  S102  1  0.87211700  0.22522400  0.37140900  1
  S  S103  1  0.53000600  0.19538000  0.36662000  1
  O  O104  1  0.12380100  0.37867600  0.86597100  1
  O  O105  1  0.57461200  0.99747300  0.64713700  1
  O  O106  1  0.62380100  0.62132400  0.63402900  1
  O  O107  1  0.28762900  0.01878300  0.76849000  1
  O  O108  1  0.92538800  0.99747300  0.14713700  1
  O  O109  1  0.68793800  0.50422800  0.32458600  1
  O  O110  1  0.87619900  0.62132400  0.13402900  1
  O  O111  1  0.37619900  0.37867600  0.36597100  1
  O  O112  1  0.67759700  0.41105100  0.09905900  1
  O  O113  1  0.81206200  0.50422800  0.82458600  1
  O  O114  1  0.71011100  0.69601500  0.52469300  1
  O  O115  1  0.76312400  0.26480000  0.39597900  1
  O  O116  1  0.32240300  0.58894900  0.90094100  1
  O  O117  1  0.21011100  0.30398500  0.97530700  1
  O  O118  1  0.63791900  0.88327700  0.37018000  1
  O  O119  1  0.70163600  0.68653000  0.77145800  1
  O  O120  1  0.23687600  0.73520000  0.60402100  1
  O  O121  1  0.42538800  0.00252700  0.35286300  1
  O  O122  1  0.78988900  0.69601500  0.02469300  1
  O  O123  1  0.79878100  0.12347200  0.13983400  1
  O  O124  1  0.07461200  0.00252700  0.85286300  1
  O  O125  1  0.79836400  0.68653000  0.27145800  1
  O  O126  1  0.70121900  0.12347200  0.63983400  1
  O  O127  1  0.29836400  0.31347000  0.22854200  1
  O  O128  1  0.31206200  0.49577200  0.67541400  1
  O  O129  1  0.29878100  0.87652800  0.36016600  1
  O  O130  1  0.21237100  0.01878300  0.26849000  1
  O  O131  1  0.71237100  0.98121700  0.23151000  1
  O  O132  1  0.36208100  0.11672300  0.62982000  1
  O  O133  1  0.18793800  0.49577200  0.17541400  1
  O  O134  1  0.78762900  0.98121700  0.73151000  1
  O  O135  1  0.20163600  0.31347000  0.72854200  1
  O  O136  1  0.82240300  0.41105100  0.59905900  1
  O  O137  1  0.28988900  0.30398500  0.47530700  1
  O  O138  1  0.13791900  0.11672300  0.12982000  1
  O  O139  1  0.26312400  0.73520000  0.10402100  1
  O  O140  1  0.17759700  0.58894900  0.40094100  1
  O  O141  1  0.73687600  0.26480000  0.89597900  1
  O  O142  1  0.86208100  0.88327700  0.87018000  1
  O  O143  1  0.20121900  0.87652800  0.86016600  1
