# generated using pymatgen
data_KBiN(ClO)3
_symmetry_space_group_name_H-M   'P 1'
_cell_length_a   8.53140100
_cell_length_b   10.02237900
_cell_length_c   10.45207687
_cell_angle_alpha   67.52483892
_cell_angle_beta   90.00000000
_cell_angle_gamma   90.00000000
_symmetry_Int_Tables_number   1
_chemical_formula_structural   KBiN(ClO)3
_chemical_formula_sum   'K4 Bi4 N4 Cl12 O12'
_cell_volume   825.82315718
_cell_formula_units_Z   4
loop_
 _symmetry_equiv_pos_site_id
 _symmetry_equiv_pos_as_xyz
  1  'x, y, z'
loop_
 _atom_site_type_symbol
 _atom_site_label
 _atom_site_symmetry_multiplicity
 _atom_site_fract_x
 _atom_site_fract_y
 _atom_site_fract_z
 _atom_site_occupancy
  K  K0  1  0.58498800  0.64287200  0.19452600  1
  K  K1  1  0.41501200  0.35712800  0.80547400  1
  K  K2  1  0.91501200  0.64287200  0.69452600  1
  K  K3  1  0.08498800  0.35712800  0.30547400  1
  Bi  Bi4  1  0.08030400  0.86373400  0.22301100  1
  Bi  Bi5  1  0.58030400  0.13626600  0.27698900  1
  Bi  Bi6  1  0.91969600  0.13626600  0.77698900  1
  Bi  Bi7  1  0.41969600  0.86373400  0.72301100  1
  N  N8  1  0.77970800  0.32490000  0.94279200  1
  N  N9  1  0.72029200  0.32490000  0.44279200  1
  N  N10  1  0.22029200  0.67510000  0.05720800  1
  N  N11  1  0.27970800  0.67510000  0.55720800  1
  Cl  Cl12  1  0.59211300  0.64908000  0.87146800  1
  Cl  Cl13  1  0.87154900  0.86434300  0.03309100  1
  Cl  Cl14  1  0.09211300  0.35092000  0.62853200  1
  Cl  Cl15  1  0.62845100  0.86434300  0.53309100  1
  Cl  Cl16  1  0.43885500  0.95856900  0.19095400  1
  Cl  Cl17  1  0.12845100  0.13565700  0.96690900  1
  Cl  Cl18  1  0.56114500  0.04143100  0.80904600  1
  Cl  Cl19  1  0.37154900  0.13565700  0.46690900  1
  Cl  Cl20  1  0.90788700  0.64908000  0.37146800  1
  Cl  Cl21  1  0.93885500  0.04143100  0.30904600  1
  Cl  Cl22  1  0.06114500  0.95856900  0.69095400  1
  Cl  Cl23  1  0.40788700  0.35092000  0.12853200  1
  O  O24  1  0.26691800  0.65018200  0.68877900  1
  O  O25  1  0.20537700  0.78374200  0.47429400  1
  O  O26  1  0.76691800  0.34981800  0.81122100  1
  O  O27  1  0.13759500  0.59484000  0.01920300  1
  O  O28  1  0.29462300  0.78374200  0.97429400  1
  O  O29  1  0.79462300  0.21625800  0.52570600  1
  O  O30  1  0.36240500  0.59484000  0.51920300  1
  O  O31  1  0.86240500  0.40516000  0.98079700  1
  O  O32  1  0.70537700  0.21625800  0.02570600  1
  O  O33  1  0.23308200  0.65018200  0.18877900  1
  O  O34  1  0.63759500  0.40516000  0.48079700  1
  O  O35  1  0.73308200  0.34981800  0.31122100  1
