# generated using pymatgen
data_SnSO4
_symmetry_space_group_name_H-M   'P 1'
_cell_length_a   5.15942600
_cell_length_b   7.40802496
_cell_length_c   10.66457795
_cell_angle_alpha   99.17535960
_cell_angle_beta   90.99911582
_cell_angle_gamma   95.68865828
_symmetry_Int_Tables_number   1
_chemical_formula_structural   SnSO4
_chemical_formula_sum   'Sn4 S4 O16'
_cell_volume   400.18601673
_cell_formula_units_Z   4
loop_
 _symmetry_equiv_pos_site_id
 _symmetry_equiv_pos_as_xyz
  1  'x, y, z'
loop_
 _atom_site_type_symbol
 _atom_site_label
 _atom_site_symmetry_multiplicity
 _atom_site_fract_x
 _atom_site_fract_y
 _atom_site_fract_z
 _atom_site_occupancy
  Sn  Sn0  1  0.28982100  0.27483000  0.14286000  1
  Sn  Sn1  1  0.71017900  0.72517000  0.85714000  1
  Sn  Sn2  1  0.30423200  0.29915400  0.63696200  1
  Sn  Sn3  1  0.69576800  0.70084600  0.36303800  1
  S  S4  1  0.21254000  0.77180700  0.08228400  1
  S  S5  1  0.75065100  0.18569800  0.40795100  1
  S  S6  1  0.24934900  0.81430200  0.59204900  1
  S  S7  1  0.78746000  0.22819300  0.91771600  1
  O  O8  1  0.15206600  0.73873500  0.70289400  1
  O  O9  1  0.31364000  0.96934400  0.11537300  1
  O  O10  1  0.46556400  0.70352000  0.53898500  1
  O  O11  1  0.95559700  0.19589600  0.50936200  1
  O  O12  1  0.68636000  0.03065600  0.88462700  1
  O  O13  1  0.35550300  0.68325000  0.97177100  1
  O  O14  1  0.75930800  0.32417600  0.80804100  1
  O  O15  1  0.36470400  0.00936300  0.62939100  1
  O  O16  1  0.84793400  0.26126500  0.29710600  1
  O  O17  1  0.04440300  0.80410400  0.49063800  1
  O  O18  1  0.63529600  0.99063700  0.37060900  1
  O  O19  1  0.53443600  0.29648000  0.46101500  1
  O  O20  1  0.24069200  0.67582400  0.19195900  1
  O  O21  1  0.07296000  0.24339900  0.95615600  1
  O  O22  1  0.92704000  0.75660100  0.04384400  1
  O  O23  1  0.64449700  0.31675000  0.02822900  1
