# generated using pymatgen
data_KCo4(PO4)3
_symmetry_space_group_name_H-M   'P 1'
_cell_length_a   6.20048800
_cell_length_b   9.82676200
_cell_length_c   16.65662300
_cell_angle_alpha   90.00000000
_cell_angle_beta   90.00000000
_cell_angle_gamma   90.00000000
_symmetry_Int_Tables_number   1
_chemical_formula_structural   KCo4(PO4)3
_chemical_formula_sum   'K4 Co16 P12 O48'
_cell_volume   1014.90002982
_cell_formula_units_Z   4
loop_
 _symmetry_equiv_pos_site_id
 _symmetry_equiv_pos_as_xyz
  1  'x, y, z'
loop_
 _atom_site_type_symbol
 _atom_site_label
 _atom_site_symmetry_multiplicity
 _atom_site_fract_x
 _atom_site_fract_y
 _atom_site_fract_z
 _atom_site_occupancy
  K  K0  1  0.50000000  0.20737400  0.96581100  1
  K  K1  1  0.50000000  0.79262600  0.03418900  1
  K  K2  1  0.00000000  0.70737400  0.53418900  1
  K  K3  1  0.00000000  0.29262600  0.46581100  1
  Co  Co4  1  0.50000000  0.48651800  0.36194600  1
  Co  Co5  1  0.75119800  0.74416800  0.29634900  1
  Co  Co6  1  0.74880200  0.24416800  0.20365100  1
  Co  Co7  1  0.00000000  0.47008700  0.90856200  1
  Co  Co8  1  0.00000000  0.01348200  0.86194600  1
  Co  Co9  1  0.50000000  0.97008700  0.59143800  1
  Co  Co10  1  0.74880200  0.75583200  0.79634900  1
  Co  Co11  1  0.75119800  0.25583200  0.70365100  1
  Co  Co12  1  0.25119800  0.24416800  0.20365100  1
  Co  Co13  1  0.24880200  0.25583200  0.70365100  1
  Co  Co14  1  0.00000000  0.52991300  0.09143800  1
  Co  Co15  1  0.25119800  0.75583200  0.79634900  1
  Co  Co16  1  0.24880200  0.74416800  0.29634900  1
  Co  Co17  1  0.50000000  0.02991300  0.40856200  1
  Co  Co18  1  0.50000000  0.51348200  0.63805400  1
  Co  Co19  1  0.00000000  0.98651800  0.13805400  1
  P  P20  1  0.50000000  0.04347100  0.78216100  1
  P  P21  1  0.50000000  0.53760100  0.16455400  1
  P  P22  1  0.50000000  0.28988500  0.53633400  1
  P  P23  1  0.50000000  0.71011500  0.46366600  1
  P  P24  1  0.00000000  0.96239900  0.66455400  1
  P  P25  1  0.00000000  0.03760100  0.33544600  1
  P  P26  1  0.50000000  0.46239900  0.83544600  1
  P  P27  1  0.50000000  0.95652900  0.21783900  1
  P  P28  1  0.00000000  0.45652900  0.28216100  1
  P  P29  1  0.00000000  0.54347100  0.71783900  1
  P  P30  1  0.00000000  0.21011500  0.03633400  1
  P  P31  1  0.00000000  0.78988500  0.96366600  1
  O  O32  1  0.50000000  0.88651700  0.77126800  1
  O  O33  1  0.50000000  0.61950300  0.82009700  1
  O  O34  1  0.70139700  0.58232000  0.11871300  1
  O  O35  1  0.50000000  0.63910800  0.54436400  1
  O  O36  1  0.00000000  0.63438100  0.97977600  1
  O  O37  1  0.00000000  0.11301400  0.24926800  1
  O  O38  1  0.00000000  0.36561900  0.02022400  1
  O  O39  1  0.50000000  0.88794600  0.30459200  1
  O  O40  1  0.00000000  0.88698600  0.75073200  1
  O  O41  1  0.00000000  0.61348300  0.27126800  1
  O  O42  1  0.30030000  0.66688100  0.41113300  1
  O  O43  1  0.00000000  0.11950300  0.67990300  1
  O  O44  1  0.19970000  0.16688100  0.08886700  1
  O  O45  1  0.30030000  0.33311900  0.58886700  1
  O  O46  1  0.00000000  0.61205400  0.80459200  1
  O  O47  1  0.50000000  0.61301400  0.25073200  1
  O  O48  1  0.50000000  0.11348300  0.22873200  1
  O  O49  1  0.20139700  0.08232000  0.38128700  1
  O  O50  1  0.50000000  0.11205400  0.69540800  1
  O  O51  1  0.20703800  0.40467500  0.32353600  1
  O  O52  1  0.00000000  0.38794600  0.19540800  1
  O  O53  1  0.79860300  0.08232000  0.38128700  1
  O  O54  1  0.70139700  0.41768000  0.88128700  1
  O  O55  1  0.70703800  0.09532500  0.82353600  1
  O  O56  1  0.80030000  0.83311900  0.91113300  1
  O  O57  1  0.79296200  0.59532500  0.67646400  1
  O  O58  1  0.20139700  0.91768000  0.61871300  1
  O  O59  1  0.70703800  0.90467500  0.17646400  1
  O  O60  1  0.69970000  0.33311900  0.58886700  1
  O  O61  1  0.29296200  0.09532500  0.82353600  1
  O  O62  1  0.00000000  0.86089200  0.04436400  1
  O  O63  1  0.79296200  0.40467500  0.32353600  1
  O  O64  1  0.50000000  0.13438100  0.52022400  1
  O  O65  1  0.79860300  0.91768000  0.61871300  1
  O  O66  1  0.69970000  0.66688100  0.41113300  1
  O  O67  1  0.29860300  0.58232000  0.11871300  1
  O  O68  1  0.00000000  0.88049700  0.32009700  1
  O  O69  1  0.00000000  0.38651700  0.72873200  1
  O  O70  1  0.29860300  0.41768000  0.88128700  1
  O  O71  1  0.80030000  0.16688100  0.08886700  1
  O  O72  1  0.29296200  0.90467500  0.17646400  1
  O  O73  1  0.50000000  0.38698600  0.74926800  1
  O  O74  1  0.20703800  0.59532500  0.67646400  1
  O  O75  1  0.50000000  0.38049700  0.17990300  1
  O  O76  1  0.50000000  0.86561900  0.47977600  1
  O  O77  1  0.50000000  0.36089200  0.45563600  1
  O  O78  1  0.19970000  0.83311900  0.91113300  1
  O  O79  1  0.00000000  0.13910800  0.95563600  1
