# generated using pymatgen
data_SrAl2(SiO4)2
_symmetry_space_group_name_H-M   'P 1'
_cell_length_a   9.49806782
_cell_length_b   9.49806782
_cell_length_c   10.54480790
_cell_angle_alpha   78.59590517
_cell_angle_beta   78.59590517
_cell_angle_gamma   80.30147208
_symmetry_Int_Tables_number   1
_chemical_formula_structural   SrAl2(SiO4)2
_chemical_formula_sum   'Sr4 Al8 Si8 O32'
_cell_volume   905.76828388
_cell_formula_units_Z   4
loop_
 _symmetry_equiv_pos_site_id
 _symmetry_equiv_pos_as_xyz
  1  'x, y, z'
loop_
 _atom_site_type_symbol
 _atom_site_label
 _atom_site_symmetry_multiplicity
 _atom_site_fract_x
 _atom_site_fract_y
 _atom_site_fract_z
 _atom_site_occupancy
  Sr  Sr0  1  0.31862700  0.05373200  0.27591900  1
  Sr  Sr1  1  0.68137300  0.94626800  0.72408100  1
  Sr  Sr2  1  0.94626800  0.68137300  0.22408100  1
  Sr  Sr3  1  0.05373200  0.31862700  0.77591900  1
  Al  Al4  1  0.05845500  0.11073700  0.10995000  1
  Al  Al5  1  0.44305600  0.71200500  0.92542800  1
  Al  Al6  1  0.88926300  0.94154500  0.39005000  1
  Al  Al7  1  0.71200500  0.44305600  0.42542800  1
  Al  Al8  1  0.11073700  0.05845500  0.60995000  1
  Al  Al9  1  0.55694400  0.28799500  0.07457200  1
  Al  Al10  1  0.94154500  0.88926300  0.89005000  1
  Al  Al11  1  0.28799500  0.55694400  0.57457200  1
  Si  Si12  1  0.98872400  0.22982500  0.37488300  1
  Si  Si13  1  0.01127600  0.77017500  0.62511700  1
  Si  Si14  1  0.25349400  0.45726400  0.07862700  1
  Si  Si15  1  0.74650600  0.54273600  0.92137300  1
  Si  Si16  1  0.77017500  0.01127600  0.12511700  1
  Si  Si17  1  0.22982500  0.98872400  0.87488300  1
  Si  Si18  1  0.54273600  0.74650600  0.42137300  1
  Si  Si19  1  0.45726400  0.25349400  0.57862700  1
  O  O20  1  0.62817900  0.68972900  0.87478600  1
  O  O21  1  0.88403900  0.12962400  0.07754500  1
  O  O22  1  0.56793100  0.35147500  0.46608900  1
  O  O23  1  0.31027100  0.37182100  0.62521400  1
  O  O24  1  0.46831100  0.83676300  0.30302000  1
  O  O25  1  0.89598900  0.39129600  0.38729400  1
  O  O26  1  0.64852500  0.43206900  0.03391100  1
  O  O27  1  0.06928700  0.86666200  0.31799700  1
  O  O28  1  0.12962400  0.88403900  0.57754500  1
  O  O29  1  0.12251600  0.18516200  0.46208600  1
  O  O30  1  0.43206900  0.64852500  0.53391100  1
  O  O31  1  0.21760300  0.07182100  0.72390000  1
  O  O32  1  0.68972900  0.62817900  0.37478600  1
  O  O33  1  0.81483800  0.87748400  0.03791400  1
  O  O34  1  0.60870400  0.10401100  0.11270600  1
  O  O35  1  0.07182100  0.21760300  0.22390000  1
  O  O36  1  0.53168900  0.16323700  0.69698000  1
  O  O37  1  0.35147500  0.56793100  0.96608900  1
  O  O38  1  0.39129600  0.89598900  0.88729400  1
  O  O39  1  0.37182100  0.31027100  0.12521400  1
  O  O40  1  0.87748400  0.81483800  0.53791400  1
  O  O41  1  0.87037600  0.11596100  0.42245500  1
  O  O42  1  0.92817900  0.78239700  0.77610000  1
  O  O43  1  0.78239700  0.92817900  0.27610000  1
  O  O44  1  0.16323700  0.53168900  0.19698000  1
  O  O45  1  0.11596100  0.87037600  0.92245500  1
  O  O46  1  0.10401100  0.60870400  0.61270600  1
  O  O47  1  0.86666200  0.06928700  0.81799700  1
  O  O48  1  0.93071300  0.13333800  0.68200300  1
  O  O49  1  0.83676300  0.46831100  0.80302000  1
  O  O50  1  0.18516200  0.12251600  0.96208600  1
  O  O51  1  0.13333800  0.93071300  0.18200300  1
