# generated using pymatgen
data_Tl3In7Se10
_symmetry_space_group_name_H-M   'P 1'
_cell_length_a   6.76621700
_cell_length_b   10.76650674
_cell_length_c   16.65851092
_cell_angle_alpha   102.31467848
_cell_angle_beta   91.13898374
_cell_angle_gamma   97.79228343
_symmetry_Int_Tables_number   1
_chemical_formula_structural   Tl3In7Se10
_chemical_formula_sum   'Tl6 In14 Se20'
_cell_volume   1173.18394395
_cell_formula_units_Z   2
loop_
 _symmetry_equiv_pos_site_id
 _symmetry_equiv_pos_as_xyz
  1  'x, y, z'
loop_
 _atom_site_type_symbol
 _atom_site_label
 _atom_site_symmetry_multiplicity
 _atom_site_fract_x
 _atom_site_fract_y
 _atom_site_fract_z
 _atom_site_occupancy
  Tl  Tl0  1  0.25019900  0.49983700  0.74998200  1
  Tl  Tl1  1  0.65112800  0.10032100  0.94958400  1
  Tl  Tl2  1  0.34887200  0.89967900  0.05041600  1
  Tl  Tl3  1  0.74980100  0.50016300  0.25001800  1
  Tl  Tl4  1  0.84914000  0.89939100  0.55026600  1
  Tl  Tl5  1  0.15086000  0.10060900  0.44973400  1
  In  In6  1  0.54956900  0.19996600  0.64989900  1
  In  In7  1  0.94994200  0.80017400  0.85009900  1
  In  In8  1  0.24958600  0.00006200  0.75004700  1
  In  In9  1  0.35051800  0.39991300  0.05005900  1
  In  In10  1  0.54976900  0.69985000  0.65011100  1
  In  In11  1  0.64948200  0.60008700  0.94994100  1
  In  In12  1  0.75041400  0.99993800  0.24995300  1
  In  In13  1  0.95022200  0.30009300  0.84997800  1
  In  In14  1  0.05005800  0.19982600  0.14990100  1
  In  In15  1  0.04977800  0.69990700  0.15002200  1
  In  In16  1  0.15005800  0.60020900  0.45003300  1
  In  In17  1  0.45043100  0.80003400  0.35010100  1
  In  In18  1  0.45023100  0.30015000  0.34988900  1
  In  In19  1  0.84994200  0.39979100  0.54996700  1
  Se  Se20  1  0.64199700  0.03077700  0.73458400  1
  Se  Se21  1  0.73500500  0.43846200  0.70382800  1
  Se  Se22  1  0.04095700  0.63018900  0.93497000  1
  Se  Se23  1  0.13396900  0.03889800  0.90330900  1
  Se  Se24  1  0.06503200  0.76186400  0.69625400  1
  Se  Se25  1  0.15796400  0.16950400  0.66641200  1
  Se  Se26  1  0.44170100  0.23157400  0.13526000  1
  Se  Se27  1  0.46542000  0.36171300  0.89621700  1
  Se  Se28  1  0.53458000  0.63828700  0.10378300  1
  Se  Se29  1  0.55829900  0.76842600  0.86474000  1
  Se  Se30  1  0.84203600  0.83049600  0.33358800  1
  Se  Se31  1  0.86603100  0.96110200  0.09669100  1
  Se  Se32  1  0.93496800  0.23813600  0.30374600  1
  Se  Se33  1  0.95904300  0.36981100  0.06503000  1
  Se  Se34  1  0.24315300  0.43173700  0.53413800  1
  Se  Se35  1  0.26499500  0.56153800  0.29617200  1
  Se  Se36  1  0.33587300  0.83729800  0.50402100  1
  Se  Se37  1  0.35800300  0.96922300  0.26541600  1
  Se  Se38  1  0.66412700  0.16270200  0.49597900  1
  Se  Se39  1  0.75684700  0.56826300  0.46586200  1
