# generated using pymatgen
data_Rb6Pb5Cl16
_symmetry_space_group_name_H-M   'P 1'
_cell_length_a   11.96584452
_cell_length_b   11.96584452
_cell_length_c   11.40578611
_cell_angle_alpha   89.91394151
_cell_angle_beta   89.91394151
_cell_angle_gamma   90.83902803
_symmetry_Int_Tables_number   1
_chemical_formula_structural   Rb6Pb5Cl16
_chemical_formula_sum   'Rb12 Pb10 Cl32'
_cell_volume   1632.91798624
_cell_formula_units_Z   2
loop_
 _symmetry_equiv_pos_site_id
 _symmetry_equiv_pos_as_xyz
  1  'x, y, z'
loop_
 _atom_site_type_symbol
 _atom_site_label
 _atom_site_symmetry_multiplicity
 _atom_site_fract_x
 _atom_site_fract_y
 _atom_site_fract_z
 _atom_site_occupancy
  Rb  Rb0  1  0.00000000  0.50000000  0.00000000  1
  Rb  Rb1  1  0.62157000  0.37843000  0.00000000  1
  Rb  Rb2  1  0.12639300  0.12639300  0.00032700  1
  Rb  Rb3  1  0.67747700  0.67747700  0.26532000  1
  Rb  Rb4  1  0.86416400  0.86416400  0.50189700  1
  Rb  Rb5  1  0.36318900  0.63681100  0.50000000  1
  Rb  Rb6  1  0.63681100  0.36318900  0.50000000  1
  Rb  Rb7  1  0.13583600  0.13583600  0.49810300  1
  Rb  Rb8  1  0.32252300  0.32252300  0.73468000  1
  Rb  Rb9  1  0.50000000  0.00000000  0.00000000  1
  Rb  Rb10  1  0.87360700  0.87360700  0.99967300  1
  Rb  Rb11  1  0.37843000  0.62157000  0.00000000  1
  Pb  Pb12  1  0.32403500  0.32403500  0.26243400  1
  Pb  Pb13  1  0.17143600  0.82090500  0.25645700  1
  Pb  Pb14  1  0.82090500  0.17143600  0.25645700  1
  Pb  Pb15  1  0.00265700  0.49793600  0.34242900  1
  Pb  Pb16  1  0.49793600  0.00265700  0.34242900  1
  Pb  Pb17  1  0.50206400  0.99734300  0.65757100  1
  Pb  Pb18  1  0.99734300  0.50206400  0.65757100  1
  Pb  Pb19  1  0.82856400  0.17909500  0.74354300  1
  Pb  Pb20  1  0.17909500  0.82856400  0.74354300  1
  Pb  Pb21  1  0.67596500  0.67596500  0.73756600  1
  Cl  Cl22  1  0.84121300  0.15878700  0.00000000  1
  Cl  Cl23  1  0.65871600  0.65871600  0.97997300  1
  Cl  Cl24  1  0.80242700  0.41907500  0.21448200  1
  Cl  Cl25  1  0.06724100  0.29965000  0.21440800  1
  Cl  Cl26  1  0.94819900  0.70202500  0.21082500  1
  Cl  Cl27  1  0.20197000  0.57264300  0.21582300  1
  Cl  Cl28  1  0.57264300  0.20197000  0.21582300  1
  Cl  Cl29  1  0.70202500  0.94819900  0.21082500  1
  Cl  Cl30  1  0.29965000  0.06724100  0.21440800  1
  Cl  Cl31  1  0.41907500  0.80242700  0.21448200  1
  Cl  Cl32  1  0.48733400  0.48733400  0.29019100  1
  Cl  Cl33  1  0.00045500  0.00045500  0.28301000  1
  Cl  Cl34  1  0.90803200  0.29602900  0.50238100  1
  Cl  Cl35  1  0.19490000  0.41079600  0.49055700  1
  Cl  Cl36  1  0.80510000  0.58920400  0.50944300  1
  Cl  Cl37  1  0.09196800  0.70397100  0.49761900  1
  Cl  Cl38  1  0.41079600  0.19490000  0.49055700  1
  Cl  Cl39  1  0.29602900  0.90803200  0.50238100  1
  Cl  Cl40  1  0.70397100  0.09196800  0.49761900  1
  Cl  Cl41  1  0.58920400  0.80510000  0.50944300  1
  Cl  Cl42  1  0.99954500  0.99954500  0.71699000  1
  Cl  Cl43  1  0.51266600  0.51266600  0.70980900  1
  Cl  Cl44  1  0.58092500  0.19757300  0.78551800  1
  Cl  Cl45  1  0.70035000  0.93275900  0.78559200  1
  Cl  Cl46  1  0.79803000  0.42735700  0.78417700  1
  Cl  Cl47  1  0.05180100  0.29797500  0.78917500  1
  Cl  Cl48  1  0.29797500  0.05180100  0.78917500  1
  Cl  Cl49  1  0.42735700  0.79803000  0.78417700  1
  Cl  Cl50  1  0.93275900  0.70035000  0.78559200  1
  Cl  Cl51  1  0.19757300  0.58092500  0.78551800  1
  Cl  Cl52  1  0.34128400  0.34128400  0.02002700  1
  Cl  Cl53  1  0.15878700  0.84121300  0.00000000  1
