# generated using pymatgen
data_Cs3Cu2(BiS2)5
_symmetry_space_group_name_H-M   'P 1'
_cell_length_a   4.11450000
_cell_length_b   15.21054500
_cell_length_c   18.19946500
_cell_angle_alpha   90.00000000
_cell_angle_beta   90.00000000
_cell_angle_gamma   90.00000000
_symmetry_Int_Tables_number   1
_chemical_formula_structural   Cs3Cu2(BiS2)5
_chemical_formula_sum   'Cs6 Cu4 Bi10 S20'
_cell_volume   1138.99144840
_cell_formula_units_Z   2
loop_
 _symmetry_equiv_pos_site_id
 _symmetry_equiv_pos_as_xyz
  1  'x, y, z'
loop_
 _atom_site_type_symbol
 _atom_site_label
 _atom_site_symmetry_multiplicity
 _atom_site_fract_x
 _atom_site_fract_y
 _atom_site_fract_z
 _atom_site_occupancy
  Cs  Cs0  1  0.00000000  0.00000000  0.50000000  1
  Cs  Cs1  1  0.00000000  0.52244000  0.75232000  1
  Cs  Cs2  1  0.50000000  0.97756000  0.25232000  1
  Cs  Cs3  1  0.00000000  0.47756000  0.24768000  1
  Cs  Cs4  1  0.50000000  0.02244000  0.74768000  1
  Cs  Cs5  1  0.50000000  0.50000000  0.00000000  1
  Cu  Cu6  1  0.00000000  0.77950800  0.75965700  1
  Cu  Cu7  1  0.50000000  0.27950800  0.74034300  1
  Cu  Cu8  1  0.00000000  0.22049200  0.24034300  1
  Cu  Cu9  1  0.50000000  0.72049200  0.25965700  1
  Bi  Bi10  1  0.00000000  0.71131600  0.40974800  1
  Bi  Bi11  1  0.50000000  0.24424500  0.39434200  1
  Bi  Bi12  1  0.00000000  0.28868400  0.59025200  1
  Bi  Bi13  1  0.50000000  0.75575500  0.60565800  1
  Bi  Bi14  1  0.00000000  0.25575500  0.89434200  1
  Bi  Bi15  1  0.50000000  0.21131600  0.09025200  1
  Bi  Bi16  1  0.50000000  0.78868400  0.90974800  1
  Bi  Bi17  1  0.00000000  0.74424500  0.10565800  1
  Bi  Bi18  1  0.00000000  0.00000000  0.00000000  1
  Bi  Bi19  1  0.50000000  0.50000000  0.50000000  1
  S  S20  1  0.50000000  0.36139500  0.84921000  1
  S  S21  1  0.50000000  0.59686200  0.36570100  1
  S  S22  1  0.00000000  0.38556200  0.44157100  1
  S  S23  1  0.00000000  0.86139500  0.65079000  1
  S  S24  1  0.50000000  0.82199800  0.47091200  1
  S  S25  1  0.50000000  0.40313800  0.63429900  1
  S  S26  1  0.00000000  0.90313800  0.86570100  1
  S  S27  1  0.00000000  0.79280600  0.27918000  1
  S  S28  1  0.00000000  0.09686200  0.13429900  1
  S  S29  1  0.50000000  0.70719400  0.77918000  1
  S  S30  1  0.50000000  0.11443800  0.94157100  1
  S  S31  1  0.50000000  0.29280600  0.22082000  1
  S  S32  1  0.00000000  0.20719400  0.72082000  1
  S  S33  1  0.00000000  0.32199800  0.02908800  1
  S  S34  1  0.00000000  0.67800200  0.97091200  1
  S  S35  1  0.50000000  0.88556200  0.05842900  1
  S  S36  1  0.50000000  0.63860500  0.15079000  1
  S  S37  1  0.00000000  0.13860500  0.34921000  1
  S  S38  1  0.50000000  0.17800200  0.52908800  1
  S  S39  1  0.00000000  0.61443800  0.55842900  1
