# generated using pymatgen
data_NaFe2O3
_symmetry_space_group_name_H-M   'P 1'
_cell_length_a   5.46144341
_cell_length_b   5.46144341
_cell_length_c   10.26570992
_cell_angle_alpha   86.40811554
_cell_angle_beta   86.40811554
_cell_angle_gamma   120.43501252
_symmetry_Int_Tables_number   1
_chemical_formula_structural   NaFe2O3
_chemical_formula_sum   'Na4 Fe8 O12'
_cell_volume   261.89776914
_cell_formula_units_Z   4
loop_
 _symmetry_equiv_pos_site_id
 _symmetry_equiv_pos_as_xyz
  1  'x, y, z'
loop_
 _atom_site_type_symbol
 _atom_site_label
 _atom_site_symmetry_multiplicity
 _atom_site_fract_x
 _atom_site_fract_y
 _atom_site_fract_z
 _atom_site_occupancy
  Na  Na0  1  0.45260700  0.80085600  0.62889500  1
  Na  Na1  1  0.80085600  0.45260700  0.62889500  1
  Na  Na2  1  0.19914400  0.54739300  0.37110500  1
  Na  Na3  1  0.54739300  0.19914400  0.37110500  1
  Fe  Fe4  1  0.29140300  0.96068200  0.12711100  1
  Fe  Fe5  1  0.70859700  0.03931800  0.87288900  1
  Fe  Fe6  1  0.16514100  0.16514100  0.60436900  1
  Fe  Fe7  1  0.96068200  0.29140300  0.12711100  1
  Fe  Fe8  1  0.37011300  0.37011300  0.87311800  1
  Fe  Fe9  1  0.62988700  0.62988700  0.12688200  1
  Fe  Fe10  1  0.03931800  0.70859700  0.87288900  1
  Fe  Fe11  1  0.83485900  0.83485900  0.39563100  1
  O  O12  1  0.66241600  0.33758400  0.00000000  1
  O  O13  1  0.33758400  0.66241600  0.00000000  1
  O  O14  1  0.61824700  0.90870100  0.24096700  1
  O  O15  1  0.00000000  0.00000000  0.00000000  1
  O  O16  1  0.38175300  0.09129900  0.75903300  1
  O  O17  1  0.86192700  0.13807300  0.50000000  1
  O  O18  1  0.27959200  0.27959200  0.21967400  1
  O  O19  1  0.09129900  0.38175300  0.75903300  1
  O  O20  1  0.50000000  0.50000000  0.50000000  1
  O  O21  1  0.90870100  0.61824700  0.24096700  1
  O  O22  1  0.72040800  0.72040800  0.78032600  1
  O  O23  1  0.13807300  0.86192700  0.50000000  1
