# generated using pymatgen
data_SiO2
_symmetry_space_group_name_H-M   'P 1'
_cell_length_a   15.82245893
_cell_length_b   15.82245893
_cell_length_c   15.82245893
_cell_angle_alpha   148.19303040
_cell_angle_beta   105.00146704
_cell_angle_gamma   83.76121118
_symmetry_Int_Tables_number   1
_chemical_formula_structural   SiO2
_chemical_formula_sum   'Si32 O64'
_cell_volume   1967.82762698
_cell_formula_units_Z   32
loop_
 _symmetry_equiv_pos_site_id
 _symmetry_equiv_pos_as_xyz
  1  'x, y, z'
loop_
 _atom_site_type_symbol
 _atom_site_label
 _atom_site_symmetry_multiplicity
 _atom_site_fract_x
 _atom_site_fract_y
 _atom_site_fract_z
 _atom_site_occupancy
  Si  Si0  1  0.58565200  0.41064100  0.54214600  1
  Si  Si1  1  0.75653400  0.93834200  0.18180700  1
  Si  Si2  1  0.86849400  0.41064100  0.82498900  1
  Si  Si3  1  0.93083300  0.47952500  0.08249900  1
  Si  Si4  1  0.86849400  0.04350600  0.45785400  1
  Si  Si5  1  0.79070900  0.11941200  0.04193200  1
  Si  Si6  1  0.24346600  0.42527300  0.18180700  1
  Si  Si7  1  0.06916700  0.52047500  0.91750100  1
  Si  Si8  1  0.13150600  0.58935900  0.17501100  1
  Si  Si9  1  0.92252100  0.88058800  0.67129700  1
  Si  Si10  1  0.07747900  0.11941200  0.32870300  1
  Si  Si11  1  0.92252100  0.25122300  0.04193200  1
  Si  Si12  1  0.41434800  0.58935900  0.45785400  1
  Si  Si13  1  0.60297500  0.52047500  0.45130800  1
  Si  Si14  1  0.79070900  0.74877700  0.67129700  1
  Si  Si15  1  0.20929100  0.88058800  0.95806800  1
  Si  Si16  1  0.93083300  0.84833300  0.45130800  1
  Si  Si17  1  0.75653400  0.57472700  0.81819300  1
  Si  Si18  1  0.60297500  0.15166700  0.08249900  1
  Si  Si19  1  0.41434800  0.95649400  0.82498900  1
  Si  Si20  1  0.07747900  0.74877700  0.95806800  1
  Si  Si21  1  0.11808400  0.80238600  0.68430100  1
  Si  Si22  1  0.39702500  0.84833300  0.91750100  1
  Si  Si23  1  0.24346600  0.06165800  0.81819300  1
  Si  Si24  1  0.06916700  0.15166700  0.54869200  1
  Si  Si25  1  0.13150600  0.95649400  0.54214600  1
  Si  Si26  1  0.88191600  0.19761400  0.31569900  1
  Si  Si27  1  0.58565200  0.04350600  0.17501100  1
  Si  Si28  1  0.20929100  0.25122300  0.32870300  1
  Si  Si29  1  0.39702500  0.47952500  0.54869200  1
  Si  Si30  1  0.11808400  0.43378300  0.31569900  1
  Si  Si31  1  0.88191600  0.56621700  0.68430100  1
  O  O32  1  0.78840600  0.94172800  0.29149700  1
  O  O33  1  0.39885100  0.77351500  0.62533500  1
  O  O34  1  0.61095100  0.52064100  0.55627800  1
  O  O35  1  0.86876700  0.40281700  0.92126700  1
  O  O36  1  0.85182000  0.22648500  0.62533500  1
  O  O37  1  0.15108800  0.23865000  0.38973700  1
  O  O38  1  0.69349100  0.16703400  0.06425400  1
  O  O39  1  0.14818000  0.77351500  0.37466500  1
  O  O40  1  0.60114900  0.22648500  0.37466500  1
  O  O41  1  0.84236200  0.67345200  0.69496600  1
  O  O42  1  0.30650900  0.83296600  0.93574600  1
  O  O43  1  0.30650900  0.37076300  0.47354400  1
  O  O44  1  0.48155000  0.40281700  0.53405000  1
  O  O45  1  0.21159400  0.05827200  0.70850300  1
  O  O46  1  0.08081600  0.33369200  0.74712400  1
  O  O47  1  0.02151400  0.85260400  0.69496600  1
  O  O48  1  0.34977000  0.05827200  0.84667900  1
  O  O49  1  0.97848600  0.14739600  0.30503400  1
  O  O50  1  0.92243600  0.07125000  0.85118500  1
  O  O51  1  0.65023000  0.94172800  0.15332100  1
  O  O52  1  0.48155000  0.94750100  0.07873300  1
  O  O53  1  0.02151400  0.32654800  0.16891100  1
  O  O54  1  0.96436300  0.05467300  0.44372200  1
  O  O55  1  0.81407300  0.52830700  0.71423400  1
  O  O56  1  0.77993500  0.92875000  0.85118500  1
  O  O57  1  0.84891200  0.76135000  0.61026300  1
  O  O58  1  0.13123300  0.05249900  0.53405000  1
  O  O59  1  0.13123300  0.59718300  0.07873300  1
  O  O60  1  0.03563700  0.94532700  0.55627800  1
  O  O61  1  0.21159400  0.50309100  0.15332100  1
  O  O62  1  0.34977000  0.50309100  0.29149700  1
  O  O63  1  0.97848600  0.67345200  0.83108900  1
  O  O64  1  0.61095100  0.05467300  0.09031000  1
  O  O65  1  0.18592700  0.90016200  0.71423400  1
  O  O66  1  0.65023000  0.49690900  0.70850300  1
  O  O67  1  0.58656800  0.33369200  0.25287600  1
  O  O68  1  0.84236200  0.14739600  0.16891100  1
  O  O69  1  0.10278100  0.16703400  0.47354400  1
  O  O70  1  0.15108800  0.76135000  0.91243800  1
  O  O71  1  0.41343200  0.66630800  0.74712400  1
  O  O72  1  0.38904900  0.47935900  0.44372200  1
  O  O73  1  0.15763800  0.32654800  0.30503400  1
  O  O74  1  0.07756400  0.92875000  0.14881500  1
  O  O75  1  0.89721900  0.37076300  0.06425400  1
  O  O76  1  0.38904900  0.94532700  0.90969000  1
  O  O77  1  0.77304600  0.77304600  0.00000000  1
  O  O78  1  0.51845000  0.59718300  0.46595000  1
  O  O79  1  0.22006500  0.07125000  0.14881500  1
  O  O80  1  0.86876700  0.94750100  0.46595000  1
  O  O81  1  0.10278100  0.62923700  0.93574600  1
  O  O82  1  0.89356800  0.39356800  0.50000000  1
  O  O83  1  0.15763800  0.85260400  0.83108900  1
  O  O84  1  0.10643200  0.60643200  0.50000000  1
  O  O85  1  0.69349100  0.62923700  0.52645600  1
  O  O86  1  0.89721900  0.83296600  0.52645600  1
  O  O87  1  0.78840600  0.49690900  0.84667900  1
  O  O88  1  0.91918400  0.66630800  0.25287600  1
  O  O89  1  0.51845000  0.05249900  0.92126700  1
  O  O90  1  0.96436300  0.52064100  0.90969000  1
  O  O91  1  0.22695400  0.22695400  0.00000000  1
  O  O92  1  0.81407300  0.09983800  0.28576600  1
  O  O93  1  0.18592700  0.47169300  0.28576600  1
  O  O94  1  0.03563700  0.47935900  0.09031000  1
  O  O95  1  0.84891200  0.23865000  0.08756200  1
