# generated using pymatgen
data_Ba2CaWN4
_symmetry_space_group_name_H-M   'P 1'
_cell_length_a   10.87968981
_cell_length_b   10.56941814
_cell_length_c   8.16401349
_cell_angle_alpha   69.65656209
_cell_angle_beta   65.62808296
_cell_angle_gamma   44.71535495
_symmetry_Int_Tables_number   1
_chemical_formula_structural   Ba2CaWN4
_chemical_formula_sum   'Ba8 Ca4 W4 N16'
_cell_volume   599.48922739
_cell_formula_units_Z   4
loop_
 _symmetry_equiv_pos_site_id
 _symmetry_equiv_pos_as_xyz
  1  'x, y, z'
loop_
 _atom_site_type_symbol
 _atom_site_label
 _atom_site_symmetry_multiplicity
 _atom_site_fract_x
 _atom_site_fract_y
 _atom_site_fract_z
 _atom_site_occupancy
  Ba  Ba0  1  0.56986900  0.93013100  0.93013100  1
  Ba  Ba1  1  0.93013100  0.56986900  0.56986900  1
  Ba  Ba2  1  0.31986900  0.68013100  0.68013100  1
  Ba  Ba3  1  0.11149400  0.11149400  0.88850600  1
  Ba  Ba4  1  0.13850600  0.13850600  0.36149400  1
  Ba  Ba5  1  0.36149400  0.36149400  0.13850600  1
  Ba  Ba6  1  0.68013100  0.31986900  0.31986900  1
  Ba  Ba7  1  0.88850600  0.88850600  0.11149400  1
  Ca  Ca8  1  0.33838900  0.33838900  0.66161100  1
  Ca  Ca9  1  0.91161100  0.91161100  0.58838900  1
  Ca  Ca10  1  0.66161100  0.66161100  0.33838900  1
  Ca  Ca11  1  0.58838900  0.58838900  0.91161100  1
  W  W12  1  0.49267000  0.00733000  0.49267000  1
  W  W13  1  0.00733000  0.49267000  0.00733000  1
  W  W14  1  0.75733000  0.24267000  0.75733000  1
  W  W15  1  0.24267000  0.75733000  0.24267000  1
  N  N16  1  0.01075400  0.65885800  0.82243700  1
  N  N17  1  0.70112300  0.28280900  0.99660500  1
  N  N18  1  0.65885800  0.01075400  0.50795100  1
  N  N19  1  0.50795100  0.82243700  0.65885800  1
  N  N20  1  0.23924600  0.59114200  0.42756300  1
  N  N21  1  0.74204900  0.42756300  0.59114200  1
  N  N22  1  0.99660500  0.01946300  0.70112300  1
  N  N23  1  0.54887700  0.96719100  0.25339500  1
  N  N24  1  0.42756300  0.74204900  0.23924600  1
  N  N25  1  0.96719100  0.54887700  0.23053700  1
  N  N26  1  0.28280900  0.70112300  0.01946300  1
  N  N27  1  0.82243700  0.50795100  0.01075400  1
  N  N28  1  0.23053700  0.25339500  0.96719100  1
  N  N29  1  0.59114200  0.23924600  0.74204900  1
  N  N30  1  0.25339500  0.23053700  0.54887700  1
  N  N31  1  0.01946300  0.99660500  0.28280900  1
