# generated using pymatgen
data_Tb2S3
_symmetry_space_group_name_H-M   'P 1'
_cell_length_a   13.81356995
_cell_length_b   13.81356995
_cell_length_c   13.81356995
_cell_angle_alpha   144.82528675
_cell_angle_beta   144.82528675
_cell_angle_gamma   50.59496331
_symmetry_Int_Tables_number   1
_chemical_formula_structural   Tb2S3
_chemical_formula_sum   'Tb16 S24'
_cell_volume   870.29708292
_cell_formula_units_Z   8
loop_
 _symmetry_equiv_pos_site_id
 _symmetry_equiv_pos_as_xyz
  1  'x, y, z'
loop_
 _atom_site_type_symbol
 _atom_site_label
 _atom_site_symmetry_multiplicity
 _atom_site_fract_x
 _atom_site_fract_y
 _atom_site_fract_z
 _atom_site_occupancy
  Tb  Tb0  1  0.71949300  0.59717900  0.39529800  1
  Tb  Tb1  1  0.20188000  0.32419500  0.60470200  1
  Tb  Tb2  1  0.41633000  0.91633000  0.50000000  1
  Tb  Tb3  1  0.99393000  0.62500000  0.86893000  1
  Tb  Tb4  1  0.03050700  0.92580500  0.37768500  1
  Tb  Tb5  1  0.33367000  0.33367000  0.00000000  1
  Tb  Tb6  1  0.54812000  0.65282100  0.62231500  1
  Tb  Tb7  1  0.75607000  0.12500000  0.13107000  1
  Tb  Tb8  1  0.34717900  0.96949300  0.89529800  1
  Tb  Tb9  1  0.37500000  0.24393000  0.36893000  1
  Tb  Tb10  1  0.66633000  0.66633000  0.00000000  1
  Tb  Tb11  1  0.87500000  0.00607000  0.63107000  1
  Tb  Tb12  1  0.07419500  0.45188000  0.10470200  1
  Tb  Tb13  1  0.08367000  0.58367000  0.50000000  1
  Tb  Tb14  1  0.67580500  0.28050700  0.87768500  1
  Tb  Tb15  1  0.40282100  0.79812000  0.12231500  1
  S  S16  1  0.50220700  0.25562000  0.88998800  1
  S  S17  1  0.71180400  0.82359900  0.74575900  1
  S  S18  1  0.36563200  0.61221800  0.11001200  1
  S  S19  1  0.24779300  0.63778200  0.25341400  1
  S  S20  1  0.38436800  0.99438000  0.74658600  1
  S  S21  1  0.67216000  0.42640100  0.38820500  1
  S  S22  1  0.07784000  0.96604500  0.25424100  1
  S  S23  1  0.84624100  0.59409800  0.90636000  1
  S  S24  1  0.03819600  0.28395500  0.61179500  1
  S  S25  1  0.06012000  0.15375900  0.74785700  1
  S  S26  1  0.68773800  0.93988000  0.09364000  1
  S  S27  1  0.57359900  0.96180400  0.24575900  1
  S  S28  1  0.71604500  0.32784000  0.75424100  1
  S  S29  1  0.00562000  0.75220700  0.38998800  1
  S  S30  1  0.40590200  0.31226200  0.25214300  1
  S  S31  1  0.17640100  0.92216000  0.88820500  1
  S  S32  1  0.36221800  0.61563200  0.61001200  1
  S  S33  1  0.38778200  0.49779300  0.75341400  1
  S  S34  1  0.03395500  0.28819600  0.11179500  1
  S  S35  1  0.90375900  0.31012000  0.24785700  1
  S  S36  1  0.06226200  0.65590200  0.75214300  1
  S  S37  1  0.74438000  0.63436800  0.24658600  1
  S  S38  1  0.34409800  0.09624100  0.40636000  1
  S  S39  1  0.68988000  0.93773800  0.59364000  1
