# generated using pymatgen
data_Ba9(NdS6)2
_symmetry_space_group_name_H-M   'P 1'
_cell_length_a   7.75863525
_cell_length_b   7.75863525
_cell_length_c   14.75783810
_cell_angle_alpha   84.96903123
_cell_angle_beta   84.96903123
_cell_angle_gamma   119.97468323
_symmetry_Int_Tables_number   1
_chemical_formula_structural   Ba9(NdS6)2
_chemical_formula_sum   'Ba9 Nd2 S12'
_cell_volume   757.62705218
_cell_formula_units_Z   1
loop_
 _symmetry_equiv_pos_site_id
 _symmetry_equiv_pos_as_xyz
  1  'x, y, z'
loop_
 _atom_site_type_symbol
 _atom_site_label
 _atom_site_symmetry_multiplicity
 _atom_site_fract_x
 _atom_site_fract_y
 _atom_site_fract_z
 _atom_site_occupancy
  Ba  Ba0  1  0.24136600  0.24136600  0.23948500  1
  Ba  Ba1  1  0.50000000  0.50000000  0.50000000  1
  Ba  Ba2  1  0.75863400  0.75863400  0.76051500  1
  Ba  Ba3  1  0.07904100  0.40150700  0.76105900  1
  Ba  Ba4  1  0.59849300  0.92095900  0.23894100  1
  Ba  Ba5  1  0.83135900  0.16864100  0.50000000  1
  Ba  Ba6  1  0.92095900  0.59849300  0.23894100  1
  Ba  Ba7  1  0.16864100  0.83135900  0.50000000  1
  Ba  Ba8  1  0.40150700  0.07904100  0.76105900  1
  Nd  Nd9  1  0.33277300  0.66722700  0.00000000  1
  Nd  Nd10  1  0.66722700  0.33277300  0.00000000  1
  S  S11  1  0.59414400  0.59414400  0.10969400  1
  S  S12  1  0.87501500  0.87501500  0.37287100  1
  S  S13  1  0.96262700  0.33193200  0.10912300  1
  S  S14  1  0.12498500  0.12498500  0.62712900  1
  S  S15  1  0.20941300  0.54254400  0.36872800  1
  S  S16  1  0.40585600  0.40585600  0.89030600  1
  S  S17  1  0.33193200  0.96262700  0.10912300  1
  S  S18  1  0.45745600  0.79058700  0.63127200  1
  S  S19  1  0.54254400  0.20941300  0.36872800  1
  S  S20  1  0.66806800  0.03737300  0.89087700  1
  S  S21  1  0.79058700  0.45745600  0.63127200  1
  S  S22  1  0.03737300  0.66806800  0.89087700  1
