# generated using pymatgen
data_MgZr4O9
_symmetry_space_group_name_H-M   'P 1'
_cell_length_a   16.35326162
_cell_length_b   16.35326162
_cell_length_c   6.07601460
_cell_angle_alpha   88.40946078
_cell_angle_beta   88.40946078
_cell_angle_gamma   12.16371366
_symmetry_Int_Tables_number   1
_chemical_formula_structural   MgZr4O9
_chemical_formula_sum   'Mg2 Zr8 O18'
_cell_volume   342.24308723
_cell_formula_units_Z   2
loop_
 _symmetry_equiv_pos_site_id
 _symmetry_equiv_pos_as_xyz
  1  'x, y, z'
loop_
 _atom_site_type_symbol
 _atom_site_label
 _atom_site_symmetry_multiplicity
 _atom_site_fract_x
 _atom_site_fract_y
 _atom_site_fract_z
 _atom_site_occupancy
  Mg  Mg0  1  0.00000000  0.00000000  0.50000000  1
  Mg  Mg1  1  0.50000000  0.50000000  0.00000000  1
  Zr  Zr2  1  0.42011700  0.42011700  0.68800100  1
  Zr  Zr3  1  0.89994900  0.89994900  0.18778400  1
  Zr  Zr4  1  0.57988300  0.57988300  0.31199900  1
  Zr  Zr5  1  0.20603000  0.20603000  0.11117600  1
  Zr  Zr6  1  0.10005100  0.10005100  0.81221600  1
  Zr  Zr7  1  0.79397000  0.79397000  0.88882400  1
  Zr  Zr8  1  0.68825500  0.68825500  0.59628900  1
  Zr  Zr9  1  0.31174500  0.31174500  0.40371100  1
  O  O10  1  0.93861400  0.93861400  0.45995700  1
  O  O11  1  0.51691900  0.51691900  0.29660700  1
  O  O12  1  0.43467600  0.43467600  0.06687000  1
  O  O13  1  0.10571900  0.10571900  0.16675700  1
  O  O14  1  0.56532400  0.56532400  0.93313000  1
  O  O15  1  0.72900300  0.72900300  0.87911700  1
  O  O16  1  0.48308100  0.48308100  0.70339300  1
  O  O17  1  0.62317800  0.62317800  0.59568000  1
  O  O18  1  0.32122600  0.32122600  0.76393600  1
  O  O19  1  0.06138600  0.06138600  0.54004300  1
  O  O20  1  0.16558700  0.16558700  0.82825500  1
  O  O21  1  0.21512100  0.21512100  0.47036900  1
  O  O22  1  0.83441300  0.83441300  0.17174500  1
  O  O23  1  0.78487900  0.78487900  0.52963100  1
  O  O24  1  0.67877400  0.67877400  0.23606400  1
  O  O25  1  0.37682200  0.37682200  0.40432000  1
  O  O26  1  0.27099700  0.27099700  0.12088300  1
  O  O27  1  0.89428100  0.89428100  0.83324300  1
