# generated using pymatgen
data_Cs3Sb2Cl9
_symmetry_space_group_name_H-M   'P 1'
_cell_length_a   7.75346800
_cell_length_b   13.28047600
_cell_length_c   18.96376600
_cell_angle_alpha   90.00000000
_cell_angle_beta   90.00000000
_cell_angle_gamma   90.00000000
_symmetry_Int_Tables_number   1
_chemical_formula_structural   Cs3Sb2Cl9
_chemical_formula_sum   'Cs12 Sb8 Cl36'
_cell_volume   1952.69416236
_cell_formula_units_Z   4
loop_
 _symmetry_equiv_pos_site_id
 _symmetry_equiv_pos_as_xyz
  1  'x, y, z'
loop_
 _atom_site_type_symbol
 _atom_site_label
 _atom_site_symmetry_multiplicity
 _atom_site_fract_x
 _atom_site_fract_y
 _atom_site_fract_z
 _atom_site_occupancy
  Cs  Cs0  1  0.25000000  0.75102700  0.75243300  1
  Cs  Cs1  1  0.25000000  0.41463700  0.40941300  1
  Cs  Cs2  1  0.75000000  0.24897300  0.24756700  1
  Cs  Cs3  1  0.75000000  0.58536300  0.59058700  1
  Cs  Cs4  1  0.75000000  0.91463700  0.09058700  1
  Cs  Cs5  1  0.25000000  0.74897300  0.25243300  1
  Cs  Cs6  1  0.25000000  0.41695100  0.08220900  1
  Cs  Cs7  1  0.75000000  0.25102700  0.74756700  1
  Cs  Cs8  1  0.25000000  0.08536300  0.90941300  1
  Cs  Cs9  1  0.75000000  0.91695100  0.41779100  1
  Cs  Cs10  1  0.75000000  0.58304900  0.91779100  1
  Cs  Cs11  1  0.25000000  0.08304900  0.58220900  1
  Sb  Sb12  1  0.25000000  0.41640100  0.81536000  1
  Sb  Sb13  1  0.75000000  0.91640100  0.68464000  1
  Sb  Sb14  1  0.75000000  0.58359900  0.18464000  1
  Sb  Sb15  1  0.75000000  0.23536900  0.99915100  1
  Sb  Sb16  1  0.25000000  0.08359900  0.31536000  1
  Sb  Sb17  1  0.75000000  0.26463100  0.49915100  1
  Sb  Sb18  1  0.25000000  0.73536900  0.50084900  1
  Sb  Sb19  1  0.25000000  0.76463100  0.00084900  1
  Cl  Cl20  1  0.01618400  0.83715800  0.92440200  1
  Cl  Cl21  1  0.51618400  0.16284200  0.07559800  1
  Cl  Cl22  1  0.75000000  0.08240300  0.92326500  1
  Cl  Cl23  1  0.50510900  0.00083900  0.75215100  1
  Cl  Cl24  1  0.99489100  0.00083900  0.75215100  1
  Cl  Cl25  1  0.25000000  0.58372400  0.91105600  1
  Cl  Cl26  1  0.49566500  0.17582000  0.40594400  1
  Cl  Cl27  1  0.01618400  0.66284200  0.42440200  1
  Cl  Cl28  1  0.49489100  0.50083900  0.74784900  1
  Cl  Cl29  1  0.98381600  0.33715800  0.57559800  1
  Cl  Cl30  1  0.99566500  0.67582000  0.09405600  1
  Cl  Cl31  1  0.00510900  0.50083900  0.74784900  1
  Cl  Cl32  1  0.99489100  0.49916100  0.25215100  1
  Cl  Cl33  1  0.75000000  0.41627600  0.08894400  1
  Cl  Cl34  1  0.00433500  0.17582000  0.40594400  1
  Cl  Cl35  1  0.50510900  0.49916100  0.25215100  1
  Cl  Cl36  1  0.25000000  0.58240300  0.57673500  1
  Cl  Cl37  1  0.75000000  0.08372400  0.58894400  1
  Cl  Cl38  1  0.48381600  0.83715800  0.92440200  1
  Cl  Cl39  1  0.98381600  0.16284200  0.07559800  1
  Cl  Cl40  1  0.25000000  0.24244600  0.24096600  1
  Cl  Cl41  1  0.50433500  0.82418000  0.59405600  1
  Cl  Cl42  1  0.49566500  0.32418000  0.90594400  1
  Cl  Cl43  1  0.48381600  0.66284200  0.42440200  1
  Cl  Cl44  1  0.51618400  0.33715800  0.57559800  1
  Cl  Cl45  1  0.75000000  0.75755400  0.75903400  1
  Cl  Cl46  1  0.75000000  0.41759700  0.42326500  1
  Cl  Cl47  1  0.49489100  0.99916100  0.24784900  1
  Cl  Cl48  1  0.00510900  0.99916100  0.24784900  1
  Cl  Cl49  1  0.99566500  0.82418000  0.59405600  1
  Cl  Cl50  1  0.75000000  0.74244600  0.25903400  1
  Cl  Cl51  1  0.25000000  0.91627600  0.41105600  1
  Cl  Cl52  1  0.25000000  0.25755400  0.74096600  1
  Cl  Cl53  1  0.25000000  0.91759700  0.07673500  1
  Cl  Cl54  1  0.00433500  0.32418000  0.90594400  1
  Cl  Cl55  1  0.50433500  0.67582000  0.09405600  1
