# generated using pymatgen
data_TiCu3O4
_symmetry_space_group_name_H-M   'P 1'
_cell_length_a   6.08988543
_cell_length_b   6.08988543
_cell_length_c   7.26436837
_cell_angle_alpha   55.72359811
_cell_angle_beta   55.72359811
_cell_angle_gamma   28.34472682
_symmetry_Int_Tables_number   1
_chemical_formula_structural   TiCu3O4
_chemical_formula_sum   'Ti1 Cu3 O4'
_cell_volume   104.11866052
_cell_formula_units_Z   1
loop_
 _symmetry_equiv_pos_site_id
 _symmetry_equiv_pos_as_xyz
  1  'x, y, z'
loop_
 _atom_site_type_symbol
 _atom_site_label
 _atom_site_symmetry_multiplicity
 _atom_site_fract_x
 _atom_site_fract_y
 _atom_site_fract_z
 _atom_site_occupancy
  Ti  Ti0  1  0.69426300  0.69426300  0.12566200  1
  Cu  Cu1  1  0.00653000  0.00653000  0.97075000  1
  Cu  Cu2  1  0.33306700  0.33306700  0.35412500  1
  Cu  Cu3  1  0.94249900  0.94249900  0.59340900  1
  O  O4  1  0.88374200  0.88374200  0.89590800  1
  O  O5  1  0.19490800  0.19490800  0.30903800  1
  O  O6  1  0.46334000  0.46334000  0.41401800  1
  O  O7  1  0.14831900  0.14831900  0.00375800  1
