# generated using pymatgen
data_KBa2As5
_symmetry_space_group_name_H-M   'P 1'
_cell_length_a   13.02242099
_cell_length_b   13.02242099
_cell_length_c   11.67998589
_cell_angle_alpha   89.85942161
_cell_angle_beta   89.85942161
_cell_angle_gamma   131.55916251
_symmetry_Int_Tables_number   1
_chemical_formula_structural   KBa2As5
_chemical_formula_sum   'K6 Ba12 As30'
_cell_volume   1482.09824484
_cell_formula_units_Z   6
loop_
 _symmetry_equiv_pos_site_id
 _symmetry_equiv_pos_as_xyz
  1  'x, y, z'
loop_
 _atom_site_type_symbol
 _atom_site_label
 _atom_site_symmetry_multiplicity
 _atom_site_fract_x
 _atom_site_fract_y
 _atom_site_fract_z
 _atom_site_occupancy
  K  K0  1  0.81893500  0.81893500  0.85122200  1
  K  K1  1  0.49173900  0.16424300  0.85188300  1
  K  K2  1  0.84248100  0.17481200  0.35204200  1
  K  K3  1  0.16424300  0.49173900  0.85188300  1
  K  K4  1  0.43402600  0.43402600  0.72943600  1
  K  K5  1  0.17481200  0.84248100  0.35204200  1
  Ba  Ba6  1  0.90547500  0.90547500  0.22387800  1
  Ba  Ba7  1  0.93932900  0.60329100  0.04703700  1
  Ba  Ba8  1  0.72940400  0.39740900  0.54900500  1
  Ba  Ba9  1  0.56878000  0.23039900  0.22753400  1
  Ba  Ba10  1  0.76636100  0.09950900  0.73502100  1
  Ba  Ba11  1  0.60329100  0.93932900  0.04703700  1
  Ba  Ba12  1  0.39740900  0.72940400  0.54900500  1
  Ba  Ba13  1  0.23039900  0.56878000  0.22753400  1
  Ba  Ba14  1  0.50329400  0.50329400  0.35603800  1
  Ba  Ba15  1  0.27386500  0.27386500  0.03489200  1
  Ba  Ba16  1  0.06666500  0.06666500  0.54562100  1
  Ba  Ba17  1  0.09950900  0.76636100  0.73502100  1
  As  As18  1  0.93082100  0.09906000  0.98846400  1
  As  As19  1  0.71275500  0.71275500  0.57541400  1
  As  As20  1  0.89665200  0.73339700  0.48442300  1
  As  As21  1  0.74586100  0.51851600  0.81251400  1
  As  As22  1  0.81153000  0.58966300  0.30470600  1
  As  As23  1  0.60702700  0.43794100  0.99776200  1
  As  As24  1  0.85675400  0.41395500  0.80858700  1
  As  As25  1  0.91886300  0.47909800  0.30831100  1
  As  As26  1  0.77254800  0.26788300  0.98741200  1
  As  As27  1  0.95370200  0.28469800  0.07786500  1
  As  As28  1  0.38015200  0.04301300  0.57774300  1
  As  As29  1  0.56358300  0.06436000  0.48660500  1
  As  As30  1  0.41395500  0.85675400  0.80858700  1
  As  As31  1  0.47909800  0.91886300  0.30831100  1
  As  As32  1  0.73339700  0.89665200  0.48442300  1
  As  As33  1  0.26788300  0.77254800  0.98741200  1
  As  As34  1  0.51851600  0.74586100  0.81251400  1
  As  As35  1  0.58966300  0.81153000  0.30470600  1
  As  As36  1  0.43794100  0.60702700  0.99776200  1
  As  As37  1  0.62174800  0.62174800  0.08070100  1
  As  As38  1  0.04301300  0.38015200  0.57774300  1
  As  As39  1  0.22282600  0.39743600  0.48275600  1
  As  As40  1  0.07184900  0.18039000  0.80786400  1
  As  As41  1  0.15162300  0.26080300  0.29932100  1
  As  As42  1  0.39743600  0.22282600  0.48275600  1
  As  As43  1  0.18039000  0.07184900  0.80786400  1
  As  As44  1  0.26080300  0.15162300  0.29932100  1
  As  As45  1  0.09906000  0.93082100  0.98846400  1
  As  As46  1  0.28469800  0.95370200  0.07786500  1
  As  As47  1  0.06436000  0.56358300  0.48660500  1
