# generated using pymatgen
data_Y2Th8O19
_symmetry_space_group_name_H-M   'P 1'
_cell_length_a   3.95651000
_cell_length_b   3.95712700
_cell_length_c   27.94028462
_cell_angle_alpha   90.01915501
_cell_angle_beta   90.06331387
_cell_angle_gamma   90.00011583
_symmetry_Int_Tables_number   1
_chemical_formula_structural   Y2Th8O19
_chemical_formula_sum   'Y2 Th8 O19'
_cell_volume   437.44433116
_cell_formula_units_Z   1
loop_
 _symmetry_equiv_pos_site_id
 _symmetry_equiv_pos_as_xyz
  1  'x, y, z'
loop_
 _atom_site_type_symbol
 _atom_site_label
 _atom_site_symmetry_multiplicity
 _atom_site_fract_x
 _atom_site_fract_y
 _atom_site_fract_z
 _atom_site_occupancy
  Y  Y0  1  0.00912400  0.00040400  0.99416800  1
  Y  Y1  1  0.50133400  0.49232400  0.10572700  1
  Th  Th2  1  0.00275700  0.99881600  0.19790400  1
  Th  Th3  1  0.50303500  0.50157800  0.29908500  1
  Th  Th4  1  0.00114200  0.00224100  0.39952000  1
  Th  Th5  1  0.50046000  0.50283000  0.49974000  1
  Th  Th6  1  0.99944900  0.00316700  0.60014600  1
  Th  Th7  1  0.49737500  0.50229600  0.70034900  1
  Th  Th8  1  0.99851100  0.00033200  0.80099200  1
  Th  Th9  1  0.50238600  0.50019800  0.90199000  1
  O  O10  1  0.00338400  0.50017100  0.24644500  1
  O  O11  1  0.50187800  0.00186800  0.34981300  1
  O  O12  1  0.00017100  0.50206400  0.44965600  1
  O  O13  1  0.50023600  0.00299200  0.54979100  1
  O  O14  1  0.99801000  0.50342000  0.65040600  1
  O  O15  1  0.49651800  0.00135300  0.74988900  1
  O  O16  1  0.00042200  0.49951600  0.85367800  1
  O  O17  1  0.50506700  0.99995800  0.94710700  1
  O  O18  1  0.49976500  0.99921700  0.84899600  1
  O  O19  1  0.00543900  0.50018700  0.95888800  1
  O  O20  1  0.49712900  0.00368300  0.04985900  1
  O  O21  1  0.50248700  0.99619800  0.15276700  1
  O  O22  1  0.00205700  0.49571500  0.14110900  1
  O  O23  1  0.50389700  0.00073600  0.25082800  1
  O  O24  1  0.00251400  0.50181800  0.34866100  1
  O  O25  1  0.50058900  0.00234800  0.44968200  1
  O  O26  1  0.00050800  0.50319300  0.54997600  1
  O  O27  1  0.49878900  0.00320500  0.64993700  1
  O  O28  1  0.99667300  0.50103000  0.75144600  1
