# generated using pymatgen
data_Bi2O3
_symmetry_space_group_name_H-M   'P 1'
_cell_length_a   6.90864600
_cell_length_b   7.65890500
_cell_length_c   8.16589967
_cell_angle_alpha   107.14477712
_cell_angle_beta   90.01253141
_cell_angle_gamma   110.94887608
_symmetry_Int_Tables_number   1
_chemical_formula_structural   Bi2O3
_chemical_formula_sum   'Bi8 O12'
_cell_volume   382.87784083
_cell_formula_units_Z   4
loop_
 _symmetry_equiv_pos_site_id
 _symmetry_equiv_pos_as_xyz
  1  'x, y, z'
loop_
 _atom_site_type_symbol
 _atom_site_label
 _atom_site_symmetry_multiplicity
 _atom_site_fract_x
 _atom_site_fract_y
 _atom_site_fract_z
 _atom_site_occupancy
  Bi  Bi0  1  0.80138500  0.91149200  0.88234100  1
  Bi  Bi1  1  0.17533300  0.07977000  0.62013000  1
  Bi  Bi2  1  0.03827500  0.52327300  0.48574200  1
  Bi  Bi3  1  0.58506800  0.91866800  0.40717400  1
  Bi  Bi4  1  0.81978900  0.44262300  0.93559200  1
  Bi  Bi5  1  0.28188500  0.96731200  0.08598600  1
  Bi  Bi6  1  0.55093400  0.50107600  0.55418600  1
  Bi  Bi7  1  0.36067800  0.49143400  0.05779900  1
  O  O8  1  0.39749700  0.60484900  0.34930900  1
  O  O9  1  0.81627000  0.85099600  0.58616600  1
  O  O10  1  0.38233000  0.88493200  0.66055300  1
  O  O11  1  0.47829500  0.35637200  0.77917400  1
  O  O12  1  0.47553500  0.96935600  0.84356500  1
  O  O13  1  0.16336900  0.30782200  0.50088900  1
  O  O14  1  0.62383200  0.76413000  0.11467100  1
  O  O15  1  0.70895000  0.33570500  0.37943800  1
  O  O16  1  0.16490200  0.64697500  0.01928500  1
  O  O17  1  0.88971800  0.56654600  0.72904700  1
  O  O18  1  0.26506500  0.94475400  0.36842600  1
  O  O19  1  0.95749100  0.22391400  0.89632700  1
