# generated using pymatgen
data_Sn3Ru2
_symmetry_space_group_name_H-M   'P 1'
_cell_length_a   6.25345300
_cell_length_b   6.25345300
_cell_length_c   10.03062100
_cell_angle_alpha   90.00000000
_cell_angle_beta   90.00000000
_cell_angle_gamma   90.00000000
_symmetry_Int_Tables_number   1
_chemical_formula_structural   Sn3Ru2
_chemical_formula_sum   'Sn12 Ru8'
_cell_volume   392.25419909
_cell_formula_units_Z   4
loop_
 _symmetry_equiv_pos_site_id
 _symmetry_equiv_pos_as_xyz
  1  'x, y, z'
loop_
 _atom_site_type_symbol
 _atom_site_label
 _atom_site_symmetry_multiplicity
 _atom_site_fract_x
 _atom_site_fract_y
 _atom_site_fract_z
 _atom_site_occupancy
  Sn  Sn0  1  0.22039900  0.34361400  0.58407400  1
  Sn  Sn1  1  0.34361400  0.22039900  0.91592600  1
  Sn  Sn2  1  0.34361400  0.77960100  0.41592600  1
  Sn  Sn3  1  0.65638600  0.22039900  0.41592600  1
  Sn  Sn4  1  0.22039900  0.65638600  0.08407400  1
  Sn  Sn5  1  0.82134900  0.82134900  0.25000000  1
  Sn  Sn6  1  0.65638600  0.77960100  0.91592600  1
  Sn  Sn7  1  0.17865100  0.82134900  0.75000000  1
  Sn  Sn8  1  0.82134900  0.17865100  0.75000000  1
  Sn  Sn9  1  0.77960100  0.34361400  0.08407400  1
  Sn  Sn10  1  0.77960100  0.65638600  0.58407400  1
  Sn  Sn11  1  0.17865100  0.17865100  0.25000000  1
  Ru  Ru12  1  0.50000000  0.00000000  0.62552100  1
  Ru  Ru13  1  0.00000000  0.50000000  0.37447900  1
  Ru  Ru14  1  0.00000000  0.00000000  0.00000000  1
  Ru  Ru15  1  0.00000000  0.50000000  0.87447900  1
  Ru  Ru16  1  0.50000000  0.00000000  0.12552100  1
  Ru  Ru17  1  0.00000000  0.00000000  0.50000000  1
  Ru  Ru18  1  0.50000000  0.50000000  0.75000000  1
  Ru  Ru19  1  0.50000000  0.50000000  0.25000000  1
