# generated using pymatgen
data_K2YbSn(PO4)3
_symmetry_space_group_name_H-M   'P 1'
_cell_length_a   10.40382100
_cell_length_b   10.40382100
_cell_length_c   10.40382100
_cell_angle_alpha   90.00000000
_cell_angle_beta   90.00000000
_cell_angle_gamma   90.00000000
_symmetry_Int_Tables_number   1
_chemical_formula_structural   K2YbSn(PO4)3
_chemical_formula_sum   'K8 Yb4 Sn4 P12 O48'
_cell_volume   1126.10429366
_cell_formula_units_Z   4
loop_
 _symmetry_equiv_pos_site_id
 _symmetry_equiv_pos_as_xyz
  1  'x, y, z'
loop_
 _atom_site_type_symbol
 _atom_site_label
 _atom_site_symmetry_multiplicity
 _atom_site_fract_x
 _atom_site_fract_y
 _atom_site_fract_z
 _atom_site_occupancy
  K  K0  1  0.07166400  0.07166400  0.07166400  1
  K  K1  1  0.20829200  0.70829200  0.79170800  1
  K  K2  1  0.29170800  0.29170800  0.29170800  1
  K  K3  1  0.42833600  0.92833600  0.57166400  1
  K  K4  1  0.57166400  0.42833600  0.92833600  1
  K  K5  1  0.70829200  0.79170800  0.20829200  1
  K  K6  1  0.79170800  0.20829200  0.70829200  1
  K  K7  1  0.92833600  0.57166400  0.42833600  1
  Yb  Yb8  1  0.08326300  0.91673700  0.41673700  1
  Yb  Yb9  1  0.41673700  0.08326300  0.91673700  1
  Yb  Yb10  1  0.58326300  0.58326300  0.58326300  1
  Yb  Yb11  1  0.91673700  0.41673700  0.08326300  1
  Sn  Sn12  1  0.15349100  0.34650900  0.65349100  1
  Sn  Sn13  1  0.34650900  0.65349100  0.15349100  1
  Sn  Sn14  1  0.65349100  0.15349100  0.34650900  1
  Sn  Sn15  1  0.84650900  0.84650900  0.84650900  1
  P  P16  1  0.03902700  0.73923900  0.11751800  1
  P  P17  1  0.11751800  0.03902700  0.73923900  1
  P  P18  1  0.23923900  0.38248200  0.96097300  1
  P  P19  1  0.26076100  0.61751800  0.46097300  1
  P  P20  1  0.38248200  0.96097300  0.23923900  1
  P  P21  1  0.46097300  0.26076100  0.61751800  1
  P  P22  1  0.53902700  0.76076100  0.88248200  1
  P  P23  1  0.61751800  0.46097300  0.26076100  1
  P  P24  1  0.73923900  0.11751800  0.03902700  1
  P  P25  1  0.76076100  0.88248200  0.53902700  1
  P  P26  1  0.88248200  0.53902700  0.76076100  1
  P  P27  1  0.96097300  0.23923900  0.38248200  1
  O  O28  1  0.00050400  0.60250800  0.15185300  1
  O  O29  1  0.01308900  0.82881300  0.23078500  1
  O  O30  1  0.00060900  0.96220800  0.79278200  1
  O  O31  1  0.03779200  0.29278200  0.49939100  1
  O  O32  1  0.07579100  0.18594500  0.74476500  1
  O  O33  1  0.10250800  0.34814700  0.99949600  1
  O  O34  1  0.15185300  0.00050400  0.60250800  1
  O  O35  1  0.17118700  0.73078500  0.48691100  1
  O  O36  1  0.18594500  0.74476500  0.07579100  1
  O  O37  1  0.20721800  0.50060900  0.53779200  1
  O  O38  1  0.23078500  0.01308900  0.82881300  1
  O  O39  1  0.25523500  0.57579100  0.31405500  1
  O  O40  1  0.24476500  0.42420900  0.81405500  1
  O  O41  1  0.26921500  0.98691100  0.32881300  1
  O  O42  1  0.29278200  0.49939100  0.03779200  1
  O  O43  1  0.31405500  0.25523500  0.57579100  1
  O  O44  1  0.32881300  0.26921500  0.98691100  1
  O  O45  1  0.34814700  0.99949600  0.10250800  1
  O  O46  1  0.39749200  0.65185300  0.49949600  1
  O  O47  1  0.42420900  0.81405500  0.24476500  1
  O  O48  1  0.46220800  0.70721800  0.99939100  1
  O  O49  1  0.49939100  0.03779200  0.29278200  1
  O  O50  1  0.49949600  0.39749200  0.65185300  1
  O  O51  1  0.48691100  0.17118700  0.73078500  1
  O  O52  1  0.51308900  0.67118700  0.76921500  1
  O  O53  1  0.50050400  0.89749200  0.84814700  1
  O  O54  1  0.50060900  0.53779200  0.20721800  1
  O  O55  1  0.53779200  0.20721800  0.50060900  1
  O  O56  1  0.57579100  0.31405500  0.25523500  1
  O  O57  1  0.60250800  0.15185300  0.00050400  1
  O  O58  1  0.65185300  0.49949600  0.39749200  1
  O  O59  1  0.67118700  0.76921500  0.51308900  1
  O  O60  1  0.68594500  0.75523500  0.92420900  1
  O  O61  1  0.70721800  0.99939100  0.46220800  1
  O  O62  1  0.73078500  0.48691100  0.17118700  1
  O  O63  1  0.75523500  0.92420900  0.68594500  1
  O  O64  1  0.74476500  0.07579100  0.18594500  1
  O  O65  1  0.76921500  0.51308900  0.67118700  1
  O  O66  1  0.79278200  0.00060900  0.96220800  1
  O  O67  1  0.81405500  0.24476500  0.42420900  1
  O  O68  1  0.82881300  0.23078500  0.01308900  1
  O  O69  1  0.84814700  0.50050400  0.89749200  1
  O  O70  1  0.89749200  0.84814700  0.50050400  1
  O  O71  1  0.92420900  0.68594500  0.75523500  1
  O  O72  1  0.96220800  0.79278200  0.00060900  1
  O  O73  1  0.99939100  0.46220800  0.70721800  1
  O  O74  1  0.99949600  0.10250800  0.34814700  1
  O  O75  1  0.98691100  0.32881300  0.26921500  1
