# generated using pymatgen
data_PtCl2
_symmetry_space_group_name_H-M   'P 1'
_cell_length_a   4.68974800
_cell_length_b   4.70379711
_cell_length_c   7.80133458
_cell_angle_alpha   100.10729810
_cell_angle_beta   95.53164069
_cell_angle_gamma   105.62070007
_symmetry_Int_Tables_number   1
_chemical_formula_structural   PtCl2
_chemical_formula_sum   'Pt2 Cl4'
_cell_volume   161.28248967
_cell_formula_units_Z   2
loop_
 _symmetry_equiv_pos_site_id
 _symmetry_equiv_pos_as_xyz
  1  'x, y, z'
loop_
 _atom_site_type_symbol
 _atom_site_label
 _atom_site_symmetry_multiplicity
 _atom_site_fract_x
 _atom_site_fract_y
 _atom_site_fract_z
 _atom_site_occupancy
  Pt  Pt0  1  0.79079800  0.71824400  0.40743400  1
  Pt  Pt1  1  0.20920200  0.28175600  0.59256600  1
  Cl  Cl2  1  0.78288100  0.91827900  0.16374100  1
  Cl  Cl3  1  0.74466400  0.43963500  0.63540700  1
  Cl  Cl4  1  0.25533600  0.56036500  0.36459300  1
  Cl  Cl5  1  0.21711900  0.08172100  0.83625900  1
