# generated using pymatgen
data_YbTiCdSbO7
_symmetry_space_group_name_H-M   'P 1'
_cell_length_a   7.30135100
_cell_length_b   7.30135100
_cell_length_c   10.33640600
_cell_angle_alpha   90.00000000
_cell_angle_beta   90.00000000
_cell_angle_gamma   90.00000000
_symmetry_Int_Tables_number   1
_chemical_formula_structural   YbTiCdSbO7
_chemical_formula_sum   'Yb4 Ti4 Cd4 Sb4 O28'
_cell_volume   551.03097608
_cell_formula_units_Z   4
loop_
 _symmetry_equiv_pos_site_id
 _symmetry_equiv_pos_as_xyz
  1  'x, y, z'
loop_
 _atom_site_type_symbol
 _atom_site_label
 _atom_site_symmetry_multiplicity
 _atom_site_fract_x
 _atom_site_fract_y
 _atom_site_fract_z
 _atom_site_occupancy
  Yb  Yb0  1  0.00000000  0.74548600  0.00000000  1
  Yb  Yb1  1  0.74548600  0.00000000  0.75000000  1
  Yb  Yb2  1  0.00000000  0.25451400  0.50000000  1
  Yb  Yb3  1  0.25451400  0.00000000  0.25000000  1
  Ti  Ti4  1  0.76547500  0.00000000  0.25000000  1
  Ti  Ti5  1  0.00000000  0.76547500  0.50000000  1
  Ti  Ti6  1  0.00000000  0.23452500  0.00000000  1
  Ti  Ti7  1  0.23452500  0.00000000  0.75000000  1
  Cd  Cd8  1  0.50000000  0.24951000  0.50000000  1
  Cd  Cd9  1  0.50000000  0.75049000  0.00000000  1
  Cd  Cd10  1  0.75049000  0.50000000  0.75000000  1
  Cd  Cd11  1  0.24951000  0.50000000  0.25000000  1
  Sb  Sb12  1  0.24648600  0.50000000  0.75000000  1
  Sb  Sb13  1  0.50000000  0.75351400  0.50000000  1
  Sb  Sb14  1  0.50000000  0.24648600  0.00000000  1
  Sb  Sb15  1  0.75351400  0.50000000  0.25000000  1
  O  O16  1  0.25587200  0.74412800  0.12500000  1
  O  O17  1  0.55132800  0.95424000  0.37145000  1
  O  O18  1  0.75495700  0.75544500  0.57157700  1
  O  O19  1  0.74412800  0.25587200  0.62500000  1
  O  O20  1  0.75544500  0.75495700  0.17842300  1
  O  O21  1  0.94958100  0.94958100  0.37500000  1
  O  O22  1  0.05041900  0.05041900  0.87500000  1
  O  O23  1  0.05041900  0.94958100  0.62500000  1
  O  O24  1  0.04576000  0.44867200  0.87855000  1
  O  O25  1  0.24504300  0.24455500  0.07157700  1
  O  O26  1  0.24504300  0.75544500  0.42842300  1
  O  O27  1  0.24455500  0.75495700  0.82157700  1
  O  O28  1  0.24455500  0.24504300  0.67842300  1
  O  O29  1  0.44867200  0.04576000  0.87145000  1
  O  O30  1  0.44867200  0.95424000  0.62855000  1
  O  O31  1  0.45212900  0.45212900  0.87500000  1
  O  O32  1  0.54787100  0.54787100  0.37500000  1
  O  O33  1  0.55132800  0.04576000  0.12855000  1
  O  O34  1  0.54787100  0.45212900  0.12500000  1
  O  O35  1  0.75544500  0.24504300  0.32157700  1
  O  O36  1  0.75495700  0.24455500  0.92842300  1
  O  O37  1  0.94958100  0.05041900  0.12500000  1
  O  O38  1  0.95424000  0.55132800  0.37855000  1
  O  O39  1  0.95424000  0.44867200  0.12145000  1
  O  O40  1  0.04576000  0.55132800  0.62145000  1
  O  O41  1  0.25587200  0.25587200  0.37500000  1
  O  O42  1  0.45212900  0.54787100  0.62500000  1
  O  O43  1  0.74412800  0.74412800  0.87500000  1
