# generated using pymatgen
data_K4BaTa6(Si2O13)2
_symmetry_space_group_name_H-M   'P 1'
_cell_length_a   9.16697732
_cell_length_b   9.16697732
_cell_length_c   7.87241700
_cell_angle_alpha   90.00000000
_cell_angle_beta   90.00000000
_cell_angle_gamma   119.62628486
_symmetry_Int_Tables_number   1
_chemical_formula_structural   K4BaTa6(Si2O13)2
_chemical_formula_sum   'K4 Ba1 Ta6 Si4 O26'
_cell_volume   575.06139745
_cell_formula_units_Z   1
loop_
 _symmetry_equiv_pos_site_id
 _symmetry_equiv_pos_as_xyz
  1  'x, y, z'
loop_
 _atom_site_type_symbol
 _atom_site_label
 _atom_site_symmetry_multiplicity
 _atom_site_fract_x
 _atom_site_fract_y
 _atom_site_fract_z
 _atom_site_occupancy
  K  K0  1  0.61078400  0.00101400  0.00000000  1
  K  K1  1  0.59480600  0.99930900  0.50000000  1
  K  K2  1  0.99930900  0.59480600  0.50000000  1
  K  K3  1  0.00101400  0.61078400  0.00000000  1
  Ba  Ba4  1  0.39686100  0.39686100  0.50000000  1
  Ta  Ta5  1  0.99916400  0.23812900  0.75135400  1
  Ta  Ta6  1  0.99916400  0.23812900  0.24864600  1
  Ta  Ta7  1  0.23812900  0.99916400  0.24864600  1
  Ta  Ta8  1  0.23812900  0.99916400  0.75135400  1
  Ta  Ta9  1  0.76388700  0.76388700  0.25017100  1
  Ta  Ta10  1  0.76388700  0.76388700  0.74982900  1
  Si  Si11  1  0.33472800  0.66379400  0.79228900  1
  Si  Si12  1  0.33472800  0.66379400  0.20771100  1
  Si  Si13  1  0.66379400  0.33472800  0.79228900  1
  Si  Si14  1  0.66379400  0.33472800  0.20771100  1
  O  O15  1  0.17361900  0.17361900  0.23997100  1
  O  O16  1  0.76850900  0.76850900  0.50000000  1
  O  O17  1  0.18368400  0.48544200  0.72407000  1
  O  O18  1  0.18368400  0.48544200  0.27593000  1
  O  O19  1  0.51426500  0.69363600  0.72243400  1
  O  O20  1  0.51426500  0.69363600  0.27756600  1
  O  O21  1  0.33527700  0.66635800  0.00000000  1
  O  O22  1  0.82384800  0.00079500  0.76246700  1
  O  O23  1  0.82384800  0.00079500  0.23753300  1
  O  O24  1  0.30544000  0.81731500  0.26974000  1
  O  O25  1  0.30544000  0.81731500  0.73026000  1
  O  O26  1  0.00414500  0.23622000  0.50000000  1
  O  O27  1  0.99575900  0.26839500  0.00000000  1
  O  O28  1  0.00079500  0.82384800  0.23753300  1
  O  O29  1  0.26839500  0.99575900  0.00000000  1
  O  O30  1  0.23622000  0.00414500  0.50000000  1
  O  O31  1  0.81731500  0.30544000  0.26974000  1
  O  O32  1  0.81731500  0.30544000  0.73026000  1
  O  O33  1  0.48544200  0.18368400  0.72407000  1
  O  O34  1  0.48544200  0.18368400  0.27593000  1
  O  O35  1  0.66635800  0.33527700  0.00000000  1
  O  O36  1  0.17361900  0.17361900  0.76002900  1
  O  O37  1  0.69363600  0.51426500  0.72243400  1
  O  O38  1  0.69363600  0.51426500  0.27756600  1
  O  O39  1  0.00079500  0.82384800  0.76246700  1
  O  O40  1  0.73706700  0.73706700  0.00000000  1
