# generated using pymatgen
data_Sn(BiTe2)2
_symmetry_space_group_name_H-M   'P 1'
_cell_length_a   14.96982210
_cell_length_b   14.96982210
_cell_length_c   23.35708444
_cell_angle_alpha   56.58329310
_cell_angle_beta   56.58329310
_cell_angle_gamma   17.11080720
_symmetry_Int_Tables_number   1
_chemical_formula_structural   Sn(BiTe2)2
_chemical_formula_sum   'Sn5 Bi10 Te20'
_cell_volume   1279.08308091
_cell_formula_units_Z   5
loop_
 _symmetry_equiv_pos_site_id
 _symmetry_equiv_pos_as_xyz
  1  'x, y, z'
loop_
 _atom_site_type_symbol
 _atom_site_label
 _atom_site_symmetry_multiplicity
 _atom_site_fract_x
 _atom_site_fract_y
 _atom_site_fract_z
 _atom_site_occupancy
  Sn  Sn0  1  0.20172900  0.20172900  0.59571700  1
  Sn  Sn1  1  0.19754500  0.19754500  0.32691900  1
  Sn  Sn2  1  0.79666500  0.79666500  0.40256400  1
  Sn  Sn3  1  0.83280000  0.83280000  0.10369700  1
  Sn  Sn4  1  0.57876000  0.57876000  0.08617600  1
  Bi  Bi5  1  0.41028800  0.41028800  0.91264600  1
  Bi  Bi6  1  0.19055100  0.19055100  0.87955500  1
  Bi  Bi7  1  0.01173000  0.01173000  0.71672700  1
  Bi  Bi8  1  0.79823300  0.79823300  0.68337900  1
  Bi  Bi9  1  0.60060400  0.60060400  0.80374600  1
  Bi  Bi10  1  0.60296800  0.60296800  0.51822700  1
  Bi  Bi11  1  0.39321000  0.39321000  0.48450800  1
  Bi  Bi12  1  0.98560300  0.98560300  0.28175500  1
  Bi  Bi13  1  0.69847500  0.69847500  0.10786800  1
  Bi  Bi14  1  0.39440900  0.39440900  0.19949600  1
  Te  Te15  1  0.82526300  0.82526300  0.97289100  1
  Te  Te16  1  0.59831500  0.59831500  0.93396200  1
  Te  Te17  1  0.42413600  0.42413600  0.77380800  1
  Te  Te18  1  0.19400500  0.19400500  0.74017800  1
  Te  Te19  1  0.00868900  0.00868900  0.85743600  1
  Te  Te20  1  0.01822900  0.01822900  0.57768200  1
  Te  Te21  1  0.78204700  0.78204700  0.82118100  1
  Te  Te22  1  0.79163600  0.79163600  0.54278200  1
  Te  Te23  1  0.60920800  0.60920800  0.65709400  1
  Te  Te24  1  0.61446700  0.61446700  0.38183800  1
  Te  Te25  1  0.38365100  0.38365100  0.62355900  1
  Te  Te26  1  0.39192000  0.39192000  0.34339000  1
  Te  Te27  1  0.20678600  0.20678600  0.45870300  1
  Te  Te28  1  0.22787800  0.22787800  0.17257700  1
  Te  Te29  1  0.97779500  0.97779500  0.42484300  1
  Te  Te30  1  0.98616300  0.98616300  0.14670900  1
  Te  Te31  1  0.80519400  0.80519400  0.26230700  1
  Te  Te32  1  0.57470800  0.57470800  0.22334500  1
  Te  Te33  1  0.41726600  0.41726600  0.05286100  1
  Te  Te34  1  0.16907500  0.16907500  0.02987700  1
