# generated using pymatgen
data_Yb2FeS4
_symmetry_space_group_name_H-M   'P 1'
_cell_length_a   7.69782364
_cell_length_b   7.69782364
_cell_length_c   25.87748957
_cell_angle_alpha   81.04038098
_cell_angle_beta   81.04038098
_cell_angle_gamma   59.39267469
_symmetry_Int_Tables_number   1
_chemical_formula_structural   Yb2FeS4
_chemical_formula_sum   'Yb16 Fe8 S32'
_cell_volume   1298.38590235
_cell_formula_units_Z   8
loop_
 _symmetry_equiv_pos_site_id
 _symmetry_equiv_pos_as_xyz
  1  'x, y, z'
loop_
 _atom_site_type_symbol
 _atom_site_label
 _atom_site_symmetry_multiplicity
 _atom_site_fract_x
 _atom_site_fract_y
 _atom_site_fract_z
 _atom_site_occupancy
  Yb  Yb0  1  0.00000000  0.00000000  0.50000000  1
  Yb  Yb1  1  0.50000000  0.00000000  0.50000000  1
  Yb  Yb2  1  0.25010200  0.25010200  0.74904800  1
  Yb  Yb3  1  0.00000000  0.50000000  0.50000000  1
  Yb  Yb4  1  0.12519600  0.12519600  0.62494200  1
  Yb  Yb5  1  0.74474200  0.25591000  0.74877700  1
  Yb  Yb6  1  0.84650300  0.84650300  0.87038000  1
  Yb  Yb7  1  0.50000000  0.50000000  0.00000000  1
  Yb  Yb8  1  0.25591000  0.74474200  0.74877700  1
  Yb  Yb9  1  0.37499300  0.37499300  0.87568200  1
  Yb  Yb10  1  0.15349700  0.15349700  0.12962000  1
  Yb  Yb11  1  0.74989800  0.74989800  0.25095200  1
  Yb  Yb12  1  0.62500700  0.62500700  0.12431800  1
  Yb  Yb13  1  0.25525800  0.74409000  0.25122300  1
  Yb  Yb14  1  0.74409000  0.25525800  0.25122300  1
  Yb  Yb15  1  0.87480400  0.87480400  0.37505800  1
  Fe  Fe16  1  0.53137800  0.53137800  0.40732900  1
  Fe  Fe17  1  0.78251500  0.78251500  0.65512900  1
  Fe  Fe18  1  0.04194500  0.04194500  0.91203200  1
  Fe  Fe19  1  0.46862200  0.46862200  0.59267100  1
  Fe  Fe20  1  0.00000000  0.50000000  0.00000000  1
  Fe  Fe21  1  0.50000000  0.00000000  0.00000000  1
  Fe  Fe22  1  0.95805500  0.95805500  0.08796800  1
  Fe  Fe23  1  0.21748500  0.21748500  0.34487100  1
  S  S24  1  0.20262000  0.68047800  0.43610200  1
  S  S25  1  0.68047800  0.20262000  0.43610200  1
  S  S26  1  0.81095900  0.81095900  0.56767800  1
  S  S27  1  0.67990600  0.67990600  0.43591100  1
  S  S28  1  0.45894500  0.92814700  0.68513000  1
  S  S29  1  0.32009400  0.32009400  0.56408900  1
  S  S30  1  0.92814700  0.45894500  0.68513000  1
  S  S31  1  0.31952100  0.79738000  0.56389800  1
  S  S32  1  0.05750600  0.05750600  0.82402200  1
  S  S33  1  0.18904100  0.18904100  0.43232200  1
  S  S34  1  0.92800400  0.92800400  0.68517200  1
  S  S35  1  0.79738000  0.31952200  0.56389800  1
  S  S36  1  0.55910400  0.55910400  0.81252000  1
  S  S37  1  0.70240600  0.16009700  0.94024500  1
  S  S38  1  0.55340300  0.07804000  0.80996900  1
  S  S39  1  0.29854800  0.29854800  0.03894300  1
  S  S40  1  0.16009700  0.70240600  0.94024500  1
  S  S41  1  0.43992200  0.43992200  0.67889500  1
  S  S42  1  0.19209400  0.19209400  0.94999900  1
  S  S43  1  0.07804000  0.55340300  0.80996900  1
  S  S44  1  0.92196000  0.44659700  0.19003100  1
  S  S45  1  0.80790600  0.80790600  0.05000100  1
  S  S46  1  0.44659700  0.92196000  0.19003100  1
  S  S47  1  0.83990300  0.29759400  0.05975500  1
  S  S48  1  0.56007800  0.56007800  0.32110500  1
  S  S49  1  0.70145200  0.70145200  0.96105700  1
  S  S50  1  0.44089600  0.44089600  0.18748000  1
  S  S51  1  0.29759400  0.83990300  0.05975500  1
  S  S52  1  0.07199600  0.07199600  0.31482800  1
  S  S53  1  0.07185300  0.54105500  0.31487000  1
  S  S54  1  0.94249400  0.94249400  0.17597800  1
  S  S55  1  0.54105500  0.07185300  0.31487000  1
