# generated using pymatgen
data_Ca4Al6O13
_symmetry_space_group_name_H-M   'P 1'
_cell_length_a   5.34297000
_cell_length_b   17.89883300
_cell_length_c   21.28524000
_cell_angle_alpha   90.00000000
_cell_angle_beta   90.00000000
_cell_angle_gamma   90.00000000
_symmetry_Int_Tables_number   1
_chemical_formula_structural   Ca4Al6O13
_chemical_formula_sum   'Ca32 Al48 O104'
_cell_volume   2035.56981915
_cell_formula_units_Z   8
loop_
 _symmetry_equiv_pos_site_id
 _symmetry_equiv_pos_as_xyz
  1  'x, y, z'
loop_
 _atom_site_type_symbol
 _atom_site_label
 _atom_site_symmetry_multiplicity
 _atom_site_fract_x
 _atom_site_fract_y
 _atom_site_fract_z
 _atom_site_occupancy
  Ca  Ca0  1  0.47720200  0.08687900  0.49429300  1
  Ca  Ca1  1  0.02279800  0.58687900  0.50570700  1
  Ca  Ca2  1  0.52976600  0.08702200  0.75629000  1
  Ca  Ca3  1  0.51021400  0.58272900  0.12470800  1
  Ca  Ca4  1  0.98978600  0.91727100  0.62470800  1
  Ca  Ca5  1  0.00696900  0.09815400  0.62492100  1
  Ca  Ca6  1  0.52279800  0.08687900  0.99429300  1
  Ca  Ca7  1  0.49303100  0.59815400  0.37507900  1
  Ca  Ca8  1  0.99303100  0.09815400  0.12492100  1
  Ca  Ca9  1  0.48978600  0.58272900  0.62470800  1
  Ca  Ca10  1  0.98978600  0.08272900  0.87529200  1
  Ca  Ca11  1  0.52976600  0.91297800  0.74371000  1
  Ca  Ca12  1  0.47023400  0.08702200  0.25629000  1
  Ca  Ca13  1  0.02279800  0.41312100  0.99429300  1
  Ca  Ca14  1  0.02976600  0.41297800  0.75629000  1
  Ca  Ca15  1  0.50696900  0.59815400  0.87507900  1
  Ca  Ca16  1  0.49303100  0.40184600  0.12492100  1
  Ca  Ca17  1  0.97023400  0.58702200  0.24371000  1
  Ca  Ca18  1  0.99303100  0.90184600  0.37507900  1
  Ca  Ca19  1  0.97720200  0.58687900  0.00570700  1
  Ca  Ca20  1  0.51021400  0.41727100  0.37529200  1
  Ca  Ca21  1  0.47023400  0.91297800  0.24371000  1
  Ca  Ca22  1  0.52279800  0.91312100  0.50570700  1
  Ca  Ca23  1  0.50696900  0.40184600  0.62492100  1
  Ca  Ca24  1  0.02976600  0.58702200  0.74371000  1
  Ca  Ca25  1  0.00696900  0.90184600  0.87507900  1
  Ca  Ca26  1  0.01021400  0.08272900  0.37529200  1
  Ca  Ca27  1  0.47720200  0.91312100  0.00570700  1
  Ca  Ca28  1  0.48978600  0.41727100  0.87529200  1
  Ca  Ca29  1  0.97023400  0.41297800  0.25629000  1
  Ca  Ca30  1  0.01021400  0.91727100  0.12470800  1
  Ca  Ca31  1  0.97720200  0.41312100  0.49429300  1
  Al  Al32  1  0.48393700  0.50000000  0.25000000  1
  Al  Al33  1  0.00237700  0.28375600  0.62484600  1
  Al  Al34  1  0.60817700  0.70682300  0.74277000  1
  Al  Al35  1  0.10122500  0.79337400  0.50731000  1
  Al  Al36  1  0.60122500  0.29337400  0.99269000  1
  Al  Al37  1  0.50237700  0.78375600  0.87515400  1
  Al  Al38  1  0.50413300  0.00948300  0.62494500  1
  Al  Al39  1  0.89182300  0.20682300  0.25723000  1
  Al  Al40  1  0.49586700  0.00948300  0.12494500  1
  Al  Al41  1  0.99762300  0.71624400  0.37515400  1
  Al  Al42  1  0.93608100  0.29682700  0.87538600  1
  Al  Al43  1  0.89182300  0.79317700  0.24277000  1
  Al  Al44  1  0.60122500  0.70662600  0.50731000  1
  Al  Al45  1  0.99762300  0.28375600  0.12484600  1
  Al  Al46  1  0.93608100  0.70317300  0.62461400  1
  Al  Al47  1  0.39877500  0.70662600  0.00731000  1
  Al  Al48  1  0.00413300  0.49051700  0.62494500  1
  Al  Al49  1  0.43608100  0.79682700  0.62461400  1
  Al  Al50  1  0.99586700  0.50948300  0.37505500  1
  Al  Al51  1  0.00000000  0.00000000  0.00000000  1
  Al  Al52  1  0.00413300  0.50948300  0.87505500  1
  Al  Al53  1  0.89877500  0.79337400  0.00731000  1
  Al  Al54  1  0.56391900  0.20317300  0.37538600  1
  Al  Al55  1  0.51606300  0.50000000  0.75000000  1
  Al  Al56  1  0.60817700  0.29317700  0.75723000  1
  Al  Al57  1  0.39877500  0.29337400  0.49269000  1
  Al  Al58  1  0.39182300  0.29317700  0.25723000  1
  Al  Al59  1  0.49586700  0.99051700  0.37505500  1
  Al  Al60  1  0.10817700  0.20682300  0.75723000  1
  Al  Al61  1  0.99586700  0.49051700  0.12494500  1
  Al  Al62  1  0.50413300  0.99051700  0.87505500  1
  Al  Al63  1  0.98393700  0.00000000  0.25000000  1
  Al  Al64  1  0.01606300  0.00000000  0.75000000  1
  Al  Al65  1  0.39182300  0.70682300  0.24277000  1
  Al  Al66  1  0.10122500  0.20662600  0.99269000  1
  Al  Al67  1  0.56391900  0.79682700  0.12461400  1
  Al  Al68  1  0.00000000  0.00000000  0.50000000  1
  Al  Al69  1  0.50000000  0.50000000  0.50000000  1
  Al  Al70  1  0.06391900  0.29682700  0.37538600  1
  Al  Al71  1  0.43608100  0.20317300  0.87538600  1
  Al  Al72  1  0.89877500  0.20662600  0.49269000  1
  Al  Al73  1  0.49762300  0.21624400  0.12484600  1
  Al  Al74  1  0.10817700  0.79317700  0.74277000  1
  Al  Al75  1  0.50000000  0.50000000  0.00000000  1
  Al  Al76  1  0.49762300  0.78375600  0.37515400  1
  Al  Al77  1  0.00237700  0.71624400  0.87515400  1
  Al  Al78  1  0.50237700  0.21624400  0.62484600  1
  Al  Al79  1  0.06391900  0.70317300  0.12461400  1
  O  O80  1  0.97925300  0.11566300  0.99036600  1
  O  O81  1  0.73795300  0.99453100  0.31172400  1
  O  O82  1  0.46922100  0.89200600  0.12496300  1
  O  O83  1  0.53077900  0.89200600  0.62496300  1
  O  O84  1  0.75137700  0.99040600  0.93845200  1
  O  O85  1  0.73795300  0.00546900  0.18827600  1
  O  O86  1  0.82691300  0.22257500  0.57462100  1
  O  O87  1  0.43100700  0.21321100  0.78300600  1
  O  O88  1  0.49483800  0.61514700  0.74025100  1
  O  O89  1  0.47925300  0.38433700  0.99036600  1
  O  O90  1  0.49483800  0.38485300  0.75974900  1
  O  O91  1  0.49543800  0.88156300  0.87579700  1
  O  O92  1  0.99483800  0.11514700  0.75974900  1
  O  O93  1  0.99543800  0.61843700  0.87579700  1
  O  O94  1  0.10115300  0.79068400  0.62417200  1
  O  O95  1  0.24897900  0.99563400  0.93709400  1
  O  O96  1  0.50456200  0.88156300  0.37579700  1
  O  O97  1  0.18045200  0.77564800  0.82412300  1
  O  O98  1  0.23795300  0.49453100  0.18827600  1
  O  O99  1  0.03077900  0.39200600  0.87503700  1
  O  O100  1  0.73679400  0.50861300  0.31270900  1
  O  O101  1  0.26204700  0.00546900  0.68827600  1
  O  O102  1  0.00456200  0.38156300  0.12420300  1
  O  O103  1  0.96922100  0.60799400  0.12496300  1
  O  O104  1  0.74862300  0.50959400  0.43845200  1
  O  O105  1  0.57382700  0.78748000  0.03215000  1
  O  O106  1  0.17308700  0.77742500  0.42537900  1
  O  O107  1  0.76204700  0.49453100  0.68827600  1
  O  O108  1  0.39884700  0.29068400  0.37582800  1
  O  O109  1  0.50516200  0.61514700  0.24025100  1
  O  O110  1  0.39884700  0.70931600  0.12417200  1
  O  O111  1  0.81954800  0.22435200  0.17587700  1
  O  O112  1  0.93100700  0.71321100  0.71699400  1
  O  O113  1  0.67308700  0.72257500  0.42537900  1
  O  O114  1  0.60115300  0.70931600  0.62417200  1
  O  O115  1  0.06899300  0.71321100  0.21699400  1
  O  O116  1  0.17308700  0.22257500  0.07462100  1
  O  O117  1  0.68045200  0.72435200  0.82412300  1
  O  O118  1  0.31954800  0.72435200  0.32412300  1
  O  O119  1  0.68045200  0.27564800  0.67587700  1
  O  O120  1  0.96922100  0.39200600  0.37503700  1
  O  O121  1  0.75102100  0.00436600  0.06290600  1
  O  O122  1  0.74862300  0.49040600  0.06154800  1
  O  O123  1  0.32691300  0.27742500  0.57462100  1
  O  O124  1  0.81954800  0.77564800  0.32412300  1
  O  O125  1  0.07382700  0.28748000  0.46785000  1
  O  O126  1  0.49543800  0.11843700  0.62420300  1
  O  O127  1  0.23679400  0.99138700  0.31270900  1
  O  O128  1  0.56899300  0.78678900  0.21699400  1
  O  O129  1  0.00516200  0.11514700  0.25974900  1
  O  O130  1  0.26320600  0.49138700  0.68729100  1
  O  O131  1  0.53077900  0.10799400  0.87503700  1
  O  O132  1  0.92617300  0.71252000  0.53215000  1
  O  O133  1  0.42617300  0.78748000  0.53215000  1
  O  O134  1  0.46922100  0.10799400  0.37503700  1
  O  O135  1  0.76320600  0.99138700  0.81270900  1
  O  O136  1  0.52074700  0.61566300  0.00963400  1
  O  O137  1  0.89884700  0.20931600  0.37582800  1
  O  O138  1  0.97925300  0.88433700  0.50963400  1
  O  O139  1  0.60115300  0.29068400  0.87582800  1
  O  O140  1  0.50456200  0.11843700  0.12420300  1
  O  O141  1  0.26204700  0.99453100  0.81172400  1
  O  O142  1  0.25102100  0.50436600  0.43709400  1
  O  O143  1  0.82691300  0.77742500  0.92537900  1
  O  O144  1  0.26320600  0.50861300  0.81270900  1
  O  O145  1  0.23679400  0.00861300  0.18729100  1
  O  O146  1  0.18045200  0.22435200  0.67587700  1
  O  O147  1  0.75137700  0.00959400  0.56154800  1
  O  O148  1  0.00516200  0.88485300  0.24025100  1
  O  O149  1  0.06899300  0.28678900  0.28300600  1
  O  O150  1  0.47925300  0.61566300  0.50963400  1
  O  O151  1  0.31954800  0.27564800  0.17587700  1
  O  O152  1  0.07382700  0.71252000  0.03215000  1
  O  O153  1  0.42617300  0.21252000  0.96785000  1
  O  O154  1  0.52074700  0.38433700  0.49036600  1
  O  O155  1  0.99483800  0.88485300  0.74025100  1
  O  O156  1  0.23795300  0.50546900  0.31172400  1
  O  O157  1  0.99543800  0.38156300  0.62420300  1
  O  O158  1  0.74897900  0.49563400  0.56290600  1
  O  O159  1  0.56899300  0.21321100  0.28300600  1
  O  O160  1  0.00456200  0.61843700  0.37579700  1
  O  O161  1  0.24897900  0.00436600  0.56290600  1
  O  O162  1  0.32691300  0.72257500  0.92537900  1
  O  O163  1  0.89884700  0.79068400  0.12417200  1
  O  O164  1  0.74897900  0.50436600  0.93709400  1
  O  O165  1  0.10115300  0.20931600  0.87582800  1
  O  O166  1  0.92617300  0.28748000  0.96785000  1
  O  O167  1  0.57382700  0.21252000  0.46785000  1
  O  O168  1  0.76320600  0.00861300  0.68729100  1
  O  O169  1  0.73679400  0.49138700  0.18729100  1
  O  O170  1  0.76204700  0.50546900  0.81172400  1
  O  O171  1  0.03077900  0.60799400  0.62496300  1
  O  O172  1  0.93100700  0.28678900  0.78300600  1
  O  O173  1  0.25102100  0.49563400  0.06290600  1
  O  O174  1  0.67308700  0.27742500  0.07462100  1
  O  O175  1  0.25137700  0.49040600  0.56154800  1
  O  O176  1  0.43100700  0.78678900  0.71699400  1
  O  O177  1  0.24862300  0.99040600  0.43845200  1
  O  O178  1  0.50516200  0.38485300  0.25974900  1
  O  O179  1  0.75102100  0.99563400  0.43709400  1
  O  O180  1  0.02074700  0.88433700  0.00963400  1
  O  O181  1  0.25137700  0.50959400  0.93845200  1
  O  O182  1  0.02074700  0.11566300  0.49036600  1
  O  O183  1  0.24862300  0.00959400  0.06154800  1
