# generated using pymatgen
data_Yb2EuS4
_symmetry_space_group_name_H-M   'P 1'
_cell_length_a   7.18034926
_cell_length_b   7.18034926
_cell_length_c   7.18034926
_cell_angle_alpha   109.52124184
_cell_angle_beta   109.52124184
_cell_angle_gamma   109.37122448
_symmetry_Int_Tables_number   1
_chemical_formula_structural   Yb2EuS4
_chemical_formula_sum   'Yb4 Eu2 S8'
_cell_volume   284.97963464
_cell_formula_units_Z   2
loop_
 _symmetry_equiv_pos_site_id
 _symmetry_equiv_pos_as_xyz
  1  'x, y, z'
loop_
 _atom_site_type_symbol
 _atom_site_label
 _atom_site_symmetry_multiplicity
 _atom_site_fract_x
 _atom_site_fract_y
 _atom_site_fract_z
 _atom_site_occupancy
  Yb  Yb0  1  0.37500000  0.00003600  0.12503600  1
  Yb  Yb1  1  0.75003600  0.62500000  0.62503600  1
  Yb  Yb2  1  0.87500000  0.24996400  0.87496400  1
  Yb  Yb3  1  0.99996400  0.12500000  0.37496400  1
  Eu  Eu4  1  0.25000000  0.75000000  0.50000000  1
  Eu  Eu5  1  0.50000000  0.50000000  0.00000000  1
  S  S6  1  0.62479200  0.87476900  0.41524000  1
  S  S7  1  0.29047100  0.37523100  0.25002300  1
  S  S8  1  0.62476900  0.87479200  0.91524000  1
  S  S9  1  0.95955200  0.70952900  0.08476000  1
  S  S10  1  0.45952900  0.20955200  0.58476000  1
  S  S11  1  0.12523100  0.54047100  0.75002300  1
  S  S12  1  0.79044800  0.37520800  0.24997700  1
  S  S13  1  0.12520800  0.04044800  0.74997700  1
