# generated using pymatgen
data_La15B14C19
_symmetry_space_group_name_H-M   'P 1'
_cell_length_a   8.69489400
_cell_length_b   8.67238000
_cell_length_c   19.57101244
_cell_angle_alpha   87.24724358
_cell_angle_beta   90.00000000
_cell_angle_gamma   90.00000000
_symmetry_Int_Tables_number   1
_chemical_formula_structural   La15B14C19
_chemical_formula_sum   'La30 B28 C38'
_cell_volume   1474.05759346
_cell_formula_units_Z   2
loop_
 _symmetry_equiv_pos_site_id
 _symmetry_equiv_pos_as_xyz
  1  'x, y, z'
loop_
 _atom_site_type_symbol
 _atom_site_label
 _atom_site_symmetry_multiplicity
 _atom_site_fract_x
 _atom_site_fract_y
 _atom_site_fract_z
 _atom_site_occupancy
  La  La0  1  0.70148800  0.36839300  0.13919300  1
  La  La1  1  0.39552200  0.30590200  0.99216200  1
  La  La2  1  0.79851200  0.36839300  0.63919300  1
  La  La3  1  0.89552200  0.69409800  0.50783800  1
  La  La4  1  0.10447800  0.30590200  0.49216200  1
  La  La5  1  0.51691700  0.23555100  0.80588500  1
  La  La6  1  0.08884800  0.56434600  0.17919500  1
  La  La7  1  0.79128500  0.11211500  0.97396300  1
  La  La8  1  0.21530600  0.16679800  0.66896500  1
  La  La9  1  0.58884800  0.43565400  0.32080500  1
  La  La10  1  0.29128500  0.88788500  0.52603700  1
  La  La11  1  0.70871500  0.11211500  0.47396300  1
  La  La12  1  0.50000000  0.50000000  0.50000000  1
  La  La13  1  0.20871500  0.88788500  0.02603700  1
  La  La14  1  0.78469400  0.83320200  0.33103500  1
  La  La15  1  0.98308300  0.23555100  0.30588500  1
  La  La16  1  0.59914800  0.97078000  0.65435600  1
  La  La17  1  0.01691700  0.76444900  0.69411500  1
  La  La18  1  0.90085200  0.97078000  0.15435600  1
  La  La19  1  0.00000000  0.50000000  0.00000000  1
  La  La20  1  0.29851200  0.63160700  0.86080700  1
  La  La21  1  0.20148800  0.63160700  0.36080700  1
  La  La22  1  0.41115200  0.56434600  0.67919500  1
  La  La23  1  0.28469400  0.16679800  0.16896500  1
  La  La24  1  0.48308300  0.76444900  0.19411500  1
  La  La25  1  0.09914800  0.02922000  0.84564400  1
  La  La26  1  0.40085200  0.02922000  0.34564400  1
  La  La27  1  0.71530600  0.83320200  0.83103500  1
  La  La28  1  0.60447800  0.69409800  0.00783800  1
  La  La29  1  0.91115200  0.43565400  0.82080500  1
  B  B30  1  0.51544700  0.74423600  0.39592100  1
  B  B31  1  0.39672200  0.92692700  0.78826600  1
  B  B32  1  0.61009500  0.54894600  0.79210500  1
  B  B33  1  0.52874200  0.02339300  0.07174600  1
  B  B34  1  0.89672200  0.07307300  0.71173400  1
  B  B35  1  0.38990500  0.45105400  0.20789500  1
  B  B36  1  0.88990500  0.54894600  0.29210500  1
  B  B37  1  0.60219200  0.80309600  0.53411200  1
  B  B38  1  0.02874200  0.97660700  0.42825400  1
  B  B39  1  0.33198000  0.56129800  0.06848800  1
  B  B40  1  0.10327800  0.92692700  0.28826600  1
  B  B41  1  0.60327800  0.07307300  0.21173400  1
  B  B42  1  0.70637600  0.66821900  0.66046600  1
  B  B43  1  0.20637600  0.33178100  0.83953400  1
  B  B44  1  0.98455300  0.74423600  0.89592100  1
  B  B45  1  0.79362400  0.66821900  0.16046600  1
  B  B46  1  0.48455300  0.25576400  0.60407900  1
  B  B47  1  0.16802000  0.56129800  0.56848800  1
  B  B48  1  0.11009500  0.45105400  0.70789500  1
  B  B49  1  0.10219200  0.19690400  0.96588800  1
  B  B50  1  0.83198000  0.43870200  0.43151200  1
  B  B51  1  0.29362400  0.33178100  0.33953400  1
  B  B52  1  0.66802000  0.43870200  0.93151200  1
  B  B53  1  0.89780800  0.80309600  0.03411200  1
  B  B54  1  0.97125800  0.02339300  0.57174600  1
  B  B55  1  0.47125800  0.97660700  0.92825400  1
  B  B56  1  0.39780800  0.19690400  0.46588800  1
  B  B57  1  0.01544700  0.25576400  0.10407900  1
  C  C58  1  0.40746900  0.93367700  0.86309800  1
  C  C59  1  0.51153200  0.26430800  0.67689000  1
  C  C60  1  0.32705200  0.87853800  0.72478900  1
  C  C61  1  0.69678300  0.12960400  0.34318600  1
  C  C62  1  0.81080900  0.39777000  0.50421200  1
  C  C63  1  0.14236800  0.30804500  0.90796300  1
  C  C64  1  0.59253100  0.06632300  0.13690200  1
  C  C65  1  0.68919100  0.39777000  0.00421200  1
  C  C66  1  0.58122200  0.79963500  0.45888300  1
  C  C67  1  0.98846800  0.26430800  0.17689000  1
  C  C68  1  0.41877800  0.20036500  0.54111700  1
  C  C69  1  0.29771600  0.38966500  0.26851400  1
  C  C70  1  0.70228400  0.61033500  0.73148600  1
  C  C71  1  0.87482600  0.51781500  0.36676000  1
  C  C72  1  0.64236800  0.69195500  0.59203700  1
  C  C73  1  0.79771600  0.61033500  0.23148600  1
  C  C74  1  0.82705200  0.12146200  0.77521100  1
  C  C75  1  0.08122200  0.20036500  0.04111700  1
  C  C76  1  0.31080900  0.60223000  0.99578800  1
  C  C77  1  0.09253100  0.93367700  0.36309800  1
  C  C78  1  0.85763200  0.69195500  0.09203700  1
  C  C79  1  0.48846800  0.73569200  0.32311000  1
  C  C80  1  0.12517400  0.48218500  0.63324000  1
  C  C81  1  0.19678300  0.87039600  0.15681400  1
  C  C82  1  0.37482600  0.48218500  0.13324000  1
  C  C83  1  0.01153200  0.73569200  0.82311000  1
  C  C84  1  0.35763200  0.30804500  0.40796300  1
  C  C85  1  0.80321700  0.12960400  0.84318600  1
  C  C86  1  0.90746900  0.06632300  0.63690200  1
  C  C87  1  0.00000000  0.00000000  0.50000000  1
  C  C88  1  0.18919100  0.60223000  0.49578800  1
  C  C89  1  0.91877800  0.79963500  0.95888300  1
  C  C90  1  0.30321700  0.87039600  0.65681400  1
  C  C91  1  0.20228400  0.38966500  0.76851400  1
  C  C92  1  0.62517400  0.51781500  0.86676000  1
  C  C93  1  0.50000000  0.00000000  0.00000000  1
  C  C94  1  0.17294800  0.87853800  0.22478900  1
  C  C95  1  0.67294800  0.12146200  0.27521100  1
