# generated using pymatgen
data_Ag7P3S11
_symmetry_space_group_name_H-M   'P 1'
_cell_length_a   12.64332998
_cell_length_b   12.64332998
_cell_length_c   24.87109545
_cell_angle_alpha   69.91515238
_cell_angle_beta   69.91515238
_cell_angle_gamma   29.51248923
_symmetry_Int_Tables_number   1
_chemical_formula_structural   Ag7P3S11
_chemical_formula_sum   'Ag28 P12 S44'
_cell_volume   1830.84507348
_cell_formula_units_Z   4
loop_
 _symmetry_equiv_pos_site_id
 _symmetry_equiv_pos_as_xyz
  1  'x, y, z'
loop_
 _atom_site_type_symbol
 _atom_site_label
 _atom_site_symmetry_multiplicity
 _atom_site_fract_x
 _atom_site_fract_y
 _atom_site_fract_z
 _atom_site_occupancy
  Ag  Ag0  1  0.83191900  0.21369600  0.31337300  1
  Ag  Ag1  1  0.82052600  0.39938800  0.09943700  1
  Ag  Ag2  1  0.78630400  0.16808100  0.18662700  1
  Ag  Ag3  1  0.81790100  0.70108400  0.93281700  1
  Ag  Ag4  1  0.70108400  0.81790100  0.43281700  1
  Ag  Ag5  1  0.17415200  0.64505900  0.31812700  1
  Ag  Ag6  1  0.26736200  0.91502200  0.89372500  1
  Ag  Ag7  1  0.64505900  0.17415200  0.81812700  1
  Ag  Ag8  1  0.55047700  0.10763800  0.68572400  1
  Ag  Ag9  1  0.18209900  0.29891600  0.06718300  1
  Ag  Ag10  1  0.21369600  0.83191900  0.81337300  1
  Ag  Ag11  1  0.91502200  0.26736200  0.39372500  1
  Ag  Ag12  1  0.17947400  0.60061200  0.90056300  1
  Ag  Ag13  1  0.44952300  0.89236200  0.31427600  1
  Ag  Ag14  1  0.35494100  0.82584800  0.18187300  1
  Ag  Ag15  1  0.16808100  0.78630400  0.68662700  1
  Ag  Ag16  1  0.44142200  0.05124000  0.85487400  1
  Ag  Ag17  1  0.10763800  0.55047700  0.18572400  1
  Ag  Ag18  1  0.29891600  0.18209900  0.56718300  1
  Ag  Ag19  1  0.55857800  0.94876000  0.14512600  1
  Ag  Ag20  1  0.60061200  0.17947400  0.40056300  1
  Ag  Ag21  1  0.08497800  0.73263800  0.60627500  1
  Ag  Ag22  1  0.39938800  0.82052600  0.59943700  1
  Ag  Ag23  1  0.89236200  0.44952300  0.81427600  1
  Ag  Ag24  1  0.73263800  0.08497800  0.10627500  1
  Ag  Ag25  1  0.82584800  0.35494100  0.68187300  1
  Ag  Ag26  1  0.05124000  0.44142200  0.35487400  1
  Ag  Ag27  1  0.94876000  0.55857800  0.64512600  1
  P  P28  1  0.31039200  0.71035100  0.39431600  1
  P  P29  1  0.37313800  0.96129200  0.72104100  1
  P  P30  1  0.67199000  0.04456800  0.98204500  1
  P  P31  1  0.28964900  0.68960800  0.10568400  1
  P  P32  1  0.71035100  0.31039200  0.89431600  1
  P  P33  1  0.04456800  0.67199000  0.48204500  1
  P  P34  1  0.32801000  0.95543200  0.01795500  1
  P  P35  1  0.03870800  0.62686200  0.77895900  1
  P  P36  1  0.68960800  0.28964900  0.60568400  1
  P  P37  1  0.62686200  0.03870800  0.27895900  1
  P  P38  1  0.96129200  0.37313800  0.22104100  1
  P  P39  1  0.95543200  0.32801000  0.51795500  1
  S  S40  1  0.14788900  0.51075300  0.70357500  1
  S  S41  1  0.48924700  0.85211100  0.79642500  1
  S  S42  1  0.05923400  0.45958800  0.84794400  1
  S  S43  1  0.07138900  0.82933900  0.46222700  1
  S  S44  1  0.94076600  0.54041200  0.15205600  1
  S  S45  1  0.80465100  0.21706500  0.81550100  1
  S  S46  1  0.48313400  0.18925200  0.05783800  1
  S  S47  1  0.21706500  0.80465100  0.31550100  1
  S  S48  1  0.71507100  0.93396000  0.49249400  1
  S  S49  1  0.86772400  0.29999500  0.90913400  1
  S  S50  1  0.49208900  0.17998400  0.92309100  1
  S  S51  1  0.51075300  0.14788900  0.20357500  1
  S  S52  1  0.78293500  0.19534900  0.68449900  1
  S  S53  1  0.70000500  0.13227600  0.59086600  1
  S  S54  1  0.17066100  0.92861100  0.03777300  1
  S  S55  1  0.93396000  0.71507100  0.99249400  1
  S  S56  1  0.62023200  0.39257000  0.09054200  1
  S  S57  1  0.39257000  0.62023200  0.59054200  1
  S  S58  1  0.81074800  0.51686600  0.44216200  1
  S  S59  1  0.51686600  0.81074800  0.94216200  1
  S  S60  1  0.18925200  0.48313400  0.55783800  1
  S  S61  1  0.28596100  0.04707400  0.22114900  1
  S  S62  1  0.29999500  0.86772400  0.40913400  1
  S  S63  1  0.92861100  0.17066100  0.53777300  1
  S  S64  1  0.77665100  0.40656400  0.21031600  1
  S  S65  1  0.28492900  0.06604000  0.50750600  1
  S  S66  1  0.54041200  0.94076600  0.65205600  1
  S  S67  1  0.71403900  0.95292600  0.77885100  1
  S  S68  1  0.13227600  0.70000500  0.09086600  1
  S  S69  1  0.22334900  0.59343600  0.78968400  1
  S  S70  1  0.85211100  0.48924700  0.29642500  1
  S  S71  1  0.04707400  0.28596100  0.72114900  1
  S  S72  1  0.50791100  0.82001600  0.07690900  1
  S  S73  1  0.06604000  0.28492900  0.00750600  1
  S  S74  1  0.40656400  0.77665100  0.71031600  1
  S  S75  1  0.60743000  0.37976800  0.40945800  1
  S  S76  1  0.95292600  0.71403900  0.27885100  1
  S  S77  1  0.82933900  0.07138900  0.96222700  1
  S  S78  1  0.45958800  0.05923400  0.34794400  1
  S  S79  1  0.17998400  0.49208900  0.42309100  1
  S  S80  1  0.82001600  0.50791100  0.57690900  1
  S  S81  1  0.59343600  0.22334900  0.28968400  1
  S  S82  1  0.37976800  0.60743000  0.90945800  1
  S  S83  1  0.19534900  0.78293500  0.18449900  1
