# generated using pymatgen
data_KMn4O8
_symmetry_space_group_name_H-M   'P 1'
_cell_length_a   9.43615236
_cell_length_b   4.60191677
_cell_length_c   5.57782290
_cell_angle_alpha   65.08732676
_cell_angle_beta   45.25272867
_cell_angle_gamma   58.02434649
_symmetry_Int_Tables_number   1
_chemical_formula_structural   KMn4O8
_chemical_formula_sum   'K1 Mn4 O8'
_cell_volume   145.45149997
_cell_formula_units_Z   1
loop_
 _symmetry_equiv_pos_site_id
 _symmetry_equiv_pos_as_xyz
  1  'x, y, z'
loop_
 _atom_site_type_symbol
 _atom_site_label
 _atom_site_symmetry_multiplicity
 _atom_site_fract_x
 _atom_site_fract_y
 _atom_site_fract_z
 _atom_site_occupancy
  K  K0  1  0.54560200  0.61307000  0.01717800  1
  Mn  Mn1  1  0.12434800  0.79734500  0.00095300  1
  Mn  Mn2  1  0.33201300  0.20456700  0.69750200  1
  Mn  Mn3  1  0.03258300  0.13800900  0.56870300  1
  Mn  Mn4  1  0.81930000  0.67977300  0.09556900  1
  O  O5  1  0.88948300  0.23707300  0.02677500  1
  O  O6  1  0.58827400  0.88574400  0.46711900  1
  O  O7  1  0.79815700  0.02048000  0.79249700  1
  O  O8  1  0.27489600  0.07272300  0.49737700  1
  O  O9  1  0.38061800  0.43128100  0.82063500  1
  O  O10  1  0.10770500  0.63430300  0.75949100  1
  O  O11  1  0.94927600  0.57574300  0.39746000  1
  O  O12  1  0.18919200  0.98380800  0.13539400  1
