# generated using pymatgen
data_Rb3Tm(SO4)3
_symmetry_space_group_name_H-M   'P 1'
_cell_length_a   9.55430397
_cell_length_b   9.55430397
_cell_length_c   9.51471648
_cell_angle_alpha   70.00022888
_cell_angle_beta   70.00022888
_cell_angle_gamma   108.38496675
_symmetry_Int_Tables_number   1
_chemical_formula_structural   Rb3Tm(SO4)3
_chemical_formula_sum   'Rb6 Tm2 S6 O24'
_cell_volume   668.71697060
_cell_formula_units_Z   2
loop_
 _symmetry_equiv_pos_site_id
 _symmetry_equiv_pos_as_xyz
  1  'x, y, z'
loop_
 _atom_site_type_symbol
 _atom_site_label
 _atom_site_symmetry_multiplicity
 _atom_site_fract_x
 _atom_site_fract_y
 _atom_site_fract_z
 _atom_site_occupancy
  Rb  Rb0  1  0.81479200  0.80202700  0.14841000  1
  Rb  Rb1  1  0.45479200  0.92787800  0.87785500  1
  Rb  Rb2  1  0.71753800  0.32973000  0.95796900  1
  Rb  Rb3  1  0.92787800  0.45479200  0.37785500  1
  Rb  Rb4  1  0.80202700  0.81479200  0.64841000  1
  Rb  Rb5  1  0.32973000  0.71753800  0.45796900  1
  Tm  Tm6  1  0.16862700  0.35114300  0.99687700  1
  Tm  Tm7  1  0.35114300  0.16862700  0.49687700  1
  S  S8  1  0.09059200  0.29655200  0.69906300  1
  S  S9  1  0.29655200  0.09059200  0.19906300  1
  S  S10  1  0.49351400  0.37687900  0.64599600  1
  S  S11  1  0.10264700  0.71716900  0.85422500  1
  S  S12  1  0.71716900  0.10264700  0.35422500  1
  S  S13  1  0.37687900  0.49351400  0.14599600  1
  O  O14  1  0.58308100  0.15535900  0.34909900  1
  O  O15  1  0.74714200  0.95393900  0.89356800  1
  O  O16  1  0.15535900  0.58308100  0.84909900  1
  O  O17  1  0.09278900  0.73058000  0.00638200  1
  O  O18  1  0.64360200  0.41954400  0.66705200  1
  O  O19  1  0.73058000  0.09278900  0.50638200  1
  O  O20  1  0.17661100  0.11213300  0.13031300  1
  O  O21  1  0.33671300  0.95813500  0.17615900  1
  O  O22  1  0.39010900  0.18664300  0.72012700  1
  O  O23  1  0.44997600  0.53713900  0.95982600  1
  O  O24  1  0.88312300  0.24290700  0.18984200  1
  O  O25  1  0.18664300  0.39010900  0.22012700  1
  O  O26  1  0.03063800  0.20498000  0.89285400  1
  O  O27  1  0.93909100  0.67004100  0.85641000  1
  O  O28  1  0.41954400  0.64360200  0.16705200  1
  O  O29  1  0.67004100  0.93909100  0.35641000  1
  O  O30  1  0.53713900  0.44997600  0.45982600  1
  O  O31  1  0.24290700  0.88312300  0.68984200  1
  O  O32  1  0.11213300  0.17661100  0.63031300  1
  O  O33  1  0.43854300  0.38450300  0.23277600  1
  O  O34  1  0.20498000  0.03063800  0.39285400  1
  O  O35  1  0.38450300  0.43854300  0.73277600  1
  O  O36  1  0.95813500  0.33671300  0.67615900  1
  O  O37  1  0.95393900  0.74714200  0.39356800  1
