# generated using pymatgen
data_Bi4O5
_symmetry_space_group_name_H-M   'P 1'
_cell_length_a   7.81342442
_cell_length_b   7.81342442
_cell_length_c   5.68503274
_cell_angle_alpha   83.95448167
_cell_angle_beta   83.95448167
_cell_angle_gamma   88.98462957
_symmetry_Int_Tables_number   1
_chemical_formula_structural   Bi4O5
_chemical_formula_sum   'Bi8 O10'
_cell_volume   343.21158421
_cell_formula_units_Z   2
loop_
 _symmetry_equiv_pos_site_id
 _symmetry_equiv_pos_as_xyz
  1  'x, y, z'
loop_
 _atom_site_type_symbol
 _atom_site_label
 _atom_site_symmetry_multiplicity
 _atom_site_fract_x
 _atom_site_fract_y
 _atom_site_fract_z
 _atom_site_occupancy
  Bi  Bi0  1  0.19894500  0.54108800  0.74502100  1
  Bi  Bi1  1  0.23594300  0.03096600  0.75866300  1
  Bi  Bi2  1  0.76663000  0.96195900  0.70167600  1
  Bi  Bi3  1  0.71216100  0.44078800  0.79745400  1
  Bi  Bi4  1  0.03096600  0.23594300  0.25866300  1
  Bi  Bi5  1  0.44078800  0.71216100  0.29745400  1
  Bi  Bi6  1  0.54108800  0.19894500  0.24502100  1
  Bi  Bi7  1  0.96195900  0.76663000  0.20167600  1
  O  O8  1  0.24079300  0.76393100  0.00032500  1
  O  O9  1  0.97804500  0.02228500  0.96968400  1
  O  O10  1  0.48572300  0.54012700  0.64357700  1
  O  O11  1  0.16883300  0.29187600  0.55589500  1
  O  O12  1  0.69652200  0.86438400  0.36070300  1
  O  O13  1  0.76393100  0.24079300  0.50032500  1
  O  O14  1  0.02228500  0.97804500  0.46968400  1
  O  O15  1  0.54012700  0.48572300  0.14357700  1
  O  O16  1  0.29187600  0.16883300  0.05589500  1
  O  O17  1  0.86438400  0.69652200  0.86070300  1
