# generated using pymatgen
data_Sm4In21Pd10
_symmetry_space_group_name_H-M   'P 1'
_cell_length_a   11.89594458
_cell_length_b   11.89594458
_cell_length_c   17.43156113
_cell_angle_alpha   56.18362407
_cell_angle_beta   56.18362407
_cell_angle_gamma   21.95611506
_symmetry_Int_Tables_number   1
_chemical_formula_structural   Sm4In21Pd10
_chemical_formula_sum   'Sm4 In21 Pd10'
_cell_volume   759.79666921
_cell_formula_units_Z   1
loop_
 _symmetry_equiv_pos_site_id
 _symmetry_equiv_pos_as_xyz
  1  'x, y, z'
loop_
 _atom_site_type_symbol
 _atom_site_label
 _atom_site_symmetry_multiplicity
 _atom_site_fract_x
 _atom_site_fract_y
 _atom_site_fract_z
 _atom_site_occupancy
  Sm  Sm0  1  0.23498400  0.22128000  0.17506100  1
  Sm  Sm1  1  0.12325700  0.11909800  0.66579000  1
  Sm  Sm2  1  0.88090200  0.87674300  0.33421000  1
  Sm  Sm3  1  0.77872000  0.76501600  0.82493900  1
  In  In4  1  0.45697600  0.46024900  0.36741600  1
  In  In5  1  0.53975100  0.54302400  0.63258400  1
  In  In6  1  0.38997200  0.37897400  0.70399900  1
  In  In7  1  0.05729500  0.06897600  0.20238600  1
  In  In8  1  0.60336800  0.59602700  0.00471200  1
  In  In9  1  0.19711200  0.20360800  0.99578300  1
  In  In10  1  0.63602100  0.62508200  0.79951400  1
  In  In11  1  0.93102400  0.94270500  0.79761400  1
  In  In12  1  0.01271100  0.01353400  0.90433600  1
  In  In13  1  0.79639200  0.80288800  0.00421700  1
  In  In14  1  0.37491800  0.36397900  0.20048600  1
  In  In15  1  0.50308700  0.49691300  0.50000000  1
  In  In16  1  0.74980100  0.74590000  0.29404700  1
  In  In17  1  0.29918100  0.29828800  0.50211600  1
  In  In18  1  0.62102600  0.61002800  0.29600100  1
  In  In19  1  0.40397300  0.39663200  0.99528800  1
  In  In20  1  0.70171200  0.70081900  0.49788400  1
  In  In21  1  0.25410000  0.25019900  0.70595300  1
  In  In22  1  0.12417600  0.10364000  0.44945300  1
  In  In23  1  0.98646600  0.98728900  0.09566400  1
  In  In24  1  0.89636000  0.87582400  0.55054700  1
  Pd  Pd25  1  0.48424100  0.50097100  0.18982400  1
  Pd  Pd26  1  0.35457900  0.33945600  0.88502200  1
  Pd  Pd27  1  0.66054400  0.64542100  0.11497800  1
  Pd  Pd28  1  0.86713200  0.85807200  0.10616400  1
  Pd  Pd29  1  0.75453100  0.74774800  0.61375800  1
  Pd  Pd30  1  0.97544200  0.97560000  0.61109500  1
  Pd  Pd31  1  0.25225200  0.24546900  0.38624200  1
  Pd  Pd32  1  0.14192800  0.13286800  0.89383600  1
  Pd  Pd33  1  0.02440000  0.02455800  0.38890500  1
  Pd  Pd34  1  0.49902900  0.51575900  0.81017600  1
