# generated using pymatgen
data_KInI4
_symmetry_space_group_name_H-M   'P 1'
_cell_length_a   14.47745709
_cell_length_b   14.47745709
_cell_length_c   14.47745709
_cell_angle_alpha   120.48231394
_cell_angle_beta   117.04725956
_cell_angle_gamma   92.17789871
_symmetry_Int_Tables_number   1
_chemical_formula_structural   KInI4
_chemical_formula_sum   'K6 In6 I24'
_cell_volume   2181.67473516
_cell_formula_units_Z   6
loop_
 _symmetry_equiv_pos_site_id
 _symmetry_equiv_pos_as_xyz
  1  'x, y, z'
loop_
 _atom_site_type_symbol
 _atom_site_label
 _atom_site_symmetry_multiplicity
 _atom_site_fract_x
 _atom_site_fract_y
 _atom_site_fract_z
 _atom_site_occupancy
  K  K0  1  0.99326100  0.99326100  0.00000000  1
  K  K1  1  0.97327200  0.67232000  0.30238900  1
  K  K2  1  0.36993100  0.67088300  0.69761100  1
  K  K3  1  0.49326100  0.49326100  0.00000000  1
  K  K4  1  0.47327200  0.17088300  0.30095200  1
  K  K5  1  0.86993100  0.17232000  0.69904800  1
  In  In6  1  0.25187900  0.24937300  0.50152300  1
  In  In7  1  0.75356900  0.75356900  0.00000000  1
  In  In8  1  0.24785000  0.74937300  0.99749400  1
  In  In9  1  0.75187900  0.25035600  0.00250600  1
  In  In10  1  0.25356900  0.25356900  0.00000000  1
  In  In11  1  0.74785000  0.75035600  0.49847700  1
  I  I12  1  0.29054500  0.30299100  0.35890600  1
  I  I13  1  0.93827000  0.71541000  0.00200000  1
  I  I14  1  0.71341000  0.93627100  0.99800000  1
  I  I15  1  0.57214600  0.55742300  0.78321200  1
  I  I16  1  0.06204200  0.06479000  0.34615000  1
  I  I17  1  0.21373000  0.43986500  0.65055000  1
  I  I18  1  0.43398300  0.21668300  0.64242300  1
  I  I19  1  0.71373000  0.06317900  0.77386400  1
  I  I20  1  0.44408500  0.80299100  0.01244500  1
  I  I21  1  0.07426000  0.71668300  0.78269900  1
  I  I22  1  0.79054500  0.43164000  0.98755500  1
  I  I23  1  0.77421100  0.78893400  0.21678800  1
  I  I24  1  0.21341000  0.21541000  0.77713900  1
  I  I25  1  0.56204200  0.21589200  0.99725200  1
  I  I26  1  0.28931500  0.93986500  0.22613600  1
  I  I27  1  0.93398300  0.29156000  0.21730100  1
  I  I28  1  0.21863900  0.56479000  0.00274800  1
  I  I29  1  0.78931500  0.56317900  0.34945000  1
  I  I30  1  0.57426000  0.79156000  0.35757700  1
  I  I31  1  0.94408500  0.93164000  0.64109400  1
  I  I32  1  0.43827000  0.43627100  0.22286100  1
  I  I33  1  0.07214600  0.28893400  0.01472300  1
  I  I34  1  0.27421100  0.05742300  0.98527700  1
  I  I35  1  0.71863900  0.71589200  0.65385000  1
