# generated using pymatgen
data_RbAg4I5
_symmetry_space_group_name_H-M   'P 1'
_cell_length_a   11.78668500
_cell_length_b   12.04973132
_cell_length_c   12.24502387
_cell_angle_alpha   90.16674818
_cell_angle_beta   93.40105953
_cell_angle_gamma   93.36005620
_symmetry_Int_Tables_number   1
_chemical_formula_structural   RbAg4I5
_chemical_formula_sum   'Rb4 Ag16 I20'
_cell_volume   1733.03345624
_cell_formula_units_Z   4
loop_
 _symmetry_equiv_pos_site_id
 _symmetry_equiv_pos_as_xyz
  1  'x, y, z'
loop_
 _atom_site_type_symbol
 _atom_site_label
 _atom_site_symmetry_multiplicity
 _atom_site_fract_x
 _atom_site_fract_y
 _atom_site_fract_z
 _atom_site_occupancy
  Rb  Rb0  1  0.17241000  0.11418500  0.89327800  1
  Rb  Rb1  1  0.42136400  0.52008500  0.26673200  1
  Rb  Rb2  1  0.51545400  0.86681100  0.63749900  1
  Rb  Rb3  1  0.90257200  0.33616100  0.39281800  1
  Ag  Ag4  1  0.43117000  0.23272500  0.08920500  1
  Ag  Ag5  1  0.40300400  0.32189800  0.69691100  1
  Ag  Ag6  1  0.79793800  0.90536000  0.41773400  1
  Ag  Ag7  1  0.71342300  0.78444300  0.95999900  1
  Ag  Ag8  1  0.73235200  0.56878900  0.80087800  1
  Ag  Ag9  1  0.67865000  0.07723300  0.25920000  1
  Ag  Ag10  1  0.84902500  0.17332800  0.67626600  1
  Ag  Ag11  1  0.86927100  0.58158500  0.18580200  1
  Ag  Ag12  1  0.89147600  0.43121800  0.70101300  1
  Ag  Ag13  1  0.82339500  0.00869900  0.99644900  1
  Ag  Ag14  1  0.01722100  0.73734600  0.04429100  1
  Ag  Ag15  1  0.77576600  0.26347500  0.00378700  1
  Ag  Ag16  1  0.04149900  0.75283900  0.40570100  1
  Ag  Ag17  1  0.06448600  0.61783100  0.77738700  1
  Ag  Ag18  1  0.17919900  0.02421400  0.23554000  1
  Ag  Ag19  1  0.97121200  0.80989900  0.62432400  1
  I  I20  1  0.03072500  0.97680800  0.43171300  1
  I  I21  1  0.06153600  0.29288300  0.65499500  1
  I  I22  1  0.08509800  0.56532000  0.29859000  1
  I  I23  1  0.21475900  0.86506300  0.07859500  1
  I  I24  1  0.19900900  0.74177400  0.65279500  1
  I  I25  1  0.33216800  0.20122500  0.28738900  1
  I  I26  1  0.35574900  0.37206600  0.92916500  1
  I  I27  1  0.34869100  0.09608500  0.66982000  1
  I  I28  1  0.59495300  0.78474100  0.37512100  1
  I  I29  1  0.45221800  0.49365600  0.55883100  1
  I  I30  1  0.58902400  0.05952100  0.05021700  1
  I  I31  1  0.53903400  0.66747700  0.85933300  1
  I  I32  1  0.69678500  0.41546800  0.16773700  1
  I  I33  1  0.69580000  0.12391400  0.47725300  1
  I  I34  1  0.69184700  0.30783400  0.78939900  1
  I  I35  1  0.83077400  0.81659900  0.15708700  1
  I  I36  1  0.81712800  0.61868500  0.58172200  1
  I  I37  1  0.86198400  0.95418800  0.77488100  1
  I  I38  1  0.96538700  0.16976400  0.11792300  1
  I  I39  1  0.94744300  0.53180500  0.94362000  1
