# generated using pymatgen
data_Mg3BH2O5F
_symmetry_space_group_name_H-M   'P 1'
_cell_length_a   3.18210000
_cell_length_b   9.00634300
_cell_length_c   9.01338736
_cell_angle_alpha   60.42677153
_cell_angle_beta   90.00000000
_cell_angle_gamma   90.00000000
_symmetry_Int_Tables_number   1
_chemical_formula_structural   Mg3BH2O5F
_chemical_formula_sum   'Mg6 B2 H4 O10 F2'
_cell_volume   224.66354663
_cell_formula_units_Z   2
loop_
 _symmetry_equiv_pos_site_id
 _symmetry_equiv_pos_as_xyz
  1  'x, y, z'
loop_
 _atom_site_type_symbol
 _atom_site_label
 _atom_site_symmetry_multiplicity
 _atom_site_fract_x
 _atom_site_fract_y
 _atom_site_fract_z
 _atom_site_occupancy
  Mg  Mg0  1  0.50000000  0.97801100  0.65732100  1
  Mg  Mg1  1  0.50000000  0.66067000  0.37403200  1
  Mg  Mg2  1  0.00000000  0.63222600  0.02983400  1
  Mg  Mg3  1  0.50000000  0.37135700  0.97384700  1
  Mg  Mg4  1  0.00000000  0.35128900  0.62750000  1
  Mg  Mg5  1  0.00000000  0.03215500  0.33882700  1
  B  B6  1  0.00000000  0.67326700  0.66708600  1
  B  B7  1  0.50000000  0.33614700  0.33252300  1
  H  H8  1  0.50000000  0.85751100  0.99481500  1
  H  H9  1  0.50000000  0.18147900  0.83371400  1
  H  H10  1  0.00000000  0.14119300  0.02687700  1
  H  H11  1  0.00000000  0.01424400  0.83343600  1
  O  O12  1  0.00000000  0.84951100  0.60347400  1
  O  O13  1  0.00000000  0.61033300  0.55166500  1
  O  O14  1  0.50000000  0.80617800  0.92211800  1
  O  O15  1  0.00000000  0.56073200  0.84254200  1
  O  O16  1  0.50000000  0.30358500  0.78936800  1
  O  O17  1  0.50000000  0.44992800  0.15622700  1
  O  O18  1  0.00000000  0.20423800  0.08830200  1
  O  O19  1  0.50000000  0.40190200  0.44451200  1
  O  O20  1  0.50000000  0.15992100  0.39587200  1
  O  O21  1  0.00000000  0.09349200  0.71113800  1
  F  F22  1  0.50000000  0.90806500  0.30184300  1
  F  F23  1  0.00000000  0.70256700  0.21312900  1
