# generated using pymatgen
data_Th10N9F13
_symmetry_space_group_name_H-M   'P 1'
_cell_length_a   4.06280000
_cell_length_b   4.06280000
_cell_length_c   29.44533500
_cell_angle_alpha   90.00000000
_cell_angle_beta   90.00000000
_cell_angle_gamma   90.00000000
_symmetry_Int_Tables_number   1
_chemical_formula_structural   Th10N9F13
_chemical_formula_sum   'Th10 N9 F13'
_cell_volume   486.03482399
_cell_formula_units_Z   1
loop_
 _symmetry_equiv_pos_site_id
 _symmetry_equiv_pos_as_xyz
  1  'x, y, z'
loop_
 _atom_site_type_symbol
 _atom_site_label
 _atom_site_symmetry_multiplicity
 _atom_site_fract_x
 _atom_site_fract_y
 _atom_site_fract_z
 _atom_site_occupancy
  Th  Th0  1  0.00000000  0.50000000  0.74102600  1
  Th  Th1  1  0.00000000  0.50000000  0.94068400  1
  Th  Th2  1  0.00000000  0.50000000  0.54428200  1
  Th  Th3  1  0.00000000  0.50000000  0.33963400  1
  Th  Th4  1  0.00000000  0.50000000  0.13963000  1
  Th  Th5  1  0.50000000  0.00000000  0.66036600  1
  Th  Th6  1  0.50000000  0.00000000  0.86037000  1
  Th  Th7  1  0.50000000  0.00000000  0.05931600  1
  Th  Th8  1  0.50000000  0.00000000  0.25897400  1
  Th  Th9  1  0.50000000  0.00000000  0.45571800  1
  N  N10  1  0.00000000  0.00000000  0.69997800  1
  N  N11  1  0.00000000  0.00000000  0.09951200  1
  N  N12  1  0.00000000  0.00000000  0.90048800  1
  N  N13  1  0.00000000  0.00000000  0.30002200  1
  N  N14  1  0.50000000  0.50000000  0.70146700  1
  N  N15  1  0.50000000  0.50000000  0.90062900  1
  N  N16  1  0.50000000  0.50000000  0.09937100  1
  N  N17  1  0.50000000  0.50000000  0.29853300  1
  N  N18  1  0.50000000  0.50000000  0.50000000  1
  F  F19  1  0.50000000  0.50000000  0.60384300  1
  F  F20  1  0.00000000  0.00000000  0.59931400  1
  F  F21  1  0.00000000  0.00000000  0.50000000  1
  F  F22  1  0.00000000  0.00000000  0.00000000  1
  F  F23  1  0.00000000  0.00000000  0.80051800  1
  F  F24  1  0.00000000  0.00000000  0.40068600  1
  F  F25  1  0.00000000  0.00000000  0.19948200  1
  F  F26  1  0.00000000  0.50000000  0.44868200  1
  F  F27  1  0.50000000  0.50000000  0.80116600  1
  F  F28  1  0.50000000  0.00000000  0.55131800  1
  F  F29  1  0.50000000  0.50000000  0.00000000  1
  F  F30  1  0.50000000  0.50000000  0.19883400  1
  F  F31  1  0.50000000  0.50000000  0.39615700  1
