# generated using pymatgen
data_CdI2
_symmetry_space_group_name_H-M   'P 1'
_cell_length_a   4.33968349
_cell_length_b   4.33968349
_cell_length_c   125.10129000
_cell_angle_alpha   90.00000000
_cell_angle_beta   90.00000000
_cell_angle_gamma   119.99999223
_symmetry_Int_Tables_number   1
_chemical_formula_structural   CdI2
_chemical_formula_sum   'Cd17 I34'
_cell_volume   2040.36829067
_cell_formula_units_Z   17
loop_
 _symmetry_equiv_pos_site_id
 _symmetry_equiv_pos_as_xyz
  1  'x, y, z'
loop_
 _atom_site_type_symbol
 _atom_site_label
 _atom_site_symmetry_multiplicity
 _atom_site_fract_x
 _atom_site_fract_y
 _atom_site_fract_z
 _atom_site_occupancy
  Cd  Cd0  1  0.00000000  0.00000000  0.48529200  1
  Cd  Cd1  1  0.00000000  0.00000000  0.77942500  1
  Cd  Cd2  1  0.33333300  0.66666700  0.66175600  1
  Cd  Cd3  1  0.00000000  0.00000000  0.19115500  1
  Cd  Cd4  1  0.33333300  0.66666700  0.54411000  1
  Cd  Cd5  1  0.00000000  0.00000000  0.72060400  1
  Cd  Cd6  1  0.33333300  0.66666700  0.95588300  1
  Cd  Cd7  1  0.00000000  0.00000000  0.89704700  1
  Cd  Cd8  1  0.00000000  0.00000000  0.42647900  1
  Cd  Cd9  1  0.33333300  0.66666700  0.83823700  1
  Cd  Cd10  1  0.00000000  0.00000000  0.13236400  1
  Cd  Cd11  1  0.00000000  0.00000000  0.01472500  1
  Cd  Cd12  1  0.00000000  0.00000000  0.30881000  1
  Cd  Cd13  1  0.33333300  0.66666700  0.07353000  1
  Cd  Cd14  1  0.33333300  0.66666700  0.24999500  1
  Cd  Cd15  1  0.33333300  0.66666700  0.36765900  1
  Cd  Cd16  1  0.00000000  0.00000000  0.60293300  1
  I  I17  1  0.33333300  0.66666700  0.41266700  1
  I  I18  1  0.66666700  0.33333300  0.32261700  1
  I  I19  1  0.66666700  0.33333300  0.44029400  1
  I  I20  1  0.66666700  0.33333300  0.55791800  1
  I  I21  1  0.00000000  0.00000000  0.94207600  1
  I  I22  1  0.33333300  0.66666700  0.70679500  1
  I  I23  1  0.66666700  0.33333300  0.14616900  1
  I  I24  1  0.00000000  0.00000000  0.35384500  1
  I  I25  1  0.00000000  0.00000000  0.64794900  1
  I  I26  1  0.33333300  0.66666700  0.29499600  1
  I  I27  1  0.33333300  0.66666700  0.88323800  1
  I  I28  1  0.66666700  0.33333300  0.96968300  1
  I  I29  1  0.66666700  0.33333300  0.20496100  1
  I  I30  1  0.33333300  0.66666700  0.47148200  1
  I  I31  1  0.66666700  0.33333300  0.67555800  1
  I  I32  1  0.33333300  0.66666700  0.11856800  1
  I  I33  1  0.66666700  0.33333300  0.38146300  1
  I  I34  1  0.00000000  0.00000000  0.05971600  1
  I  I35  1  0.66666700  0.33333300  0.02853300  1
  I  I36  1  0.33333300  0.66666700  0.76562700  1
  I  I37  1  0.33333300  0.66666700  0.00092000  1
  I  I38  1  0.00000000  0.00000000  0.53031000  1
  I  I39  1  0.33333300  0.66666700  0.17734200  1
  I  I40  1  0.66666700  0.33333300  0.61674500  1
  I  I41  1  0.00000000  0.00000000  0.23619000  1
  I  I42  1  0.66666700  0.33333300  0.91085800  1
  I  I43  1  0.66666700  0.33333300  0.08733100  1
  I  I44  1  0.66666700  0.33333300  0.79323100  1
  I  I45  1  0.00000000  0.00000000  0.82443600  1
  I  I46  1  0.33333300  0.66666700  0.58912900  1
  I  I47  1  0.66666700  0.33333300  0.73441400  1
  I  I48  1  0.66666700  0.33333300  0.26380100  1
  I  I49  1  0.66666700  0.33333300  0.85204000  1
  I  I50  1  0.66666700  0.33333300  0.49909400  1
