# generated using pymatgen
data_Na2SrLa2Ti5O15
_symmetry_space_group_name_H-M   'P 1'
_cell_length_a   19.92554262
_cell_length_b   19.92554262
_cell_length_c   5.52378409
_cell_angle_alpha   82.21772694
_cell_angle_beta   82.21772694
_cell_angle_gamma   15.95458915
_symmetry_Int_Tables_number   1
_chemical_formula_structural   Na2SrLa2Ti5O15
_chemical_formula_sum   'Na4 Sr2 La4 Ti10 O30'
_cell_volume   597.16554575
_cell_formula_units_Z   2
loop_
 _symmetry_equiv_pos_site_id
 _symmetry_equiv_pos_as_xyz
  1  'x, y, z'
loop_
 _atom_site_type_symbol
 _atom_site_label
 _atom_site_symmetry_multiplicity
 _atom_site_fract_x
 _atom_site_fract_y
 _atom_site_fract_z
 _atom_site_occupancy
  Na  Na0  1  0.74879900  0.05159500  0.59870800  1
  Na  Na1  1  0.15258600  0.44746900  0.19854000  1
  Na  Na2  1  0.55253100  0.84741400  0.80146000  1
  Na  Na3  1  0.94840500  0.25120100  0.40129200  1
  Sr  Sr4  1  0.35009100  0.64990900  0.00000000  1
  Sr  Sr5  1  0.85167900  0.14832100  0.50000000  1
  La  La6  1  0.05422500  0.34670600  0.30786100  1
  La  La7  1  0.44945700  0.75215400  0.90347700  1
  La  La8  1  0.24784600  0.55054300  0.09652300  1
  La  La9  1  0.65329400  0.94577500  0.69213900  1
  Ti  Ti10  1  0.00376600  0.29835700  0.85461900  1
  Ti  Ti11  1  0.39948800  0.70289900  0.45201100  1
  Ti  Ti12  1  0.79937700  0.09966300  0.04950000  1
  Ti  Ti13  1  0.20277400  0.49775600  0.64670100  1
  Ti  Ti14  1  0.60541700  0.89590300  0.25382800  1
  Ti  Ti15  1  0.70164300  0.99623400  0.14538100  1
  Ti  Ti16  1  0.10409700  0.39458300  0.74617200  1
  Ti  Ti17  1  0.50224400  0.79722600  0.35329900  1
  Ti  Ti18  1  0.90033700  0.20062300  0.95050000  1
  Ti  Ti19  1  0.29710100  0.60051200  0.54798900  1
  O  O20  1  0.03673800  0.86955100  0.78569300  1
  O  O21  1  0.38538800  0.61461200  0.50000000  1
  O  O22  1  0.42302100  0.28684200  0.36957200  1
  O  O23  1  0.07313000  0.83065600  0.27932300  1
  O  O24  1  0.79745600  0.00054400  0.10160400  1
  O  O25  1  0.31287400  0.17574800  0.03723100  1
  O  O26  1  0.82425200  0.68712600  0.96276900  1
  O  O27  1  0.47349500  0.23311600  0.87679200  1
  O  O28  1  0.00539400  0.39470600  0.79413300  1
  O  O29  1  0.20204600  0.39719300  0.70199600  1
  O  O30  1  0.71315800  0.57697900  0.63042800  1
  O  O31  1  0.36746300  0.12361400  0.53056600  1
  O  O32  1  0.22643300  0.08356000  0.56610700  1
  O  O33  1  0.87638600  0.63253700  0.46943400  1
  O  O34  1  0.40654400  0.79401300  0.39352000  1
  O  O35  1  0.60280700  0.79795400  0.29800400  1
  O  O36  1  0.13044900  0.96326200  0.21430700  1
  O  O37  1  0.76688400  0.52650500  0.12320800  1
  O  O38  1  0.62980100  0.47973500  0.16832300  1
  O  O39  1  0.27632400  0.03334900  0.07134300  1
  O  O40  1  0.81789700  0.18210300  0.00000000  1
  O  O41  1  0.99945600  0.20254400  0.89839600  1
  O  O42  1  0.52026500  0.37019900  0.83167700  1
  O  O43  1  0.16934400  0.92687000  0.72067700  1
  O  O44  1  0.66623400  0.44300600  0.68162800  1
  O  O45  1  0.20598700  0.59345600  0.60648000  1
  O  O46  1  0.91644000  0.77356700  0.43389300  1
  O  O47  1  0.55699400  0.33376600  0.31837200  1
  O  O48  1  0.60529400  0.99460600  0.20586700  1
  O  O49  1  0.96665100  0.72367600  0.92865700  1
