# generated using pymatgen
data_Hf3Sc4O12
_symmetry_space_group_name_H-M   'P 1'
_cell_length_a   6.16954200
_cell_length_b   6.18504403
_cell_length_c   29.88690812
_cell_angle_alpha   90.12160689
_cell_angle_beta   90.18967302
_cell_angle_gamma   99.48892926
_symmetry_Int_Tables_number   1
_chemical_formula_structural   Hf3Sc4O12
_chemical_formula_sum   'Hf15 Sc20 O60'
_cell_volume   1124.83667353
_cell_formula_units_Z   5
loop_
 _symmetry_equiv_pos_site_id
 _symmetry_equiv_pos_as_xyz
  1  'x, y, z'
loop_
 _atom_site_type_symbol
 _atom_site_label
 _atom_site_symmetry_multiplicity
 _atom_site_fract_x
 _atom_site_fract_y
 _atom_site_fract_z
 _atom_site_occupancy
  Hf  Hf0  1  0.59682600  0.59722200  0.59875800  1
  Hf  Hf1  1  0.98271400  0.81631100  0.12208200  1
  Hf  Hf2  1  0.79736700  0.79793800  0.79879500  1
  Hf  Hf3  1  0.47678900  0.77830900  0.17436500  1
  Hf  Hf4  1  0.54907700  0.08173400  0.93829500  1
  Hf  Hf5  1  0.18268100  0.01778600  0.32195500  1
  Hf  Hf6  1  0.45489700  0.93077600  0.06119100  1
  Hf  Hf7  1  0.67757900  0.97939500  0.37370000  1
  Hf  Hf8  1  0.65422200  0.13014200  0.26071500  1
  Hf  Hf9  1  0.88643500  0.18010600  0.57158100  1
  Hf  Hf10  1  0.85208000  0.32868500  0.46154100  1
  Hf  Hf11  1  0.08690900  0.38048900  0.77200100  1
  Hf  Hf12  1  0.05043900  0.52673200  0.66223400  1
  Hf  Hf13  1  0.26835300  0.57895600  0.97413900  1
  Hf  Hf14  1  0.25189500  0.72421200  0.86285300  1
  Sc  Sc15  1  0.74616800  0.28163100  0.13831800  1
  Sc  Sc16  1  0.19677900  0.20057200  0.19918700  1
  Sc  Sc17  1  0.72145500  0.42383400  0.02858700  1
  Sc  Sc18  1  0.94539800  0.48052600  0.33850300  1
  Sc  Sc19  1  0.39700500  0.40014700  0.39998900  1
  Sc  Sc20  1  0.21344800  0.38546000  0.07929600  1
  Sc  Sc21  1  0.91916600  0.62012800  0.22943600  1
  Sc  Sc22  1  0.14595800  0.68371800  0.53483100  1
  Sc  Sc23  1  0.41220600  0.58461600  0.27957900  1
  Sc  Sc24  1  0.11908000  0.81908800  0.42839000  1
  Sc  Sc25  1  0.34552600  0.88321300  0.73431900  1
  Sc  Sc26  1  0.61354100  0.78694900  0.47815700  1
  Sc  Sc27  1  0.31510500  0.02117100  0.62756800  1
  Sc  Sc28  1  0.99561700  0.99784100  0.99939200  1
  Sc  Sc29  1  0.81351200  0.99104700  0.67786800  1
  Sc  Sc30  1  0.51719800  0.22133500  0.82785200  1
  Sc  Sc31  1  0.38168900  0.20512400  0.52046100  1
  Sc  Sc32  1  0.01324400  0.18879100  0.87864700  1
  Sc  Sc33  1  0.57878500  0.40232700  0.72090300  1
  Sc  Sc34  1  0.78168600  0.60995300  0.92185000  1
  O  O35  1  0.68938900  0.08131500  0.01564000  1
  O  O36  1  0.06393200  0.20464600  0.13416500  1
  O  O37  1  0.89608600  0.28191700  0.21777900  1
  O  O38  1  0.50625200  0.26281700  0.08430000  1
  O  O39  1  0.26316800  0.40485400  0.33439200  1
  O  O40  1  0.09491600  0.48042400  0.41828500  1
  O  O41  1  0.10565200  0.33067700  0.01321000  1
  O  O42  1  0.70423600  0.46155200  0.28469400  1
  O  O43  1  0.90744400  0.52031000  0.08525400  1
  O  O44  1  0.47531000  0.63083200  0.53650200  1
  O  O45  1  0.30493600  0.67435900  0.62173900  1
  O  O46  1  0.73549600  0.59657500  0.16371800  1
  O  O47  1  0.30771400  0.53269400  0.21236400  1
  O  O48  1  0.90406400  0.66195500  0.48448300  1
  O  O49  1  0.10760100  0.72003500  0.28510500  1
  O  O50  1  0.67634600  0.83193800  0.73648500  1
  O  O51  1  0.46365700  0.62341900  0.03493100  1
  O  O52  1  0.50506400  0.87530800  0.82215700  1
  O  O53  1  0.93605300  0.79657700  0.36347200  1
  O  O54  1  0.50705900  0.73283800  0.41113500  1
  O  O55  1  0.29824000  0.69722000  0.11555400  1
  O  O56  1  0.10029800  0.86103700  0.68432000  1
  O  O57  1  0.30504300  0.90992200  0.48421300  1
  O  O58  1  0.11149800  0.85807400  0.18586700  1
  O  O59  1  0.86618400  0.02265200  0.93536800  1
  O  O60  1  0.66380000  0.81991600  0.23578300  1
  O  O61  1  0.13238700  0.98630900  0.56506900  1
  O  O62  1  0.71141300  0.92965200  0.61040800  1
  O  O63  1  0.49681200  0.89786400  0.31530200  1
  O  O64  1  0.30350500  0.06157400  0.88682900  1
  O  O65  1  0.68897700  0.93323100  0.11295000  1
  O  O66  1  0.50390400  0.10874100  0.68405500  1
  O  O67  1  0.31026800  0.05876600  0.38577100  1
  O  O68  1  0.86102500  0.01892700  0.43582000  1
  O  O69  1  0.33254500  0.18530500  0.76499600  1
  O  O70  1  0.12814000  0.96555700  0.06382900  1
  O  O71  1  0.91095600  0.13053200  0.81078900  1
  O  O72  1  0.69931600  0.09584700  0.51572500  1
  O  O73  1  0.88790500  0.13240600  0.31314400  1
  O  O74  1  0.70188300  0.30458200  0.88546700  1
  O  O75  1  0.50677900  0.26422900  0.58769900  1
  O  O76  1  0.05890600  0.21963500  0.63621700  1
  O  O77  1  0.51040700  0.11407500  0.18375200  1
  O  O78  1  0.52417000  0.38540200  0.96424300  1
  O  O79  1  0.32683800  0.16750900  0.26360400  1
  O  O80  1  0.89800200  0.29780000  0.71593900  1
  O  O81  1  0.08764600  0.33513300  0.51504300  1
  O  O82  1  0.70617300  0.46423900  0.78815500  1
  O  O83  1  0.26192200  0.41869100  0.83601100  1
  O  O84  1  0.70938400  0.31390200  0.38359900  1
  O  O85  1  0.52950700  0.37480100  0.46434800  1
  O  O86  1  0.10006400  0.49411100  0.91492000  1
  O  O87  1  0.28686800  0.53461800  0.71552400  1
  O  O88  1  0.91617300  0.65694600  0.98619400  1
  O  O89  1  0.91100500  0.51904900  0.58459400  1
  O  O90  1  0.72419800  0.57122900  0.66429100  1
  O  O91  1  0.48720500  0.73853900  0.91602500  1
  O  O92  1  0.11061900  0.71860400  0.78442600  1
  O  O93  1  0.92801700  0.77255100  0.86414300  1
  O  O94  1  0.30681300  0.91951800  0.98286300  1
