# generated using pymatgen
data_Sn(WO3)18
_symmetry_space_group_name_H-M   'P 1'
_cell_length_a   7.50824900
_cell_length_b   13.00762600
_cell_length_c   23.17489700
_cell_angle_alpha   90.00000000
_cell_angle_beta   90.00000000
_cell_angle_gamma   90.00000000
_symmetry_Int_Tables_number   1
_chemical_formula_structural   Sn(WO3)18
_chemical_formula_sum   'Sn2 W36 O108'
_cell_volume   2263.36461002
_cell_formula_units_Z   2
loop_
 _symmetry_equiv_pos_site_id
 _symmetry_equiv_pos_as_xyz
  1  'x, y, z'
loop_
 _atom_site_type_symbol
 _atom_site_label
 _atom_site_symmetry_multiplicity
 _atom_site_fract_x
 _atom_site_fract_y
 _atom_site_fract_z
 _atom_site_occupancy
  Sn  Sn0  1  0.00000000  0.00000000  0.91605800  1
  Sn  Sn1  1  0.50000000  0.50000000  0.08394200  1
  W  W2  1  0.75005300  0.75026600  0.25118900  1
  W  W3  1  0.74998500  0.74997200  0.58286400  1
  W  W4  1  0.75001500  0.75002800  0.41713600  1
  W  W5  1  0.74994700  0.74973400  0.74881100  1
  W  W6  1  0.75015100  0.74824900  0.91600800  1
  W  W7  1  0.74984900  0.75175100  0.08399200  1
  W  W8  1  0.00000000  0.50000000  0.25120100  1
  W  W9  1  0.00000000  0.50000000  0.41693600  1
  W  W10  1  0.00000000  0.50000000  0.74876200  1
  W  W11  1  0.00000000  0.50000000  0.58264900  1
  W  W12  1  0.00000000  0.50000000  0.91570300  1
  W  W13  1  0.00000000  0.50000000  0.08370200  1
  W  W14  1  0.24994700  0.75026600  0.25118900  1
  W  W15  1  0.25001500  0.74997200  0.58286400  1
  W  W16  1  0.24998500  0.75002800  0.41713600  1
  W  W17  1  0.24994700  0.24973400  0.25118900  1
  W  W18  1  0.24998500  0.24997200  0.41713600  1
  W  W19  1  0.25005300  0.25026600  0.74881100  1
  W  W20  1  0.25001500  0.25002800  0.58286400  1
  W  W21  1  0.25005300  0.74973400  0.74881100  1
  W  W22  1  0.24984900  0.74824900  0.91600800  1
  W  W23  1  0.25015100  0.24824900  0.08399200  1
  W  W24  1  0.25015100  0.75175100  0.08399200  1
  W  W25  1  0.24984900  0.25175100  0.91600800  1
  W  W26  1  0.50000000  0.00000000  0.25123800  1
  W  W27  1  0.50000000  0.00000000  0.41735100  1
  W  W28  1  0.50000000  0.00000000  0.58306400  1
  W  W29  1  0.50000000  0.00000000  0.74879900  1
  W  W30  1  0.50000000  0.00000000  0.91629800  1
  W  W31  1  0.50000000  0.00000000  0.08429700  1
  W  W32  1  0.75005300  0.24973400  0.25118900  1
  W  W33  1  0.75001500  0.24997200  0.41713600  1
  W  W34  1  0.74998500  0.25002800  0.58286400  1
  W  W35  1  0.74994700  0.25026600  0.74881100  1
  W  W36  1  0.75015100  0.25175100  0.91600800  1
  W  W37  1  0.74984900  0.24824900  0.08399200  1
  O  O38  1  0.24959200  0.75009200  0.33304300  1
  O  O39  1  0.25040800  0.74990800  0.66695700  1
  O  O40  1  0.25000000  0.75000000  0.50000000  1
  O  O41  1  0.25000000  0.75000000  0.00000000  1
  O  O42  1  0.24874100  0.75037300  0.83451500  1
  O  O43  1  0.25125900  0.74962700  0.16548500  1
  O  O44  1  0.32088500  0.89300000  0.24911800  1
  O  O45  1  0.32093100  0.89303500  0.41649000  1
  O  O46  1  0.32086400  0.89307800  0.58356100  1
  O  O47  1  0.32031900  0.89332100  0.75069600  1
  O  O48  1  0.30690900  0.89875200  0.91718900  1
  O  O49  1  0.31928100  0.89255100  0.08276000  1
  O  O50  1  0.50000000  0.71356000  0.24920900  1
  O  O51  1  0.50000000  0.00000000  0.99982900  1
  O  O52  1  0.50000000  0.71394700  0.58348300  1
  O  O53  1  0.50000000  0.00000000  0.16549500  1
  O  O54  1  0.50000000  0.71402400  0.41640100  1
  O  O55  1  0.50000000  0.71968900  0.91731000  1
  O  O56  1  0.50000000  0.71404800  0.75094800  1
  O  O57  1  0.50000000  0.69998700  0.08266300  1
  O  O58  1  0.67911500  0.89300000  0.24911800  1
  O  O59  1  0.67906900  0.89303500  0.41649000  1
  O  O60  1  0.67913600  0.89307800  0.58356100  1
  O  O61  1  0.67968100  0.89332100  0.75069600  1
  O  O62  1  0.69309100  0.89875200  0.91718900  1
  O  O63  1  0.68071900  0.89255100  0.08276000  1
  O  O64  1  0.75040800  0.75009200  0.33304300  1
  O  O65  1  0.74959200  0.74990800  0.66695700  1
  O  O66  1  0.75125900  0.75037300  0.83451500  1
  O  O67  1  0.75000000  0.75000000  0.50000000  1
  O  O68  1  0.75000000  0.75000000  0.00000000  1
  O  O69  1  0.75040800  0.24990800  0.33304300  1
  O  O70  1  0.75000000  0.25000000  0.50000000  1
  O  O71  1  0.74874100  0.74962700  0.16548500  1
  O  O72  1  0.74959200  0.25009200  0.66695700  1
  O  O73  1  0.75125900  0.24962700  0.83451500  1
  O  O74  1  0.75000000  0.25000000  0.00000000  1
  O  O75  1  0.74874100  0.25037300  0.16548500  1
  O  O76  1  0.82031900  0.39332100  0.24930400  1
  O  O77  1  0.82086400  0.39307800  0.41643900  1
  O  O78  1  0.82093100  0.39303500  0.58351000  1
  O  O79  1  0.82031900  0.60667900  0.24930400  1
  O  O80  1  0.81928100  0.39255100  0.91724000  1
  O  O81  1  0.82088500  0.39300000  0.75088200  1
  O  O82  1  0.82086400  0.60692200  0.41643900  1
  O  O83  1  0.81928100  0.60744900  0.91724000  1
  O  O84  1  0.82093100  0.60696500  0.58351000  1
  O  O85  1  0.82088500  0.60700000  0.75088200  1
  O  O86  1  0.80690900  0.39875200  0.08281100  1
  O  O87  1  0.80690900  0.60124800  0.08281100  1
  O  O88  1  0.00000000  0.78605300  0.41651700  1
  O  O89  1  0.00000000  0.78595200  0.24905200  1
  O  O90  1  0.00000000  0.78597600  0.58359900  1
  O  O91  1  0.00000000  0.50000000  0.49985800  1
  O  O92  1  0.00000000  0.78644000  0.75079100  1
  O  O93  1  0.00000000  0.50000000  0.33298900  1
  O  O94  1  0.00000000  0.50000000  0.83450500  1
  O  O95  1  0.00000000  0.80001300  0.91733700  1
  O  O96  1  0.00000000  0.78031100  0.08269000  1
  O  O97  1  0.00000000  0.50000000  0.66697800  1
  O  O98  1  0.00000000  0.50000000  0.00017100  1
  O  O99  1  0.00000000  0.50000000  0.16542200  1
  O  O100  1  0.00000000  0.21404800  0.24905200  1
  O  O101  1  0.00000000  0.21394700  0.41651700  1
  O  O102  1  0.00000000  0.21402400  0.58359900  1
  O  O103  1  0.00000000  0.21356000  0.75079100  1
  O  O104  1  0.00000000  0.19998700  0.91733700  1
  O  O105  1  0.00000000  0.21968900  0.08269000  1
  O  O106  1  0.17968100  0.39332100  0.24930400  1
  O  O107  1  0.17913600  0.39307800  0.41643900  1
  O  O108  1  0.17968100  0.60667900  0.24930400  1
  O  O109  1  0.17906900  0.39303500  0.58351000  1
  O  O110  1  0.17911500  0.39300000  0.75088200  1
  O  O111  1  0.18071900  0.39255100  0.91724000  1
  O  O112  1  0.17906900  0.60696500  0.58351000  1
  O  O113  1  0.18071900  0.60744900  0.91724000  1
  O  O114  1  0.17913600  0.60692200  0.41643900  1
  O  O115  1  0.19309100  0.39875200  0.08281100  1
  O  O116  1  0.17911500  0.60700000  0.75088200  1
  O  O117  1  0.19309100  0.60124800  0.08281100  1
  O  O118  1  0.24959200  0.24990800  0.33304300  1
  O  O119  1  0.25000000  0.25000000  0.50000000  1
  O  O120  1  0.24874100  0.24962700  0.83451500  1
  O  O121  1  0.25040800  0.25009200  0.66695700  1
  O  O122  1  0.25125900  0.25037300  0.16548500  1
  O  O123  1  0.25000000  0.25000000  0.00000000  1
  O  O124  1  0.32088500  0.10700000  0.24911800  1
  O  O125  1  0.32093100  0.10696500  0.41649000  1
  O  O126  1  0.32086400  0.10692200  0.58356100  1
  O  O127  1  0.32031900  0.10667900  0.75069600  1
  O  O128  1  0.30690900  0.10124800  0.91718900  1
  O  O129  1  0.31928100  0.10744900  0.08276000  1
  O  O130  1  0.50000000  0.28644000  0.24920900  1
  O  O131  1  0.50000000  0.28597600  0.41640100  1
  O  O132  1  0.50000000  0.28605300  0.58348300  1
  O  O133  1  0.50000000  0.28595200  0.75094800  1
  O  O134  1  0.50000000  0.00000000  0.33302200  1
  O  O135  1  0.50000000  0.28031100  0.91731000  1
  O  O136  1  0.50000000  0.00000000  0.50014200  1
  O  O137  1  0.50000000  0.00000000  0.66701100  1
  O  O138  1  0.50000000  0.30001300  0.08266300  1
  O  O139  1  0.50000000  0.00000000  0.83457800  1
  O  O140  1  0.67911500  0.10700000  0.24911800  1
  O  O141  1  0.67906900  0.10696500  0.41649000  1
  O  O142  1  0.67913600  0.10692200  0.58356100  1
  O  O143  1  0.67968100  0.10667900  0.75069600  1
  O  O144  1  0.69309100  0.10124800  0.91718900  1
  O  O145  1  0.68071900  0.10744900  0.08276000  1
