# generated using pymatgen
data_Ca3YGa3B4O15
_symmetry_space_group_name_H-M   'P 1'
_cell_length_a   11.92467100
_cell_length_b   10.64805300
_cell_length_c   10.66628332
_cell_angle_alpha   60.06990222
_cell_angle_beta   90.00000000
_cell_angle_gamma   90.00000000
_symmetry_Int_Tables_number   1
_chemical_formula_structural   Ca3YGa3B4O15
_chemical_formula_sum   'Ca12 Y4 Ga12 B16 O60'
_cell_volume   1173.72359418
_cell_formula_units_Z   4
loop_
 _symmetry_equiv_pos_site_id
 _symmetry_equiv_pos_as_xyz
  1  'x, y, z'
loop_
 _atom_site_type_symbol
 _atom_site_label
 _atom_site_symmetry_multiplicity
 _atom_site_fract_x
 _atom_site_fract_y
 _atom_site_fract_z
 _atom_site_occupancy
  Ca  Ca0  1  0.50000000  0.82280800  0.87914000  1
  Ca  Ca1  1  0.00000000  0.66106800  0.67160400  1
  Ca  Ca2  1  0.00000000  0.30953800  0.83431900  1
  Ca  Ca3  1  0.50000000  0.30435300  0.83642300  1
  Ca  Ca4  1  0.74973200  0.11728100  0.74961500  1
  Ca  Ca5  1  0.25026800  0.11728100  0.74961500  1
  Ca  Ca6  1  0.00000000  0.86076000  0.32475800  1
  Ca  Ca7  1  0.50000000  0.86548800  0.32170800  1
  Ca  Ca8  1  0.75020300  0.73164600  0.16476500  1
  Ca  Ca9  1  0.24979700  0.73164600  0.16476500  1
  Ca  Ca10  1  0.75106600  0.14118900  0.12872200  1
  Ca  Ca11  1  0.24893400  0.14118900  0.12872200  1
  Y  Y12  1  0.00000000  0.81420900  0.87550200  1
  Y  Y13  1  0.50000000  0.66407100  0.67652300  1
  Y  Y14  1  0.75053400  0.32971500  0.34224600  1
  Y  Y15  1  0.24946600  0.32971500  0.34224600  1
  Ga  Ga16  1  0.12855800  0.49188800  0.00787100  1
  Ga  Ga17  1  0.12568200  0.49595200  0.50876400  1
  Ga  Ga18  1  0.62593600  0.49782200  0.50753800  1
  Ga  Ga19  1  0.87431800  0.49595200  0.50876400  1
  Ga  Ga20  1  0.37406400  0.49782200  0.50753800  1
  Ga  Ga21  1  0.12719000  0.99595200  0.51473900  1
  Ga  Ga22  1  0.87281000  0.99595200  0.51473900  1
  Ga  Ga23  1  0.37375200  0.99803400  0.51427100  1
  Ga  Ga24  1  0.62624800  0.99803400  0.51427100  1
  Ga  Ga25  1  0.62611400  0.49477500  0.00943600  1
  Ga  Ga26  1  0.87144200  0.49188800  0.00787100  1
  Ga  Ga27  1  0.37388600  0.49477500  0.00943600  1
  B  B28  1  0.74723500  0.76877800  0.78288500  1
  B  B29  1  0.25276500  0.76877800  0.78288500  1
  B  B30  1  0.74903200  0.45372800  0.77783300  1
  B  B31  1  0.25096800  0.45372800  0.77783300  1
  B  B32  1  0.12528900  0.99558200  0.01132400  1
  B  B33  1  0.87471100  0.99558200  0.01132400  1
  B  B34  1  0.62991600  0.99467600  0.01484100  1
  B  B35  1  0.37008400  0.99467600  0.01484100  1
  B  B36  1  0.25061600  0.76616300  0.47490900  1
  B  B37  1  0.74938400  0.76616300  0.47490900  1
  B  B38  1  0.00000000  0.22149600  0.55643900  1
  B  B39  1  0.50000000  0.22334400  0.55588300  1
  B  B40  1  0.00000000  0.54103200  0.23765400  1
  B  B41  1  0.50000000  0.54089300  0.23728000  1
  B  B42  1  0.00000000  0.22338300  0.23819700  1
  B  B43  1  0.50000000  0.22407400  0.23578100  1
  O  O44  1  0.84879100  0.69842700  0.83550400  1
  O  O45  1  0.35390500  0.69497200  0.82875300  1
  O  O46  1  0.15120900  0.69842700  0.83550400  1
  O  O47  1  0.64609500  0.69497200  0.82875300  1
  O  O48  1  0.00000000  0.47628900  0.91367500  1
  O  O49  1  0.50000000  0.47594900  0.91027500  1
  O  O50  1  0.74806000  0.91785500  0.67965000  1
  O  O51  1  0.25194000  0.91785500  0.67965000  1
  O  O52  1  0.74940000  0.41332700  0.92621000  1
  O  O53  1  0.25060000  0.41332700  0.92621000  1
  O  O54  1  0.00000000  0.90174500  0.63604400  1
  O  O55  1  0.50000000  0.90000800  0.63194300  1
  O  O56  1  0.64665500  0.47735100  0.70721900  1
  O  O57  1  0.84997600  0.47061500  0.70839700  1
  O  O58  1  0.15002400  0.47061500  0.70839700  1
  O  O59  1  0.35334500  0.47735100  0.70721900  1
  O  O60  1  0.64720400  0.81266600  0.50059300  1
  O  O61  1  0.14956700  0.81754100  0.49504900  1
  O  O62  1  0.85043300  0.81754100  0.49504900  1
  O  O63  1  0.35279600  0.81266600  0.50059300  1
  O  O64  1  0.00000000  0.61503700  0.48107800  1
  O  O65  1  0.50000000  0.61735000  0.48583600  1
  O  O66  1  0.74951800  0.66272300  0.42837600  1
  O  O67  1  0.25048200  0.66272300  0.42837600  1
  O  O68  1  0.00000000  0.32942300  0.59573800  1
  O  O69  1  0.50000000  0.33191400  0.59417200  1
  O  O70  1  0.74946700  0.37395900  0.53184500  1
  O  O71  1  0.25053300  0.37395900  0.53184500  1
  O  O72  1  0.86678300  0.92980700  0.15914400  1
  O  O73  1  0.36376500  0.93974300  0.16202100  1
  O  O74  1  0.63623500  0.93974300  0.16202100  1
  O  O75  1  0.13321700  0.92980700  0.15914400  1
  O  O76  1  0.89674500  0.17136500  0.53881400  1
  O  O77  1  0.39699600  0.17240900  0.53883600  1
  O  O78  1  0.10325500  0.17136500  0.53881400  1
  O  O79  1  0.60300400  0.17240900  0.53883600  1
  O  O80  1  0.10297000  0.51959000  0.30637300  1
  O  O81  1  0.89703000  0.51959000  0.30637300  1
  O  O82  1  0.60280100  0.52346900  0.30600100  1
  O  O83  1  0.39719900  0.52346900  0.30600100  1
  O  O84  1  0.12756500  0.91048800  0.94581500  1
  O  O85  1  0.63786100  0.90202700  0.95957700  1
  O  O86  1  0.36213900  0.90202700  0.95957700  1
  O  O87  1  0.87243500  0.91048800  0.94581500  1
  O  O88  1  0.74954900  0.09388800  0.38817800  1
  O  O89  1  0.25045100  0.09388800  0.38817800  1
  O  O90  1  0.00000000  0.58732200  0.08814100  1
  O  O91  1  0.50000000  0.57889000  0.09058400  1
  O  O92  1  0.00000000  0.07707800  0.34876700  1
  O  O93  1  0.50000000  0.07856200  0.34735400  1
  O  O94  1  0.75000200  0.51993600  0.10790100  1
  O  O95  1  0.24999800  0.51993600  0.10790100  1
  O  O96  1  0.10284900  0.29196300  0.18576900  1
  O  O97  1  0.60291500  0.29231800  0.18309800  1
  O  O98  1  0.89715100  0.29196300  0.18576900  1
  O  O99  1  0.39708500  0.29231800  0.18309800  1
  O  O100  1  0.13372700  0.14282300  0.92617400  1
  O  O101  1  0.63469800  0.14251300  0.92253400  1
  O  O102  1  0.86627300  0.14282300  0.92617400  1
  O  O103  1  0.36530200  0.14251300  0.92253400  1
