# generated using pymatgen
data_La13Al12Si18(N13O5)3
_symmetry_space_group_name_H-M   'P 1'
_cell_length_a   11.76759991
_cell_length_b   11.76759991
_cell_length_c   11.76760010
_cell_angle_alpha   109.53735808
_cell_angle_beta   109.53735808
_cell_angle_gamma   109.53736277
_symmetry_Int_Tables_number   1
_chemical_formula_structural   La13Al12Si18(N13O5)3
_chemical_formula_sum   'La13 Al12 Si18 N39 O15'
_cell_volume   1251.33546481
_cell_formula_units_Z   1
loop_
 _symmetry_equiv_pos_site_id
 _symmetry_equiv_pos_as_xyz
  1  'x, y, z'
loop_
 _atom_site_type_symbol
 _atom_site_label
 _atom_site_symmetry_multiplicity
 _atom_site_fract_x
 _atom_site_fract_y
 _atom_site_fract_z
 _atom_site_occupancy
  La  La0  1  0.99263400  0.42002600  0.67709000  1
  La  La1  1  0.99263400  0.67709000  0.42002600  1
  La  La2  1  0.32457400  0.74756000  0.32457400  1
  La  La3  1  0.25951400  0.58976000  0.58976000  1
  La  La4  1  0.99220400  0.99220400  0.99220400  1
  La  La5  1  0.42002600  0.99263400  0.67709000  1
  La  La6  1  0.42002600  0.67709000  0.99263400  1
  La  La7  1  0.32457400  0.32457400  0.74756000  1
  La  La8  1  0.67709000  0.42002600  0.99263400  1
  La  La9  1  0.67709000  0.99263400  0.42002600  1
  La  La10  1  0.74756000  0.32457400  0.32457400  1
  La  La11  1  0.58976000  0.25951400  0.58976000  1
  La  La12  1  0.58976000  0.58976000  0.25951400  1
  Al  Al13  1  0.00032100  0.75373100  0.16085000  1
  Al  Al14  1  0.00032100  0.16085000  0.75373100  1
  Al  Al15  1  0.24561000  0.40718900  0.24561000  1
  Al  Al16  1  0.16085000  0.75373100  0.00032100  1
  Al  Al17  1  0.16085000  0.00032100  0.75373100  1
  Al  Al18  1  0.24561000  0.24561000  0.40718900  1
  Al  Al19  1  0.59038400  0.83808800  0.83808800  1
  Al  Al20  1  0.75373100  0.00032100  0.16085000  1
  Al  Al21  1  0.75373100  0.16085000  0.00032100  1
  Al  Al22  1  0.40718900  0.24561000  0.24561000  1
  Al  Al23  1  0.83808800  0.59038400  0.83808800  1
  Al  Al24  1  0.83808800  0.83808800  0.59038400  1
  Si  Si25  1  0.00103600  0.30098000  0.30098000  1
  Si  Si26  1  0.99946000  0.15955700  0.45936800  1
  Si  Si27  1  0.99946000  0.45936800  0.15955700  1
  Si  Si28  1  0.15955700  0.45936800  0.99946000  1
  Si  Si29  1  0.15955700  0.99946000  0.45936800  1
  Si  Si30  1  0.54010200  0.69782900  0.54010200  1
  Si  Si31  1  0.30185200  0.84078100  0.84078100  1
  Si  Si32  1  0.30098000  0.00103600  0.30098000  1
  Si  Si33  1  0.30098000  0.30098000  0.00103600  1
  Si  Si34  1  0.45936800  0.99946000  0.15955700  1
  Si  Si35  1  0.45936800  0.15955700  0.99946000  1
  Si  Si36  1  0.54010200  0.54010200  0.69782900  1
  Si  Si37  1  0.84078100  0.30185200  0.84078100  1
  Si  Si38  1  0.70240200  0.99876600  0.70240200  1
  Si  Si39  1  0.70240200  0.70240200  0.99876600  1
  Si  Si40  1  0.69782900  0.54010200  0.54010200  1
  Si  Si41  1  0.84078100  0.84078100  0.30185200  1
  Si  Si42  1  0.99876600  0.70240200  0.70240200  1
  N  N43  1  0.00025100  0.44914300  0.30336600  1
  N  N44  1  0.00025100  0.30336600  0.44914300  1
  N  N45  1  0.14992600  0.47624400  0.14992600  1
  N  N46  1  0.14882100  0.30264000  0.30264000  1
  N  N47  1  0.15667100  0.84836300  0.15667100  1
  N  N48  1  0.00113500  0.85154100  0.32307500  1
  N  N49  1  0.00113500  0.32307500  0.85154100  1
  N  N50  1  0.14177000  0.69727500  0.69727500  1
  N  N51  1  0.00015300  0.70042100  0.84822800  1
  N  N52  1  0.00015300  0.84822800  0.70042100  1
  N  N53  1  0.30336600  0.00025100  0.44914300  1
  N  N54  1  0.30336600  0.44914300  0.00025100  1
  N  N55  1  0.14992600  0.14992600  0.47624400  1
  N  N56  1  0.30264000  0.14882100  0.30264000  1
  N  N57  1  0.52713400  0.67380100  0.67380100  1
  N  N58  1  0.42117600  0.81064300  0.81064300  1
  N  N59  1  0.15667100  0.15667100  0.84836300  1
  N  N60  1  0.32307500  0.85154100  0.00113500  1
  N  N61  1  0.32307500  0.00113500  0.85154100  1
  N  N62  1  0.69727500  0.14177000  0.69727500  1
  N  N63  1  0.70042100  0.00015300  0.84822800  1
  N  N64  1  0.70042100  0.84822800  0.00015300  1
  N  N65  1  0.44914300  0.30336600  0.00025100  1
  N  N66  1  0.44914300  0.00025100  0.30336600  1
  N  N67  1  0.47624400  0.14992600  0.14992600  1
  N  N68  1  0.30264000  0.30264000  0.14882100  1
  N  N69  1  0.55239500  0.85280500  0.55239500  1
  N  N70  1  0.55239500  0.55239500  0.85280500  1
  N  N71  1  0.81064300  0.42117600  0.81064300  1
  N  N72  1  0.84836300  0.15667100  0.15667100  1
  N  N73  1  0.85154100  0.32307500  0.00113500  1
  N  N74  1  0.85154100  0.00113500  0.32307500  1
  N  N75  1  0.69727500  0.69727500  0.14177000  1
  N  N76  1  0.84822800  0.00015300  0.70042100  1
  N  N77  1  0.84822800  0.70042100  0.00015300  1
  N  N78  1  0.67380100  0.52713400  0.67380100  1
  N  N79  1  0.67380100  0.67380100  0.52713400  1
  N  N80  1  0.85280500  0.55239500  0.55239500  1
  N  N81  1  0.81064300  0.81064300  0.42117600  1
  O  O82  1  0.24919400  0.75379800  0.49692100  1
  O  O83  1  0.24919400  0.49692100  0.75379800  1
  O  O84  1  0.18374200  0.99796100  0.60752600  1
  O  O85  1  0.18374200  0.60752600  0.99796100  1
  O  O86  1  0.39059300  0.57588500  0.39059300  1
  O  O87  1  0.39059300  0.39059300  0.57588500  1
  O  O88  1  0.49692100  0.75379800  0.24919400  1
  O  O89  1  0.49692100  0.24919400  0.75379800  1
  O  O90  1  0.60752600  0.18374200  0.99796100  1
  O  O91  1  0.60752600  0.99796100  0.18374200  1
  O  O92  1  0.57588500  0.39059300  0.39059300  1
  O  O93  1  0.75379800  0.49692100  0.24919400  1
  O  O94  1  0.75379800  0.24919400  0.49692100  1
  O  O95  1  0.99796100  0.60752600  0.18374200  1
  O  O96  1  0.99796100  0.18374200  0.60752600  1
