# generated using pymatgen
data_Sr5La5Cu(NiO5)4
_symmetry_space_group_name_H-M   'P 1'
_cell_length_a   19.32603118
_cell_length_b   8.65338858
_cell_length_c   6.85316372
_cell_angle_alpha   112.30009056
_cell_angle_beta   106.43825167
_cell_angle_gamma   26.52498141
_symmetry_Int_Tables_number   1
_chemical_formula_structural   Sr5La5Cu(NiO5)4
_chemical_formula_sum   'Sr5 La5 Cu1 Ni4 O20'
_cell_volume   469.09759183
_cell_formula_units_Z   1
loop_
 _symmetry_equiv_pos_site_id
 _symmetry_equiv_pos_as_xyz
  1  'x, y, z'
loop_
 _atom_site_type_symbol
 _atom_site_label
 _atom_site_symmetry_multiplicity
 _atom_site_fract_x
 _atom_site_fract_y
 _atom_site_fract_z
 _atom_site_occupancy
  Sr  Sr0  1  0.12934200  0.35766000  0.71818400  1
  Sr  Sr1  1  0.32886700  0.35598400  0.71786400  1
  Sr  Sr2  1  0.52702800  0.36330400  0.71754300  1
  Sr  Sr3  1  0.72762700  0.35878600  0.71841800  1
  Sr  Sr4  1  0.87164000  0.64111100  0.28575100  1
  La  La5  1  0.07284700  0.63576400  0.27432600  1
  La  La6  1  0.27031500  0.64709100  0.27739400  1
  La  La7  1  0.47253500  0.63776900  0.27904800  1
  La  La8  1  0.67150100  0.64416300  0.27765400  1
  La  La9  1  0.92747100  0.36392300  0.72825600  1
  Cu  Cu10  1  0.00021200  0.99694300  0.99267400  1
  Ni  Ni11  1  0.20133200  0.99598400  0.99367700  1
  Ni  Ni12  1  0.40094800  0.99650600  0.99568700  1
  Ni  Ni13  1  0.59939000  0.99920200  0.99293700  1
  Ni  Ni14  1  0.80037400  0.99923400  0.00007100  1
  O  O15  1  0.09926900  0.00092000  0.99959600  1
  O  O16  1  0.99938300  0.50373700  0.00520100  1
  O  O17  1  0.17831100  0.14048600  0.32692300  1
  O  O18  1  0.30269800  0.00191500  0.01009700  1
  O  O19  1  0.03294000  0.83502600  0.65040300  1
  O  O20  1  0.19790500  0.50841700  0.01631700  1
  O  O21  1  0.37261400  0.14732400  0.32477800  1
  O  O22  1  0.49599100  0.00610400  0.00962600  1
  O  O23  1  0.22479700  0.84622600  0.65420400  1
  O  O24  1  0.39936900  0.50360300  0.00334300  1
  O  O25  1  0.55712400  0.17953700  0.32542700  1
  O  O26  1  0.70080200  0.00374900  0.00336400  1
  O  O27  1  0.43479900  0.82934500  0.65992000  1
  O  O28  1  0.60275600  0.49648500  0.01129200  1
  O  O29  1  0.76462600  0.16841600  0.32064200  1
  O  O30  1  0.89610600  0.00902200  0.01732000  1
  O  O31  1  0.64200000  0.81801000  0.65481500  1
  O  O32  1  0.79765600  0.50535800  0.00063500  1
  O  O33  1  0.96573700  0.16933900  0.35159700  1
  O  O34  1  0.83368900  0.83355700  0.68501400  1
