# generated using pymatgen
data_YbZr7Si7PO32
_symmetry_space_group_name_H-M   'P 1'
_cell_length_a   5.64581852
_cell_length_b   5.64581852
_cell_length_c   38.19079000
_cell_angle_alpha   90.00000000
_cell_angle_beta   90.00000000
_cell_angle_gamma   115.41470439
_symmetry_Int_Tables_number   1
_chemical_formula_structural   YbZr7Si7PO32
_chemical_formula_sum   'Yb2 Zr14 Si14 P2 O64'
_cell_volume   1099.53360629
_cell_formula_units_Z   2
loop_
 _symmetry_equiv_pos_site_id
 _symmetry_equiv_pos_as_xyz
  1  'x, y, z'
loop_
 _atom_site_type_symbol
 _atom_site_label
 _atom_site_symmetry_multiplicity
 _atom_site_fract_x
 _atom_site_fract_y
 _atom_site_fract_z
 _atom_site_occupancy
  Yb  Yb0  1  0.00000000  0.50000000  0.56310600  1
  Yb  Yb1  1  0.50000000  0.00000000  0.43689400  1
  Zr  Zr2  1  0.50000000  0.50000000  0.50000000  1
  Zr  Zr3  1  0.00000000  0.00000000  0.37515200  1
  Zr  Zr4  1  0.50000000  0.50000000  0.25007000  1
  Zr  Zr5  1  0.00000000  0.00000000  0.12499100  1
  Zr  Zr6  1  0.50000000  0.50000000  0.00000000  1
  Zr  Zr7  1  0.00000000  0.00000000  0.87500900  1
  Zr  Zr8  1  0.00000000  0.50000000  0.31234200  1
  Zr  Zr9  1  0.50000000  0.50000000  0.74993000  1
  Zr  Zr10  1  0.50000000  0.00000000  0.18749600  1
  Zr  Zr11  1  0.00000000  0.00000000  0.62484800  1
  Zr  Zr12  1  0.00000000  0.50000000  0.06249300  1
  Zr  Zr13  1  0.50000000  0.00000000  0.93750700  1
  Zr  Zr14  1  0.00000000  0.50000000  0.81250400  1
  Zr  Zr15  1  0.50000000  0.00000000  0.68765800  1
  Si  Si16  1  0.00000000  0.00000000  0.50000000  1
  Si  Si17  1  0.50000000  0.00000000  0.31266900  1
  Si  Si18  1  0.50000000  0.50000000  0.37374300  1
  Si  Si19  1  0.00000000  0.50000000  0.18745300  1
  Si  Si20  1  0.00000000  0.00000000  0.24988900  1
  Si  Si21  1  0.50000000  0.00000000  0.06247900  1
  Si  Si22  1  0.50000000  0.50000000  0.12495900  1
  Si  Si23  1  0.00000000  0.50000000  0.93752100  1
  Si  Si24  1  0.00000000  0.00000000  0.00000000  1
  Si  Si25  1  0.50000000  0.00000000  0.81254700  1
  Si  Si26  1  0.50000000  0.50000000  0.87504100  1
  Si  Si27  1  0.00000000  0.50000000  0.68733100  1
  Si  Si28  1  0.00000000  0.00000000  0.75011100  1
  Si  Si29  1  0.50000000  0.50000000  0.62625700  1
  P  P30  1  0.50000000  0.00000000  0.56229200  1
  P  P31  1  0.00000000  0.50000000  0.43770800  1
  O  O32  1  0.74643600  0.06444500  0.58519200  1
  O  O33  1  0.43587600  0.75291000  0.53951700  1
  O  O34  1  0.56412400  0.24709000  0.53951700  1
  O  O35  1  0.24709000  0.56412400  0.46048300  1
  O  O36  1  0.25356400  0.93555500  0.58519200  1
  O  O37  1  0.93555500  0.25356400  0.41480800  1
  O  O38  1  0.27269000  0.09482100  0.47779900  1
  O  O39  1  0.06444500  0.74643600  0.41480800  1
  O  O40  1  0.77209500  0.08773700  0.33540200  1
  O  O41  1  0.90517900  0.72731000  0.52220100  1
  O  O42  1  0.75291000  0.43587600  0.46048300  1
  O  O43  1  0.09482100  0.27269000  0.52220100  1
  O  O44  1  0.41222500  0.72988500  0.28961100  1
  O  O45  1  0.77196100  0.58356800  0.35098400  1
  O  O46  1  0.58777500  0.27011500  0.28961100  1
  O  O47  1  0.27153200  0.58863400  0.21033600  1
  O  O48  1  0.72731000  0.90517900  0.47779900  1
  O  O49  1  0.39983100  0.22771000  0.39602500  1
  O  O50  1  0.22790500  0.91226300  0.33540200  1
  O  O51  1  0.60016900  0.77229000  0.39602500  1
  O  O52  1  0.91141600  0.22881600  0.16465800  1
  O  O53  1  0.27124500  0.08853100  0.22710600  1
  O  O54  1  0.08858400  0.77118400  0.16465800  1
  O  O55  1  0.77143300  0.08865700  0.08533900  1
  O  O56  1  0.22803900  0.41643200  0.35098400  1
  O  O57  1  0.91124000  0.72880400  0.27271300  1
  O  O58  1  0.72846800  0.41136600  0.21033600  1
  O  O59  1  0.08876000  0.27119600  0.27271300  1
  O  O60  1  0.41136000  0.72867300  0.03966200  1
  O  O61  1  0.77127300  0.58862500  0.10216100  1
  O  O62  1  0.58864000  0.27132700  0.03966200  1
  O  O63  1  0.27132700  0.58864000  0.96033800  1
  O  O64  1  0.72875500  0.91146900  0.22710600  1
  O  O65  1  0.41133300  0.22852900  0.14783400  1
  O  O66  1  0.22856700  0.91134300  0.08533900  1
  O  O67  1  0.58866700  0.77147100  0.14783400  1
  O  O68  1  0.91134300  0.22856700  0.91466100  1
  O  O69  1  0.27137900  0.08864700  0.97716100  1
  O  O70  1  0.08865700  0.77143300  0.91466100  1
  O  O71  1  0.77118400  0.08858400  0.83534200  1
  O  O72  1  0.22872700  0.41137500  0.10216100  1
  O  O73  1  0.91135300  0.72862100  0.02283900  1
  O  O74  1  0.72867300  0.41136000  0.96033800  1
  O  O75  1  0.08864700  0.27137900  0.02283900  1
  O  O76  1  0.41136600  0.72846800  0.78966400  1
  O  O77  1  0.77147100  0.58866700  0.85216600  1
  O  O78  1  0.58863400  0.27153200  0.78966400  1
  O  O79  1  0.27011500  0.58777500  0.71038900  1
  O  O80  1  0.72862100  0.91135300  0.97716100  1
  O  O81  1  0.41137500  0.22872700  0.89783900  1
  O  O82  1  0.22881600  0.91141600  0.83534200  1
  O  O83  1  0.58862500  0.77127300  0.89783900  1
  O  O84  1  0.91226300  0.22790500  0.66459800  1
  O  O85  1  0.27119600  0.08876000  0.72728700  1
  O  O86  1  0.08773700  0.77209500  0.66459800  1
  O  O87  1  0.22852900  0.41133300  0.85216600  1
  O  O88  1  0.91146900  0.72875500  0.77289400  1
  O  O89  1  0.72988500  0.41222500  0.71038900  1
  O  O90  1  0.08853100  0.27124500  0.77289400  1
  O  O91  1  0.77229000  0.60016900  0.60397500  1
  O  O92  1  0.72880400  0.91124000  0.72728700  1
  O  O93  1  0.41643200  0.22803900  0.64901600  1
  O  O94  1  0.58356800  0.77196100  0.64901600  1
  O  O95  1  0.22771000  0.39983100  0.60397500  1
