# generated using pymatgen
data_BaPrO3
_symmetry_space_group_name_H-M   'P 1'
_cell_length_a   6.45386726
_cell_length_b   6.45386726
_cell_length_c   6.45386726
_cell_angle_alpha   120.25321868
_cell_angle_beta   119.90537239
_cell_angle_gamma   89.86297550
_symmetry_Int_Tables_number   1
_chemical_formula_structural   BaPrO3
_chemical_formula_sum   'Ba2 Pr2 O6'
_cell_volume   189.85318607
_cell_formula_units_Z   2
loop_
 _symmetry_equiv_pos_site_id
 _symmetry_equiv_pos_as_xyz
  1  'x, y, z'
loop_
 _atom_site_type_symbol
 _atom_site_label
 _atom_site_symmetry_multiplicity
 _atom_site_fract_x
 _atom_site_fract_y
 _atom_site_fract_z
 _atom_site_occupancy
  Ba  Ba0  1  0.23077200  0.25000000  0.98077200  1
  Ba  Ba1  1  0.76922800  0.75000000  0.01922800  1
  Pr  Pr2  1  0.50000000  0.00000000  0.50000000  1
  Pr  Pr3  1  0.00000000  0.50000000  0.50000000  1
  O  O4  1  0.81069400  0.81069400  0.50000000  1
  O  O5  1  0.18930600  0.68930600  0.00000000  1
  O  O6  1  0.18930600  0.18930600  0.50000000  1
  O  O7  1  0.81069400  0.31069400  0.00000000  1
  O  O8  1  0.35119000  0.75000000  0.60119000  1
  O  O9  1  0.64881000  0.25000000  0.39881000  1
