# generated using pymatgen
data_NaCa3ScZn3(SiO3)8
_symmetry_space_group_name_H-M   'P 1'
_cell_length_a   18.13098900
_cell_length_b   5.33745800
_cell_length_c   9.92602137
_cell_angle_alpha   74.99568757
_cell_angle_beta   90.00000000
_cell_angle_gamma   90.00000000
_symmetry_Int_Tables_number   1
_chemical_formula_structural   NaCa3ScZn3(SiO3)8
_chemical_formula_sum   'Na2 Ca6 Sc2 Zn6 Si16 O48'
_cell_volume   927.82525329
_cell_formula_units_Z   2
loop_
 _symmetry_equiv_pos_site_id
 _symmetry_equiv_pos_as_xyz
  1  'x, y, z'
loop_
 _atom_site_type_symbol
 _atom_site_label
 _atom_site_symmetry_multiplicity
 _atom_site_fract_x
 _atom_site_fract_y
 _atom_site_fract_z
 _atom_site_occupancy
  Na  Na0  1  0.52802600  0.50000000  0.75000000  1
  Na  Na1  1  0.47197400  0.50000000  0.25000000  1
  Ca  Ca2  1  0.27490500  0.00000000  0.25000000  1
  Ca  Ca3  1  0.02363700  0.50000000  0.75000000  1
  Ca  Ca4  1  0.77605900  0.00000000  0.25000000  1
  Ca  Ca5  1  0.22394100  0.00000000  0.75000000  1
  Ca  Ca6  1  0.97636300  0.50000000  0.25000000  1
  Ca  Ca7  1  0.72509500  0.00000000  0.75000000  1
  Sc  Sc8  1  0.57360700  0.00000000  0.25000000  1
  Sc  Sc9  1  0.42639300  0.00000000  0.75000000  1
  Zn  Zn10  1  0.32570100  0.50000000  0.75000000  1
  Zn  Zn11  1  0.07788100  0.00000000  0.25000000  1
  Zn  Zn12  1  0.17335900  0.50000000  0.25000000  1
  Zn  Zn13  1  0.82664100  0.50000000  0.75000000  1
  Zn  Zn14  1  0.92211900  0.00000000  0.75000000  1
  Zn  Zn15  1  0.67429900  0.50000000  0.25000000  1
  Si  Si16  1  0.17030800  0.69661300  0.53631700  1
  Si  Si17  1  0.17030800  0.30338700  0.96368300  1
  Si  Si18  1  0.92186600  0.19741100  0.03539100  1
  Si  Si19  1  0.32919500  0.69975800  0.03757000  1
  Si  Si20  1  0.92186600  0.80258900  0.46460900  1
  Si  Si21  1  0.67080500  0.69975800  0.53757000  1
  Si  Si22  1  0.32919500  0.30024200  0.46243000  1
  Si  Si23  1  0.07813400  0.19741100  0.53539100  1
  Si  Si24  1  0.67080500  0.30024200  0.96243000  1
  Si  Si25  1  0.41997000  0.20128000  0.03645200  1
  Si  Si26  1  0.07813400  0.80258900  0.96460900  1
  Si  Si27  1  0.82969200  0.69661300  0.03631700  1
  Si  Si28  1  0.41997000  0.79872000  0.46354800  1
  Si  Si29  1  0.82969200  0.30338700  0.46368300  1
  Si  Si30  1  0.58003000  0.20128000  0.53645200  1
  Si  Si31  1  0.58003000  0.79872000  0.96354800  1
  O  O32  1  0.36626200  0.40567100  0.09629500  1
  O  O33  1  0.11577000  0.90235800  0.59809100  1
  O  O34  1  0.24729200  0.71028200  0.61501700  1
  O  O35  1  0.86734700  0.40168400  0.09813400  1
  O  O36  1  0.16994300  0.77936400  0.36711100  1
  O  O37  1  0.16994300  0.22063600  0.13288900  1
  O  O38  1  0.99951300  0.21316600  0.11163800  1
  O  O39  1  0.61910100  0.90931700  0.59891100  1
  O  O40  1  0.36626200  0.59432900  0.40370500  1
  O  O41  1  0.24729200  0.28971800  0.88498300  1
  O  O42  1  0.92007000  0.27913500  0.86636500  1
  O  O43  1  0.25091500  0.71193100  0.11156900  1
  O  O44  1  0.13265300  0.40168400  0.59813400  1
  O  O45  1  0.33158100  0.78463600  0.86741300  1
  O  O46  1  0.92007000  0.72086500  0.63363500  1
  O  O47  1  0.74908500  0.71193100  0.61156900  1
  O  O48  1  0.11577000  0.09764200  0.90190900  1
  O  O49  1  0.99951300  0.78683400  0.38836200  1
  O  O50  1  0.33158100  0.21536400  0.63258700  1
  O  O51  1  0.66841900  0.78463600  0.36741300  1
  O  O52  1  0.00048700  0.21316600  0.61163800  1
  O  O53  1  0.88423000  0.90235800  0.09809100  1
  O  O54  1  0.25091500  0.28806900  0.38843100  1
  O  O55  1  0.07993000  0.27913500  0.36636500  1
  O  O56  1  0.66841900  0.21536400  0.13258700  1
  O  O57  1  0.49870200  0.20186500  0.11123800  1
  O  O58  1  0.86734700  0.59831600  0.40186600  1
  O  O59  1  0.74908500  0.28806900  0.88843100  1
  O  O60  1  0.07993000  0.72086500  0.13363500  1
  O  O61  1  0.41730300  0.27711800  0.86740900  1
  O  O62  1  0.75270800  0.71028200  0.11501700  1
  O  O63  1  0.63373800  0.40567100  0.59629500  1
  O  O64  1  0.00048700  0.78683400  0.88836200  1
  O  O65  1  0.83005700  0.77936400  0.86711100  1
  O  O66  1  0.41730300  0.72288200  0.63259100  1
  O  O67  1  0.61910100  0.09068300  0.90108900  1
  O  O68  1  0.49870200  0.79813500  0.38876200  1
  O  O69  1  0.83005700  0.22063600  0.63288900  1
  O  O70  1  0.50129800  0.20186500  0.61123800  1
  O  O71  1  0.38089900  0.90931700  0.09891100  1
  O  O72  1  0.13265300  0.59831600  0.90186600  1
  O  O73  1  0.75270800  0.28971800  0.38498300  1
  O  O74  1  0.58269700  0.27711800  0.36740900  1
  O  O75  1  0.58269700  0.72288200  0.13259100  1
  O  O76  1  0.88423000  0.09764200  0.40190900  1
  O  O77  1  0.50129800  0.79813500  0.88876200  1
  O  O78  1  0.63373800  0.59432900  0.90370500  1
  O  O79  1  0.38089900  0.09068300  0.40108900  1
