# generated using pymatgen
data_Cr3GaS6
_symmetry_space_group_name_H-M   'P 1'
_cell_length_a   7.04611383
_cell_length_b   7.04581742
_cell_length_c   63.30641853
_cell_angle_alpha   60.05036744
_cell_angle_beta   60.05112969
_cell_angle_gamma   60.11205478
_symmetry_Int_Tables_number   1
_chemical_formula_structural   Cr3GaS6
_chemical_formula_sum   'Cr36 Ga12 S72'
_cell_volume   2225.94019653
_cell_formula_units_Z   12
loop_
 _symmetry_equiv_pos_site_id
 _symmetry_equiv_pos_as_xyz
  1  'x, y, z'
loop_
 _atom_site_type_symbol
 _atom_site_label
 _atom_site_symmetry_multiplicity
 _atom_site_fract_x
 _atom_site_fract_y
 _atom_site_fract_z
 _atom_site_occupancy
  Cr  Cr0  1  0.11485377  0.63301684  0.06874744  1
  Cr  Cr1  1  0.63299870  0.11490744  0.06874417  1
  Cr  Cr2  1  0.62278707  0.62277872  0.01469044  1
  Cr  Cr3  1  0.10448598  0.63314024  0.18102818  1
  Cr  Cr4  1  0.63350912  0.63351358  0.06870846  1
  Cr  Cr5  1  0.63796303  0.63795255  0.12064925  1
  Cr  Cr6  1  0.63313883  0.10445435  0.18102715  1
  Cr  Cr7  1  0.11991140  0.62984721  0.29115524  1
  Cr  Cr8  1  0.63319265  0.63318396  0.18102857  1
  Cr  Cr9  1  0.62987559  0.11992846  0.29114650  1
  Cr  Cr10  1  0.63408345  0.63408900  0.23307808  1
  Cr  Cr11  1  0.12509378  0.62502354  0.40277503  1
  Cr  Cr12  1  0.62987600  0.62987714  0.29114804  1
  Cr  Cr13  1  0.62503102  0.12508811  0.40277502  1
  Cr  Cr14  1  0.62459987  0.62460320  0.34734590  1
  Cr  Cr15  1  0.12509096  0.62517388  0.51384545  1
  Cr  Cr16  1  0.62488301  0.62488593  0.40278162  1
  Cr  Cr17  1  0.62519397  0.12508424  0.51384591  1
  Cr  Cr18  1  0.62500991  0.62499811  0.45832745  1
  Cr  Cr19  1  0.12481054  0.62457784  0.62512322  1
  Cr  Cr20  1  0.62507522  0.62505748  0.51385773  1
  Cr  Cr21  1  0.62457826  0.12479817  0.62512496  1
  Cr  Cr22  1  0.62504469  0.62504329  0.56942605  1
  Cr  Cr23  1  0.11081401  0.62562922  0.73755383  1
  Cr  Cr24  1  0.62458731  0.62457524  0.62512452  1
  Cr  Cr25  1  0.62561681  0.11083136  0.73755563  1
  Cr  Cr26  1  0.62419987  0.62419583  0.68084253  1
  Cr  Cr27  1  0.09811721  0.63159131  0.84829908  1
  Cr  Cr28  1  0.62549024  0.62546991  0.73757457  1
  Cr  Cr29  1  0.63159728  0.09821585  0.84829466  1
  Cr  Cr30  1  0.63093769  0.63092951  0.78998496  1
  Cr  Cr31  1  0.10079267  0.62921540  0.96008625  1
  Cr  Cr32  1  0.63443964  0.63444416  0.84805153  1
  Cr  Cr33  1  0.63205379  0.63203175  0.89980676  1
  Cr  Cr34  1  0.62920418  0.10078320  0.96008625  1
  Cr  Cr35  1  0.62902623  0.62902794  0.96016038  1
  Ga  Ga36  1  0.24970791  0.24972121  0.13895023  1
  Ga  Ga37  1  0.25184891  0.25187002  0.24935058  1
  Ga  Ga38  1  0.00056717  0.00052519  0.33316995  1
  Ga  Ga39  1  0.25080913  0.25083932  0.36084022  1
  Ga  Ga40  1  0.00020270  0.00017642  0.44441029  1
  Ga  Ga41  1  0.24965955  0.24967987  0.47231408  1
  Ga  Ga42  1  0.00031962  0.00028774  0.55548212  1
  Ga  Ga43  1  0.99912777  0.99909122  0.66699746  1
  Ga  Ga44  1  0.24979977  0.24981803  0.58336733  1
  Ga  Ga45  1  0.24804934  0.24806193  0.69506238  1
  Ga  Ga46  1  0.24830898  0.24831213  0.80621373  1
  Ga  Ga47  1  0.24965097  0.24965177  0.91669714  1
  S  S48  1  0.38501085  0.38501616  0.04318624  1
  S  S49  1  0.38460062  0.38459005  0.09401903  1
  S  S50  1  0.38515742  0.84105041  0.04320968  1
  S  S51  1  0.84105811  0.38516645  0.04320853  1
  S  S52  1  0.38522498  0.38518716  0.15396067  1
  S  S53  1  0.40080533  0.86663331  0.09620278  1
  S  S54  1  0.86680093  0.86680304  0.04440220  1
  S  S55  1  0.86665728  0.40077494  0.09620200  1
  S  S56  1  0.38475355  0.38472694  0.20508563  1
  S  S57  1  0.38516333  0.84408043  0.15395533  1
  S  S58  1  0.84408606  0.38513301  0.15395737  1
  S  S59  1  0.86666260  0.86665471  0.09618700  1
  S  S60  1  0.38465405  0.38471631  0.26508352  1
  S  S61  1  0.40289457  0.86503545  0.20744551  1
  S  S62  1  0.86503333  0.40292347  0.20744432  1
  S  S63  1  0.38481337  0.38485053  0.31616191  1
  S  S64  1  0.38457465  0.84506972  0.26507130  1
  S  S65  1  0.86634216  0.86632543  0.15567072  1
  S  S66  1  0.84507955  0.38463897  0.26506388  1
  S  S67  1  0.86503528  0.86505182  0.20745480  1
  S  S68  1  0.38493206  0.38491893  0.37616259  1
  S  S69  1  0.40487515  0.86392967  0.31859321  1
  S  S70  1  0.86391136  0.40486365  0.31859471  1
  S  S71  1  0.38499139  0.38501257  0.42719307  1
  S  S72  1  0.86501769  0.86493999  0.26722058  1
  S  S73  1  0.38477099  0.84511324  0.37614404  1
  S  S74  1  0.84511550  0.38477463  0.37614367  1
  S  S75  1  0.86374243  0.86376854  0.31859344  1
  S  S76  1  0.38510214  0.38508977  0.48724056  1
  S  S77  1  0.40519848  0.86497373  0.42944160  1
  S  S78  1  0.86499054  0.40520083  0.42943863  1
  S  S79  1  0.38509591  0.38509358  0.53827158  1
  S  S80  1  0.86491882  0.86489458  0.37835671  1
  S  S81  1  0.38510906  0.84487418  0.48722149  1
  S  S82  1  0.84488866  0.38509356  0.48722184  1
  S  S83  1  0.86483465  0.86481221  0.42944106  1
  S  S84  1  0.38510390  0.38508171  0.59837511  1
  S  S85  1  0.40529896  0.86509092  0.54050829  1
  S  S86  1  0.86508542  0.40529238  0.54050720  1
  S  S87  1  0.38518894  0.38518985  0.64940081  1
  S  S88  1  0.86491939  0.86490848  0.48946605  1
  S  S89  1  0.38500485  0.84465294  0.59837142  1
  S  S90  1  0.86498623  0.86501246  0.54049824  1
  S  S91  1  0.84465827  0.38498923  0.59837022  1
  S  S92  1  0.38522518  0.38523360  0.70928623  1
  S  S93  1  0.40504828  0.86518433  0.65162477  1
  S  S94  1  0.86519389  0.40503569  0.65162415  1
  S  S95  1  0.38501833  0.38505609  0.76054342  1
  S  S96  1  0.86477430  0.86477252  0.60064147  1
  S  S97  1  0.38507574  0.84623821  0.70927018  1
  S  S98  1  0.84626623  0.38506847  0.70926628  1
  S  S99  1  0.86512664  0.86513574  0.65161204  1
  S  S100  1  0.38561681  0.38565141  0.82048638  1
  S  S101  1  0.40499504  0.86576492  0.76257676  1
  S  S102  1  0.86579085  0.40497987  0.76257717  1
  S  S103  1  0.38437459  0.84655597  0.82052749  1
  S  S104  1  0.38569802  0.38570772  0.87147200  1
  S  S105  1  0.86539672  0.86537060  0.71153494  1
  S  S106  1  0.84659098  0.38437530  0.82052543  1
  S  S107  1  0.86655429  0.86656825  0.76254838  1
  S  S108  1  0.38539724  0.38539991  0.93162401  1
  S  S109  1  0.39690048  0.86901316  0.87428212  1
  S  S110  1  0.86894345  0.39684042  0.87428868  1
  S  S111  1  0.38971293  0.38967478  0.98123128  1
  S  S112  1  0.38591796  0.84438486  0.93159720  1
  S  S113  1  0.86893670  0.86902951  0.82189656  1
  S  S114  1  0.84439957  0.38592461  0.93159447  1
  S  S115  1  0.86596488  0.86609545  0.87392484  1
  S  S116  1  0.40076305  0.86579773  0.98531018  1
  S  S117  1  0.86579660  0.40075282  0.98530835  1
  S  S118  1  0.86657675  0.86656816  0.93336155  1
  S  S119  1  0.86578007  0.86582116  0.98528084  1
