# generated using pymatgen
data_Na7Ca3Ta7Ti3O30
_symmetry_space_group_name_H-M   'P 1'
_cell_length_a   5.49438300
_cell_length_b   5.57744660
_cell_length_c   38.99047310
_cell_angle_alpha   90.08875294
_cell_angle_beta   90.04882500
_cell_angle_gamma   90.18666668
_symmetry_Int_Tables_number   1
_chemical_formula_structural   Na7Ca3Ta7Ti3O30
_chemical_formula_sum   'Na14 Ca6 Ta14 Ti6 O60'
_cell_volume   1194.84032167
_cell_formula_units_Z   2
loop_
 _symmetry_equiv_pos_site_id
 _symmetry_equiv_pos_as_xyz
  1  'x, y, z'
loop_
 _atom_site_type_symbol
 _atom_site_label
 _atom_site_symmetry_multiplicity
 _atom_site_fract_x
 _atom_site_fract_y
 _atom_site_fract_z
 _atom_site_occupancy
  Na  Na0  1  0.99442800  0.03228000  0.14889100  1
  Na  Na1  1  0.99149200  0.02197800  0.35197700  1
  Na  Na2  1  0.99129900  0.02173400  0.55191900  1
  Na  Na3  1  0.99180800  0.02130300  0.75200100  1
  Na  Na4  1  0.98734300  0.02447800  0.95277500  1
  Na  Na5  1  0.50976800  0.52092700  0.35236900  1
  Na  Na6  1  0.51077400  0.52086500  0.55237500  1
  Na  Na7  1  0.51147300  0.52019700  0.75256000  1
  Na  Na8  1  0.50665800  0.52265800  0.95282700  1
  Na  Na9  1  0.48685000  0.47466600  0.04878700  1
  Na  Na10  1  0.49776900  0.47553100  0.24826700  1
  Na  Na11  1  0.49092800  0.47169000  0.64758100  1
  Na  Na12  1  0.49068000  0.47194200  0.44746800  1
  Na  Na13  1  0.49176700  0.47138200  0.84777800  1
  Ca  Ca14  1  0.52050400  0.53967400  0.14951100  1
  Ca  Ca15  1  0.01401900  0.94943600  0.24787900  1
  Ca  Ca16  1  0.00910300  0.95339500  0.04900600  1
  Ca  Ca17  1  0.00914500  0.95272700  0.64753500  1
  Ca  Ca18  1  0.00911700  0.95250800  0.44743800  1
  Ca  Ca19  1  0.01000500  0.95227100  0.84772900  1
  Ta  Ta20  1  0.00126300  0.49338500  0.29972200  1
  Ta  Ta21  1  0.00067900  0.49495100  0.50043100  1
  Ta  Ta22  1  0.00092600  0.49500400  0.70078900  1
  Ta  Ta23  1  0.00054900  0.49451400  0.90088200  1
  Ta  Ta24  1  0.50561100  0.00483500  0.10002000  1
  Ta  Ta25  1  0.50407100  0.99841300  0.30062400  1
  Ta  Ta26  1  0.49399800  0.99509700  0.99976500  1
  Ta  Ta27  1  0.50252800  0.99979500  0.50022300  1
  Ta  Ta28  1  0.50292900  0.99897500  0.90032800  1
  Ta  Ta29  1  0.50272800  0.99990000  0.70019600  1
  Ta  Ta30  1  0.50803700  0.00561900  0.19972400  1
  Ta  Ta31  1  0.50227900  0.99296900  0.59939800  1
  Ta  Ta32  1  0.50262900  0.99296200  0.39960400  1
  Ta  Ta33  1  0.50277300  0.99257200  0.79948400  1
  Ti  Ti34  1  0.98927700  0.48985200  0.99980400  1
  Ti  Ti35  1  0.00642000  0.49447000  0.09744600  1
  Ti  Ti36  1  0.01592800  0.49422800  0.19746400  1
  Ti  Ti37  1  0.99815000  0.48355200  0.39927900  1
  Ti  Ti38  1  0.99782400  0.48372300  0.59990900  1
  Ti  Ti39  1  0.99829900  0.48343400  0.80015600  1
  O  O40  1  0.92722700  0.51481700  0.05074300  1
  O  O41  1  0.92948600  0.52095800  0.25031000  1
  O  O42  1  0.92769500  0.51807700  0.45019000  1
  O  O43  1  0.92789100  0.51820000  0.65027300  1
  O  O44  1  0.92800500  0.51755500  0.85044000  1
  O  O45  1  0.77875700  0.78209200  0.19245100  1
  O  O46  1  0.78029000  0.78371100  0.39407700  1
  O  O47  1  0.78051700  0.78389400  0.59419700  1
  O  O48  1  0.77222700  0.77733500  0.10750600  1
  O  O49  1  0.78510700  0.78810400  0.30664600  1
  O  O50  1  0.78145900  0.78347800  0.79432000  1
  O  O51  1  0.77860700  0.78010400  0.99472500  1
  O  O52  1  0.78397000  0.78827600  0.50652400  1
  O  O53  1  0.78384100  0.78789100  0.70669200  1
  O  O54  1  0.78532300  0.78833900  0.90680600  1
  O  O55  1  0.71215300  0.28542600  0.10915900  1
  O  O56  1  0.71169300  0.28974200  0.19112600  1
  O  O57  1  0.71393500  0.28553500  0.30771500  1
  O  O58  1  0.72321600  0.28151200  0.39264600  1
  O  O59  1  0.71296200  0.28626000  0.90849100  1
  O  O60  1  0.72393100  0.28185800  0.59289700  1
  O  O61  1  0.71408000  0.28610900  0.70823800  1
  O  O62  1  0.72526400  0.28138300  0.79309700  1
  O  O63  1  0.71422000  0.28570600  0.50811300  1
  O  O64  1  0.72395400  0.27923300  0.99298800  1
  O  O65  1  0.58138100  0.01938200  0.05036200  1
  O  O66  1  0.58572100  0.01839400  0.24988000  1
  O  O67  1  0.58183600  0.02080300  0.65038100  1
  O  O68  1  0.58169000  0.02101500  0.45025100  1
  O  O69  1  0.58235500  0.01972800  0.85055400  1
  O  O70  1  0.42544500  0.98908800  0.34958800  1
  O  O71  1  0.42331600  0.98207400  0.14995900  1
  O  O72  1  0.42555400  0.98993600  0.54970900  1
  O  O73  1  0.42637200  0.99039500  0.74982700  1
  O  O74  1  0.42524900  0.98597300  0.94993000  1
  O  O75  1  0.27120500  0.73119400  0.00916800  1
  O  O76  1  0.27177700  0.72394100  0.09227300  1
  O  O77  1  0.27810400  0.72462000  0.20759900  1
  O  O78  1  0.27244300  0.73374000  0.60859300  1
  O  O79  1  0.27923200  0.72709900  0.29083500  1
  O  O80  1  0.27211900  0.73362900  0.40840800  1
  O  O81  1  0.27702700  0.72818600  0.49090300  1
  O  O82  1  0.27324600  0.73327100  0.80873600  1
  O  O83  1  0.27663800  0.72830900  0.69107700  1
  O  O84  1  0.27763700  0.72640300  0.89119100  1
  O  O85  1  0.20937000  0.21474700  0.09159200  1
  O  O86  1  0.21702200  0.22172900  0.00858300  1
  O  O87  1  0.21285400  0.21553000  0.20843000  1
  O  O88  1  0.21742800  0.22381700  0.40822500  1
  O  O89  1  0.21776600  0.22419100  0.60845600  1
  O  O90  1  0.21416400  0.21387200  0.29062900  1
  O  O91  1  0.21304200  0.21582700  0.49082500  1
  O  O92  1  0.21263100  0.21574400  0.69095600  1
  O  O93  1  0.21224400  0.21473000  0.89122200  1
  O  O94  1  0.21902500  0.22423500  0.80868600  1
  O  O95  1  0.08406400  0.48686100  0.15075000  1
  O  O96  1  0.07308700  0.49106800  0.34982900  1
  O  O97  1  0.07375900  0.49204400  0.54994200  1
  O  O98  1  0.07473500  0.49138900  0.75007300  1
  O  O99  1  0.07281700  0.49154500  0.95028200  1
