# generated using pymatgen
data_K2HS2NO6
_symmetry_space_group_name_H-M   'P 1'
_cell_length_a   7.40328940
_cell_length_b   7.40328940
_cell_length_c   7.32874595
_cell_angle_alpha   88.94636649
_cell_angle_beta   88.94636649
_cell_angle_gamma   61.56636830
_symmetry_Int_Tables_number   1
_chemical_formula_structural   K2HS2NO6
_chemical_formula_sum   'K4 H2 S4 N2 O12'
_cell_volume   353.14323046
_cell_formula_units_Z   2
loop_
 _symmetry_equiv_pos_site_id
 _symmetry_equiv_pos_as_xyz
  1  'x, y, z'
loop_
 _atom_site_type_symbol
 _atom_site_label
 _atom_site_symmetry_multiplicity
 _atom_site_fract_x
 _atom_site_fract_y
 _atom_site_fract_z
 _atom_site_occupancy
  K  K0  1  0.70200800  0.99260500  0.85720400  1
  K  K1  1  0.00351400  0.29913100  0.64527400  1
  K  K2  1  0.99260500  0.70200800  0.35720400  1
  K  K3  1  0.29913100  0.00351400  0.14527400  1
  H  H4  1  0.50602800  0.44317300  0.67690100  1
  H  H5  1  0.44317300  0.50602800  0.17690100  1
  S  S6  1  0.22313400  0.57621600  0.85871700  1
  S  S7  1  0.42170100  0.78063100  0.63695400  1
  S  S8  1  0.57621600  0.22313400  0.35871700  1
  S  S9  1  0.78063100  0.42170100  0.13695400  1
  N  N10  1  0.42826100  0.57476200  0.75206700  1
  N  N11  1  0.57476200  0.42826100  0.25206700  1
  O  O12  1  0.83368000  0.28199900  0.98162000  1
  O  O13  1  0.29998200  0.35930200  0.90664900  1
  O  O14  1  0.34543700  0.94591500  0.77209600  1
  O  O15  1  0.04839900  0.65452200  0.73296300  1
  O  O16  1  0.63708700  0.70497800  0.58562800  1
  O  O17  1  0.71054100  0.18079200  0.51742900  1
  O  O18  1  0.28199900  0.83368000  0.48162000  1
  O  O19  1  0.35930200  0.29998200  0.40664900  1
  O  O20  1  0.94591500  0.34543700  0.27209600  1
  O  O21  1  0.65452200  0.04839900  0.23296300  1
  O  O22  1  0.70497800  0.63708700  0.08562800  1
  O  O23  1  0.18079200  0.71054100  0.01742900  1
