# generated using pymatgen
data_GdTi2CdO6F
_symmetry_space_group_name_H-M   'P 1'
_cell_length_a   7.24135117
_cell_length_b   7.24135117
_cell_length_c   7.24135117
_cell_angle_alpha   120.96721418
_cell_angle_beta   118.53085446
_cell_angle_gamma   90.44808928
_symmetry_Int_Tables_number   1
_chemical_formula_structural   GdTi2CdO6F
_chemical_formula_sum   'Gd2 Ti4 Cd2 O12 F2'
_cell_volume   269.35845544
_cell_formula_units_Z   2
loop_
 _symmetry_equiv_pos_site_id
 _symmetry_equiv_pos_as_xyz
  1  'x, y, z'
loop_
 _atom_site_type_symbol
 _atom_site_label
 _atom_site_symmetry_multiplicity
 _atom_site_fract_x
 _atom_site_fract_y
 _atom_site_fract_z
 _atom_site_occupancy
  Gd  Gd0  1  0.00000000  0.00000000  0.00000000  1
  Gd  Gd1  1  0.50000000  0.00000000  0.50000000  1
  Ti  Ti2  1  0.50000000  0.50000000  0.00000000  1
  Ti  Ti3  1  0.00000000  0.50000000  0.50000000  1
  Ti  Ti4  1  0.00000000  0.00000000  0.50000000  1
  Ti  Ti5  1  0.00000000  0.50000000  0.00000000  1
  Cd  Cd6  1  0.50000000  0.50000000  0.50000000  1
  Cd  Cd7  1  0.50000000  0.00000000  0.00000000  1
  O  O8  1  0.92790900  0.58489800  0.75874400  1
  O  O9  1  0.91611800  0.16611800  0.75000000  1
  O  O10  1  0.32615400  0.58489800  0.15698900  1
  O  O11  1  0.92790900  0.16916500  0.34301100  1
  O  O12  1  0.32646800  0.57646800  0.75000000  1
  O  O13  1  0.32615400  0.16916500  0.74125600  1
  O  O14  1  0.67353200  0.42353200  0.25000000  1
  O  O15  1  0.67384600  0.83083500  0.25874400  1
  O  O16  1  0.07209100  0.83083500  0.65698900  1
  O  O17  1  0.67384600  0.41510200  0.84301100  1
  O  O18  1  0.07209100  0.41510200  0.24125600  1
  O  O19  1  0.08388200  0.83388200  0.25000000  1
  F  F20  1  0.37265100  0.12265100  0.25000000  1
  F  F21  1  0.62734900  0.87734900  0.75000000  1
