# generated using pymatgen
data_NaLa2Ti2MnO9
_symmetry_space_group_name_H-M   'P 1'
_cell_length_a   5.53269743
_cell_length_b   5.53269743
_cell_length_c   13.59577483
_cell_angle_alpha   89.74804128
_cell_angle_beta   89.74804128
_cell_angle_gamma   60.31359983
_symmetry_Int_Tables_number   1
_chemical_formula_structural   NaLa2Ti2MnO9
_chemical_formula_sum   'Na2 La4 Ti4 Mn2 O18'
_cell_volume   361.54849012
_cell_formula_units_Z   2
loop_
 _symmetry_equiv_pos_site_id
 _symmetry_equiv_pos_as_xyz
  1  'x, y, z'
loop_
 _atom_site_type_symbol
 _atom_site_label
 _atom_site_symmetry_multiplicity
 _atom_site_fract_x
 _atom_site_fract_y
 _atom_site_fract_z
 _atom_site_occupancy
  Na  Na0  1  0.66600400  0.66629000  0.33456700  1
  Na  Na1  1  0.33371000  0.33399600  0.66543300  1
  La  La2  1  0.00113800  0.99886200  0.00000000  1
  La  La3  1  0.00074800  0.99925200  0.50000000  1
  La  La4  1  0.66587800  0.66350900  0.83124100  1
  La  La5  1  0.33649100  0.33412200  0.16875900  1
  Ti  Ti6  1  0.00892000  0.99631600  0.25268000  1
  Ti  Ti7  1  0.67331700  0.66227000  0.58307600  1
  Ti  Ti8  1  0.33773100  0.32668300  0.41692400  1
  Ti  Ti9  1  0.00368400  0.99108000  0.74732000  1
  Mn  Mn10  1  0.33004000  0.33480600  0.91412800  1
  Mn  Mn11  1  0.66519400  0.66996000  0.08587200  1
  O  O12  1  0.14303500  0.70877300  0.35427300  1
  O  O13  1  0.55947700  0.44052300  0.50000000  1
  O  O14  1  0.03251700  0.48551900  0.51827000  1
  O  O15  1  0.62312300  0.19034400  0.31390600  1
  O  O16  1  0.80965600  0.37687700  0.68609400  1
  O  O17  1  0.10985900  0.22490800  0.33455300  1
  O  O18  1  0.22516000  0.08846700  0.83684300  1
  O  O19  1  0.51448100  0.96748300  0.48173000  1
  O  O20  1  0.71473100  0.14692800  0.85335000  1
  O  O21  1  0.29122700  0.85696500  0.64572700  1
  O  O22  1  0.48176600  0.04116100  0.02044600  1
  O  O23  1  0.77509200  0.89014100  0.66544700  1
  O  O24  1  0.91153300  0.77484000  0.16315700  1
  O  O25  1  0.17108500  0.63830700  0.81280800  1
  O  O26  1  0.36169300  0.82891500  0.18719200  1
  O  O27  1  0.95883900  0.51823400  0.97955400  1
  O  O28  1  0.44079900  0.55920100  0.00000000  1
  O  O29  1  0.85307200  0.28526900  0.14665000  1
