# generated using pymatgen
data_Ba20Y10Cu(Ru3O20)3
_symmetry_space_group_name_H-M   'P 1'
_cell_length_a   5.96972906
_cell_length_b   11.97234425
_cell_length_c   59.80977026
_cell_angle_alpha   60.01107950
_cell_angle_beta   60.06272252
_cell_angle_gamma   60.08997033
_symmetry_Int_Tables_number   1
_chemical_formula_structural   Ba20Y10Cu(Ru3O20)3
_chemical_formula_sum   'Ba40 Y20 Cu2 Ru18 O120'
_cell_volume   3026.40845535
_cell_formula_units_Z   2
loop_
 _symmetry_equiv_pos_site_id
 _symmetry_equiv_pos_as_xyz
  1  'x, y, z'
loop_
 _atom_site_type_symbol
 _atom_site_label
 _atom_site_symmetry_multiplicity
 _atom_site_fract_x
 _atom_site_fract_y
 _atom_site_fract_z
 _atom_site_occupancy
  Ba  Ba0  1  0.25231012  0.12543587  0.02445200  1
  Ba  Ba1  1  0.24995712  0.12477184  0.12505503  1
  Ba  Ba2  1  0.25608202  0.62916989  0.02294848  1
  Ba  Ba3  1  0.25010050  0.12515617  0.22494832  1
  Ba  Ba4  1  0.25039910  0.62517855  0.12488410  1
  Ba  Ba5  1  0.75038917  0.37637962  0.07464522  1
  Ba  Ba6  1  0.75015160  0.37494465  0.17498053  1
  Ba  Ba7  1  0.24999275  0.12513436  0.32497464  1
  Ba  Ba8  1  0.25004759  0.62507707  0.22497439  1
  Ba  Ba9  1  0.75177179  0.87443777  0.07475746  1
  Ba  Ba10  1  0.24996557  0.12505551  0.42499586  1
  Ba  Ba11  1  0.25006949  0.62504386  0.32497760  1
  Ba  Ba12  1  0.75007241  0.37496385  0.27499315  1
  Ba  Ba13  1  0.75001907  0.87488069  0.17501981  1
  Ba  Ba14  1  0.75004893  0.37488467  0.37501421  1
  Ba  Ba15  1  0.24987721  0.12505880  0.52501362  1
  Ba  Ba16  1  0.24997476  0.62501022  0.42500299  1
  Ba  Ba17  1  0.75006677  0.87500669  0.27498596  1
  Ba  Ba18  1  0.24946954  0.12364002  0.62537835  1
  Ba  Ba19  1  0.74997533  0.87497457  0.37501064  1
  Ba  Ba20  1  0.74992123  0.37486346  0.47504203  1
  Ba  Ba21  1  0.25000718  0.62512326  0.52497468  1
  Ba  Ba22  1  0.24823038  0.62546802  0.62526066  1
  Ba  Ba23  1  0.74997466  0.87494305  0.47501583  1
  Ba  Ba24  1  0.74997041  0.37519327  0.57496712  1
  Ba  Ba25  1  0.25402874  0.11589705  0.72601531  1
  Ba  Ba26  1  0.24933269  0.12523109  0.82508765  1
  Ba  Ba27  1  0.74774919  0.37448720  0.67555177  1
  Ba  Ba28  1  0.74957401  0.87480970  0.57512309  1
  Ba  Ba29  1  0.23890780  0.62948798  0.72632012  1
  Ba  Ba30  1  0.25608871  0.11730392  0.92532073  1
  Ba  Ba31  1  0.74367740  0.87083474  0.67709625  1
  Ba  Ba32  1  0.25548678  0.62752133  0.82339900  1
  Ba  Ba33  1  0.74376530  0.38286447  0.77467400  1
  Ba  Ba34  1  0.24069304  0.63035880  0.92579000  1
  Ba  Ba35  1  0.75065801  0.37476993  0.87491437  1
  Ba  Ba36  1  0.75953713  0.86951131  0.77419021  1
  Ba  Ba37  1  0.74611580  0.38392728  0.97399169  1
  Ba  Ba38  1  0.74464086  0.87252096  0.87656931  1
  Ba  Ba39  1  0.76079741  0.87061272  0.97371873  1
  Y  Y40  1  0.00540567  0.99852031  0.99921456  1
  Y  Y41  1  0.00091969  0.00056770  0.09970265  1
  Y  Y42  1  0.00064458  0.50458013  0.99895567  1
  Y  Y43  1  0.00013034  0.00015766  0.19994175  1
  Y  Y44  1  0.00158963  0.50044893  0.09959237  1
  Y  Y45  1  0.00005001  0.00001062  0.29998741  1
  Y  Y46  1  0.00038950  0.50003874  0.19991416  1
  Y  Y47  1  0.00003987  0.99999374  0.39999295  1
  Y  Y48  1  0.00002439  0.50004883  0.29998573  1
  Y  Y49  1  0.00000984  0.50003137  0.39999089  1
  Y  Y50  1  0.99966514  -0.00000505  0.50006769  1
  Y  Y51  1  0.99834440  0.99955088  0.60042053  1
  Y  Y52  1  0.99993002  0.49987861  0.50003857  1
  Y  Y53  1  0.00414669  0.99767113  0.79963629  1
  Y  Y54  1  0.99448356  0.50147881  0.70080822  1
  Y  Y55  1  0.99930299  0.99530832  0.70107767  1
  Y  Y56  1  0.99907360  0.49936305  0.60031308  1
  Y  Y57  1  0.00008646  0.99580060  0.90082311  1
  Y  Y58  1  0.99987143  0.50432904  0.79915976  1
  Y  Y59  1  0.99594513  0.50224741  0.90036073  1
  Cu  Cu60  1  0.49984388  0.75003622  0.75002206  1
  Cu  Cu61  1  0.50012167  0.74995087  0.94999048  1
  Ru  Ru62  1  0.50121960  0.25059896  0.04964583  1
  Ru  Ru63  1  0.50033856  0.75030652  0.04987350  1
  Ru  Ru64  1  0.50032917  0.25001411  0.14993261  1
  Ru  Ru65  1  0.49996098  0.25002119  0.25000483  1
  Ru  Ru66  1  0.50002562  0.74996535  0.15000692  1
  Ru  Ru67  1  0.50002593  0.25002463  0.34998446  1
  Ru  Ru68  1  0.50000589  0.74997587  0.25000208  1
  Ru  Ru69  1  0.50020275  0.24999266  0.44996193  1
  Ru  Ru70  1  0.50002661  0.75002473  0.34998409  1
  Ru  Ru71  1  0.50014994  0.75003633  0.44996579  1
  Ru  Ru72  1  0.49976715  0.25003391  0.55003880  1
  Ru  Ru73  1  0.50003194  0.75012060  0.54996296  1
  Ru  Ru74  1  0.49890630  0.24947750  0.65033000  1
  Ru  Ru75  1  0.50007412  0.24976180  0.75003143  1
  Ru  Ru76  1  0.49966994  0.74974916  0.65011857  1
  Ru  Ru77  1  0.49985735  0.24994306  0.85003446  1
  Ru  Ru78  1  0.49979690  0.25011711  0.95001690  1
  Ru  Ru79  1  0.49987186  0.74992728  0.85003504  1
  O  O80  1  0.26509211  0.13245250  0.07361451  1
  O  O81  1  0.26334071  0.36617896  0.02685402  1
  O  O82  1  0.73382490  0.13211155  0.02681266  1
  O  O83  1  0.26581939  0.36607843  0.07362043  1
  O  O84  1  0.73385717  0.13245407  0.07361494  1
  O  O85  1  0.73576372  0.36618052  0.02685351  1
  O  O86  1  0.26476211  0.63253264  0.07373510  1
  O  O87  1  0.26272771  0.86754864  0.02704531  1
  O  O88  1  0.26492638  0.13259569  0.17350801  1
  O  O89  1  0.26487517  0.36718120  0.12655831  1
  O  O90  1  0.73268205  0.63174468  0.02711474  1
  O  O91  1  0.73461008  0.13245967  0.12658541  1
  O  O92  1  0.26438814  0.86711573  0.07369965  1
  O  O93  1  0.26529443  0.36707965  0.17352595  1
  O  O94  1  0.73480185  0.13259040  0.17350897  1
  O  O95  1  0.73518541  0.36717612  0.12655891  1
  O  O96  1  0.73282739  0.63253410  0.07373499  1
  O  O97  1  0.73171962  0.86754920  0.02704525  1
  O  O98  1  0.26455223  0.86730224  0.12663313  1
  O  O99  1  0.26486196  0.36733058  0.22656006  1
  O  O100  1  0.26477796  0.63261202  0.17354075  1
  O  O101  1  0.26486367  0.13259086  0.27350511  1
  O  O102  1  0.73467151  0.13253076  0.22655889  1
  O  O103  1  0.73456186  0.63236629  0.12661393  1
  O  O104  1  0.26497529  0.86730212  0.17354505  1
  O  O105  1  0.26508806  0.36734982  0.27351254  1
  O  O106  1  0.73451052  0.86729795  0.12663450  1
  O  O107  1  0.73490306  0.13258711  0.27350614  1
  O  O108  1  0.73486968  0.36732629  0.22656109  1
  O  O109  1  0.73459556  0.63260638  0.17354155  1
  O  O110  1  0.26489992  0.13259169  0.37348016  1
  O  O111  1  0.26493371  0.36739856  0.32652127  1
  O  O112  1  0.26483870  0.63260546  0.27350722  1
  O  O113  1  0.26482778  0.86732647  0.22655870  1
  O  O114  1  0.73483812  0.13257671  0.32651730  1
  O  O115  1  0.73468112  0.63254895  0.22655344  1
  O  O116  1  0.26512706  0.36745181  0.37348432  1
  O  O117  1  0.26510246  0.86733833  0.27351214  1
  O  O118  1  0.73510909  0.13259021  0.37348045  1
  O  O119  1  0.73493110  0.86732221  0.22655972  1
  O  O120  1  0.73505611  0.36739441  0.32652204  1
  O  O121  1  0.73487760  0.63260248  0.27350790  1
  O  O122  1  0.26506094  0.13263847  0.47344445  1
  O  O123  1  0.26488967  0.63260842  0.37348048  1
  O  O124  1  0.26496493  0.86738246  0.32652087  1
  O  O125  1  0.26509793  0.36741051  0.42649323  1
  O  O126  1  0.73492730  0.13265083  0.42648389  1
  O  O127  1  0.26524675  0.36751536  0.47344832  1
  O  O128  1  0.73482735  0.63259191  0.32651623  1
  O  O129  1  0.26513573  0.86743721  0.37348526  1
  O  O130  1  0.73521897  0.13263906  0.47344463  1
  O  O131  1  0.73506788  0.86737715  0.32652170  1
  O  O132  1  0.73514029  0.36741081  0.42649350  1
  O  O133  1  0.73507975  0.63260680  0.37348066  1
  O  O134  1  0.26471225  0.13276668  0.57345206  1
  O  O135  1  0.26515726  0.36742189  0.52648895  1
  O  O136  1  0.26499941  0.63264216  0.47344587  1
  O  O137  1  0.26512602  0.86739514  0.42649118  1
  O  O138  1  0.26527429  0.36759529  0.57342679  1
  O  O139  1  0.73491677  0.63265929  0.42648442  1
  O  O140  1  0.26523780  0.86749782  0.47345361  1
  O  O141  1  0.73475740  0.13289119  0.52646981  1
  O  O142  1  0.73523376  0.13276745  0.57345255  1
  O  O143  1  0.73511173  0.36742227  0.52648886  1
  O  O144  1  0.73525380  0.63264355  0.47344588  1
  O  O145  1  0.73516437  0.86739699  0.42649129  1
  O  O146  1  0.26397417  0.13368000  0.67317649  1
  O  O147  1  0.26585985  0.36768239  0.62635855  1
  O  O148  1  0.26537858  0.63264507  0.57337699  1
  O  O149  1  0.26536512  0.86740604  0.52645600  1
  O  O150  1  0.73448736  0.13376161  0.62634993  1
  O  O151  1  0.26532263  0.86768602  0.57339852  1
  O  O152  1  0.26586257  0.36803419  0.67322044  1
  O  O153  1  0.73507363  0.63267017  0.52645060  1
  O  O154  1  0.73690488  0.13368014  0.67317651  1
  O  O155  1  0.73556095  0.63264551  0.57337716  1
  O  O156  1  0.73526490  0.86740642  0.52645616  1
  O  O157  1  0.73518472  0.36768054  0.62635908  1
  O  O158  1  0.26807090  0.63235418  0.67297472  1
  O  O159  1  0.26699583  0.86755203  0.62624564  1
  O  O160  1  0.26521471  0.13389806  0.77341977  1
  O  O161  1  0.26840349  0.36619235  0.72640113  1
  O  O162  1  0.26710834  0.86836264  0.67290548  1
  O  O163  1  0.73579502  0.63279761  0.62628065  1
  O  O164  1  0.26644419  0.36587839  0.77353612  1
  O  O165  1  0.73410812  0.13435272  0.72630657  1
  O  O166  1  0.73747839  0.63234942  0.67297553  1
  O  O167  1  0.73544356  0.86755005  0.62624609  1
  O  O168  1  0.73278501  0.13389382  0.77342097  1
  O  O169  1  0.73520010  0.36618836  0.72640219  1
  O  O170  1  0.26411251  0.13341002  0.87332399  1
  O  O171  1  0.26408150  0.63092543  0.77379703  1
  O  O172  1  0.26414787  0.36660566  0.82667358  1
  O  O173  1  0.26498948  0.86914144  0.72610162  1
  O  O174  1  0.26638554  0.36677632  0.87336792  1
  O  O175  1  0.73364069  0.13321292  0.82662943  1
  O  O176  1  0.73917010  0.63079020  0.72600900  1
  O  O177  1  0.26050000  0.86991338  0.77391772  1
  O  O178  1  0.73582174  0.13340667  0.87332475  1
  O  O179  1  0.73590098  0.36660397  0.82667405  1
  O  O180  1  0.73610254  0.63092175  0.77379689  1
  O  O181  1  0.73571765  0.86913739  0.72610140  1
  O  O182  1  0.26505334  0.13394356  0.97357253  1
  O  O183  1  0.26772458  0.63270862  0.87322533  1
  O  O184  1  0.26736645  0.36602822  0.92659450  1
  O  O185  1  0.26529963  0.86733977  0.82676689  1
  O  O186  1  0.26613458  0.36552295  0.97366835  1
  O  O187  1  0.73374329  0.63217562  0.82681585  1
  O  O188  1  0.26632746  0.86778307  0.87317846  1
  O  O189  1  0.73340669  0.13419711  0.92647869  1
  O  O190  1  0.73133215  0.13394247  0.97357282  1
  O  O191  1  0.73462566  0.36602855  0.92659532  1
  O  O192  1  0.73460238  0.63270746  0.87322639  1
  O  O193  1  0.73235205  0.86733591  0.82676749  1
  O  O194  1  0.26506586  0.63124782  0.97382174  1
  O  O195  1  0.26461930  0.86870594  0.92628028  1
  O  O196  1  0.26148025  0.86889004  0.97392645  1
  O  O197  1  0.73889020  0.63038230  0.92614500  1
  O  O198  1  0.73422053  0.63124619  0.97382174  1
  O  O199  1  0.73516641  0.86870649  0.92627948  1
