# generated using pymatgen
data_CaAs3F15
_symmetry_space_group_name_H-M   'P 1'
_cell_length_a   10.31744886
_cell_length_b   10.68439012
_cell_length_c   22.11127884
_cell_angle_alpha   89.98092746
_cell_angle_beta   90.00014916
_cell_angle_gamma   89.99671836
_symmetry_Int_Tables_number   1
_chemical_formula_structural   CaAs3F15
_chemical_formula_sum   'Ca8 As24 F120'
_cell_volume   2437.45102889
_cell_formula_units_Z   8
loop_
 _symmetry_equiv_pos_site_id
 _symmetry_equiv_pos_as_xyz
  1  'x, y, z'
loop_
 _atom_site_type_symbol
 _atom_site_label
 _atom_site_symmetry_multiplicity
 _atom_site_fract_x
 _atom_site_fract_y
 _atom_site_fract_z
 _atom_site_occupancy
  Ca  Ca0  1  0.24983991  0.38751838  0.43419400  1
  Ca  Ca1  1  0.24990389  0.37984595  0.93460884  1
  Ca  Ca2  1  0.24986074  0.87796528  0.31174940  1
  Ca  Ca3  1  0.25006085  0.88043980  0.81468302  1
  Ca  Ca4  1  0.74991131  0.61926615  0.06435046  1
  Ca  Ca5  1  0.74988889  0.62323715  0.56449918  1
  Ca  Ca6  1  0.75008785  0.12023401  0.18524051  1
  Ca  Ca7  1  0.74991487  0.11898484  0.68371740  1
  As  As8  1  0.00662871  0.31661263  0.57872415  1
  As  As9  1  0.00663157  0.31673245  0.07909037  1
  As  As10  1  0.00596536  0.81646796  0.17060277  1
  As  As11  1  0.00728280  0.81632158  0.67115165  1
  As  As12  1  0.24975358  0.99698205  0.50463650  1
  As  As13  1  0.26954021  0.00168850  0.99831340  1
  As  As14  1  0.26982191  0.50142948  0.25098279  1
  As  As15  1  0.26965273  0.50197044  0.75142111  1
  As  As16  1  0.49288324  0.31612187  0.07907059  1
  As  As17  1  0.49329867  0.31636648  0.57844341  1
  As  As18  1  0.49355231  0.81592778  0.17066864  1
  As  As19  1  0.49227969  0.81601610  0.67090864  1
  As  As20  1  0.50535378  0.18308266  0.32944822  1
  As  As21  1  0.50671414  0.18330203  0.82900463  1
  As  As22  1  0.50683741  0.68499547  0.42054199  1
  As  As23  1  0.50630487  0.68341329  0.92081628  1
  As  As24  1  0.74995009  0.99553759  0.50413336  1
  As  As25  1  0.76973779  0.99814600  0.00137148  1
  As  As26  1  0.76984746  0.49828884  0.24848056  1
  As  As27  1  0.76956856  0.49811372  0.74818183  1
  As  As28  1  0.99424878  0.18340165  0.32964403  1
  As  As29  1  0.99308759  0.68528843  0.42078342  1
  As  As30  1  0.99276272  0.18383870  0.82895961  1
  As  As31  1  0.99320212  0.68402415  0.92084087  1
  F  F32  1  0.08746942  0.25108575  0.27240052  1
  F  F33  1  0.08766537  0.75318062  0.47815055  1
  F  F34  1  0.08598733  0.25200209  0.77165985  1
  F  F35  1  0.08580940  0.75196909  0.97837074  1
  F  F36  1  0.09744221  0.39098696  0.63430967  1
  F  F37  1  0.09563453  0.39178407  0.13512568  1
  F  F38  1  0.09554245  0.89169015  0.11482263  1
  F  F39  1  0.09829682  0.89169921  0.61487632  1
  F  F40  1  0.10010034  0.04817630  0.32606506  1
  F  F41  1  0.09824886  0.55066909  0.42498612  1
  F  F42  1  0.09716130  0.54897499  0.92529336  1
  F  F43  1  0.09704129  0.04889574  0.82479653  1
  F  F44  1  0.10142024  0.24758936  0.38686459  1
  F  F45  1  0.10135461  0.75078121  0.36455540  1
  F  F46  1  0.09893632  0.74868727  0.86422836  1
  F  F47  1  0.09875171  0.24847116  0.88578338  1
  F  F48  1  0.10371031  0.18178487  0.58319156  1
  F  F49  1  0.10183930  0.18229237  0.08425639  1
  F  F50  1  0.10186646  0.68243221  0.16584623  1
  F  F51  1  0.10342204  0.68256585  0.66598481  1
  F  F52  1  0.11092297  0.38364901  0.52134508  1
  F  F53  1  0.10871829  0.38507489  0.02213363  1
  F  F54  1  0.10834434  0.88548016  0.22766933  1
  F  F55  1  0.10992866  0.88498104  0.72794792  1
  F  F56  1  0.25020524  0.15306813  0.48117092  1
  F  F57  1  0.24988940  0.94661709  0.42940755  1
  F  F58  1  0.24245222  0.16180371  0.97757974  1
  F  F59  1  0.24079389  0.95038087  0.92194962  1
  F  F60  1  0.24046604  0.45051288  0.32760777  1
  F  F61  1  0.24221758  0.66135866  0.27210954  1
  F  F62  1  0.24063009  0.45039774  0.82794933  1
  F  F63  1  0.24240783  0.66173024  0.77256974  1
  F  F64  1  0.39047588  0.38411793  0.02220021  1
  F  F65  1  0.38854820  0.38375295  0.52154188  1
  F  F66  1  0.39081928  0.88446278  0.22765941  1
  F  F67  1  0.38990734  0.88395772  0.72806347  1
  F  F68  1  0.39442913  0.18384188  0.08548423  1
  F  F69  1  0.39559801  0.18216092  0.58319739  1
  F  F70  1  0.39440909  0.68397583  0.16469031  1
  F  F71  1  0.39378225  0.68354065  0.66478456  1
  F  F72  1  0.39961915  0.24829914  0.88569504  1
  F  F73  1  0.39751578  0.24820487  0.38627497  1
  F  F74  1  0.39810310  0.74988721  0.36405330  1
  F  F75  1  0.39945635  0.74835708  0.86433710  1
  F  F76  1  0.40047346  0.04716877  0.32658982  1
  F  F77  1  0.40283330  0.04761731  0.82594106  1
  F  F78  1  0.40109493  0.55028123  0.42444284  1
  F  F79  1  0.40279240  0.54759802  0.92421587  1
  F  F80  1  0.40549444  0.39333628  0.13533353  1
  F  F81  1  0.40336850  0.39124216  0.63459319  1
  F  F82  1  0.40560161  0.89327646  0.11467032  1
  F  F83  1  0.40199496  0.89299558  0.61499115  1
  F  F84  1  0.41024313  0.24766228  0.27170461  1
  F  F85  1  0.41140919  0.24820257  0.77134755  1
  F  F86  1  0.41193940  0.75282720  0.47778707  1
  F  F87  1  0.41158680  0.74811173  0.97870384  1
  F  F88  1  0.43760066  0.51100927  0.26139822  1
  F  F89  1  0.43760468  0.51109326  0.76153958  1
  F  F90  1  0.43764855  0.01112350  0.98852660  1
  F  F91  1  0.56410583  0.99047881  0.50953675  1
  F  F92  1  0.58592908  0.24806504  0.02172413  1
  F  F93  1  0.58705656  0.25306400  0.52072262  1
  F  F94  1  0.58572253  0.74803335  0.22830444  1
  F  F95  1  0.58506462  0.74795391  0.72833000  1
  F  F96  1  0.59355449  0.10774791  0.38528369  1
  F  F97  1  0.59558964  0.10819781  0.88513521  1
  F  F98  1  0.59330629  0.60678437  0.36442612  1
  F  F99  1  0.59564754  0.60819044  0.86495664  1
  F  F100  1  0.59706627  0.45104127  0.07486640  1
  F  F101  1  0.59510109  0.45308544  0.57522125  1
  F  F102  1  0.59727362  0.95095784  0.17515721  1
  F  F103  1  0.59519833  0.95100383  0.67524860  1
  F  F104  1  0.59883507  0.25140954  0.13588059  1
  F  F105  1  0.59741623  0.25147678  0.63545687  1
  F  F106  1  0.59903717  0.75119416  0.11409230  1
  F  F107  1  0.59729453  0.75190883  0.61422765  1
  F  F108  1  0.60051748  0.31769674  0.33441685  1
  F  F109  1  0.60181402  0.31775857  0.83420703  1
  F  F110  1  0.60398426  0.81657991  0.41350841  1
  F  F111  1  0.60184632  0.81764262  0.91587693  1
  F  F112  1  0.60734406  0.11471100  0.27228420  1
  F  F113  1  0.60868852  0.11500207  0.77209339  1
  F  F114  1  0.60652972  0.61548457  0.47768882  1
  F  F115  1  0.60863363  0.61486212  0.97796316  1
  F  F116  1  0.74998635  0.05060975  0.58229652  1
  F  F117  1  0.74064529  0.04969960  0.07792147  1
  F  F118  1  0.74245714  0.33819520  0.22767874  1
  F  F119  1  0.74073846  0.54975849  0.17204264  1
  F  F120  1  0.74244210  0.83818180  0.02250611  1
  F  F121  1  0.74241466  0.33803335  0.72725829  1
  F  F122  1  0.75008986  0.82991457  0.52349592  1
  F  F123  1  0.74091059  0.54981851  0.67179205  1
  F  F124  1  0.89283206  0.61537751  0.47750911  1
  F  F125  1  0.89248318  0.11572182  0.27213013  1
  F  F126  1  0.89046607  0.11596139  0.77212261  1
  F  F127  1  0.89059148  0.61585933  0.97791183  1
  F  F128  1  0.89652320  0.31654129  0.33566676  1
  F  F129  1  0.89525305  0.81620241  0.41355934  1
  F  F130  1  0.89440950  0.31616447  0.83540669  1
  F  F131  1  0.89439592  0.81613634  0.91468023  1
  F  F132  1  0.89955061  0.25167862  0.13575034  1
  F  F133  1  0.90206393  0.25231008  0.63592514  1
  F  F134  1  0.89932347  0.75142859  0.11416302  1
  F  F135  1  0.90159147  0.75132640  0.61486690  1
  F  F136  1  0.90285367  0.45241796  0.07592544  1
  F  F137  1  0.90427530  0.45346544  0.57574277  1
  F  F138  1  0.90261423  0.95226103  0.17400522  1
  F  F139  1  0.90539074  0.95204286  0.67470214  1
  F  F140  1  0.90668688  0.10644757  0.38520487  1
  F  F141  1  0.90752620  0.60662205  0.36413718  1
  F  F142  1  0.90549075  0.10661175  0.88528534  1
  F  F143  1  0.90553322  0.60667476  0.86476425  1
  F  F144  1  0.91148951  0.25192225  0.02138701  1
  F  F145  1  0.91254419  0.25342183  0.52107648  1
  F  F146  1  0.91168009  0.75187070  0.22862165  1
  F  F147  1  0.91275718  0.75143342  0.72902786  1
  F  F148  1  0.93600123  0.99042957  0.50948681  1
  F  F149  1  0.93768831  0.98886079  0.01159369  1
  F  F150  1  0.93784170  0.48886372  0.23833651  1
  F  F151  1  0.93770067  0.48876508  0.73837157  1
