# generated using pymatgen
data_Fe35O36
_symmetry_space_group_name_H-M   'P 1'
_cell_length_a   9.26692400
_cell_length_b   9.74757562
_cell_length_c   9.78287202
_cell_angle_alpha   101.60802340
_cell_angle_beta   108.55050249
_cell_angle_gamma   108.06411201
_symmetry_Int_Tables_number   1
_chemical_formula_structural   Fe35O36
_chemical_formula_sum   'Fe35 O36'
_cell_volume   751.10789581
_cell_formula_units_Z   1
loop_
 _symmetry_equiv_pos_site_id
 _symmetry_equiv_pos_as_xyz
  1  'x, y, z'
loop_
 _atom_site_type_symbol
 _atom_site_label
 _atom_site_symmetry_multiplicity
 _atom_site_fract_x
 _atom_site_fract_y
 _atom_site_fract_z
 _atom_site_occupancy
  Fe  Fe0  1  0.66524100  0.24929800  0.24591100  1
  Fe  Fe1  1  0.99628100  0.50185300  0.49829000  1
  Fe  Fe2  1  0.88969200  0.16326800  0.49993000  1
  Fe  Fe3  1  0.22428100  0.41518400  0.75043400  1
  Fe  Fe4  1  0.99559300  0.24315000  0.23706900  1
  Fe  Fe5  1  0.10257200  0.07792400  0.75457100  1
  Fe  Fe6  1  0.33707700  0.50215200  0.49982100  1
  Fe  Fe7  1  0.44831500  0.33457300  0.99908500  1
  Fe  Fe8  1  0.22116200  0.16649600  0.50307700  1
  Fe  Fe9  1  0.31879100  0.23715300  0.24321500  1
  Fe  Fe10  1  0.44476900  0.08496300  0.75069800  1
  Fe  Fe11  1  0.55359500  0.41639600  0.74802700  1
  Fe  Fe12  1  0.68163600  0.76012900  0.75448400  1
  Fe  Fe13  1  0.55499400  0.16676300  0.49788000  1
  Fe  Fe14  1  0.66533200  0.49899000  0.50218600  1
  Fe  Fe15  1  0.88663200  0.67766300  0.00025700  1
  Fe  Fe16  1  0.77357100  0.33794100  0.99772600  1
  Fe  Fe17  1  0.78075700  0.08394400  0.75898100  1
  Fe  Fe18  1  0.89250100  0.41815600  0.75192400  1
  Fe  Fe19  1  0.00461200  0.75830300  0.76360200  1
  Fe  Fe20  1  0.11039700  0.58142900  0.24947200  1
  Fe  Fe21  1  0.21522000  0.91700300  0.23803500  1
  Fe  Fe22  1  0.11092400  0.32258200  0.99839900  1
  Fe  Fe23  1  0.22611100  0.66269500  0.00021800  1
  Fe  Fe24  1  0.32833600  0.00335700  0.99954000  1
  Fe  Fe25  1  0.44377200  0.83175300  0.50091400  1
  Fe  Fe26  1  0.32970800  0.74782000  0.75167700  1
  Fe  Fe27  1  0.44419700  0.58065900  0.24917700  1
  Fe  Fe28  1  0.55258800  0.91816800  0.24725000  1
  Fe  Fe29  1  0.55410800  0.66811800  0.00200800  1
  Fe  Fe30  1  0.67531500  0.99568100  0.00010400  1
  Fe  Fe31  1  0.77598700  0.83017800  0.49444400  1
  Fe  Fe32  1  0.77789200  0.58221000  0.24898600  1
  Fe  Fe33  1  0.89920300  0.92419200  0.24757100  1
  Fe  Fe34  1  0.11407300  0.83613000  0.50433100  1
  O  O35  1  0.45143500  0.08837200  0.26420200  1
  O  O36  1  0.66195100  0.00772800  0.50537800  1
  O  O37  1  0.77655600  0.08349800  0.25696400  1
  O  O38  1  0.11740800  0.33958200  0.50082000  1
  O  O39  1  0.99986500  0.99781900  0.49824100  1
  O  O40  1  0.24488700  0.18059900  0.00270500  1
  O  O41  1  0.11416600  0.08817000  0.26111200  1
  O  O42  1  0.45443700  0.58564200  0.75522600  1
  O  O43  1  0.33041300  0.24262900  0.75282800  1
  O  O44  1  0.44910500  0.32236100  0.49615300  1
  O  O45  1  0.56060000  0.16764200  0.00511600  1
  O  O46  1  0.66013700  0.49232600  0.99877800  1
  O  O47  1  0.65731700  0.24866700  0.73326700  1
  O  O48  1  0.78103500  0.57695200  0.74681600  1
  O  O49  1  0.00564300  0.73795300  0.25656800  1
  O  O50  1  0.90452600  0.42689200  0.25184800  1
  O  O51  1  0.76225200  0.32022400  0.49399300  1
  O  O52  1  0.88324500  0.18202700  0.99684200  1
  O  O53  1  0.00404700  0.50824800  0.01620600  1
  O  O54  1  0.12083800  0.82135300  0.00193500  1
  O  O55  1  0.21320400  0.66006500  0.48115200  1
  O  O56  1  0.11567400  0.58502600  0.74599000  1
  O  O57  1  0.99398400  0.25310000  0.74317000  1
  O  O58  1  0.33056800  0.74309100  0.25574600  1
  O  O59  1  0.21462600  0.42662700  0.24813900  1
  O  O60  1  0.32665100  0.49574800  0.99323400  1
  O  O61  1  0.44320800  0.84233000  0.00043800  1
  O  O62  1  0.55045200  0.66107500  0.50124200  1
  O  O63  1  0.66604000  0.75138700  0.24469500  1
  O  O64  1  0.55645400  0.42045300  0.25108100  1
  O  O65  1  0.88179400  0.91331900  0.73676700  1
  O  O66  1  0.77032600  0.82781600  0.00142900  1
  O  O67  1  0.88976300  0.66677800  0.50553800  1
  O  O68  1  0.21946000  0.91511400  0.74359900  1
  O  O69  1  0.34326700  0.01036400  0.49136100  1
  O  O70  1  0.54354600  0.91338800  0.74430100  1
