# generated using pymatgen
data_K4ZrH10C8O21
_symmetry_space_group_name_H-M   'P 1'
_cell_length_a   11.08178547
_cell_length_b   12.63443768
_cell_length_c   16.53605499
_cell_angle_alpha   90.00000000
_cell_angle_beta   96.55791583
_cell_angle_gamma   90.00000000
_symmetry_Int_Tables_number   1
_chemical_formula_structural   K4ZrH10C8O21
_chemical_formula_sum   'K16 Zr4 H40 C32 O84'
_cell_volume   2300.09939049
_cell_formula_units_Z   4
loop_
 _symmetry_equiv_pos_site_id
 _symmetry_equiv_pos_as_xyz
  1  'x, y, z'
loop_
 _atom_site_type_symbol
 _atom_site_label
 _atom_site_symmetry_multiplicity
 _atom_site_fract_x
 _atom_site_fract_y
 _atom_site_fract_z
 _atom_site_occupancy
  K  K0  1  0.50514910  0.57674945  0.81659446  1
  K  K1  1  0.49485090  0.07674945  0.68340554  1
  K  K2  1  0.49485090  0.42325055  0.18340554  1
  K  K3  1  0.50514910  0.92325055  0.31659446  1
  K  K4  1  0.86630922  0.34667568  0.76084240  1
  K  K5  1  0.13369078  0.84667568  0.73915760  1
  K  K6  1  0.13369078  0.65332432  0.23915760  1
  K  K7  1  0.86630922  0.15332332  0.26084240  1
  K  K8  1  0.59723232  0.15999207  0.09282674  1
  K  K9  1  0.40276768  0.65999207  0.40717326  1
  K  K10  1  0.40276768  0.84000793  0.90717326  1
  K  K11  1  0.59723232  0.34000793  0.59282674  1
  K  K12  1  0.01627103  0.73767343  0.00579230  1
  K  K13  1  0.98372897  0.23767343  0.49420770  1
  K  K14  1  0.98372897  0.26232657  0.99420770  1
  K  K15  1  0.01627103  0.76232657  0.50579230  1
  Zr  Zr16  1  0.25065653  0.34404909  0.82758185  1
  Zr  Zr17  1  0.74934347  0.84404909  0.67241815  1
  Zr  Zr18  1  0.74934347  0.65595091  0.17241815  1
  Zr  Zr19  1  0.25065653  0.15595091  0.32758185  1
  H  H20  1  0.89508680  0.38813241  0.34140154  1
  H  H21  1  0.10491320  0.88813241  0.15859846  1
  H  H22  1  0.10491320  0.61186759  0.65859846  1
  H  H23  1  0.89508680  0.11186759  0.84140154  1
  H  H24  1  0.78923673  0.37021475  0.39714182  1
  H  H25  1  0.21076327  0.87021475  0.10285818  1
  H  H26  1  0.21076327  0.62978525  0.60285818  1
  H  H27  1  0.78923673  0.12978525  0.89714182  1
  H  H28  1  0.68020003  0.20489841  0.77636513  1
  H  H29  1  0.31979997  0.70489841  0.72363487  1
  H  H30  1  0.31979997  0.79510159  0.22363487  1
  H  H31  1  0.68020003  0.29510159  0.27636513  1
  H  H32  1  0.63063024  0.32393543  0.77642492  1
  H  H33  1  0.36936976  0.82393543  0.72357508  1
  H  H34  1  0.36936976  0.67606457  0.22357508  1
  H  H35  1  0.63063024  0.17606457  0.27642492  1
  H  H36  1  0.17518711  0.50403027  0.50358817  1
  H  H37  1  0.82481289  0.00403027  0.99641183  1
  H  H38  1  0.82481289  0.49596973  0.49641183  1
  H  H39  1  0.17518711  0.99596973  0.00358817  1
  H  H40  1  0.09542192  0.55521339  0.43157220  1
  H  H41  1  0.90457808  0.05521339  0.06842780  1
  H  H42  1  0.90457808  0.44478661  0.56842780  1
  H  H43  1  0.09542192  0.94478661  0.93157220  1
  H  H44  1  0.55939789  0.05326473  0.91581938  1
  H  H45  1  0.44060211  0.55326473  0.58418062  1
  H  H46  1  0.44060211  0.94673527  0.08418062  1
  H  H47  1  0.55939789  0.44673527  0.41581938  1
  H  H48  1  0.48615269  0.15458637  0.88528163  1
  H  H49  1  0.51384731  0.65458637  0.61471837  1
  H  H50  1  0.51384731  0.84541363  0.11471837  1
  H  H51  1  0.48615269  0.34541363  0.38528163  1
  H  H52  1  0.26974957  0.63129836  0.01352336  1
  H  H53  1  0.73025043  0.13129836  0.48647664  1
  H  H54  1  0.73025043  0.36870164  0.98647664  1
  H  H55  1  0.26974957  0.86870164  0.51352336  1
  H  H56  1  0.25459109  0.58529178  0.10095125  1
  H  H57  1  0.74540891  0.08529178  0.39904875  1
  H  H58  1  0.74540891  0.41470822  0.89904875  1
  H  H59  1  0.25459109  0.91470822  0.60095125  1
  C  C60  1  0.17052811  0.38795933  0.64678173  1
  C  C61  1  0.82947189  0.88795933  0.85321827  1
  C  C62  1  0.82947189  0.61204067  0.35321827  1
  C  C63  1  0.17052811  0.11204067  0.14678173  1
  C  C64  1  0.31015478  0.40556520  0.65750439  1
  C  C65  1  0.68984522  0.90556520  0.84249561  1
  C  C66  1  0.68984522  0.59443480  0.34249561  1
  C  C67  1  0.31015478  0.09443480  0.15750439  1
  C  C68  1  0.44009329  0.35687958  0.97568647  1
  C  C69  1  0.55990671  0.85687958  0.52431353  1
  C  C70  1  0.55990671  0.64312042  0.02431353  1
  C  C71  1  0.44009329  0.14312042  0.47568647  1
  C  C72  1  0.31782084  0.33498392  0.01131447  1
  C  C73  1  0.68217916  0.83498392  0.48868553  1
  C  C74  1  0.68217916  0.66501608  0.98868553  1
  C  C75  1  0.31782084  0.16501608  0.51131447  1
  C  C76  1  0.17347048  0.58117728  0.86015797  1
  C  C77  1  0.82652952  0.08117728  0.63984203  1
  C  C78  1  0.82652952  0.41882272  0.13984203  1
  C  C79  1  0.17347048  0.91882272  0.36015797  1
  C  C80  1  0.05271460  0.51675949  0.87425057  1
  C  C81  1  0.94728540  0.01675949  0.62574943  1
  C  C82  1  0.94728540  0.48324051  0.12574943  1
  C  C83  1  0.05271460  0.98324051  0.37425057  1
  C  C84  1  0.11286950  0.13292288  0.82297126  1
  C  C85  1  0.88713050  0.63292288  0.67702874  1
  C  C86  1  0.88713050  0.86707712  0.17702874  1
  C  C87  1  0.11286950  0.36707712  0.32297126  1
  C  C88  1  0.24758182  0.10292915  0.81692989  1
  C  C89  1  0.75241818  0.60292915  0.68307011  1
  C  C90  1  0.75241818  0.89707085  0.18307011  1
  C  C91  1  0.24758182  0.39707085  0.31692989  1
  O  O92  1  0.12737046  0.36448964  0.71440120  1
  O  O93  1  0.87262954  0.86448964  0.78559880  1
  O  O94  1  0.87262954  0.63551036  0.28559880  1
  O  O95  1  0.12737046  0.13551036  0.21440120  1
  O  O96  1  0.10990302  0.39715835  0.57920157  1
  O  O97  1  0.89009698  0.89715835  0.92079843  1
  O  O98  1  0.89009698  0.60284165  0.42079843  1
  O  O99  1  0.10990302  0.10284165  0.07920157  1
  O  O100  1  0.36134143  0.38686823  0.73046498  1
  O  O101  1  0.63865857  0.88686823  0.76953502  1
  O  O102  1  0.63865857  0.61313177  0.26953502  1
  O  O103  1  0.36134143  0.11313177  0.23046498  1
  O  O104  1  0.36216757  0.43645129  0.59916830  1
  O  O105  1  0.63783243  0.93645129  0.90083170  1
  O  O106  1  0.63783243  0.56354871  0.40083170  1
  O  O107  1  0.36216757  0.06354871  0.09916830  1
  O  O108  1  0.42728762  0.36730290  0.89699988  1
  O  O109  1  0.57271238  0.86730290  0.60300012  1
  O  O110  1  0.57271238  0.63269710  0.10300012  1
  O  O111  1  0.42728762  0.13269710  0.39699988  1
  O  O112  1  0.53682509  0.36091400  0.02135152  1
  O  O113  1  0.46317491  0.86091400  0.47864848  1
  O  O114  1  0.46317491  0.63908600  0.97864848  1
  O  O115  1  0.53682509  0.13908600  0.52135152  1
  O  O116  1  0.22387387  0.33542295  0.95497514  1
  O  O117  1  0.77612613  0.83542295  0.54502486  1
  O  O118  1  0.77612613  0.66457705  0.04502486  1
  O  O119  1  0.22387387  0.16457705  0.45497514  1
  O  O120  1  0.31483972  0.31624423  0.08402568  1
  O  O121  1  0.68516028  0.81624423  0.41597432  1
  O  O122  1  0.68516028  0.68375577  0.91597432  1
  O  O123  1  0.31483972  0.18375577  0.58402568  1
  O  O124  1  0.25486041  0.52072714  0.83677387  1
  O  O125  1  0.74513959  0.02072714  0.66322613  1
  O  O126  1  0.74513959  0.47927286  0.16322613  1
  O  O127  1  0.25486041  0.97927286  0.33677387  1
  O  O128  1  0.17373185  0.67784181  0.87054229  1
  O  O129  1  0.82626815  0.17784181  0.62945771  1
  O  O130  1  0.82626815  0.32215819  0.12945771  1
  O  O131  1  0.17373185  0.82215819  0.37054229  1
  O  O132  1  0.66330562  0.42500703  0.82135979  1
  O  O133  1  0.33669438  0.92500703  0.67864021  1
  O  O134  1  0.33669438  0.57499297  0.17864021  1
  O  O135  1  0.66330562  0.07499297  0.32135979  1
  O  O136  1  0.96126514  0.55379192  0.89245047  1
  O  O137  1  0.03873486  0.05379192  0.60754953  1
  O  O138  1  0.03873486  0.44620808  0.10754953  1
  O  O139  1  0.96126514  0.94620808  0.39245047  1
  O  O140  1  0.09511033  0.23323179  0.83278176  1
  O  O141  1  0.90488967  0.73323179  0.66721824  1
  O  O142  1  0.90488967  0.76676821  0.16721824  1
  O  O143  1  0.09511033  0.26676821  0.33278176  1
  O  O144  1  0.03364538  0.06265007  0.81960118  1
  O  O145  1  0.96635462  0.56265007  0.68039882  1
  O  O146  1  0.96635462  0.93734993  0.18039882  1
  O  O147  1  0.03364538  0.43734993  0.31960118  1
  O  O148  1  0.31862771  0.18556983  0.81519243  1
  O  O149  1  0.68137229  0.68556983  0.68480757  1
  O  O150  1  0.68137229  0.81443017  0.18480757  1
  O  O151  1  0.31862771  0.31443017  0.31519243  1
  O  O152  1  0.27988282  0.00985587  0.81536537  1
  O  O153  1  0.72011718  0.50985587  0.68463463  1
  O  O154  1  0.72011718  0.99014413  0.18463463  1
  O  O155  1  0.27988282  0.49014413  0.31536537  1
  O  O156  1  0.17591990  0.65729983  0.65018997  1
  O  O157  1  0.82408010  0.15729983  0.84981003  1
  O  O158  1  0.82408010  0.34270017  0.34981003  1
  O  O159  1  0.17591990  0.84270017  0.15018997  1
  O  O160  1  0.37834243  0.75138836  0.75520886  1
  O  O161  1  0.62165757  0.25138836  0.74479114  1
  O  O162  1  0.62165757  0.24861164  0.24479114  1
  O  O163  1  0.37834243  0.74861164  0.25520886  1
  O  O164  1  0.16561353  0.93014800  0.97158673  1
  O  O165  1  0.83438647  0.43014800  0.52841327  1
  O  O166  1  0.83438647  0.06985200  0.02841327  1
  O  O167  1  0.16561353  0.56985200  0.47158673  1
  O  O168  1  0.46697652  0.62341686  0.56701600  1
  O  O169  1  0.53302348  0.12341686  0.93298400  1
  O  O170  1  0.53302348  0.37658314  0.43298400  1
  O  O171  1  0.46697652  0.87658314  0.06701600  1
  O  O172  1  0.20607797  0.60851470  0.04578424  1
  O  O173  1  0.79392203  0.10851470  0.45421576  1
  O  O174  1  0.79392203  0.39148530  0.95421576  1
  O  O175  1  0.20607797  0.89148530  0.54578424  1
