# generated using pymatgen
data_MgH12SO9
_symmetry_space_group_name_H-M   'P 1'
_cell_length_a   4.89642600
_cell_length_b   6.29926619
_cell_length_c   6.82065972
_cell_angle_alpha   116.18874453
_cell_angle_beta   92.08965843
_cell_angle_gamma   90.86519988
_symmetry_Int_Tables_number   1
_chemical_formula_structural   MgH12SO9
_chemical_formula_sum   'Mg1 H12 S1 O9'
_cell_volume   188.53988281
_cell_formula_units_Z   1
loop_
 _symmetry_equiv_pos_site_id
 _symmetry_equiv_pos_as_xyz
  1  'x, y, z'
loop_
 _atom_site_type_symbol
 _atom_site_label
 _atom_site_symmetry_multiplicity
 _atom_site_fract_x
 _atom_site_fract_y
 _atom_site_fract_z
 _atom_site_occupancy
  Mg  Mg0  1  0.98422100  0.21564200  0.57516600  1
  H  H1  1  0.44275600  0.13634200  0.43362500  1
  H  H2  1  0.41232300  0.55774200  0.49379900  1
  H  H3  1  0.39642600  0.46016900  0.89921200  1
  H  H4  1  0.74781600  0.25730600  0.22087300  1
  H  H5  1  0.10960700  0.63317700  0.47361900  1
  H  H6  1  0.55074200  0.78144300  0.17828900  1
  H  H7  1  0.14100800  0.37735600  0.97741200  1
  H  H8  1  0.92348000  0.74251600  0.96108400  1
  H  H9  1  0.71381900  0.58637500  0.20373900  1
  H  H10  1  0.17875200  0.15738800  0.08232100  1
  H  H11  1  0.19742600  0.28324500  0.16786400  1
  H  H12  1  0.31471800  0.88434700  0.42512400  1
  S  S13  1  0.69762200  0.90665900  0.79217500  1
  O  O14  1  0.29327400  0.63186200  0.42076000  1
  O  O15  1  0.82639600  0.36772300  0.37585200  1
  O  O16  1  0.62839300  0.35770900  0.53311900  1
  O  O17  1  0.20122800  0.40808800  0.85663900  1
  O  O18  1  0.65796100  0.14597400  0.97825100  1
  O  O19  1  0.67157500  0.65055800  0.09909800  1
  O  O20  1  0.81124900  0.94716200  0.60531600  1
  O  O21  1  0.98077000  0.81240300  0.86227200  1
  O  O22  1  0.27801800  0.01797400  0.38438900  1
