# generated using pymatgen
data_HgH2C6(NCl2)2
_symmetry_space_group_name_H-M   'P 1'
_cell_length_a   10.97837500
_cell_length_b   6.60903900
_cell_length_c   20.96866939
_cell_angle_alpha   79.18891419
_cell_angle_beta   90.00000000
_cell_angle_gamma   90.00000000
_symmetry_Int_Tables_number   1
_chemical_formula_structural   HgH2C6(NCl2)2
_chemical_formula_sum   'Hg4 H8 C24 N8 Cl16'
_cell_volume   1494.40983775
_cell_formula_units_Z   4
loop_
 _symmetry_equiv_pos_site_id
 _symmetry_equiv_pos_as_xyz
  1  'x, y, z'
loop_
 _atom_site_type_symbol
 _atom_site_label
 _atom_site_symmetry_multiplicity
 _atom_site_fract_x
 _atom_site_fract_y
 _atom_site_fract_z
 _atom_site_occupancy
  Hg  Hg0  1  0.26554100  0.12288200  0.16864200  1
  Hg  Hg1  1  0.76554100  0.87711800  0.33135800  1
  Hg  Hg2  1  0.73445900  0.87711800  0.83135800  1
  Hg  Hg3  1  0.23445900  0.12288200  0.66864200  1
  H  H4  1  0.73465300  0.44059900  0.94978800  1
  H  H5  1  0.23465300  0.55940100  0.55021200  1
  H  H6  1  0.26534700  0.55940100  0.05021200  1
  H  H7  1  0.76534700  0.44059900  0.44978800  1
  H  H8  1  0.34929700  0.61144200  0.66591000  1
  H  H9  1  0.84929700  0.38855800  0.83409000  1
  H  H10  1  0.65070300  0.38855800  0.33409000  1
  H  H11  1  0.15070300  0.61144200  0.16591000  1
  C  C12  1  0.75183200  0.20825200  0.04266500  1
  C  C13  1  0.25183200  0.79174800  0.45733500  1
  C  C14  1  0.24816800  0.79174800  0.95733500  1
  C  C15  1  0.74816800  0.20825200  0.54266500  1
  C  C16  1  0.74082900  0.00581200  0.05090500  1
  C  C17  1  0.24082900  0.99418800  0.44909500  1
  C  C18  1  0.25917100  0.99418800  0.94909500  1
  C  C19  1  0.75917100  0.00581200  0.55090500  1
  C  C20  1  0.76346900  0.43534200  0.05625700  1
  C  C21  1  0.26346900  0.56465800  0.44374300  1
  C  C22  1  0.23653100  0.56465800  0.94374300  1
  C  C23  1  0.73653100  0.43534200  0.55625700  1
  C  C24  1  0.47587300  0.44545300  0.76741700  1
  C  C25  1  0.97587300  0.55454700  0.73258300  1
  C  C26  1  0.52412700  0.55454700  0.23258300  1
  C  C27  1  0.02412700  0.44545300  0.26741700  1
  C  C28  1  0.44819300  0.41873300  0.82768000  1
  C  C29  1  0.94819300  0.58126700  0.67232000  1
  C  C30  1  0.55180700  0.58126700  0.17232000  1
  C  C31  1  0.05180700  0.41873300  0.32768000  1
  C  C32  1  0.55452500  0.53879400  0.65376300  1
  C  C33  1  0.05452500  0.46120600  0.84623700  1
  C  C34  1  0.44547500  0.46120600  0.34623700  1
  C  C35  1  0.94547500  0.53879400  0.15376300  1
  N  N36  1  0.74843400  0.39438200  0.99902100  1
  N  N37  1  0.24843400  0.60561800  0.50097900  1
  N  N38  1  0.25156600  0.60561800  0.00097900  1
  N  N39  1  0.75156600  0.39438200  0.49902100  1
  N  N40  1  0.52135000  0.49980600  0.70986600  1
  N  N41  1  0.02135000  0.50019400  0.79013400  1
  N  N42  1  0.47865000  0.50019400  0.29013400  1
  N  N43  1  0.97865000  0.49980600  0.20986600  1
  Cl  Cl44  1  0.26769300  0.63298800  0.15830600  1
  Cl  Cl45  1  0.76769300  0.36701200  0.34169400  1
  Cl  Cl46  1  0.73230700  0.36701200  0.84169400  1
  Cl  Cl47  1  0.23230700  0.63298800  0.65830600  1
  Cl  Cl48  1  0.40262500  0.19320000  0.07956500  1
  Cl  Cl49  1  0.90262500  0.80680000  0.42043500  1
  Cl  Cl50  1  0.59737500  0.80680000  0.92043500  1
  Cl  Cl51  1  0.09737500  0.19320000  0.57956500  1
  Cl  Cl52  1  0.07649500  0.20927400  0.08808500  1
  Cl  Cl53  1  0.57649500  0.79072600  0.41191500  1
  Cl  Cl54  1  0.92350500  0.79072600  0.91191500  1
  Cl  Cl55  1  0.42350500  0.20927400  0.58808500  1
  Cl  Cl56  1  0.20255700  0.05300900  0.27858600  1
  Cl  Cl57  1  0.70255700  0.94699100  0.22141400  1
  Cl  Cl58  1  0.79744300  0.94699100  0.72141400  1
  Cl  Cl59  1  0.29744300  0.05300900  0.77858600  1
