# generated using pymatgen
data_Tb2C3
_symmetry_space_group_name_H-M   'P 1'
_cell_length_a   7.17817800
_cell_length_b   7.17817800
_cell_length_c   7.17817800
_cell_angle_alpha   109.47122063
_cell_angle_beta   109.47122063
_cell_angle_gamma   109.47122063
_symmetry_Int_Tables_number   1
_chemical_formula_structural   Tb2C3
_chemical_formula_sum   'Tb8 C12'
_cell_volume   284.72183865
_cell_formula_units_Z   4
loop_
 _symmetry_equiv_pos_site_id
 _symmetry_equiv_pos_as_xyz
  1  'x, y, z'
loop_
 _atom_site_type_symbol
 _atom_site_label
 _atom_site_symmetry_multiplicity
 _atom_site_fract_x
 _atom_site_fract_y
 _atom_site_fract_z
 _atom_site_occupancy
  Tb  Tb0  1  0.50000000  0.00000000  0.60138800  1
  Tb  Tb1  1  0.10138800  0.50000000  0.00000000  1
  Tb  Tb2  1  0.39861200  0.39861200  0.39861200  1
  Tb  Tb3  1  0.00000000  0.10138800  0.50000000  1
  Tb  Tb4  1  0.89861200  0.89861200  0.89861200  1
  Tb  Tb5  1  0.00000000  0.60138800  0.50000000  1
  Tb  Tb6  1  0.60138800  0.50000000  0.00000000  1
  Tb  Tb7  1  0.50000000  0.00000000  0.10138800  1
  C  C8  1  0.79428800  0.25000000  0.04428800  1
  C  C9  1  0.95571200  0.25000000  0.20571200  1
  C  C10  1  0.75000000  0.29428800  0.54428800  1
  C  C11  1  0.20571200  0.95571200  0.25000000  1
  C  C12  1  0.25000000  0.20571200  0.95571200  1
  C  C13  1  0.29428800  0.54428800  0.75000000  1
  C  C14  1  0.70571200  0.75000000  0.45571200  1
  C  C15  1  0.04428800  0.79428800  0.25000000  1
  C  C16  1  0.54428800  0.75000000  0.29428800  1
  C  C17  1  0.75000000  0.45571200  0.70571200  1
  C  C18  1  0.25000000  0.04428800  0.79428800  1
  C  C19  1  0.45571200  0.70571200  0.75000000  1
