# generated using pymatgen
data_Ni2P4C11S2(OF8)3
_symmetry_space_group_name_H-M   'P 1'
_cell_length_a   10.59161400
_cell_length_b   14.41495200
_cell_length_c   19.00835500
_cell_angle_alpha   90.00000000
_cell_angle_beta   90.00000000
_cell_angle_gamma   90.00000000
_symmetry_Int_Tables_number   1
_chemical_formula_structural   Ni2P4C11S2(OF8)3
_chemical_formula_sum   'Ni8 P16 C44 S8 O12 F96'
_cell_volume   2902.15016225
_cell_formula_units_Z   4
loop_
 _symmetry_equiv_pos_site_id
 _symmetry_equiv_pos_as_xyz
  1  'x, y, z'
loop_
 _atom_site_type_symbol
 _atom_site_label
 _atom_site_symmetry_multiplicity
 _atom_site_fract_x
 _atom_site_fract_y
 _atom_site_fract_z
 _atom_site_occupancy
  Ni  Ni0  1  0.00847300  0.20228400  0.18198100  1
  Ni  Ni1  1  0.00847300  0.79771600  0.68198100  1
  Ni  Ni2  1  0.99152700  0.20228400  0.31801900  1
  Ni  Ni3  1  0.49152700  0.70228400  0.18198100  1
  Ni  Ni4  1  0.50847300  0.29771600  0.81801900  1
  Ni  Ni5  1  0.99152700  0.79771600  0.81801900  1
  Ni  Ni6  1  0.49152700  0.29771600  0.68198100  1
  Ni  Ni7  1  0.50847300  0.70228400  0.31801900  1
  P  P8  1  0.13933600  0.90216300  0.83660200  1
  P  P9  1  0.29941600  0.35188800  0.68019200  1
  P  P10  1  0.20058400  0.85188800  0.68019200  1
  P  P11  1  0.79941600  0.14811200  0.31980800  1
  P  P12  1  0.36066400  0.40216300  0.83660200  1
  P  P13  1  0.20058400  0.14811200  0.18019200  1
  P  P14  1  0.13933600  0.09783700  0.33660200  1
  P  P15  1  0.86066400  0.90216300  0.66339800  1
  P  P16  1  0.70058400  0.35188800  0.81980800  1
  P  P17  1  0.79941600  0.85188800  0.81980800  1
  P  P18  1  0.63933600  0.40216300  0.66339800  1
  P  P19  1  0.29941600  0.64811200  0.18019200  1
  P  P20  1  0.86066400  0.09783700  0.16339800  1
  P  P21  1  0.70058400  0.64811200  0.31980800  1
  P  P22  1  0.36066400  0.59783700  0.33660200  1
  P  P23  1  0.63933600  0.59783700  0.16339800  1
  C  C24  1  0.82335000  0.74645100  0.32388100  1
  C  C25  1  0.00000000  0.69919600  0.75000000  1
  C  C26  1  0.25009100  0.36990900  0.91320600  1
  C  C27  1  0.82335000  0.25354900  0.82388100  1
  C  C28  1  0.32335000  0.24645100  0.17611900  1
  C  C29  1  0.89298500  0.97310800  0.13280800  1
  C  C30  1  0.17665000  0.25354900  0.67611900  1
  C  C31  1  0.50231500  0.22299600  0.60703700  1
  C  C32  1  0.74990900  0.63009100  0.08679400  1
  C  C33  1  0.49768500  0.22299600  0.89296300  1
  C  C34  1  0.23499300  0.42225500  0.60195400  1
  C  C35  1  0.00231500  0.72299600  0.89296300  1
  C  C36  1  0.67665000  0.75354900  0.82388100  1
  C  C37  1  0.39298500  0.47310800  0.36719200  1
  C  C38  1  0.76500700  0.57774500  0.39804600  1
  C  C39  1  0.73499300  0.92225500  0.89804600  1
  C  C40  1  0.67665000  0.24645100  0.32388100  1
  C  C41  1  0.32335000  0.75354900  0.67611900  1
  C  C42  1  0.74990900  0.36990900  0.58679400  1
  C  C43  1  0.50000000  0.19919600  0.75000000  1
  C  C44  1  0.89298500  0.02689200  0.63280800  1
  C  C45  1  0.73499300  0.07774500  0.39804600  1
  C  C46  1  0.75009100  0.13009100  0.08679400  1
  C  C47  1  0.60701500  0.47310800  0.13280800  1
  C  C48  1  0.49768500  0.77700400  0.39296300  1
  C  C49  1  0.39298500  0.52689200  0.86719200  1
  C  C50  1  0.10701500  0.02689200  0.86719200  1
  C  C51  1  0.50000000  0.80080400  0.25000000  1
  C  C52  1  0.23499300  0.57774500  0.10195400  1
  C  C53  1  0.99768500  0.72299600  0.60703700  1
  C  C54  1  0.00000000  0.30080400  0.25000000  1
  C  C55  1  0.75009100  0.86990900  0.58679400  1
  C  C56  1  0.50231500  0.77700400  0.10703700  1
  C  C57  1  0.24990900  0.86990900  0.91320600  1
  C  C58  1  0.24990900  0.13009100  0.41320600  1
  C  C59  1  0.26500700  0.07774500  0.10195400  1
  C  C60  1  0.10701500  0.97310800  0.36719200  1
  C  C61  1  0.25009100  0.63009100  0.41320600  1
  C  C62  1  0.17665000  0.74645100  0.17611900  1
  C  C63  1  0.60701500  0.52689200  0.63280800  1
  C  C64  1  0.76500700  0.42225500  0.89804600  1
  C  C65  1  0.99768500  0.27700400  0.10703700  1
  C  C66  1  0.26500700  0.92225500  0.60195400  1
  C  C67  1  0.00231500  0.27700400  0.39296300  1
  S  S68  1  0.21968600  0.56592000  0.26098500  1
  S  S69  1  0.21968600  0.43408000  0.76098500  1
  S  S70  1  0.71968600  0.93408000  0.73901500  1
  S  S71  1  0.78031400  0.43408000  0.73901500  1
  S  S72  1  0.28031400  0.06592000  0.26098500  1
  S  S73  1  0.28031400  0.93408000  0.76098500  1
  S  S74  1  0.71968600  0.06592000  0.23901500  1
  S  S75  1  0.78031400  0.56592000  0.23901500  1
  O  O76  1  0.49542600  0.82553600  0.44141100  1
  O  O77  1  0.00000000  0.61748900  0.75000000  1
  O  O78  1  0.50000000  0.11748900  0.75000000  1
  O  O79  1  0.50457400  0.82553600  0.05858900  1
  O  O80  1  0.99542600  0.67446400  0.55858900  1
  O  O81  1  0.00457400  0.32553600  0.44141100  1
  O  O82  1  0.50000000  0.88251100  0.25000000  1
  O  O83  1  0.50457400  0.17446400  0.55858900  1
  O  O84  1  0.00457400  0.67446400  0.94141100  1
  O  O85  1  0.99542600  0.32553600  0.05858900  1
  O  O86  1  0.00000000  0.38251100  0.25000000  1
  O  O87  1  0.49542600  0.17446400  0.94141100  1
  F  F88  1  0.55630300  0.52618400  0.56716700  1
  F  F89  1  0.21180600  0.08129600  0.86859200  1
  F  F90  1  0.11016100  0.55716200  0.10603900  1
  F  F91  1  0.25428600  0.62681400  0.04172500  1
  F  F92  1  0.38983900  0.05716200  0.10603900  1
  F  F93  1  0.19592700  0.71332400  0.39834700  1
  F  F94  1  0.18176400  0.13993500  0.47346000  1
  F  F95  1  0.25428600  0.37318600  0.54172500  1
  F  F96  1  0.21180600  0.91870400  0.36859200  1
  F  F97  1  0.71180600  0.58129600  0.63140800  1
  F  F98  1  0.55630300  0.47381600  0.06716700  1
  F  F99  1  0.20105200  0.99640300  0.09718900  1
  F  F100  1  0.70105200  0.49640300  0.40281100  1
  F  F101  1  0.38983900  0.94283800  0.60603900  1
  F  F102  1  0.20105200  0.00359700  0.59718900  1
  F  F103  1  0.55462000  0.21815000  0.32415500  1
  F  F104  1  0.61016100  0.94283800  0.89396100  1
  F  F105  1  0.69337400  0.69773100  0.76679100  1
  F  F106  1  0.97718000  0.93307500  0.17741200  1
  F  F107  1  0.94369700  0.02618400  0.56716700  1
  F  F108  1  0.19337400  0.19773100  0.73320900  1
  F  F109  1  0.30662600  0.30226900  0.23320900  1
  F  F110  1  0.80407300  0.71332400  0.10165300  1
  F  F111  1  0.05462000  0.28185000  0.67584500  1
  F  F112  1  0.78819400  0.08129600  0.63140800  1
  F  F113  1  0.05462000  0.71815000  0.17584500  1
  F  F114  1  0.31823600  0.63993500  0.47346000  1
  F  F115  1  0.94369700  0.97381600  0.06716700  1
  F  F116  1  0.29894800  0.49640300  0.09718900  1
  F  F117  1  0.55462000  0.78185000  0.82415500  1
  F  F118  1  0.74571400  0.37318600  0.95827500  1
  F  F119  1  0.78819400  0.91870400  0.13140800  1
  F  F120  1  0.84383400  0.56814900  0.07435700  1
  F  F121  1  0.75428600  0.87318600  0.95827500  1
  F  F122  1  0.24571400  0.12681400  0.04172500  1
  F  F123  1  0.05630300  0.02618400  0.93283300  1
  F  F124  1  0.68176400  0.63993500  0.02654000  1
  F  F125  1  0.18176400  0.86006500  0.97346000  1
  F  F126  1  0.69337400  0.30226900  0.26679100  1
  F  F127  1  0.65616600  0.93185100  0.57435700  1
  F  F128  1  0.70105200  0.50359700  0.90281100  1
  F  F129  1  0.84383400  0.43185100  0.57435700  1
  F  F130  1  0.79894800  0.99640300  0.40281100  1
  F  F131  1  0.74571400  0.62681400  0.45827500  1
  F  F132  1  0.80662600  0.80226900  0.26679100  1
  F  F133  1  0.52282000  0.56692500  0.67741200  1
  F  F134  1  0.19337400  0.80226900  0.23320900  1
  F  F135  1  0.44369700  0.47381600  0.43283300  1
  F  F136  1  0.80350100  0.20174600  0.88269400  1
  F  F137  1  0.69649900  0.70174600  0.88269400  1
  F  F138  1  0.02282000  0.93307500  0.32258800  1
  F  F139  1  0.94538000  0.71815000  0.32415500  1
  F  F140  1  0.30350100  0.70174600  0.61730600  1
  F  F141  1  0.97718000  0.06692500  0.67741200  1
  F  F142  1  0.81823600  0.86006500  0.52654000  1
  F  F143  1  0.30350100  0.29825400  0.11730600  1
  F  F144  1  0.47718000  0.43307500  0.32258800  1
  F  F145  1  0.80350100  0.79825400  0.38269400  1
  F  F146  1  0.02282000  0.06692500  0.82258800  1
  F  F147  1  0.19649900  0.79825400  0.11730600  1
  F  F148  1  0.47718000  0.56692500  0.82258800  1
  F  F149  1  0.30407300  0.21332400  0.39834700  1
  F  F150  1  0.79894800  0.00359700  0.90281100  1
  F  F151  1  0.19649900  0.20174600  0.61730600  1
  F  F152  1  0.44538000  0.78185000  0.67584500  1
  F  F153  1  0.31823600  0.36006500  0.97346000  1
  F  F154  1  0.05630300  0.97381600  0.43283300  1
  F  F155  1  0.29894800  0.50359700  0.59718900  1
  F  F156  1  0.71180600  0.41870400  0.13140800  1
  F  F157  1  0.11016100  0.44283800  0.60603900  1
  F  F158  1  0.34383400  0.06814900  0.42564300  1
  F  F159  1  0.69592700  0.21332400  0.10165300  1
  F  F160  1  0.15616600  0.56814900  0.42564300  1
  F  F161  1  0.68176400  0.36006500  0.52654000  1
  F  F162  1  0.94538000  0.28185000  0.82415500  1
  F  F163  1  0.61016100  0.05716200  0.39396100  1
  F  F164  1  0.65616600  0.06814900  0.07435700  1
  F  F165  1  0.88983900  0.55716200  0.39396100  1
  F  F166  1  0.44369700  0.52618400  0.93283300  1
  F  F167  1  0.69649900  0.29825400  0.38269400  1
  F  F168  1  0.88983900  0.44283800  0.89396100  1
  F  F169  1  0.34383400  0.93185100  0.92564300  1
  F  F170  1  0.81823600  0.13993500  0.02654000  1
  F  F171  1  0.28819400  0.58129600  0.86859200  1
  F  F172  1  0.24571400  0.87318600  0.54172500  1
  F  F173  1  0.30407300  0.78667600  0.89834700  1
  F  F174  1  0.19592700  0.28667600  0.89834700  1
  F  F175  1  0.30662600  0.69773100  0.73320900  1
  F  F176  1  0.15616600  0.43185100  0.92564300  1
  F  F177  1  0.80407300  0.28667600  0.60165300  1
  F  F178  1  0.69592700  0.78667600  0.60165300  1
  F  F179  1  0.75428600  0.12681400  0.45827500  1
  F  F180  1  0.44538000  0.21815000  0.17584500  1
  F  F181  1  0.80662600  0.19773100  0.76679100  1
  F  F182  1  0.28819400  0.41870400  0.36859200  1
  F  F183  1  0.52282000  0.43307500  0.17741200  1
