# generated using pymatgen
data_H4NOF
_symmetry_space_group_name_H-M   'P 1'
_cell_length_a   6.54187500
_cell_length_b   9.92067800
_cell_length_c   13.63179800
_cell_angle_alpha   90.00000000
_cell_angle_beta   90.00000000
_cell_angle_gamma   90.00000000
_symmetry_Int_Tables_number   1
_chemical_formula_structural   H4NOF
_chemical_formula_sum   'H64 N16 O16 F16'
_cell_volume   884.70144629
_cell_formula_units_Z   16
loop_
 _symmetry_equiv_pos_site_id
 _symmetry_equiv_pos_as_xyz
  1  'x, y, z'
loop_
 _atom_site_type_symbol
 _atom_site_label
 _atom_site_symmetry_multiplicity
 _atom_site_fract_x
 _atom_site_fract_y
 _atom_site_fract_z
 _atom_site_occupancy
  H  H0  1  0.20266000  0.41481000  0.68610600  1
  H  H1  1  0.70266000  0.58519000  0.81389400  1
  H  H2  1  0.79734000  0.08519000  0.18610600  1
  H  H3  1  0.29734000  0.91481000  0.31389400  1
  H  H4  1  0.79734000  0.58519000  0.31389400  1
  H  H5  1  0.29734000  0.41481000  0.18610600  1
  H  H6  1  0.20266000  0.91481000  0.81389400  1
  H  H7  1  0.70266000  0.08519000  0.68610600  1
  H  H8  1  0.98122000  0.50952000  0.65931300  1
  H  H9  1  0.48122000  0.49048000  0.84068700  1
  H  H10  1  0.01878000  0.99048000  0.15931300  1
  H  H11  1  0.51878000  0.00952000  0.34068700  1
  H  H12  1  0.01878000  0.49048000  0.34068700  1
  H  H13  1  0.51878000  0.50952000  0.15931300  1
  H  H14  1  0.98122000  0.00952000  0.84068700  1
  H  H15  1  0.48122000  0.99048000  0.65931300  1
  H  H16  1  0.10211400  0.52678800  0.76870000  1
  H  H17  1  0.60211400  0.47321200  0.73130000  1
  H  H18  1  0.89788600  0.97321200  0.26870000  1
  H  H19  1  0.39788600  0.02678800  0.23130000  1
  H  H20  1  0.89788600  0.47321200  0.23130000  1
  H  H21  1  0.39788600  0.52678800  0.26870000  1
  H  H22  1  0.10211400  0.02678800  0.73130000  1
  H  H23  1  0.60211400  0.97321200  0.76870000  1
  H  H24  1  0.93403400  0.27995300  0.71031500  1
  H  H25  1  0.43403400  0.72004700  0.78968500  1
  H  H26  1  0.06596600  0.22004700  0.21031500  1
  H  H27  1  0.56596600  0.77995300  0.28968500  1
  H  H28  1  0.06596600  0.72004700  0.28968500  1
  H  H29  1  0.56596600  0.27995300  0.21031500  1
  H  H30  1  0.93403400  0.77995300  0.78968500  1
  H  H31  1  0.43403400  0.22004700  0.71031500  1
  H  H32  1  0.03596200  0.17934400  0.54253100  1
  H  H33  1  0.53596200  0.82065600  0.95746900  1
  H  H34  1  0.96403800  0.32065600  0.04253100  1
  H  H35  1  0.46403800  0.67934400  0.45746900  1
  H  H36  1  0.96403800  0.82065600  0.45746900  1
  H  H37  1  0.46403800  0.17934400  0.04253100  1
  H  H38  1  0.03596200  0.67934400  0.95746900  1
  H  H39  1  0.53596200  0.32065600  0.54253100  1
  H  H40  1  0.12384100  0.28370600  0.44856300  1
  H  H41  1  0.62384100  0.71629400  0.05143700  1
  H  H42  1  0.87615900  0.21629400  0.94856300  1
  H  H43  1  0.37615900  0.78370600  0.55143700  1
  H  H44  1  0.87615900  0.71629400  0.55143700  1
  H  H45  1  0.37615900  0.28370600  0.94856300  1
  H  H46  1  0.12384100  0.78370600  0.05143700  1
  H  H47  1  0.62384100  0.21629400  0.44856300  1
  H  H48  1  0.99275000  0.13993300  0.42239100  1
  H  H49  1  0.49275000  0.86006700  0.07760900  1
  H  H50  1  0.00725000  0.36006700  0.92239100  1
  H  H51  1  0.50725000  0.63993300  0.57760900  1
  H  H52  1  0.00725000  0.86006700  0.57760900  1
  H  H53  1  0.50725000  0.13993300  0.92239100  1
  H  H54  1  0.99275000  0.63993300  0.07760900  1
  H  H55  1  0.49275000  0.36006700  0.42239100  1
  H  H56  1  0.28123600  0.03962800  0.51602900  1
  H  H57  1  0.78123600  0.96037200  0.98397100  1
  H  H58  1  0.71876400  0.46037200  0.01602900  1
  H  H59  1  0.21876400  0.53962800  0.48397100  1
  H  H60  1  0.71876400  0.96037200  0.48397100  1
  H  H61  1  0.21876400  0.03962800  0.01602900  1
  H  H62  1  0.28123600  0.53962800  0.98397100  1
  H  H63  1  0.78123600  0.46037200  0.51602900  1
  N  N64  1  0.06695900  0.45874100  0.71344100  1
  N  N65  1  0.56695900  0.54125900  0.78655900  1
  N  N66  1  0.93304100  0.04125900  0.21344100  1
  N  N67  1  0.43304100  0.95874100  0.28655900  1
  N  N68  1  0.93304100  0.54125900  0.28655900  1
  N  N69  1  0.43304100  0.45874100  0.21344100  1
  N  N70  1  0.06695900  0.95874100  0.78655900  1
  N  N71  1  0.56695900  0.04125900  0.71344100  1
  N  N72  1  0.09666700  0.18352200  0.47063100  1
  N  N73  1  0.59666700  0.81647800  0.02936900  1
  N  N74  1  0.90333300  0.31647800  0.97063100  1
  N  N75  1  0.40333300  0.68352200  0.52936900  1
  N  N76  1  0.90333300  0.81647800  0.52936900  1
  N  N77  1  0.40333300  0.18352200  0.97063100  1
  N  N78  1  0.09666700  0.68352200  0.02936900  1
  N  N79  1  0.59666700  0.31647800  0.47063100  1
  O  O80  1  0.93894000  0.36107200  0.75835900  1
  O  O81  1  0.43894000  0.63892800  0.74164100  1
  O  O82  1  0.06106000  0.13892800  0.25835900  1
  O  O83  1  0.56106000  0.86107200  0.24164100  1
  O  O84  1  0.06106000  0.63892800  0.24164100  1
  O  O85  1  0.56106000  0.36107200  0.25835900  1
  O  O86  1  0.93894000  0.86107200  0.74164100  1
  O  O87  1  0.43894000  0.13892800  0.75835900  1
  O  O88  1  0.28794600  0.11651100  0.46493000  1
  O  O89  1  0.78794600  0.88348900  0.03507000  1
  O  O90  1  0.71205400  0.38348900  0.96493000  1
  O  O91  1  0.21205400  0.61651100  0.53507000  1
  O  O92  1  0.71205400  0.88348900  0.53507000  1
  O  O93  1  0.21205400  0.11651100  0.96493000  1
  O  O94  1  0.28794600  0.61651100  0.03507000  1
  O  O95  1  0.78794600  0.38348900  0.46493000  1
  F  F96  1  0.92179100  0.16080000  0.64974600  1
  F  F97  1  0.42179100  0.83920000  0.85025400  1
  F  F98  1  0.07820900  0.33920000  0.14974600  1
  F  F99  1  0.57820900  0.66080000  0.35025400  1
  F  F100  1  0.07820900  0.83920000  0.35025400  1
  F  F101  1  0.57820900  0.16080000  0.14974600  1
  F  F102  1  0.92179100  0.66080000  0.85025400  1
  F  F103  1  0.42179100  0.33920000  0.64974600  1
  F  F104  1  0.28292200  0.93391800  0.59014400  1
  F  F105  1  0.78292200  0.06608200  0.90985600  1
  F  F106  1  0.71707800  0.56608200  0.09014400  1
  F  F107  1  0.21707800  0.43391800  0.40985600  1
  F  F108  1  0.71707800  0.06608200  0.40985600  1
  F  F109  1  0.21707800  0.93391800  0.09014400  1
  F  F110  1  0.28292200  0.43391800  0.90985600  1
  F  F111  1  0.78292200  0.56608200  0.59014400  1
