# generated using pymatgen
data_MoSCl7O
_symmetry_space_group_name_H-M   'P 1'
_cell_length_a   9.55338200
_cell_length_b   10.02823200
_cell_length_c   12.84673842
_cell_angle_alpha   65.14057817
_cell_angle_beta   90.00000000
_cell_angle_gamma   90.00000000
_symmetry_Int_Tables_number   1
_chemical_formula_structural   MoSCl7O
_chemical_formula_sum   'Mo4 S4 Cl28 O4'
_cell_volume   1116.72284264
_cell_formula_units_Z   4
loop_
 _symmetry_equiv_pos_site_id
 _symmetry_equiv_pos_as_xyz
  1  'x, y, z'
loop_
 _atom_site_type_symbol
 _atom_site_label
 _atom_site_symmetry_multiplicity
 _atom_site_fract_x
 _atom_site_fract_y
 _atom_site_fract_z
 _atom_site_occupancy
  Mo  Mo0  1  0.83850200  0.65604300  0.49839000  1
  Mo  Mo1  1  0.66149800  0.65604300  0.99839000  1
  Mo  Mo2  1  0.16149800  0.34395700  0.50161000  1
  Mo  Mo3  1  0.33850200  0.34395700  0.00161000  1
  S  S4  1  0.73797300  0.21801900  0.48683500  1
  S  S5  1  0.26202700  0.78198100  0.51316500  1
  S  S6  1  0.23797300  0.78198100  0.01316500  1
  S  S7  1  0.76202700  0.21801900  0.98683500  1
  Cl  Cl8  1  0.95497200  0.46662900  0.38563400  1
  Cl  Cl9  1  0.41873100  0.68039800  0.62221400  1
  Cl  Cl10  1  0.50025600  0.83262800  0.86349400  1
  Cl  Cl11  1  0.36280200  0.94500700  0.38250600  1
  Cl  Cl12  1  0.32112700  0.28077700  0.65307300  1
  Cl  Cl13  1  0.99974400  0.83262800  0.36349400  1
  Cl  Cl14  1  0.45497200  0.53337100  0.11436600  1
  Cl  Cl15  1  0.00025600  0.16737200  0.63650600  1
  Cl  Cl16  1  0.58126900  0.31960200  0.37778600  1
  Cl  Cl17  1  0.17887300  0.28077700  0.15307300  1
  Cl  Cl18  1  0.08126900  0.68039800  0.12221400  1
  Cl  Cl19  1  0.49974400  0.16737200  0.13650600  1
  Cl  Cl20  1  0.67887300  0.71922300  0.34692700  1
  Cl  Cl21  1  0.20809000  0.56435900  0.89992100  1
  Cl  Cl22  1  0.86280200  0.05499300  0.11749400  1
  Cl  Cl23  1  0.13719800  0.94500700  0.88250600  1
  Cl  Cl24  1  0.82821600  0.10531000  0.40558000  1
  Cl  Cl25  1  0.91873100  0.31960200  0.87778600  1
  Cl  Cl26  1  0.32821600  0.89469000  0.09442000  1
  Cl  Cl27  1  0.54502800  0.46662900  0.88563400  1
  Cl  Cl28  1  0.04502800  0.53337100  0.61436600  1
  Cl  Cl29  1  0.82112700  0.71922300  0.84692700  1
  Cl  Cl30  1  0.63719800  0.05499300  0.61749400  1
  Cl  Cl31  1  0.67178400  0.10531000  0.90558000  1
  Cl  Cl32  1  0.17178400  0.89469000  0.59442000  1
  Cl  Cl33  1  0.29191000  0.56435900  0.39992100  1
  Cl  Cl34  1  0.70809000  0.43564100  0.60007900  1
  Cl  Cl35  1  0.79191000  0.43564100  0.10007900  1
  O  O36  1  0.21525400  0.24444300  0.43004600  1
  O  O37  1  0.78474600  0.75555700  0.56995400  1
  O  O38  1  0.71525400  0.75555700  0.06995400  1
  O  O39  1  0.28474600  0.24444300  0.93004600  1
