# generated using pymatgen
data_Al3P3H9C3NO14
_symmetry_space_group_name_H-M   'P 1'
_cell_length_a   9.12325116
_cell_length_b   9.12325116
_cell_length_c   8.78119115
_cell_angle_alpha   85.79855486
_cell_angle_beta   85.79855486
_cell_angle_gamma   87.68423986
_symmetry_Int_Tables_number   1
_chemical_formula_structural   Al3P3H9C3NO14
_chemical_formula_sum   'Al6 P6 H18 C6 N2 O28'
_cell_volume   726.51682705
_cell_formula_units_Z   2
loop_
 _symmetry_equiv_pos_site_id
 _symmetry_equiv_pos_as_xyz
  1  'x, y, z'
loop_
 _atom_site_type_symbol
 _atom_site_label
 _atom_site_symmetry_multiplicity
 _atom_site_fract_x
 _atom_site_fract_y
 _atom_site_fract_z
 _atom_site_occupancy
  Al  Al0  1  0.60174200  0.56223800  0.70754700  1
  Al  Al1  1  0.56223800  0.60174200  0.20754700  1
  Al  Al2  1  0.08174400  0.81583000  0.91858900  1
  Al  Al3  1  0.81583000  0.08174400  0.41858900  1
  Al  Al4  1  0.10976000  0.32601100  0.90834300  1
  Al  Al5  1  0.32601100  0.10976000  0.40834300  1
  P  P6  1  0.84031800  0.56178300  0.95817900  1
  P  P7  1  0.56178300  0.84031800  0.45817900  1
  P  P8  1  0.33022600  0.57850000  0.95742100  1
  P  P9  1  0.57850000  0.33022600  0.45742100  1
  P  P10  1  0.05378900  0.08056000  0.67592300  1
  P  P11  1  0.08056000  0.05378900  0.17592300  1
  H  H12  1  0.69167300  0.92335900  0.84484500  1
  H  H13  1  0.92335900  0.69167300  0.34484500  1
  H  H14  1  0.50372400  0.87782600  0.89498700  1
  H  H15  1  0.87782600  0.50372400  0.39498700  1
  H  H16  1  0.95217600  0.40127100  0.60929000  1
  H  H17  1  0.40127100  0.95217600  0.10929000  1
  H  H18  1  0.78332600  0.14443700  0.93444100  1
  H  H19  1  0.63312000  0.27193500  0.90760900  1
  H  H20  1  0.22046700  0.68666800  0.59644800  1
  H  H21  1  0.14443700  0.78332600  0.43444100  1
  H  H22  1  0.27193500  0.63312000  0.40760900  1
  H  H23  1  0.68666800  0.22046700  0.09644800  1
  H  H24  1  0.54525200  0.03209800  0.76476200  1
  H  H25  1  0.03209800  0.54525200  0.26476200  1
  H  H26  1  0.37757000  0.32815600  0.80686500  1
  H  H27  1  0.32815600  0.37757000  0.30686500  1
  H  H28  1  0.30557700  0.20018400  0.72746600  1
  H  H29  1  0.20018400  0.30557700  0.22746600  1
  C  C30  1  0.57921300  0.96787100  0.86792400  1
  C  C31  1  0.96787100  0.57921300  0.36792400  1
  C  C32  1  0.67561200  0.18141100  0.98348500  1
  C  C33  1  0.18141100  0.67561200  0.48348500  1
  C  C34  1  0.04421000  0.47481800  0.61234400  1
  C  C35  1  0.47481800  0.04421000  0.11234400  1
  N  N36  1  0.57480300  0.06070900  0.99631900  1
  N  N37  1  0.06070900  0.57480300  0.49631900  1
  O  O38  1  0.93542800  0.69782700  0.95378500  1
  O  O39  1  0.69782700  0.93542800  0.45378500  1
  O  O40  1  0.93148700  0.41941700  0.97484200  1
  O  O41  1  0.75878100  0.56970300  0.80829500  1
  O  O42  1  0.41941700  0.93148700  0.47484200  1
  O  O43  1  0.56970300  0.75878100  0.30829500  1
  O  O44  1  0.57242300  0.72423300  0.59499100  1
  O  O45  1  0.72423300  0.57242300  0.09499100  1
  O  O46  1  0.62162000  0.40996800  0.59612200  1
  O  O47  1  0.92502600  0.09476800  0.57076900  1
  O  O48  1  0.25225300  0.71878200  0.88987700  1
  O  O49  1  0.44808100  0.52119300  0.83585500  1
  O  O50  1  0.05335000  0.92144900  0.74987000  1
  O  O51  1  0.40996800  0.62162000  0.09612200  1
  O  O52  1  0.09476800  0.92502600  0.07076900  1
  O  O53  1  0.71878200  0.25225300  0.38987700  1
  O  O54  1  0.52119300  0.44808100  0.33585500  1
  O  O55  1  0.92144900  0.05335000  0.24987000  1
  O  O56  1  0.45638900  0.22402900  0.50627000  1
  O  O57  1  0.22402900  0.45638900  0.00627000  1
  O  O58  1  0.31011100  0.24629700  0.82614700  1
  O  O59  1  0.24629700  0.31011100  0.32614700  1
  O  O60  1  0.20288100  0.10964700  0.58788500  1
  O  O61  1  0.10964700  0.20288100  0.08788500  1
  O  O62  1  0.02477700  0.19018100  0.79945300  1
  O  O63  1  0.19018100  0.02477700  0.29945300  1
  O  O64  1  0.12745700  0.46273000  0.72278700  1
  O  O65  1  0.46273000  0.12745700  0.22278700  1
