# generated using pymatgen
data_Eu2Mo5O18
_symmetry_space_group_name_H-M   'P 1'
_cell_length_a   9.53173800
_cell_length_b   9.62478800
_cell_length_c   19.59061200
_cell_angle_alpha   90.00000000
_cell_angle_beta   90.00000000
_cell_angle_gamma   90.00000000
_symmetry_Int_Tables_number   1
_chemical_formula_structural   Eu2Mo5O18
_chemical_formula_sum   'Eu8 Mo20 O72'
_cell_volume   1797.26150331
_cell_formula_units_Z   4
loop_
 _symmetry_equiv_pos_site_id
 _symmetry_equiv_pos_as_xyz
  1  'x, y, z'
loop_
 _atom_site_type_symbol
 _atom_site_label
 _atom_site_symmetry_multiplicity
 _atom_site_fract_x
 _atom_site_fract_y
 _atom_site_fract_z
 _atom_site_occupancy
  Eu  Eu0  1  0.02679200  0.73232100  0.11505200  1
  Eu  Eu1  1  0.52679200  0.76767900  0.38494800  1
  Eu  Eu2  1  0.97320800  0.26767900  0.88494800  1
  Eu  Eu3  1  0.47320800  0.73232100  0.88494800  1
  Eu  Eu4  1  0.47320800  0.23232100  0.61505200  1
  Eu  Eu5  1  0.02679200  0.23232100  0.38494800  1
  Eu  Eu6  1  0.97320800  0.76767900  0.61505200  1
  Eu  Eu7  1  0.52679200  0.26767900  0.11505200  1
  Mo  Mo8  1  0.56118000  0.64263500  0.58987600  1
  Mo  Mo9  1  0.25000000  0.96522400  0.50000000  1
  Mo  Mo10  1  0.32368900  0.86782200  0.69885200  1
  Mo  Mo11  1  0.93882000  0.14263500  0.08987600  1
  Mo  Mo12  1  0.56118000  0.14263500  0.91012400  1
  Mo  Mo13  1  0.43882000  0.35736500  0.41012400  1
  Mo  Mo14  1  0.17631100  0.36782200  0.19885200  1
  Mo  Mo15  1  0.93882000  0.64263500  0.41012400  1
  Mo  Mo16  1  0.17631100  0.86782200  0.30114800  1
  Mo  Mo17  1  0.32368900  0.36782200  0.80114800  1
  Mo  Mo18  1  0.06118000  0.85736500  0.91012400  1
  Mo  Mo19  1  0.67631100  0.13217800  0.30114800  1
  Mo  Mo20  1  0.82368900  0.63217800  0.80114800  1
  Mo  Mo21  1  0.75000000  0.03477600  0.50000000  1
  Mo  Mo22  1  0.75000000  0.53477600  0.00000000  1
  Mo  Mo23  1  0.82368900  0.13217800  0.69885200  1
  Mo  Mo24  1  0.06118000  0.35736500  0.58987600  1
  Mo  Mo25  1  0.43882000  0.85736500  0.08987600  1
  Mo  Mo26  1  0.25000000  0.46522400  0.00000000  1
  Mo  Mo27  1  0.67631100  0.63217800  0.19885200  1
  O  O28  1  0.43410100  0.74684600  0.64368700  1
  O  O29  1  0.11224500  0.07133400  0.46779300  1
  O  O30  1  0.68566000  0.64071400  0.93026100  1
  O  O31  1  0.85072700  0.45639300  0.82419700  1
  O  O32  1  0.64927300  0.45639300  0.17580300  1
  O  O33  1  0.98873900  0.65868300  0.49600800  1
  O  O34  1  0.10683700  0.34673000  0.28113400  1
  O  O35  1  0.39316300  0.84673000  0.78113400  1
  O  O36  1  0.64273500  0.67488700  0.79511400  1
  O  O37  1  0.88775500  0.92866600  0.53220700  1
  O  O38  1  0.94046100  0.96666400  0.11610800  1
  O  O39  1  0.06589900  0.74684600  0.35631300  1
  O  O40  1  0.06589900  0.24684600  0.14368700  1
  O  O41  1  0.51126100  0.65868300  0.50399200  1
  O  O42  1  0.43410100  0.24684600  0.85631300  1
  O  O43  1  0.61224500  0.92866600  0.46779300  1
  O  O44  1  0.05953900  0.03333600  0.88389200  1
  O  O45  1  0.81434000  0.64071400  0.06973900  1
  O  O46  1  0.14273500  0.32511300  0.79511400  1
  O  O47  1  0.14927300  0.04360700  0.32419700  1
  O  O48  1  0.93410100  0.25315400  0.64368700  1
  O  O49  1  0.48873900  0.84131700  0.00399200  1
  O  O50  1  0.56589900  0.75315400  0.14368700  1
  O  O51  1  0.18566000  0.35928600  0.93026100  1
  O  O52  1  0.55953900  0.96666400  0.88389200  1
  O  O53  1  0.68566000  0.14071400  0.56973900  1
  O  O54  1  0.98873900  0.15868300  0.00399200  1
  O  O55  1  0.31434000  0.85928600  0.43026100  1
  O  O56  1  0.23413300  0.79488000  0.90189200  1
  O  O57  1  0.73413300  0.70512000  0.59810800  1
  O  O58  1  0.35726500  0.32511300  0.20488600  1
  O  O59  1  0.35072700  0.54360700  0.82419700  1
  O  O60  1  0.35726500  0.82511300  0.29511400  1
  O  O61  1  0.39316300  0.34673000  0.71886600  1
  O  O62  1  0.38775500  0.57133400  0.96779300  1
  O  O63  1  0.61224500  0.42866600  0.03220700  1
  O  O64  1  0.38775500  0.07133400  0.53220700  1
  O  O65  1  0.26586700  0.29488000  0.40189200  1
  O  O66  1  0.11224500  0.57133400  0.03220700  1
  O  O67  1  0.89316300  0.15327000  0.78113400  1
  O  O68  1  0.94046100  0.46666400  0.38389200  1
  O  O69  1  0.60683700  0.65327000  0.28113400  1
  O  O70  1  0.81434000  0.14071400  0.43026100  1
  O  O71  1  0.76586700  0.70512000  0.40189200  1
  O  O72  1  0.88775500  0.42866600  0.96779300  1
  O  O73  1  0.10683700  0.84673000  0.21886600  1
  O  O74  1  0.14273500  0.82511300  0.70488600  1
  O  O75  1  0.64927300  0.95639300  0.32419700  1
  O  O76  1  0.05953900  0.53333600  0.61610800  1
  O  O77  1  0.55953900  0.46666400  0.61610800  1
  O  O78  1  0.23413300  0.29488000  0.59810800  1
  O  O79  1  0.76586700  0.20512000  0.09810800  1
  O  O80  1  0.18566000  0.85928600  0.56973900  1
  O  O81  1  0.14927300  0.54360700  0.17580300  1
  O  O82  1  0.26586700  0.79488000  0.09810800  1
  O  O83  1  0.60683700  0.15327000  0.21886600  1
  O  O84  1  0.31434000  0.35928600  0.06973900  1
  O  O85  1  0.85072700  0.95639300  0.67580300  1
  O  O86  1  0.93410100  0.75315400  0.85631300  1
  O  O87  1  0.85726500  0.67488700  0.20488600  1
  O  O88  1  0.89316300  0.65327000  0.71886600  1
  O  O89  1  0.48873900  0.34131700  0.49600800  1
  O  O90  1  0.51126100  0.15868300  0.99600800  1
  O  O91  1  0.01126100  0.34131700  0.50399200  1
  O  O92  1  0.73413300  0.20512000  0.90189200  1
  O  O93  1  0.44046100  0.53333600  0.38389200  1
  O  O94  1  0.85726500  0.17488700  0.29511400  1
  O  O95  1  0.44046100  0.03333600  0.11610800  1
  O  O96  1  0.35072700  0.04360700  0.67580300  1
  O  O97  1  0.01126100  0.84131700  0.99600800  1
  O  O98  1  0.56589900  0.25315400  0.35631300  1
  O  O99  1  0.64273500  0.17488700  0.70488600  1
