# generated using pymatgen
data_Na2ZnGe2(HO2)4
_symmetry_space_group_name_H-M   'P 1'
_cell_length_a   8.83870800
_cell_length_b   13.14453300
_cell_length_c   13.26304800
_cell_angle_alpha   90.00000000
_cell_angle_beta   90.00000000
_cell_angle_gamma   90.00000000
_symmetry_Int_Tables_number   1
_chemical_formula_structural   Na2ZnGe2(HO2)4
_chemical_formula_sum   'Na16 Zn8 Ge16 H32 O64'
_cell_volume   1540.91005466
_cell_formula_units_Z   8
loop_
 _symmetry_equiv_pos_site_id
 _symmetry_equiv_pos_as_xyz
  1  'x, y, z'
loop_
 _atom_site_type_symbol
 _atom_site_label
 _atom_site_symmetry_multiplicity
 _atom_site_fract_x
 _atom_site_fract_y
 _atom_site_fract_z
 _atom_site_occupancy
  Na  Na0  1  0.74433200  0.87444100  0.14722800  1
  Na  Na1  1  0.75566800  0.37444100  0.35277200  1
  Na  Na2  1  0.75566800  0.12555900  0.64722800  1
  Na  Na3  1  0.74433200  0.62555900  0.85277200  1
  Na  Na4  1  0.25566800  0.12555900  0.85277200  1
  Na  Na5  1  0.24433200  0.62555900  0.64722800  1
  Na  Na6  1  0.24433200  0.87444100  0.35277200  1
  Na  Na7  1  0.25566800  0.37444100  0.14722800  1
  Na  Na8  1  0.00000000  0.00000000  0.00000000  1
  Na  Na9  1  0.50000000  0.50000000  0.50000000  1
  Na  Na10  1  0.50000000  0.00000000  0.50000000  1
  Na  Na11  1  0.00000000  0.50000000  0.00000000  1
  Na  Na12  1  0.49440200  0.75000000  0.00000000  1
  Na  Na13  1  0.00559800  0.25000000  0.50000000  1
  Na  Na14  1  0.50559800  0.25000000  0.00000000  1
  Na  Na15  1  0.99440200  0.75000000  0.50000000  1
  Zn  Zn16  1  0.87620600  0.62707200  0.25132800  1
  Zn  Zn17  1  0.62379400  0.12707200  0.24867200  1
  Zn  Zn18  1  0.62379400  0.37292800  0.75132800  1
  Zn  Zn19  1  0.87620600  0.87292800  0.74867200  1
  Zn  Zn20  1  0.12379400  0.37292800  0.74867200  1
  Zn  Zn21  1  0.37620600  0.87292800  0.75132800  1
  Zn  Zn22  1  0.37620600  0.62707200  0.24867200  1
  Zn  Zn23  1  0.12379400  0.12707200  0.25132800  1
  Ge  Ge24  1  0.87403900  0.00066400  0.37753500  1
  Ge  Ge25  1  0.62596100  0.50066400  0.12246500  1
  Ge  Ge26  1  0.62596100  0.99933600  0.87753500  1
  Ge  Ge27  1  0.87403900  0.49933600  0.62246500  1
  Ge  Ge28  1  0.12596100  0.99933600  0.62246500  1
  Ge  Ge29  1  0.37403900  0.49933600  0.87753500  1
  Ge  Ge30  1  0.37403900  0.00066400  0.12246500  1
  Ge  Ge31  1  0.12596100  0.50066400  0.37753500  1
  Ge  Ge32  1  0.12038200  0.75226800  0.12069200  1
  Ge  Ge33  1  0.37961800  0.25226800  0.37930800  1
  Ge  Ge34  1  0.37961800  0.24773200  0.62069200  1
  Ge  Ge35  1  0.12038200  0.74773200  0.87930800  1
  Ge  Ge36  1  0.87961800  0.24773200  0.87930800  1
  Ge  Ge37  1  0.62038200  0.74773200  0.62069200  1
  Ge  Ge38  1  0.62038200  0.75226800  0.37930800  1
  Ge  Ge39  1  0.87961800  0.25226800  0.12069200  1
  H  H40  1  0.09053300  0.92049500  0.16923800  1
  H  H41  1  0.40946700  0.42049500  0.33076200  1
  H  H42  1  0.40946700  0.07950500  0.66923800  1
  H  H43  1  0.09053300  0.57950500  0.83076200  1
  H  H44  1  0.90946700  0.07950500  0.83076200  1
  H  H45  1  0.59053300  0.57950500  0.66923800  1
  H  H46  1  0.59053300  0.92049500  0.33076200  1
  H  H47  1  0.90946700  0.42049500  0.16923800  1
  H  H48  1  0.90283800  0.83272200  0.32949000  1
  H  H49  1  0.59716200  0.33272200  0.17051000  1
  H  H50  1  0.59716200  0.16727800  0.82949000  1
  H  H51  1  0.90283800  0.66727800  0.67051000  1
  H  H52  1  0.09716200  0.16727800  0.67051000  1
  H  H53  1  0.40283800  0.66727800  0.82949000  1
  H  H54  1  0.40283800  0.83272200  0.17051000  1
  H  H55  1  0.09716200  0.33272200  0.32949000  1
  H  H56  1  0.84950900  0.95793800  0.54596400  1
  H  H57  1  0.65049100  0.45793800  0.95403600  1
  H  H58  1  0.65049100  0.04206200  0.04596400  1
  H  H59  1  0.84950900  0.54206200  0.45403600  1
  H  H60  1  0.15049100  0.04206200  0.45403600  1
  H  H61  1  0.34950900  0.54206200  0.04596400  1
  H  H62  1  0.34950900  0.95793800  0.95403600  1
  H  H63  1  0.15049100  0.45793800  0.54596400  1
  H  H64  1  0.84618200  0.70917500  0.04482800  1
  H  H65  1  0.65381800  0.20917500  0.45517200  1
  H  H66  1  0.65381800  0.29082500  0.54482800  1
  H  H67  1  0.84618200  0.79082500  0.95517200  1
  H  H68  1  0.15381800  0.29082500  0.95517200  1
  H  H69  1  0.34618200  0.79082500  0.54482800  1
  H  H70  1  0.34618200  0.70917500  0.45517200  1
  H  H71  1  0.15381800  0.20917500  0.04482800  1
  O  O72  1  0.02130500  0.87329200  0.13155000  1
  O  O73  1  0.47869500  0.37329200  0.36845000  1
  O  O74  1  0.47869500  0.12670800  0.63155000  1
  O  O75  1  0.02130500  0.62670800  0.86845000  1
  O  O76  1  0.97869500  0.12670800  0.86845000  1
  O  O77  1  0.52130500  0.62670800  0.63155000  1
  O  O78  1  0.52130500  0.87329200  0.36845000  1
  O  O79  1  0.97869500  0.37329200  0.13155000  1
  O  O80  1  0.97217900  0.87930000  0.36758100  1
  O  O81  1  0.52782100  0.37930000  0.13241900  1
  O  O82  1  0.52782100  0.12070000  0.86758100  1
  O  O83  1  0.97217900  0.62070000  0.63241900  1
  O  O84  1  0.02782100  0.12070000  0.63241900  1
  O  O85  1  0.47217900  0.62070000  0.86758100  1
  O  O86  1  0.47217900  0.87930000  0.13241900  1
  O  O87  1  0.02782100  0.37930000  0.36758100  1
  O  O88  1  0.78370600  0.00055500  0.50056500  1
  O  O89  1  0.71629400  0.50055500  0.99943500  1
  O  O90  1  0.71629400  0.99944500  0.00056500  1
  O  O91  1  0.78370600  0.49944500  0.49943500  1
  O  O92  1  0.21629400  0.99944500  0.49943500  1
  O  O93  1  0.28370600  0.49944500  0.00056500  1
  O  O94  1  0.28370600  0.00055500  0.99943500  1
  O  O95  1  0.21629400  0.50055500  0.50056500  1
  O  O96  1  0.98295300  0.65622700  0.12278900  1
  O  O97  1  0.51704700  0.15622700  0.37721100  1
  O  O98  1  0.51704700  0.34377300  0.62278900  1
  O  O99  1  0.98295300  0.84377300  0.87721100  1
  O  O100  1  0.01704700  0.34377300  0.87721100  1
  O  O101  1  0.48295300  0.84377300  0.62278900  1
  O  O102  1  0.48295300  0.65622700  0.37721100  1
  O  O103  1  0.01704700  0.15622700  0.12278900  1
  O  O104  1  0.21481200  0.75000000  0.00000000  1
  O  O105  1  0.28518800  0.25000000  0.50000000  1
  O  O106  1  0.78518800  0.25000000  0.00000000  1
  O  O107  1  0.71481200  0.75000000  0.50000000  1
  O  O108  1  0.01128600  0.09702300  0.37700000  1
  O  O109  1  0.48871400  0.59702300  0.12300000  1
  O  O110  1  0.48871400  0.90297700  0.87700000  1
  O  O111  1  0.01128600  0.40297700  0.62300000  1
  O  O112  1  0.98871400  0.90297700  0.62300000  1
  O  O113  1  0.51128600  0.40297700  0.87700000  1
  O  O114  1  0.51128600  0.09702300  0.12300000  1
  O  O115  1  0.98871400  0.59702300  0.37700000  1
  O  O116  1  0.73320100  0.00037900  0.28434500  1
  O  O117  1  0.76679900  0.50037900  0.21565500  1
  O  O118  1  0.76679900  0.99962100  0.78434500  1
  O  O119  1  0.73320100  0.49962100  0.71565500  1
  O  O120  1  0.26679900  0.99962100  0.71565500  1
  O  O121  1  0.23320100  0.49962100  0.78434500  1
  O  O122  1  0.23320100  0.00037900  0.21565500  1
  O  O123  1  0.26679900  0.50037900  0.28434500  1
  O  O124  1  0.76059400  0.75180700  0.28569200  1
  O  O125  1  0.73940600  0.25180700  0.21430800  1
  O  O126  1  0.73940600  0.24819300  0.78569200  1
  O  O127  1  0.76059400  0.74819300  0.71430800  1
  O  O128  1  0.23940600  0.24819300  0.71430800  1
  O  O129  1  0.26059400  0.74819300  0.78569200  1
  O  O130  1  0.26059400  0.75180700  0.21430800  1
  O  O131  1  0.23940600  0.25180700  0.28569200  1
  O  O132  1  0.77720900  0.75000000  0.00000000  1
  O  O133  1  0.72279100  0.25000000  0.50000000  1
  O  O134  1  0.22279100  0.25000000  0.00000000  1
  O  O135  1  0.27720900  0.75000000  0.50000000  1
