# generated using pymatgen
data_H13Se2N3O8
_symmetry_space_group_name_H-M   'P 1'
_cell_length_a   6.14330551
_cell_length_b   6.14330551
_cell_length_c   16.07917582
_cell_angle_alpha   77.08445473
_cell_angle_beta   77.08445473
_cell_angle_gamma   60.59469981
_symmetry_Int_Tables_number   1
_chemical_formula_structural   H13Se2N3O8
_chemical_formula_sum   'H26 Se4 N6 O16'
_cell_volume   510.63147010
_cell_formula_units_Z   2
loop_
 _symmetry_equiv_pos_site_id
 _symmetry_equiv_pos_as_xyz
  1  'x, y, z'
loop_
 _atom_site_type_symbol
 _atom_site_label
 _atom_site_symmetry_multiplicity
 _atom_site_fract_x
 _atom_site_fract_y
 _atom_site_fract_z
 _atom_site_occupancy
  H  H0  1  0.74797100  0.22337800  0.24766000  1
  H  H1  1  0.22337800  0.74797100  0.74766000  1
  H  H2  1  0.74869200  0.40022600  0.69981000  1
  H  H3  1  0.40022600  0.74869200  0.19981000  1
  H  H4  1  0.86244500  0.25994400  0.79612600  1
  H  H5  1  0.25994400  0.86244500  0.29612600  1
  H  H6  1  0.86532900  0.08399100  0.72633600  1
  H  H7  1  0.08399100  0.86532900  0.22633600  1
  H  H8  1  0.59465100  0.27654800  0.78097100  1
  H  H9  1  0.27654800  0.59465100  0.28097100  1
  H  H10  1  0.19549500  0.77372600  0.55960200  1
  H  H11  1  0.77372600  0.19549500  0.05960200  1
  H  H12  1  0.20886800  0.61935800  0.48164900  1
  H  H13  1  0.61935800  0.20886800  0.98164900  1
  H  H14  1  0.99882000  0.64056600  0.57120900  1
  H  H15  1  0.64056600  0.99882000  0.07120900  1
  H  H16  1  0.31395100  0.45107400  0.57515900  1
  H  H17  1  0.45107400  0.31395100  0.07515900  1
  H  H18  1  0.82617200  0.21289800  0.46699800  1
  H  H19  1  0.21289800  0.82617200  0.96699800  1
  H  H20  1  0.02719800  0.34181000  0.43095100  1
  H  H21  1  0.34181000  0.02719800  0.93095100  1
  H  H22  1  0.77466800  0.47385500  0.50642700  1
  H  H23  1  0.47385500  0.77466800  0.00642700  1
  H  H24  1  0.72939600  0.49552100  0.40523000  1
  H  H25  1  0.49552100  0.72939600  0.90523000  1
  Se  Se26  1  0.55436700  0.05775900  0.36609500  1
  Se  Se27  1  0.05775900  0.55436700  0.86609500  1
  Se  Se28  1  0.46732100  0.92206400  0.63425100  1
  Se  Se29  1  0.92206400  0.46732100  0.13425100  1
  N  N30  1  0.77022100  0.25364900  0.75051000  1
  N  N31  1  0.25364900  0.77022100  0.25051000  1
  N  N32  1  0.17955900  0.62141400  0.54681500  1
  N  N33  1  0.62141400  0.17955900  0.04681500  1
  N  N34  1  0.83969100  0.37893500  0.45296000  1
  N  N35  1  0.37893500  0.83969100  0.95296000  1
  O  O36  1  0.43834600  0.85732000  0.37879200  1
  O  O37  1  0.85732000  0.43834600  0.87879200  1
  O  O38  1  0.66006400  0.09809900  0.25574200  1
  O  O39  1  0.09809900  0.66006400  0.75574200  1
  O  O40  1  0.80376300  0.95026600  0.41588100  1
  O  O41  1  0.95026600  0.80376300  0.91588100  1
  O  O42  1  0.32663800  0.34231700  0.38863900  1
  O  O43  1  0.34231700  0.32663800  0.88863900  1
  O  O44  1  0.56501500  0.13813200  0.61966700  1
  O  O45  1  0.13813200  0.56501500  0.11966700  1
  O  O46  1  0.37098200  0.86307100  0.74071000  1
  O  O47  1  0.86307100  0.37098200  0.24071000  1
  O  O48  1  0.70396800  0.64222700  0.60533300  1
  O  O49  1  0.64222700  0.70396800  0.10533300  1
  O  O50  1  0.22354600  0.01811500  0.58147600  1
  O  O51  1  0.01811500  0.22354600  0.08147600  1
