# generated using pymatgen
data_K3Sc(HO)6
_symmetry_space_group_name_H-M   'P 1'
_cell_length_a   7.80253820
_cell_length_b   7.80253820
_cell_length_c   8.56113972
_cell_angle_alpha   89.11447943
_cell_angle_beta   89.11447943
_cell_angle_gamma   105.18166316
_symmetry_Int_Tables_number   1
_chemical_formula_structural   K3Sc(HO)6
_chemical_formula_sum   'K6 Sc2 H12 O12'
_cell_volume   502.84633608
_cell_formula_units_Z   2
loop_
 _symmetry_equiv_pos_site_id
 _symmetry_equiv_pos_as_xyz
  1  'x, y, z'
loop_
 _atom_site_type_symbol
 _atom_site_label
 _atom_site_symmetry_multiplicity
 _atom_site_fract_x
 _atom_site_fract_y
 _atom_site_fract_z
 _atom_site_occupancy
  K  K0  1  0.60418300  0.39581700  0.75000000  1
  K  K1  1  0.39581700  0.60418300  0.25000000  1
  K  K2  1  0.08820200  0.24145900  0.61706700  1
  K  K3  1  0.75854100  0.91179800  0.88293300  1
  K  K4  1  0.91179800  0.75854100  0.38293300  1
  K  K5  1  0.24145900  0.08820200  0.11706700  1
  Sc  Sc6  1  0.50000000  0.00000000  0.50000000  1
  Sc  Sc7  1  0.00000000  0.50000000  0.00000000  1
  H  H8  1  0.14856700  0.78320300  0.72881300  1
  H  H9  1  0.21679700  0.85143300  0.77118700  1
  H  H10  1  0.85143300  0.21679700  0.27118700  1
  H  H11  1  0.78320300  0.14856700  0.22881300  1
  H  H12  1  0.24650700  0.70979400  0.51579900  1
  H  H13  1  0.29020600  0.75349300  0.98420100  1
  H  H14  1  0.75349300  0.29020600  0.48420100  1
  H  H15  1  0.70979400  0.24650700  0.01579900  1
  H  H16  1  0.36625500  0.58928600  0.78751700  1
  H  H17  1  0.41071400  0.63374500  0.71248300  1
  H  H18  1  0.63374500  0.41071400  0.21248300  1
  H  H19  1  0.58928600  0.36625500  0.28751700  1
  O  O20  1  0.21579800  0.38909500  0.99004600  1
  O  O21  1  0.61090500  0.78420200  0.50995400  1
  O  O22  1  0.78420200  0.61090500  0.00995400  1
  O  O23  1  0.38909500  0.21579800  0.49004600  1
  O  O24  1  0.87658900  0.63864400  0.84879100  1
  O  O25  1  0.36135600  0.12341100  0.65120900  1
  O  O26  1  0.12341100  0.36135600  0.15120900  1
  O  O27  1  0.63864400  0.87658900  0.34879100  1
  O  O28  1  0.80670100  0.24947000  0.94131600  1
  O  O29  1  0.75053000  0.19329900  0.55868400  1
  O  O30  1  0.19329900  0.75053000  0.05868400  1
  O  O31  1  0.24947000  0.80670100  0.44131600  1
