# generated using pymatgen
data_Mo2P3O13
_symmetry_space_group_name_H-M   'P 1'
_cell_length_a   9.08237733
_cell_length_b   9.08237733
_cell_length_c   8.95840650
_cell_angle_alpha   69.06194795
_cell_angle_beta   69.06194795
_cell_angle_gamma   105.77347809
_symmetry_Int_Tables_number   1
_chemical_formula_structural   Mo2P3O13
_chemical_formula_sum   'Mo4 P6 O26'
_cell_volume   573.01152479
_cell_formula_units_Z   2
loop_
 _symmetry_equiv_pos_site_id
 _symmetry_equiv_pos_as_xyz
  1  'x, y, z'
loop_
 _atom_site_type_symbol
 _atom_site_label
 _atom_site_symmetry_multiplicity
 _atom_site_fract_x
 _atom_site_fract_y
 _atom_site_fract_z
 _atom_site_occupancy
  Mo  Mo0  1  0.15673500  0.33334900  0.32520300  1
  Mo  Mo1  1  0.66665100  0.84326500  0.17479700  1
  Mo  Mo2  1  0.84326500  0.66665100  0.67479700  1
  Mo  Mo3  1  0.33334900  0.15673500  0.82520300  1
  P  P4  1  0.65021300  0.23785300  0.93833000  1
  P  P5  1  0.34978700  0.76214700  0.06167000  1
  P  P6  1  0.99040900  0.00959100  0.25000000  1
  P  P7  1  0.00959100  0.99040900  0.75000000  1
  P  P8  1  0.76214700  0.34978700  0.56167000  1
  P  P9  1  0.23785300  0.65021300  0.43833000  1
  O  O10  1  0.89950800  0.35078300  0.40688200  1
  O  O11  1  0.94173600  0.79974500  0.78139300  1
  O  O12  1  0.79974500  0.94173600  0.28139300  1
  O  O13  1  0.74390800  0.42897500  0.89947900  1
  O  O14  1  0.46538800  0.20094200  0.95877300  1
  O  O15  1  0.25609200  0.57102500  0.10052100  1
  O  O16  1  0.69194900  0.65558700  0.22951000  1
  O  O17  1  0.42897500  0.74390800  0.39947900  1
  O  O18  1  0.57102500  0.25609200  0.60052100  1
  O  O19  1  0.88561300  0.99060300  0.92080300  1
  O  O20  1  0.10049200  0.64921700  0.59311800  1
  O  O21  1  0.30805100  0.34441300  0.77049000  1
  O  O22  1  0.65558700  0.69194900  0.72951000  1
  O  O23  1  0.23816800  0.76183200  0.25000000  1
  O  O24  1  0.76183200  0.23816800  0.75000000  1
  O  O25  1  0.53461200  0.79905800  0.04122700  1
  O  O26  1  0.00939700  0.11438700  0.57919700  1
  O  O27  1  0.05826400  0.20025500  0.21860700  1
  O  O28  1  0.20094200  0.46538800  0.45877300  1
  O  O29  1  0.34441300  0.30805100  0.27049000  1
  O  O30  1  0.99060300  0.88561300  0.42080300  1
  O  O31  1  0.11438700  0.00939700  0.07919700  1
  O  O32  1  0.79905800  0.53461200  0.54122700  1
  O  O33  1  0.64921700  0.10049200  0.09311800  1
  O  O34  1  0.20025500  0.05826400  0.71860700  1
  O  O35  1  0.35078300  0.89950800  0.90688200  1
