# generated using pymatgen
data_WO3
_symmetry_space_group_name_H-M   'P 1'
_cell_length_a   7.50734123
_cell_length_b   7.50734123
_cell_length_c   7.72750400
_cell_angle_alpha   90.00000000
_cell_angle_beta   90.00000000
_cell_angle_gamma   119.99999323
_symmetry_Int_Tables_number   1
_chemical_formula_structural   WO3
_chemical_formula_sum   'W6 O18'
_cell_volume   377.17440382
_cell_formula_units_Z   6
loop_
 _symmetry_equiv_pos_site_id
 _symmetry_equiv_pos_as_xyz
  1  'x, y, z'
loop_
 _atom_site_type_symbol
 _atom_site_label
 _atom_site_symmetry_multiplicity
 _atom_site_fract_x
 _atom_site_fract_y
 _atom_site_fract_z
 _atom_site_occupancy
  W  W0  1  0.00000000  0.51684400  0.76103200  1
  W  W1  1  0.48315600  0.48315600  0.76103200  1
  W  W2  1  0.48315600  0.00000000  0.26103200  1
  W  W3  1  0.51684400  0.51684400  0.26103200  1
  W  W4  1  0.51684400  0.00000000  0.76103200  1
  W  W5  1  0.00000000  0.48315600  0.26103200  1
  O  O6  1  0.00000000  0.50138300  0.00288000  1
  O  O7  1  0.00000000  0.49861700  0.50288000  1
  O  O8  1  0.50138300  0.50138300  0.50288000  1
  O  O9  1  0.49861700  0.49861700  0.00288000  1
  O  O10  1  0.50138300  0.00000000  0.00288000  1
  O  O11  1  0.49861700  0.00000000  0.50288000  1
  O  O12  1  0.21613700  0.42598100  0.25102600  1
  O  O13  1  0.20984500  0.42598100  0.75102600  1
  O  O14  1  0.21613700  0.79015500  0.75102600  1
  O  O15  1  0.20984500  0.78386300  0.25102600  1
  O  O16  1  0.57401900  0.79015500  0.25102600  1
  O  O17  1  0.57401900  0.78386300  0.75102600  1
  O  O18  1  0.42598100  0.21613700  0.25102600  1
  O  O19  1  0.42598100  0.20984500  0.75102600  1
  O  O20  1  0.79015500  0.21613700  0.75102600  1
  O  O21  1  0.78386300  0.20984500  0.25102600  1
  O  O22  1  0.79015500  0.57401900  0.25102600  1
  O  O23  1  0.78386300  0.57401900  0.75102600  1
