# generated using pymatgen
data_Sr2Mg3H10
_symmetry_space_group_name_H-M   'P 1'
_cell_length_a   9.21767892
_cell_length_b   9.21767892
_cell_length_c   7.48499152
_cell_angle_alpha   69.87402794
_cell_angle_beta   69.87402794
_cell_angle_gamma   36.02829519
_symmetry_Int_Tables_number   1
_chemical_formula_structural   Sr2Mg3H10
_chemical_formula_sum   'Sr4 Mg6 H20'
_cell_volume   348.72197946
_cell_formula_units_Z   2
loop_
 _symmetry_equiv_pos_site_id
 _symmetry_equiv_pos_as_xyz
  1  'x, y, z'
loop_
 _atom_site_type_symbol
 _atom_site_label
 _atom_site_symmetry_multiplicity
 _atom_site_fract_x
 _atom_site_fract_y
 _atom_site_fract_z
 _atom_site_occupancy
  Sr  Sr0  1  0.28101900  0.28101900  0.31118300  1
  Sr  Sr1  1  0.71898100  0.71898100  0.68881700  1
  Sr  Sr2  1  0.38326600  0.38326600  0.72074900  1
  Sr  Sr3  1  0.61673400  0.61673400  0.27925100  1
  Mg  Mg4  1  0.07544600  0.07544600  0.55358600  1
  Mg  Mg5  1  0.92455400  0.92455400  0.44641400  1
  Mg  Mg6  1  0.17397900  0.17397900  0.98189000  1
  Mg  Mg7  1  0.82602100  0.82602100  0.01811000  1
  Mg  Mg8  1  0.74225500  0.25774500  0.00000000  1
  Mg  Mg9  1  0.25774500  0.74225500  0.00000000  1
  H  H10  1  0.84038700  0.38587200  0.97424300  1
  H  H11  1  0.38587200  0.84038700  0.97424300  1
  H  H12  1  0.15961300  0.61412800  0.02575700  1
  H  H13  1  0.61412800  0.15961300  0.02575700  1
  H  H14  1  0.90879500  0.39962300  0.51594400  1
  H  H15  1  0.39962300  0.90879500  0.51594400  1
  H  H16  1  0.09120500  0.60037700  0.48405600  1
  H  H17  1  0.60037700  0.09120500  0.48405600  1
  H  H18  1  0.02165400  0.02165400  0.82283800  1
  H  H19  1  0.97834600  0.97834600  0.17716200  1
  H  H20  1  0.13574000  0.13574000  0.25807100  1
  H  H21  1  0.86426000  0.86426000  0.74192900  1
  H  H22  1  0.23711500  0.23711500  0.71459900  1
  H  H23  1  0.76288500  0.76288500  0.28540100  1
  H  H24  1  0.51639400  0.51639400  0.81088500  1
  H  H25  1  0.48360600  0.48360600  0.18911500  1
  H  H26  1  0.76900600  0.23099400  0.50000000  1
  H  H27  1  0.23099400  0.76900600  0.50000000  1
  H  H28  1  0.00000000  0.50000000  0.00000000  1
  H  H29  1  0.50000000  0.00000000  0.00000000  1
