# generated using pymatgen
data_Cs2Na4Cu2Si12H4O31
_symmetry_space_group_name_H-M   'P 1'
_cell_length_a   13.16271658
_cell_length_b   13.16271658
_cell_length_c   18.36487892
_cell_angle_alpha   68.22421499
_cell_angle_beta   68.22421499
_cell_angle_gamma   32.51421892
_symmetry_Int_Tables_number   1
_chemical_formula_structural   Cs2Na4Cu2Si12H4O31
_chemical_formula_sum   'Cs4 Na8 Cu4 Si24 H8 O62'
_cell_volume   1577.41688048
_cell_formula_units_Z   2
loop_
 _symmetry_equiv_pos_site_id
 _symmetry_equiv_pos_as_xyz
  1  'x, y, z'
loop_
 _atom_site_type_symbol
 _atom_site_label
 _atom_site_symmetry_multiplicity
 _atom_site_fract_x
 _atom_site_fract_y
 _atom_site_fract_z
 _atom_site_occupancy
  Cs  Cs0  1  0.74382000  0.21463300  0.61662000  1
  Cs  Cs1  1  0.78536700  0.25618000  0.88338000  1
  Cs  Cs2  1  0.25618000  0.78536700  0.38338000  1
  Cs  Cs3  1  0.21463300  0.74382000  0.11662000  1
  Na  Na4  1  0.98138100  0.52451300  0.64542700  1
  Na  Na5  1  0.47548700  0.01861900  0.85457300  1
  Na  Na6  1  0.01861900  0.47548700  0.35457300  1
  Na  Na7  1  0.52451300  0.98138100  0.14542700  1
  Na  Na8  1  0.46132900  0.97715100  0.66936300  1
  Na  Na9  1  0.02284900  0.53867100  0.83063700  1
  Na  Na10  1  0.53867100  0.02284900  0.33063700  1
  Na  Na11  1  0.97715100  0.46132900  0.16936300  1
  Cu  Cu12  1  0.24881600  0.27163100  0.48743600  1
  Cu  Cu13  1  0.72836900  0.75118400  0.01256400  1
  Cu  Cu14  1  0.75118400  0.72836900  0.51256400  1
  Cu  Cu15  1  0.27163100  0.24881600  0.98743600  1
  Si  Si16  1  0.37661400  0.37799900  0.50969400  1
  Si  Si17  1  0.62200100  0.62338600  0.99030600  1
  Si  Si18  1  0.62338600  0.62200100  0.49030600  1
  Si  Si19  1  0.37799900  0.37661400  0.00969400  1
  Si  Si20  1  0.78127800  0.93942800  0.53120400  1
  Si  Si21  1  0.06057200  0.21872200  0.96879600  1
  Si  Si22  1  0.21872200  0.06057200  0.46879600  1
  Si  Si23  1  0.93942800  0.78127800  0.03120400  1
  Si  Si24  1  0.10297500  0.16539600  0.62774700  1
  Si  Si25  1  0.83460400  0.89702500  0.87225300  1
  Si  Si26  1  0.89702500  0.83460400  0.37225300  1
  Si  Si27  1  0.16539600  0.10297500  0.12774700  1
  Si  Si28  1  0.19004700  0.68949800  0.74389800  1
  Si  Si29  1  0.31050200  0.80995300  0.75610200  1
  Si  Si30  1  0.80995300  0.31050200  0.25610200  1
  Si  Si31  1  0.68949800  0.19004700  0.24389800  1
  Si  Si32  1  0.44714700  0.32188800  0.84911800  1
  Si  Si33  1  0.67811200  0.55285300  0.65088200  1
  Si  Si34  1  0.55285300  0.67811200  0.15088200  1
  Si  Si35  1  0.32188800  0.44714700  0.34911800  1
  Si  Si36  1  0.12202000  0.65676700  0.62388400  1
  Si  Si37  1  0.34323300  0.87798000  0.87611600  1
  Si  Si38  1  0.87798000  0.34323300  0.37611600  1
  Si  Si39  1  0.65676700  0.12202000  0.12388400  1
  H  H40  1  0.30835400  0.31121900  0.70571600  1
  H  H41  1  0.68878100  0.69164600  0.79428400  1
  H  H42  1  0.69164600  0.68878100  0.29428400  1
  H  H43  1  0.31121900  0.30835400  0.20571600  1
  H  H44  1  0.86634600  0.47923600  0.82772300  1
  H  H45  1  0.52076400  0.13365400  0.67227700  1
  H  H46  1  0.13365400  0.52076400  0.17227700  1
  H  H47  1  0.47923600  0.86634600  0.32772300  1
  O  O48  1  0.15686100  0.73026300  0.65444500  1
  O  O49  1  0.26973700  0.84313900  0.84555500  1
  O  O50  1  0.84313900  0.26973700  0.34555500  1
  O  O51  1  0.73026300  0.15686100  0.15444500  1
  O  O52  1  0.11604200  0.09808000  0.56082600  1
  O  O53  1  0.90192000  0.88395800  0.93917400  1
  O  O54  1  0.88395800  0.90192000  0.43917400  1
  O  O55  1  0.09808000  0.11604200  0.06082600  1
  O  O56  1  0.59092900  0.17022600  0.53803700  1
  O  O57  1  0.82977400  0.40907100  0.96196300  1
  O  O58  1  0.40907100  0.82977400  0.46196300  1
  O  O59  1  0.17022600  0.59092900  0.03803700  1
  O  O60  1  0.19013900  0.80986100  0.75000000  1
  O  O61  1  0.80986100  0.19013900  0.25000000  1
  O  O62  1  0.59793300  0.57343500  0.58706400  1
  O  O63  1  0.42656500  0.40206700  0.91293600  1
  O  O64  1  0.40206700  0.42656500  0.41293600  1
  O  O65  1  0.57343500  0.59793300  0.08706400  1
  O  O66  1  0.92094300  0.85955200  0.58366700  1
  O  O67  1  0.14044800  0.07905700  0.91633300  1
  O  O68  1  0.07905700  0.14044800  0.41633300  1
  O  O69  1  0.85955200  0.92094300  0.08366700  1
  O  O70  1  0.67625700  0.11592700  0.82667800  1
  O  O71  1  0.88407300  0.32374300  0.67332200  1
  O  O72  1  0.32374300  0.88407300  0.17332200  1
  O  O73  1  0.11592700  0.67625700  0.32667800  1
  O  O74  1  0.39154000  0.46088600  0.76509600  1
  O  O75  1  0.53911400  0.60846000  0.73490400  1
  O  O76  1  0.60846000  0.53911400  0.23490400  1
  O  O77  1  0.46088600  0.39154000  0.26509600  1
  O  O78  1  0.29642600  0.53292800  0.55022000  1
  O  O79  1  0.46707200  0.70357400  0.94978000  1
  O  O80  1  0.70357400  0.46707200  0.44978000  1
  O  O81  1  0.53292800  0.29642600  0.05022000  1
  O  O82  1  0.23904800  0.98399900  0.69542000  1
  O  O83  1  0.01600100  0.76095200  0.80458000  1
  O  O84  1  0.76095200  0.01600100  0.30458000  1
  O  O85  1  0.98399900  0.23904800  0.19542000  1
  O  O86  1  0.73407800  0.84957900  0.56478500  1
  O  O87  1  0.15042100  0.26592200  0.93521500  1
  O  O88  1  0.26592200  0.15042100  0.43521500  1
  O  O89  1  0.84957900  0.73407800  0.06478500  1
  O  O90  1  0.32110400  0.31583700  0.87835300  1
  O  O91  1  0.68416300  0.67889600  0.62164700  1
  O  O92  1  0.67889600  0.68416300  0.12164700  1
  O  O93  1  0.31583700  0.32110400  0.37835300  1
  O  O94  1  0.17272900  0.23307200  0.59582600  1
  O  O95  1  0.76692800  0.82727100  0.90417400  1
  O  O96  1  0.82727100  0.76692800  0.40417400  1
  O  O97  1  0.23307200  0.17272900  0.09582600  1
  O  O98  1  0.23175500  0.39630700  0.53374900  1
  O  O99  1  0.60369300  0.76824500  0.96625100  1
  O  O100  1  0.76824500  0.60369300  0.46625100  1
  O  O101  1  0.39630700  0.23175500  0.03374900  1
  O  O102  1  0.11695900  0.54188300  0.69077900  1
  O  O103  1  0.45811700  0.88304100  0.80922100  1
  O  O104  1  0.88304100  0.45811700  0.30922100  1
  O  O105  1  0.54188300  0.11695900  0.19077900  1
  O  O106  1  0.83421500  0.57287400  0.78581200  1
  O  O107  1  0.42712600  0.16578500  0.71418800  1
  O  O108  1  0.16578500  0.42712600  0.21418800  1
  O  O109  1  0.57287400  0.83421500  0.28581200  1
