# generated using pymatgen
data_PH8C2NO4
_symmetry_space_group_name_H-M   'P 1'
_cell_length_a   9.24449593
_cell_length_b   9.24449593
_cell_length_c   9.24449593
_cell_angle_alpha   107.60492598
_cell_angle_beta   107.60492598
_cell_angle_gamma   113.27198145
_symmetry_Int_Tables_number   1
_chemical_formula_structural   PH8C2NO4
_chemical_formula_sum   'P4 H32 C8 N4 O16'
_cell_volume   606.15265902
_cell_formula_units_Z   4
loop_
 _symmetry_equiv_pos_site_id
 _symmetry_equiv_pos_as_xyz
  1  'x, y, z'
loop_
 _atom_site_type_symbol
 _atom_site_label
 _atom_site_symmetry_multiplicity
 _atom_site_fract_x
 _atom_site_fract_y
 _atom_site_fract_z
 _atom_site_occupancy
  P  P0  1  0.32118300  0.94126300  0.74453000  1
  P  P1  1  0.19673300  0.57665400  0.25547000  1
  P  P2  1  0.05873700  0.80326700  0.37992100  1
  P  P3  1  0.42334600  0.67881700  0.62007900  1
  H  H4  1  0.78166800  0.53613200  0.39171900  1
  H  H5  1  0.14441300  0.38994900  0.60828100  1
  H  H6  1  0.46386800  0.85558700  0.24553600  1
  H  H7  1  0.61005100  0.21833200  0.75446400  1
  H  H8  1  0.34923800  0.31726500  0.44432000  1
  H  H9  1  0.87294400  0.90491800  0.55568000  1
  H  H10  1  0.68273500  0.12705600  0.03197400  1
  H  H11  1  0.09508200  0.65076200  0.96802600  1
  H  H12  1  0.27200500  0.09363500  0.36068500  1
  H  H13  1  0.73295100  0.91132000  0.63931500  1
  H  H14  1  0.90636500  0.26704900  0.17836900  1
  H  H15  1  0.08868000  0.72799500  0.82163100  1
  H  H16  1  0.49703800  0.25327600  0.48300700  1
  H  H17  1  0.77026900  0.01403100  0.51699300  1
  H  H18  1  0.74672400  0.22973100  0.24376200  1
  H  H19  1  0.98596900  0.50296200  0.75623800  1
  H  H20  1  0.51191000  0.34148300  0.11648300  1
  H  H21  1  0.22500000  0.39542600  0.88351700  1
  H  H22  1  0.65851700  0.77500000  0.17042700  1
  H  H23  1  0.60457400  0.48809000  0.82957300  1
  H  H24  1  0.50098200  0.47891500  0.29144000  1
  H  H25  1  0.18747500  0.20954200  0.70856000  1
  H  H26  1  0.52108500  0.81252500  0.02206700  1
  H  H27  1  0.79045800  0.49901800  0.97793300  1
  H  H28  1  0.24273400  0.16118000  0.13132500  1
  H  H29  1  0.02985600  0.11140900  0.86867500  1
  H  H30  1  0.83882000  0.97014400  0.08155400  1
  H  H31  1  0.88859100  0.75726600  0.91844600  1
  H  H32  1  0.39370000  0.08684700  0.17510700  1
  H  H33  1  0.91174000  0.21859300  0.82489300  1
  H  H34  1  0.91315300  0.08826000  0.30685300  1
  H  H35  1  0.78140700  0.60630000  0.69314700  1
  C  C36  1  0.52141300  0.36771900  0.24479100  1
  C  C37  1  0.12292800  0.27662200  0.75520900  1
  C  C38  1  0.63228100  0.87707200  0.15369400  1
  C  C39  1  0.72337800  0.47858700  0.84630600  1
  C  C40  1  0.37550300  0.19863800  0.22313800  1
  C  C41  1  0.97550000  0.15236500  0.77686200  1
  C  C42  1  0.80136200  0.02450000  0.17686500  1
  C  C43  1  0.84763500  0.62449700  0.82313500  1
  N  N44  1  0.37532500  0.21936400  0.38954900  1
  N  N45  1  0.82981600  0.98577700  0.61045100  1
  N  N46  1  0.78063600  0.17018400  0.15596100  1
  N  N47  1  0.01422300  0.62467500  0.84403900  1
  O  O48  1  0.24876600  0.94013400  0.56011600  1
  O  O49  1  0.38001800  0.68865000  0.43988400  1
  O  O50  1  0.05986600  0.61998200  0.30863100  1
  O  O51  1  0.31135000  0.75123400  0.69136900  1
  O  O52  1  0.51361300  0.09759700  0.84869400  1
  O  O53  1  0.24890300  0.66491900  0.15130600  1
  O  O54  1  0.90240300  0.75109700  0.41601600  1
  O  O55  1  0.33508100  0.48638700  0.58398400  1
  O  O56  1  0.19307700  0.92609600  0.81457400  1
  O  O57  1  0.11152100  0.37850200  0.18542600  1
  O  O58  1  0.07390400  0.88847900  0.26698100  1
  O  O59  1  0.62149800  0.80692300  0.73301900  1
  O  O60  1  0.69367000  0.41286700  0.36450200  1
  O  O61  1  0.04836500  0.32916800  0.63549800  1
  O  O62  1  0.58713300  0.95163500  0.28080300  1
  O  O63  1  0.67083200  0.30633000  0.71919700  1
