# generated using pymatgen
data_H16RhN5(ClO4)2
_symmetry_space_group_name_H-M   'P 1'
_cell_length_a   8.17291800
_cell_length_b   10.36246000
_cell_length_c   15.44601900
_cell_angle_alpha   90.00000000
_cell_angle_beta   90.00000000
_cell_angle_gamma   90.00000000
_symmetry_Int_Tables_number   1
_chemical_formula_structural   H16RhN5(ClO4)2
_chemical_formula_sum   'H64 Rh4 N20 Cl8 O32'
_cell_volume   1308.14707201
_cell_formula_units_Z   4
loop_
 _symmetry_equiv_pos_site_id
 _symmetry_equiv_pos_as_xyz
  1  'x, y, z'
loop_
 _atom_site_type_symbol
 _atom_site_label
 _atom_site_symmetry_multiplicity
 _atom_site_fract_x
 _atom_site_fract_y
 _atom_site_fract_z
 _atom_site_occupancy
  H  H0  1  0.23611900  0.37932500  0.49721600  1
  H  H1  1  0.26388100  0.62067500  0.99721600  1
  H  H2  1  0.76388100  0.87932500  0.00278400  1
  H  H3  1  0.73611900  0.12067500  0.50278400  1
  H  H4  1  0.29183700  0.25093800  0.44271800  1
  H  H5  1  0.20816300  0.74906200  0.94271800  1
  H  H6  1  0.70816300  0.75093800  0.05728200  1
  H  H7  1  0.79183700  0.24906200  0.55728200  1
  H  H8  1  0.37819300  0.28277700  0.53605500  1
  H  H9  1  0.12180700  0.71722300  0.03605500  1
  H  H10  1  0.62180700  0.78277700  0.96394500  1
  H  H11  1  0.87819300  0.21722300  0.46394500  1
  H  H12  1  0.60533200  0.62452100  0.53411600  1
  H  H13  1  0.89466800  0.37547900  0.03411600  1
  H  H14  1  0.39466800  0.12452100  0.96588400  1
  H  H15  1  0.10533200  0.87547900  0.46588400  1
  H  H16  1  0.40343500  0.61443200  0.53300500  1
  H  H17  1  0.09656500  0.38556800  0.03300500  1
  H  H18  1  0.59656500  0.11443200  0.96699500  1
  H  H19  1  0.90343500  0.88556800  0.46699500  1
  H  H20  1  0.51303500  0.51156700  0.58865300  1
  H  H21  1  0.98696500  0.48843300  0.08865300  1
  H  H22  1  0.48696500  0.01156700  0.91134700  1
  H  H23  1  0.01303500  0.98843300  0.41134700  1
  H  H24  1  0.75080600  0.61511300  0.41001600  1
  H  H25  1  0.74919400  0.38488700  0.91001600  1
  H  H26  1  0.24919400  0.11511300  0.08998400  1
  H  H27  1  0.25080600  0.88488700  0.58998400  1
  H  H28  1  0.79768800  0.49856100  0.34315600  1
  H  H29  1  0.70231200  0.50143900  0.84315600  1
  H  H30  1  0.20231200  0.99856100  0.15684400  1
  H  H31  1  0.29768800  0.00143900  0.65684400  1
  H  H32  1  0.66597500  0.60955500  0.31434200  1
  H  H33  1  0.83402500  0.39044500  0.81434200  1
  H  H34  1  0.33402500  0.10955500  0.18565800  1
  H  H35  1  0.16597500  0.89044500  0.68565800  1
  H  H36  1  0.63417100  0.26509200  0.31179600  1
  H  H37  1  0.86582900  0.73490800  0.81179600  1
  H  H38  1  0.36582900  0.76509200  0.18820400  1
  H  H39  1  0.13417100  0.23490800  0.68820400  1
  H  H40  1  0.43574800  0.24108800  0.32043200  1
  H  H41  1  0.06425200  0.75891200  0.82043200  1
  H  H42  1  0.56425200  0.74108800  0.17956800  1
  H  H43  1  0.93574800  0.25891200  0.67956800  1
  H  H44  1  0.50522400  0.35743000  0.25745500  1
  H  H45  1  0.99477600  0.64257000  0.75745500  1
  H  H46  1  0.49477600  0.85743000  0.24254500  1
  H  H47  1  0.00522400  0.14257000  0.74254500  1
  H  H48  1  0.30650800  0.65036700  0.37557200  1
  H  H49  1  0.19349200  0.34963300  0.87557200  1
  H  H50  1  0.69349200  0.15036700  0.12442800  1
  H  H51  1  0.80650800  0.84963300  0.62442800  1
  H  H52  1  0.33052000  0.55819400  0.29007000  1
  H  H53  1  0.16948000  0.44180600  0.79007000  1
  H  H54  1  0.66948000  0.05819400  0.20993000  1
  H  H55  1  0.83052000  0.94180600  0.70993000  1
  H  H56  1  0.20001400  0.51657600  0.36466300  1
  H  H57  1  0.29998600  0.48342400  0.86466300  1
  H  H58  1  0.79998600  0.01657600  0.13533700  1
  H  H59  1  0.70001400  0.98342400  0.63533700  1
  H  H60  1  0.65150800  0.36013200  0.46602700  1
  H  H61  1  0.84849200  0.63986800  0.96602700  1
  H  H62  1  0.34849200  0.86013200  0.03397300  1
  H  H63  1  0.15150800  0.13986800  0.53397300  1
  Rh  Rh64  1  0.51454400  0.44036600  0.42134200  1
  Rh  Rh65  1  0.98545600  0.55963400  0.92134200  1
  Rh  Rh66  1  0.48545600  0.94036600  0.07865800  1
  Rh  Rh67  1  0.01454400  0.05963400  0.57865800  1
  N  N68  1  0.33632100  0.32451700  0.48028300  1
  N  N69  1  0.16367900  0.67548300  0.98028300  1
  N  N70  1  0.66367900  0.82451700  0.01971700  1
  N  N71  1  0.83632100  0.17548300  0.51971700  1
  N  N72  1  0.50907500  0.56113600  0.53117800  1
  N  N73  1  0.99092500  0.43886400  0.03117800  1
  N  N74  1  0.49092500  0.06113600  0.96882200  1
  N  N75  1  0.00907500  0.93886400  0.46882200  1
  N  N76  1  0.70160300  0.55320400  0.36538200  1
  N  N77  1  0.79839700  0.44679600  0.86538200  1
  N  N78  1  0.29839700  0.05320400  0.13461800  1
  N  N79  1  0.20160300  0.94679600  0.63461800  1
  N  N80  1  0.52352700  0.31127600  0.31534900  1
  N  N81  1  0.97647300  0.68872400  0.81534900  1
  N  N82  1  0.47647300  0.81127600  0.18465100  1
  N  N83  1  0.02352700  0.18872400  0.68465100  1
  N  N84  1  0.31383900  0.55616600  0.35570600  1
  N  N85  1  0.18616100  0.44383400  0.85570600  1
  N  N86  1  0.68616100  0.05616600  0.14429400  1
  N  N87  1  0.81383900  0.94383400  0.64429400  1
  Cl  Cl88  1  0.50103000  0.42954000  0.08070100  1
  Cl  Cl89  1  0.99897000  0.57046000  0.58070100  1
  Cl  Cl90  1  0.49897000  0.92954000  0.41929900  1
  Cl  Cl91  1  0.00103000  0.07046000  0.91929900  1
  Cl  Cl92  1  0.49547600  0.75533800  0.78555600  1
  Cl  Cl93  1  0.00452400  0.24466200  0.28555600  1
  Cl  Cl94  1  0.50452400  0.25533800  0.71444400  1
  Cl  Cl95  1  0.99547600  0.74466200  0.21444400  1
  O  O96  1  0.63529800  0.33980000  0.06061000  1
  O  O97  1  0.86470200  0.66020000  0.56061000  1
  O  O98  1  0.36470200  0.83980000  0.43939000  1
  O  O99  1  0.13529800  0.16020000  0.93939000  1
  O  O100  1  0.48145300  0.52074000  0.00979000  1
  O  O101  1  0.01854700  0.47926000  0.50979000  1
  O  O102  1  0.51854700  0.02074000  0.49021000  1
  O  O103  1  0.98145300  0.97926000  0.99021000  1
  O  O104  1  0.54025300  0.49977600  0.16079100  1
  O  O105  1  0.95974700  0.50022400  0.66079100  1
  O  O106  1  0.45974700  0.99977600  0.33920900  1
  O  O107  1  0.04025300  0.00022400  0.83920900  1
  O  O108  1  0.35060400  0.35574100  0.09354100  1
  O  O109  1  0.14939600  0.64425900  0.59354100  1
  O  O110  1  0.64939600  0.85574100  0.40645900  1
  O  O111  1  0.85060400  0.14425900  0.90645900  1
  O  O112  1  0.66829100  0.30597900  0.69550800  1
  O  O113  1  0.83170900  0.69402100  0.19550800  1
  O  O114  1  0.33170900  0.80597900  0.80449200  1
  O  O115  1  0.16829100  0.19402100  0.30449200  1
  O  O116  1  0.38169100  0.34682500  0.68072600  1
  O  O117  1  0.11830900  0.65317500  0.18072600  1
  O  O118  1  0.61830900  0.84682500  0.81927400  1
  O  O119  1  0.88169100  0.15317500  0.31927400  1
  O  O120  1  0.51562800  0.63156400  0.83030500  1
  O  O121  1  0.98437200  0.36843600  0.33030500  1
  O  O122  1  0.48437200  0.13156400  0.66969500  1
  O  O123  1  0.01562800  0.86843600  0.16969500  1
  O  O124  1  0.48241600  0.23962900  0.80697300  1
  O  O125  1  0.01758400  0.76037100  0.30697300  1
  O  O126  1  0.51758400  0.73962900  0.69302700  1
  O  O127  1  0.98241600  0.26037100  0.19302700  1
