# generated using pymatgen
data_CaHgH16(BrO2)4
_symmetry_space_group_name_H-M   'P 1'
_cell_length_a   10.56805613
_cell_length_b   10.56805613
_cell_length_c   15.09042000
_cell_angle_alpha   90.00000000
_cell_angle_beta   90.00000000
_cell_angle_gamma   100.54939876
_symmetry_Int_Tables_number   1
_chemical_formula_structural   CaHgH16(BrO2)4
_chemical_formula_sum   'Ca4 Hg4 H64 Br16 O32'
_cell_volume   1656.86875588
_cell_formula_units_Z   4
loop_
 _symmetry_equiv_pos_site_id
 _symmetry_equiv_pos_as_xyz
  1  'x, y, z'
loop_
 _atom_site_type_symbol
 _atom_site_label
 _atom_site_symmetry_multiplicity
 _atom_site_fract_x
 _atom_site_fract_y
 _atom_site_fract_z
 _atom_site_occupancy
  Ca  Ca0  1  0.75099100  0.24900900  0.50000000  1
  Ca  Ca1  1  0.74900900  0.25099100  0.00000000  1
  Ca  Ca2  1  0.25099100  0.74900900  0.00000000  1
  Ca  Ca3  1  0.24900900  0.75099100  0.50000000  1
  Hg  Hg4  1  0.27700000  0.27700000  0.28078200  1
  Hg  Hg5  1  0.72300000  0.72300000  0.71921800  1
  Hg  Hg6  1  0.22300000  0.22300000  0.78078200  1
  Hg  Hg7  1  0.77700000  0.77700000  0.21921800  1
  H  H8  1  0.93153200  0.09101500  0.39189000  1
  H  H9  1  0.90898500  0.06846800  0.60811000  1
  H  H10  1  0.79368900  0.02262000  0.36492800  1
  H  H11  1  0.97738000  0.20631100  0.63507200  1
  H  H12  1  0.87706400  0.22617600  0.17938800  1
  H  H13  1  0.77382400  0.12293600  0.82061200  1
  H  H14  1  0.75436000  0.12277300  0.18678500  1
  H  H15  1  0.87722700  0.24564000  0.81321500  1
  H  H16  1  0.38750300  0.02781700  0.48918100  1
  H  H17  1  0.47218300  0.11249700  0.98918100  1
  H  H18  1  0.97218300  0.61249700  0.51081900  1
  H  H19  1  0.88750300  0.52781700  0.01081900  1
  H  H20  1  0.50513800  0.14928200  0.89255200  1
  H  H21  1  0.00513800  0.64928200  0.60744800  1
  H  H22  1  0.35071800  0.99486200  0.39255200  1
  H  H23  1  0.85071800  0.49486200  0.10744800  1
  H  H24  1  0.74564000  0.37722700  0.68678500  1
  H  H25  1  0.62277300  0.25436000  0.31321500  1
  H  H26  1  0.72617600  0.37706400  0.32061200  1
  H  H27  1  0.62293600  0.27382400  0.67938800  1
  H  H28  1  0.95272400  0.79780500  0.04054300  1
  H  H29  1  0.75834400  0.53952500  0.44539000  1
  H  H30  1  0.70219500  0.54727600  0.54054300  1
  H  H31  1  0.25834400  0.03952500  0.05461000  1
  H  H32  1  0.96047500  0.74165600  0.94539000  1
  H  H33  1  0.45272400  0.29780500  0.45945700  1
  H  H34  1  0.46047500  0.24165600  0.55461000  1
  H  H35  1  0.20219500  0.04727600  0.95945700  1
  H  H36  1  0.52262000  0.29368900  0.13507200  1
  H  H37  1  0.70631100  0.47738000  0.86492800  1
  H  H38  1  0.59101500  0.43153200  0.10811000  1
  H  H39  1  0.56846800  0.40898500  0.89189000  1
  H  H40  1  0.43153200  0.59101500  0.10811000  1
  H  H41  1  0.40898500  0.56846800  0.89189000  1
  H  H42  1  0.29368900  0.52262000  0.13507200  1
  H  H43  1  0.47738000  0.70631100  0.86492800  1
  H  H44  1  0.53952500  0.75834400  0.44539000  1
  H  H45  1  0.03952500  0.25834400  0.05461000  1
  H  H46  1  0.54727600  0.70219500  0.54054300  1
  H  H47  1  0.79780500  0.95272400  0.04054300  1
  H  H48  1  0.29780500  0.45272400  0.45945700  1
  H  H49  1  0.24165600  0.46047500  0.55461000  1
  H  H50  1  0.04727600  0.20219500  0.95945700  1
  H  H51  1  0.74165600  0.96047500  0.94539000  1
  H  H52  1  0.27382400  0.62293600  0.67938800  1
  H  H53  1  0.37706400  0.72617600  0.32061200  1
  H  H54  1  0.37722700  0.74564000  0.68678500  1
  H  H55  1  0.25436000  0.62277300  0.31321500  1
  H  H56  1  0.99486200  0.35071800  0.39255200  1
  H  H57  1  0.49486200  0.85071800  0.10744800  1
  H  H58  1  0.64928200  0.00513800  0.60744800  1
  H  H59  1  0.14928200  0.50513800  0.89255200  1
  H  H60  1  0.02781700  0.38750300  0.48918100  1
  H  H61  1  0.11249700  0.47218300  0.98918100  1
  H  H62  1  0.52781700  0.88750300  0.01081900  1
  H  H63  1  0.61249700  0.97218300  0.51081900  1
  H  H64  1  0.12277300  0.75436000  0.18678500  1
  H  H65  1  0.24564000  0.87722700  0.81321500  1
  H  H66  1  0.22617600  0.87706400  0.17938800  1
  H  H67  1  0.12293600  0.77382400  0.82061200  1
  H  H68  1  0.02262000  0.79368900  0.36492800  1
  H  H69  1  0.20631100  0.97738000  0.63507200  1
  H  H70  1  0.09101500  0.93153200  0.39189000  1
  H  H71  1  0.06846800  0.90898500  0.60811000  1
  Br  Br72  1  0.87826500  0.59563500  0.30241000  1
  Br  Br73  1  0.37826500  0.09563500  0.19759000  1
  Br  Br74  1  0.90436500  0.62173500  0.80241000  1
  Br  Br75  1  0.40436500  0.12173500  0.69759000  1
  Br  Br76  1  0.68746100  0.68746100  0.06384900  1
  Br  Br77  1  0.47488500  0.47488500  0.28997000  1
  Br  Br78  1  0.02511500  0.02511500  0.78997000  1
  Br  Br79  1  0.18746100  0.18746100  0.43615100  1
  Br  Br80  1  0.52511500  0.52511500  0.71003000  1
  Br  Br81  1  0.97488500  0.97488500  0.21003000  1
  Br  Br82  1  0.81253900  0.81253900  0.56384900  1
  Br  Br83  1  0.31253900  0.31253900  0.93615100  1
  Br  Br84  1  0.09563500  0.37826500  0.19759000  1
  Br  Br85  1  0.12173500  0.40436500  0.69759000  1
  Br  Br86  1  0.59563500  0.87826500  0.30241000  1
  Br  Br87  1  0.62173500  0.90436500  0.80241000  1
  O  O88  1  0.76116900  0.00972700  0.00035100  1
  O  O89  1  0.99027300  0.23883100  0.99964900  1
  O  O90  1  0.84092800  0.07907100  0.40987300  1
  O  O91  1  0.92092900  0.15907200  0.59012700  1
  O  O92  1  0.78943200  0.20270100  0.15593400  1
  O  O93  1  0.79729900  0.21056800  0.84406600  1
  O  O94  1  0.95669200  0.37435300  0.44736200  1
  O  O95  1  0.62564700  0.04330800  0.55263800  1
  O  O96  1  0.87435300  0.45669200  0.05263800  1
  O  O97  1  0.54330800  0.12564700  0.94736200  1
  O  O98  1  0.71056800  0.29729900  0.65593400  1
  O  O99  1  0.70270100  0.28943200  0.34406600  1
  O  O100  1  0.65907200  0.42092900  0.90987300  1
  O  O101  1  0.57907100  0.34092800  0.09012700  1
  O  O102  1  0.73883100  0.49027300  0.50035100  1
  O  O103  1  0.50972700  0.26116900  0.49964900  1
  O  O104  1  0.26116900  0.50972700  0.49964900  1
  O  O105  1  0.49027300  0.73883100  0.50035100  1
  O  O106  1  0.34092800  0.57907100  0.09012700  1
  O  O107  1  0.42092900  0.65907200  0.90987300  1
  O  O108  1  0.29729900  0.71056800  0.65593400  1
  O  O109  1  0.28943200  0.70270100  0.34406600  1
  O  O110  1  0.45669200  0.87435300  0.05263800  1
  O  O111  1  0.12564700  0.54330800  0.94736200  1
  O  O112  1  0.04330800  0.62564700  0.55263800  1
  O  O113  1  0.37435300  0.95669200  0.44736200  1
  O  O114  1  0.20270100  0.78943200  0.15593400  1
  O  O115  1  0.21056800  0.79729900  0.84406600  1
  O  O116  1  0.07907100  0.84092800  0.40987300  1
  O  O117  1  0.15907200  0.92092900  0.59012700  1
  O  O118  1  0.23883100  0.99027300  0.99964900  1
  O  O119  1  0.00972700  0.76116900  0.00035100  1
