# generated using pymatgen
data_Na13Ca7S12(ClO16)3
_symmetry_space_group_name_H-M   'P 1'
_cell_length_a   9.72334300
_cell_length_b   9.72914548
_cell_length_c   13.77041013
_cell_angle_alpha   89.93280700
_cell_angle_beta   89.90200504
_cell_angle_gamma   60.48466948
_symmetry_Int_Tables_number   1
_chemical_formula_structural   Na13Ca7S12(ClO16)3
_chemical_formula_sum   'Na13 Ca7 S12 Cl3 O48'
_cell_volume   1133.62006175
_cell_formula_units_Z   1
loop_
 _symmetry_equiv_pos_site_id
 _symmetry_equiv_pos_as_xyz
  1  'x, y, z'
loop_
 _atom_site_type_symbol
 _atom_site_label
 _atom_site_symmetry_multiplicity
 _atom_site_fract_x
 _atom_site_fract_y
 _atom_site_fract_z
 _atom_site_occupancy
  Na  Na0  1  0.27045400  0.73062300  0.87340000  1
  Na  Na1  1  0.73077000  0.99722900  0.87452500  1
  Na  Na2  1  0.74271700  0.99362700  0.37964600  1
  Na  Na3  1  0.66687500  0.66886400  0.99835700  1
  Na  Na4  1  0.66650200  0.67996400  0.49529000  1
  Na  Na5  1  0.66644300  0.67306700  0.25525000  1
  Na  Na6  1  0.00463100  0.73404900  0.62597300  1
  Na  Na7  1  0.99883300  0.26954100  0.87522200  1
  Na  Na8  1  0.32702900  0.33371800  0.74848600  1
  Na  Na9  1  0.33936200  0.32762800  0.24782100  1
  Na  Na10  1  0.33462200  0.32811900  0.50570100  1
  Na  Na11  1  0.33084500  0.33308900  0.99299800  1
  Na  Na12  1  0.25673800  0.00909900  0.62813100  1
  Ca  Ca13  1  0.25391500  0.74866100  0.38145500  1
  Ca  Ca14  1  0.66075000  0.67844400  0.75339400  1
  Ca  Ca15  1  0.99893600  0.74485000  0.12457100  1
  Ca  Ca16  1  0.99541900  0.25816000  0.37902200  1
  Ca  Ca17  1  0.25469400  0.99878400  0.12500100  1
  Ca  Ca18  1  0.73386700  0.25516300  0.62322600  1
  Ca  Ca19  1  0.74242800  0.25398300  0.12448100  1
  S  S20  1  0.63585500  0.96583700  0.62586700  1
  S  S21  1  0.63488500  0.96659800  0.12411600  1
  S  S22  1  0.40543900  0.62736200  0.62557300  1
  S  S23  1  0.39914100  0.63128300  0.12545500  1
  S  S24  1  0.02589600  0.60595800  0.87374400  1
  S  S25  1  0.03343200  0.59686900  0.37210200  1
  S  S26  1  0.96425700  0.39987400  0.62558100  1
  S  S27  1  0.96778800  0.39833500  0.12539400  1
  S  S28  1  0.60680300  0.36980600  0.87213200  1
  S  S29  1  0.60029000  0.37375500  0.37170200  1
  S  S30  1  0.36610800  0.02850700  0.87461400  1
  S  S31  1  0.36449700  0.03485500  0.37178500  1
  Cl  Cl32  1  0.00069100  0.00195600  0.55220000  1
  Cl  Cl33  1  0.00258500  0.99947000  0.28668100  1
  Cl  Cl34  1  0.99862800  0.00028400  0.03194700  1
  O  O35  1  0.36901800  0.71774900  0.53301600  1
  O  O36  1  0.36026100  0.73489500  0.03863500  1
  O  O37  1  0.34508500  0.73857200  0.70827000  1
  O  O38  1  0.34188100  0.73990200  0.21210300  1
  O  O39  1  0.48090800  0.85395700  0.87201700  1
  O  O40  1  0.45771800  0.85878700  0.37019300  1
  O  O41  1  0.53097500  0.89339100  0.63779200  1
  O  O42  1  0.52844000  0.89706100  0.13420100  1
  O  O43  1  0.74638700  0.91380100  0.71016700  1
  O  O44  1  0.74696200  0.91318000  0.20802200  1
  O  O45  1  0.72577800  0.90514300  0.53450600  1
  O  O46  1  0.73201500  0.90134800  0.03469600  1
  O  O47  1  0.57439400  0.53023900  0.13219900  1
  O  O48  1  0.58493800  0.53584700  0.63450000  1
  O  O49  1  0.85108600  0.66483400  0.87091900  1
  O  O50  1  0.85988900  0.66589700  0.37113000  1
  O  O51  1  0.66515400  0.48641100  0.86881800  1
  O  O52  1  0.67933600  0.47183200  0.37057400  1
  O  O53  1  0.88047500  0.57531300  0.63972000  1
  O  O54  1  0.89475900  0.57337300  0.13392300  1
  O  O55  1  0.06879400  0.65109100  0.96808100  1
  O  O56  1  0.09205000  0.64080600  0.28278200  1
  O  O57  1  0.07306100  0.67692700  0.79428800  1
  O  O58  1  0.08726600  0.65431600  0.45638600  1
  O  O59  1  0.90458300  0.36819700  0.53234300  1
  O  O60  1  0.90171900  0.36100800  0.03855100  1
  O  O61  1  0.91574000  0.32763800  0.70497400  1
  O  O62  1  0.91703400  0.33885600  0.21179600  1
  O  O63  1  0.11364600  0.43019400  0.86671200  1
  O  O64  1  0.11286900  0.42000300  0.37580800  1
  O  O65  1  0.34428200  0.51469700  0.62486000  1
  O  O66  1  0.32005100  0.53391000  0.12237600  1
  O  O67  1  0.13737300  0.33455400  0.62308000  1
  O  O68  1  0.14291700  0.32033100  0.12155800  1
  O  O69  1  0.43158600  0.45289800  0.86626400  1
  O  O70  1  0.42434200  0.47451200  0.37458300  1
  O  O71  1  0.27926800  0.07080900  0.96927300  1
  O  O72  1  0.24944100  0.08743300  0.45436200  1
  O  O73  1  0.24825300  0.07324900  0.79576500  1
  O  O74  1  0.26640300  0.09592300  0.28093700  1
  O  O75  1  0.45361300  0.11779300  0.86637800  1
  O  O76  1  0.46661800  0.10737900  0.37920000  1
  O  O77  1  0.53959600  0.14276100  0.62424800  1
  O  O78  1  0.54200300  0.14261700  0.12108800  1
  O  O79  1  0.67725000  0.25475800  0.79026100  1
  O  O80  1  0.64205200  0.27291900  0.28339600  1
  O  O81  1  0.65754700  0.27697900  0.96392100  1
  O  O82  1  0.65305600  0.26849900  0.45848200  1
