# generated using pymatgen
data_H9C2N11O8
_symmetry_space_group_name_H-M   'P 1'
_cell_length_a   7.33686552
_cell_length_b   7.33686552
_cell_length_c   13.21695252
_cell_angle_alpha   68.67272464
_cell_angle_beta   68.67272464
_cell_angle_gamma   69.01306983
_symmetry_Int_Tables_number   1
_chemical_formula_structural   H9C2N11O8
_chemical_formula_sum   'H18 C4 N22 O16'
_cell_volume   596.07132880
_cell_formula_units_Z   2
loop_
 _symmetry_equiv_pos_site_id
 _symmetry_equiv_pos_as_xyz
  1  'x, y, z'
loop_
 _atom_site_type_symbol
 _atom_site_label
 _atom_site_symmetry_multiplicity
 _atom_site_fract_x
 _atom_site_fract_y
 _atom_site_fract_z
 _atom_site_occupancy
  H  H0  1  0.09759500  0.90240500  0.75000000  1
  H  H1  1  0.90240500  0.09759500  0.25000000  1
  H  H2  1  0.04108700  0.82447600  0.61586000  1
  H  H3  1  0.17552400  0.95891300  0.88414000  1
  H  H4  1  0.95891300  0.17552400  0.38414000  1
  H  H5  1  0.82447600  0.04108700  0.11586000  1
  H  H6  1  0.78799700  0.86756600  0.62084300  1
  H  H7  1  0.13243400  0.21200300  0.87915700  1
  H  H8  1  0.21200300  0.13243400  0.37915700  1
  H  H9  1  0.86756600  0.78799700  0.12084300  1
  H  H10  1  0.57662800  0.20382400  0.79274900  1
  H  H11  1  0.79617600  0.42337200  0.70725100  1
  H  H12  1  0.42337200  0.79617600  0.20725100  1
  H  H13  1  0.20382400  0.57662800  0.29274900  1
  H  H14  1  0.54717600  0.13650600  0.68686100  1
  H  H15  1  0.86349400  0.45282400  0.81313900  1
  H  H16  1  0.45282400  0.86349400  0.31313900  1
  H  H17  1  0.13650600  0.54717600  0.18686100  1
  C  C18  1  0.83045600  0.02211300  0.70690700  1
  C  C19  1  0.97788700  0.16954400  0.79309300  1
  C  C20  1  0.16954400  0.97788700  0.29309300  1
  C  C21  1  0.02211300  0.83045600  0.20690700  1
  N  N22  1  0.36945600  0.33935800  0.91303500  1
  N  N23  1  0.66064200  0.63054400  0.58696500  1
  N  N24  1  0.63054400  0.66064200  0.08696500  1
  N  N25  1  0.33935800  0.36945600  0.41303500  1
  N  N26  1  0.97384100  0.02615900  0.75000000  1
  N  N27  1  0.02615900  0.97384100  0.25000000  1
  N  N28  1  0.89207900  0.89575500  0.64327900  1
  N  N29  1  0.10424500  0.10792100  0.85672100  1
  N  N30  1  0.10792100  0.10424500  0.35672100  1
  N  N31  1  0.89575500  0.89207900  0.14327900  1
  N  N32  1  0.64108100  0.13355000  0.72889200  1
  N  N33  1  0.86645000  0.35891900  0.77110800  1
  N  N34  1  0.35891900  0.86645000  0.27110800  1
  N  N35  1  0.13355000  0.64108100  0.22889200  1
  N  N36  1  0.44024600  0.27123200  0.00867300  1
  N  N37  1  0.72876800  0.55975400  0.49132700  1
  N  N38  1  0.55975400  0.72876800  0.99132700  1
  N  N39  1  0.27123200  0.44024600  0.50867300  1
  N  N40  1  0.22757200  0.52151200  0.90027600  1
  N  N41  1  0.47848800  0.77242800  0.59972400  1
  N  N42  1  0.77242800  0.47848800  0.09972400  1
  N  N43  1  0.52151200  0.22757200  0.40027600  1
  O  O44  1  0.34720900  0.32690900  0.09604000  1
  O  O45  1  0.67309100  0.65279100  0.40396000  1
  O  O46  1  0.65279100  0.67309100  0.90396000  1
  O  O47  1  0.32690900  0.34720900  0.59604000  1
  O  O48  1  0.60348300  0.13667500  0.99817600  1
  O  O49  1  0.86332500  0.39651700  0.50182400  1
  O  O50  1  0.39651700  0.86332500  0.00182400  1
  O  O51  1  0.13667500  0.60348300  0.49817600  1
  O  O52  1  0.17879800  0.64282200  0.95749800  1
  O  O53  1  0.35717800  0.82120200  0.54250200  1
  O  O54  1  0.82120200  0.35717800  0.04250200  1
  O  O55  1  0.64282200  0.17879800  0.45749800  1
  O  O56  1  0.15608400  0.55992700  0.81892100  1
  O  O57  1  0.44007300  0.84391600  0.68107900  1
  O  O58  1  0.84391600  0.44007300  0.18107900  1
  O  O59  1  0.55992700  0.15608400  0.31892100  1
