# generated using pymatgen
data_VH24C8S2N2O9
_symmetry_space_group_name_H-M   'P 1'
_cell_length_a   9.39929500
_cell_length_b   13.36198400
_cell_length_c   18.82246326
_cell_angle_alpha   50.13482159
_cell_angle_beta   90.00000000
_cell_angle_gamma   90.00000000
_symmetry_Int_Tables_number   1
_chemical_formula_structural   VH24C8S2N2O9
_chemical_formula_sum   'V4 H96 C32 S8 N8 O36'
_cell_volume   1814.47967211
_cell_formula_units_Z   4
loop_
 _symmetry_equiv_pos_site_id
 _symmetry_equiv_pos_as_xyz
  1  'x, y, z'
loop_
 _atom_site_type_symbol
 _atom_site_label
 _atom_site_symmetry_multiplicity
 _atom_site_fract_x
 _atom_site_fract_y
 _atom_site_fract_z
 _atom_site_occupancy
  V  V0  1  0.05953800  0.29316400  0.05868100  1
  V  V1  1  0.44046200  0.29316400  0.55868100  1
  V  V2  1  0.94046200  0.70683600  0.94131900  1
  V  V3  1  0.55953800  0.70683600  0.44131900  1
  H  H4  1  0.44787300  0.96631100  0.10685500  1
  H  H5  1  0.05212700  0.96631100  0.60685500  1
  H  H6  1  0.55212700  0.03368900  0.89314500  1
  H  H7  1  0.94787300  0.03368900  0.39314500  1
  H  H8  1  0.58707500  0.86517200  0.11707300  1
  H  H9  1  0.91292500  0.86517200  0.61707300  1
  H  H10  1  0.41292500  0.13482800  0.88292700  1
  H  H11  1  0.08707500  0.13482800  0.38292700  1
  H  H12  1  0.53096100  0.84458700  0.21701300  1
  H  H13  1  0.96903900  0.84458700  0.71701300  1
  H  H14  1  0.46903900  0.15541300  0.78298700  1
  H  H15  1  0.03096100  0.15541300  0.28298700  1
  H  H16  1  0.68585300  0.15601800  0.13550700  1
  H  H17  1  0.81414700  0.15601800  0.63550700  1
  H  H18  1  0.31414700  0.84398200  0.86449300  1
  H  H19  1  0.18585300  0.84398200  0.36449300  1
  H  H20  1  0.50355700  0.12743700  0.12344300  1
  H  H21  1  0.99644300  0.12743700  0.62344300  1
  H  H22  1  0.49644300  0.87256300  0.87655700  1
  H  H23  1  0.00355700  0.87256300  0.37655700  1
  H  H24  1  0.59661000  0.01047500  0.23046700  1
  H  H25  1  0.90339000  0.01047500  0.73046700  1
  H  H26  1  0.40339000  0.98952500  0.76953300  1
  H  H27  1  0.09661000  0.98952500  0.26953300  1
  H  H28  1  0.75784900  0.18389800  0.00292000  1
  H  H29  1  0.74215100  0.18389800  0.50292000  1
  H  H30  1  0.24215100  0.81610200  0.99708000  1
  H  H31  1  0.25784900  0.81610200  0.49708000  1
  H  H32  1  0.71911700  0.06122000  0.99307600  1
  H  H33  1  0.78088300  0.06122000  0.49307600  1
  H  H34  1  0.28088300  0.93878000  0.00692400  1
  H  H35  1  0.21911700  0.93878000  0.50692400  1
  H  H36  1  0.57833700  0.15978200  0.98446300  1
  H  H37  1  0.92166300  0.15978200  0.48446300  1
  H  H38  1  0.42166300  0.84021800  0.01553700  1
  H  H39  1  0.07833700  0.84021800  0.51553700  1
  H  H40  1  0.77524500  0.87135800  0.24219800  1
  H  H41  1  0.72475500  0.87135800  0.74219800  1
  H  H42  1  0.22475500  0.12864200  0.75780200  1
  H  H43  1  0.27524500  0.12864200  0.25780200  1
  H  H44  1  0.82904100  0.89448400  0.14095000  1
  H  H45  1  0.67095900  0.89448400  0.64095000  1
  H  H46  1  0.17095900  0.10551600  0.85905000  1
  H  H47  1  0.32904100  0.10551600  0.35905000  1
  H  H48  1  0.87392100  0.01428400  0.15191900  1
  H  H49  1  0.62607900  0.01428400  0.65191900  1
  H  H50  1  0.12607900  0.98571600  0.84808100  1
  H  H51  1  0.37392100  0.98571600  0.34808100  1
  H  H52  1  0.59130600  0.63171400  0.74169800  1
  H  H53  1  0.90869400  0.63171400  0.24169800  1
  H  H54  1  0.40869400  0.36828600  0.25830200  1
  H  H55  1  0.09130600  0.36828600  0.75830200  1
  H  H56  1  0.46383300  0.60541000  0.68360700  1
  H  H57  1  0.03616700  0.60541000  0.18360700  1
  H  H58  1  0.53616700  0.39459000  0.31639300  1
  H  H59  1  0.96383300  0.39459000  0.81639300  1
  H  H60  1  0.46678500  0.75782600  0.66068800  1
  H  H61  1  0.03321500  0.75782600  0.16068800  1
  H  H62  1  0.53321500  0.24217400  0.33931200  1
  H  H63  1  0.96678500  0.24217400  0.83931200  1
  H  H64  1  0.40040100  0.76152900  0.78655000  1
  H  H65  1  0.09959900  0.76152900  0.28655000  1
  H  H66  1  0.59959900  0.23847100  0.21345000  1
  H  H67  1  0.90040100  0.23847100  0.71345000  1
  H  H68  1  0.33931500  0.61437900  0.89560400  1
  H  H69  1  0.16068500  0.61437900  0.39560400  1
  H  H70  1  0.66068500  0.38562100  0.10439600  1
  H  H71  1  0.83931500  0.38562100  0.60439600  1
  H  H72  1  0.52241200  0.62966900  0.86268700  1
  H  H73  1  0.97758800  0.62966900  0.36268700  1
  H  H74  1  0.47758800  0.37033100  0.13731300  1
  H  H75  1  0.02241200  0.37033100  0.63731300  1
  H  H76  1  0.22561200  0.74611000  0.70112100  1
  H  H77  1  0.27438800  0.74611000  0.20112100  1
  H  H78  1  0.77438800  0.25389000  0.29887900  1
  H  H79  1  0.72561200  0.25389000  0.79887900  1
  H  H80  1  0.21105000  0.60020600  0.71511800  1
  H  H81  1  0.28895000  0.60020600  0.21511800  1
  H  H82  1  0.78895000  0.39979400  0.28488200  1
  H  H83  1  0.71105000  0.39979400  0.78488200  1
  H  H84  1  0.15358000  0.60007100  0.80637000  1
  H  H85  1  0.34642000  0.60007100  0.30637000  1
  H  H86  1  0.84642000  0.39992900  0.19363000  1
  H  H87  1  0.65358000  0.39992900  0.69363000  1
  H  H88  1  0.31296900  0.41711000  0.91549100  1
  H  H89  1  0.18703100  0.41711000  0.41549100  1
  H  H90  1  0.68703100  0.58289000  0.08450900  1
  H  H91  1  0.81296900  0.58289000  0.58450900  1
  H  H92  1  0.36198300  0.41538200  0.82410300  1
  H  H93  1  0.13801700  0.41538200  0.32410300  1
  H  H94  1  0.63801700  0.58461800  0.17589700  1
  H  H95  1  0.86198300  0.58461800  0.67589700  1
  H  H96  1  0.49688500  0.42641600  0.88713800  1
  H  H97  1  0.00311500  0.42641600  0.38713800  1
  H  H98  1  0.50311500  0.57358400  0.11286200  1
  H  H99  1  0.99688500  0.57358400  0.61286200  1
  C  C100  1  0.54715000  0.91470800  0.14200400  1
  C  C101  1  0.95285000  0.91470800  0.64200400  1
  C  C102  1  0.45285000  0.08529200  0.85799600  1
  C  C103  1  0.04715000  0.08529200  0.35799600  1
  C  C104  1  0.60680300  0.08196500  0.15502400  1
  C  C105  1  0.89319700  0.08196500  0.65502400  1
  C  C106  1  0.39319700  0.91803500  0.84497600  1
  C  C107  1  0.10680300  0.91803500  0.34497600  1
  C  C108  1  0.68011900  0.11185700  0.01742300  1
  C  C109  1  0.81988100  0.11185700  0.51742300  1
  C  C110  1  0.31988100  0.88814300  0.98257700  1
  C  C111  1  0.18011900  0.88814300  0.48257700  1
  C  C112  1  0.79407100  0.94313800  0.16749400  1
  C  C113  1  0.70592900  0.94313800  0.66749400  1
  C  C114  1  0.20592900  0.05686200  0.83250600  1
  C  C115  1  0.29407100  0.05686200  0.33250600  1
  C  C116  1  0.48324200  0.65250400  0.71343600  1
  C  C117  1  0.01675800  0.65250400  0.21343600  1
  C  C118  1  0.51675800  0.34749600  0.28656400  1
  C  C119  1  0.98324200  0.34749600  0.78656400  1
  C  C120  1  0.41246200  0.65540100  0.83751400  1
  C  C121  1  0.08753800  0.65540100  0.33751400  1
  C  C122  1  0.58753800  0.34459900  0.16248600  1
  C  C123  1  0.91246200  0.34459900  0.66248600  1
  C  C124  1  0.23083400  0.63940800  0.75055800  1
  C  C125  1  0.26916600  0.63940800  0.25055800  1
  C  C126  1  0.76916600  0.36059200  0.24944200  1
  C  C127  1  0.73083400  0.36059200  0.74944200  1
  C  C128  1  0.38841100  0.45372900  0.85932200  1
  C  C129  1  0.11158900  0.45372900  0.35932200  1
  C  C130  1  0.61158900  0.54627100  0.14067800  1
  C  C131  1  0.88841100  0.54627100  0.64067800  1
  S  S132  1  0.83821200  0.51423100  0.90307700  1
  S  S133  1  0.66178800  0.51423100  0.40307700  1
  S  S134  1  0.16178800  0.48576900  0.09692300  1
  S  S135  1  0.33821200  0.48576900  0.59692300  1
  S  S136  1  0.18003100  0.11684900  0.05294500  1
  S  S137  1  0.31996900  0.11684900  0.55294500  1
  S  S138  1  0.81996900  0.88315100  0.94705500  1
  S  S139  1  0.68003100  0.88315100  0.44705500  1
  N  N140  1  0.65673200  0.01300700  0.12038800  1
  N  N141  1  0.84326800  0.01300700  0.62038800  1
  N  N142  1  0.34326800  0.98699300  0.87961200  1
  N  N143  1  0.15673200  0.98699300  0.37961200  1
  N  N144  1  0.37856900  0.60012200  0.79054600  1
  N  N145  1  0.12143100  0.60012200  0.29054600  1
  N  N146  1  0.62143100  0.39987800  0.20945400  1
  N  N147  1  0.87856900  0.39987800  0.70945400  1
  O  O148  1  0.94015800  0.22777800  0.14005300  1
  O  O149  1  0.55984200  0.22777800  0.64005300  1
  O  O150  1  0.05984200  0.77222200  0.85994700  1
  O  O151  1  0.44015800  0.77222200  0.35994700  1
  O  O152  1  0.98666300  0.45620900  0.94010900  1
  O  O153  1  0.51333700  0.45620900  0.44010900  1
  O  O154  1  0.01333700  0.54379100  0.05989100  1
  O  O155  1  0.48666300  0.54379100  0.55989100  1
  O  O156  1  0.81045300  0.60198700  0.92748900  1
  O  O157  1  0.68954700  0.60198700  0.42748900  1
  O  O158  1  0.18954700  0.39801300  0.07251100  1
  O  O159  1  0.31045300  0.39801300  0.57251100  1
  O  O160  1  0.84204900  0.59366700  0.80263900  1
  O  O161  1  0.65795100  0.59366700  0.30263900  1
  O  O162  1  0.15795100  0.40633300  0.19736100  1
  O  O163  1  0.34204900  0.40633300  0.69736100  1
  O  O164  1  0.72946100  0.41211000  0.94925200  1
  O  O165  1  0.77053900  0.41211000  0.44925200  1
  O  O166  1  0.27053900  0.58789000  0.05074800  1
  O  O167  1  0.22946100  0.58789000  0.55074800  1
  O  O168  1  0.04603900  0.20194400  0.00403500  1
  O  O169  1  0.45396100  0.20194400  0.50403500  1
  O  O170  1  0.95396100  0.79805600  0.99596500  1
  O  O171  1  0.54603900  0.79805600  0.49596500  1
  O  O172  1  0.14490600  0.97843800  0.12009900  1
  O  O173  1  0.35509400  0.97843800  0.62009900  1
  O  O174  1  0.85509400  0.02156200  0.87990100  1
  O  O175  1  0.64490600  0.02156200  0.37990100  1
  O  O176  1  0.22654200  0.17047400  0.10208200  1
  O  O177  1  0.27345800  0.17047400  0.60208200  1
  O  O178  1  0.77345800  0.82952600  0.89791800  1
  O  O179  1  0.72654200  0.82952600  0.39791800  1
  O  O180  1  0.28719800  0.14757400  0.98549800  1
  O  O181  1  0.21280200  0.14757400  0.48549800  1
  O  O182  1  0.71280200  0.85242600  0.01450200  1
  O  O183  1  0.78719800  0.85242600  0.51450200  1
