# generated using pymatgen
data_UTi22Fe18PbO76
_symmetry_space_group_name_H-M   'P 1'
_cell_length_a   9.44803300
_cell_length_b   9.45981945
_cell_length_c   17.57952838
_cell_angle_alpha   97.09736578
_cell_angle_beta   101.37851636
_cell_angle_gamma   111.30541492
_symmetry_Int_Tables_number   1
_chemical_formula_structural   UTi22Fe18PbO76
_chemical_formula_sum   'U1 Ti22 Fe18 Pb1 O76'
_cell_volume   1401.87807132
_cell_formula_units_Z   1
loop_
 _symmetry_equiv_pos_site_id
 _symmetry_equiv_pos_as_xyz
  1  'x, y, z'
loop_
 _atom_site_type_symbol
 _atom_site_label
 _atom_site_symmetry_multiplicity
 _atom_site_fract_x
 _atom_site_fract_y
 _atom_site_fract_z
 _atom_site_occupancy
  U  U0  1  0.50693500  0.75339200  0.25171000  1
  Ti  Ti1  1  0.18838200  0.33834200  0.65502000  1
  Ti  Ti2  1  0.29925700  0.20284500  0.91972500  1
  Ti  Ti3  1  0.49008900  0.60853400  0.67113400  1
  Ti  Ti4  1  0.27807300  0.77119500  0.64276100  1
  Ti  Ti5  1  0.62320600  0.46920000  0.96052000  1
  Ti  Ti6  1  0.35678300  0.02580700  0.53922500  1
  Ti  Ti7  1  0.70782000  0.68235600  0.83937600  1
  Ti  Ti8  1  0.15405000  0.80723300  0.15379600  1
  Ti  Ti9  1  0.30537200  0.71513300  0.43221100  1
  Ti  Ti10  1  0.48928600  0.89005200  0.82066900  1
  Ti  Ti11  1  0.46797600  0.10330600  0.16908100  1
  Ti  Ti12  1  0.68892700  0.30640500  0.57333400  1
  Ti  Ti13  1  0.85490000  0.16301900  0.85926700  1
  Ti  Ti14  1  0.29071900  0.31047100  0.15936600  1
  Ti  Ti15  1  0.62815800  0.97398100  0.46075200  1
  Ti  Ti16  1  0.92506200  0.38009300  0.73927300  1
  Ti  Ti17  1  0.33840600  0.50661300  0.03846400  1
  Ti  Ti18  1  0.70382500  0.20373900  0.33946800  1
  Ti  Ti19  1  0.52243800  0.40750600  0.32578100  1
  Ti  Ti20  1  0.66618100  0.78580500  0.06983300  1
  Ti  Ti21  1  0.86226000  0.66648100  0.34878100  1
  Ti  Ti22  1  0.93059900  0.87457200  0.23703300  1
  Fe  Fe23  1  0.32042000  0.85448200  0.97961900  1
  Fe  Fe24  1  0.30520900  0.54088000  0.84693200  1
  Fe  Fe25  1  0.20968200  0.01954300  0.72389200  1
  Fe  Fe26  1  0.33664000  0.35914000  0.48161500  1
  Fe  Fe27  1  0.30251900  0.04850800  0.34843900  1
  Fe  Fe28  1  0.60459100  0.07164700  0.69305100  1
  Fe  Fe29  1  0.65820200  0.63671600  0.51096100  1
  Fe  Fe30  1  0.86217400  0.05482900  0.62847300  1
  Fe  Fe31  1  0.94448800  0.23647400  0.49958900  1
  Fe  Fe32  1  0.01000900  0.92925900  0.85816800  1
  Fe  Fe33  1  0.89313700  0.70211600  0.67501900  1
  Fe  Fe34  1  0.97805600  0.87468800  0.53681100  1
  Fe  Fe35  1  0.70283200  0.46288300  0.15170100  1
  Fe  Fe36  1  0.64380200  0.13181000  0.01040300  1
  Fe  Fe37  1  0.93704600  0.71809200  0.00111300  1
  Fe  Fe38  1  0.04410700  0.43631600  0.35516200  1
  Fe  Fe39  1  0.87148400  0.18991300  0.17860000  1
  Fe  Fe40  1  0.97864800  0.41803500  0.06306800  1
  Pb  Pb41  1  0.99248800  0.06180200  0.02629900  1
  O  O42  1  0.24061700  0.68252200  0.89220200  1
  O  O43  1  0.06231500  0.15876400  0.88988000  1
  O  O44  1  0.14528500  0.39828800  0.75614300  1
  O  O45  1  0.01629600  0.90097100  0.75197300  1
  O  O46  1  0.25213000  0.57554600  0.64712300  1
  O  O47  1  0.09667500  0.11471700  0.65080100  1
  O  O48  1  0.16630000  0.31095900  0.54045100  1
  O  O49  1  0.38254800  0.44847000  0.93182500  1
  O  O50  1  0.22392400  0.99591400  0.93136500  1
  O  O51  1  0.08074100  0.79070200  0.62099300  1
  O  O52  1  0.48759900  0.68123000  0.81399800  1
  O  O53  1  0.30522900  0.17328200  0.81891100  1
  O  O54  1  0.15938300  0.98930800  0.50615100  1
  O  O55  1  0.39542000  0.40396000  0.68874000  1
  O  O56  1  0.23636000  0.18780800  0.39451500  1
  O  O57  1  0.07415900  0.65176400  0.38010100  1
  O  O58  1  0.48806600  0.55961800  0.56925200  1
  O  O59  1  0.29955800  0.86278000  0.75766000  1
  O  O60  1  0.14646600  0.89750400  0.25976600  1
  O  O61  1  0.71742500  0.72524200  0.97461300  1
  O  O62  1  0.53129000  0.26117000  0.96496800  1
  O  O63  1  0.37611900  0.03223000  0.65083700  1
  O  O64  1  0.97917100  0.38394600  0.25126700  1
  O  O65  1  0.62829200  0.48544500  0.85828900  1
  O  O66  1  0.26103400  0.10063100  0.15424400  1
  O  O67  1  0.08395800  0.60742100  0.14645600  1
  O  O68  1  0.46723400  0.24104800  0.53754500  1
  O  O69  1  0.30111400  0.78543700  0.53401500  1
  O  O70  1  0.70086200  0.65591700  0.73019800  1
  O  O71  1  0.50415000  0.94790300  0.92665600  1
  O  O72  1  0.16105700  0.80830300  0.04423500  1
  O  O73  1  0.39104600  0.95198500  0.43043700  1
  O  O74  1  0.24980500  0.50459800  0.42516400  1
  O  O75  1  0.62090000  0.08377200  0.80871600  1
  O  O76  1  0.06430400  0.27704800  0.12316200  1
  O  O77  1  0.83606500  0.50403600  0.00151500  1
  O  O78  1  0.48327100  0.17870700  0.31549400  1
  O  O79  1  0.35331200  0.70494600  0.31047700  1
  O  O80  1  0.69796100  0.29445000  0.68093800  1
  O  O81  1  0.50773000  0.82861800  0.68738500  1
  O  O82  1  0.14230400  0.48393500  0.00986100  1
  O  O83  1  0.92432800  0.73053100  0.88999300  1
  O  O84  1  0.38746600  0.88777900  0.19244000  1
  O  O85  1  0.76165700  0.51483900  0.57908600  1
  O  O86  1  0.61928700  0.04591100  0.57297300  1
  O  O87  1  0.83666200  0.19798000  0.96713800  1
  O  O88  1  0.47454600  0.04909500  0.06907100  1
  O  O89  1  0.32682500  0.37229800  0.26720400  1
  O  O90  1  0.71659800  0.21720700  0.46873000  1
  O  O91  1  0.53903000  0.76569500  0.46191400  1
  O  O92  1  0.90733000  0.35671500  0.84028500  1
  O  O93  1  0.79226000  0.91849100  0.85562300  1
  O  O94  1  0.37946300  0.54659300  0.15483000  1
  O  O95  1  0.96434000  0.57247200  0.73140200  1
  O  O96  1  0.62983400  0.97197400  0.35179300  1
  O  O97  1  0.45857000  0.73857100  0.03815600  1
  O  O98  1  0.29485800  0.29527500  0.04292800  1
  O  O99  1  0.83399600  0.11134200  0.72975300  1
  O  O100  1  0.68336600  0.14128700  0.23126900  1
  O  O101  1  0.51938600  0.44984400  0.42927800  1
  O  O102  1  0.92631000  0.28930500  0.61320600  1
  O  O103  1  0.80857300  0.82306700  0.59958500  1
  O  O104  1  0.61942700  0.61995900  0.31116500  1
  O  O105  1  0.85078100  0.01618300  0.50445900  1
  O  O106  1  0.67567100  0.80951700  0.19164200  1
  O  O107  1  0.52744600  0.33091800  0.18613700  1
  O  O108  1  0.92698900  0.26040100  0.39016400  1
  O  O109  1  0.75556100  0.00845500  0.07848500  1
  O  O110  1  0.61232600  0.55366900  0.07244900  1
  O  O111  1  0.83391900  0.69744400  0.45642000  1
  O  O112  1  0.92032300  0.86625000  0.34240900  1
  O  O113  1  0.74673700  0.41677100  0.34274500  1
  O  O114  1  0.95652300  0.06760300  0.23189300  1
  O  O115  1  0.84121600  0.62740400  0.23483000  1
  O  O116  1  0.93654900  0.81455400  0.11822300  1
  O  O117  1  0.78033600  0.31164000  0.10615600  1
