# generated using pymatgen
data_W3O8
_symmetry_space_group_name_H-M   'P 1'
_cell_length_a   6.25990485
_cell_length_b   7.35891826
_cell_length_c   7.35891826
_cell_angle_alpha   63.44572604
_cell_angle_beta   113.06917809
_cell_angle_gamma   113.06917809
_symmetry_Int_Tables_number   1
_chemical_formula_structural   W3O8
_chemical_formula_sum   'W6 O16'
_cell_volume   269.14489186
_cell_formula_units_Z   2
loop_
 _symmetry_equiv_pos_site_id
 _symmetry_equiv_pos_as_xyz
  1  'x, y, z'
loop_
 _atom_site_type_symbol
 _atom_site_label
 _atom_site_symmetry_multiplicity
 _atom_site_fract_x
 _atom_site_fract_y
 _atom_site_fract_z
 _atom_site_occupancy
  W  W0  1  0.68108900  0.15962900  0.15962900  1
  W  W1  1  0.68196400  0.65870100  0.65870100  1
  W  W2  1  0.31321000  0.34274400  0.34274400  1
  W  W3  1  0.31548800  0.84293200  0.84293200  1
  W  W4  1  0.99969000  0.99962600  0.99962600  1
  W  W5  1  0.00120100  0.50012700  0.50012700  1
  O  O6  1  0.96569600  0.83178900  0.83178900  1
  O  O7  1  0.96915400  0.33387300  0.33387300  1
  O  O8  1  0.03641900  0.66930800  0.66930800  1
  O  O9  1  0.03722200  0.16982900  0.16982900  1
  O  O10  1  0.66071300  0.48131100  0.48131100  1
  O  O11  1  0.66087200  0.98162800  0.98162800  1
  O  O12  1  0.33178400  0.01445300  0.01445300  1
  O  O13  1  0.33697100  0.51818000  0.51818000  1
  O  O14  1  0.50471600  0.24760300  0.24760300  1
  O  O15  1  0.50127400  0.74942000  0.74942000  1
  O  O16  1  0.99925000  0.75052900  0.25029000  1
  O  O17  1  0.99925000  0.25029000  0.75052900  1
  O  O18  1  0.31109200  0.08779100  0.60099400  1
  O  O19  1  0.31109200  0.60099400  0.08779100  1
  O  O20  1  0.69092800  0.89674900  0.41249500  1
  O  O21  1  0.69092800  0.41249500  0.89674900  1
