# generated using pymatgen
data_CO
_symmetry_space_group_name_H-M   'P 1'
_cell_length_a   5.96380800
_cell_length_b   5.96380800
_cell_length_c   5.96380800
_cell_angle_alpha   90.00000000
_cell_angle_beta   90.00000000
_cell_angle_gamma   90.00000000
_symmetry_Int_Tables_number   1
_chemical_formula_structural   CO
_chemical_formula_sum   'C4 O4'
_cell_volume   212.11479409
_cell_formula_units_Z   4
loop_
 _symmetry_equiv_pos_site_id
 _symmetry_equiv_pos_as_xyz
  1  'x, y, z'
loop_
 _atom_site_type_symbol
 _atom_site_label
 _atom_site_symmetry_multiplicity
 _atom_site_fract_x
 _atom_site_fract_y
 _atom_site_fract_z
 _atom_site_occupancy
  C  C0  1  0.95916400  0.95916400  0.95916400  1
  C  C1  1  0.54083600  0.04083600  0.45916400  1
  C  C2  1  0.45916400  0.54083600  0.04083600  1
  C  C3  1  0.04083600  0.45916400  0.54083600  1
  O  O4  1  0.06981800  0.06981800  0.06981800  1
  O  O5  1  0.43018200  0.93018200  0.56981800  1
  O  O6  1  0.56981800  0.43018200  0.93018200  1
  O  O7  1  0.93018200  0.56981800  0.43018200  1
