# generated using pymatgen
data_MgH12(SO6)2
_symmetry_space_group_name_H-M   'P 1'
_cell_length_a   7.63495200
_cell_length_b   7.77280656
_cell_length_c   7.81166297
_cell_angle_alpha   100.96446570
_cell_angle_beta   98.98097254
_cell_angle_gamma   98.23898850
_symmetry_Int_Tables_number   1
_chemical_formula_structural   MgH12(SO6)2
_chemical_formula_sum   'Mg1 H12 S2 O12'
_cell_volume   442.32962525
_cell_formula_units_Z   1
loop_
 _symmetry_equiv_pos_site_id
 _symmetry_equiv_pos_as_xyz
  1  'x, y, z'
loop_
 _atom_site_type_symbol
 _atom_site_label
 _atom_site_symmetry_multiplicity
 _atom_site_fract_x
 _atom_site_fract_y
 _atom_site_fract_z
 _atom_site_occupancy
  Mg  Mg0  1  0.00000000  0.00000000  0.00000000  1
  H  H1  1  0.48301700  0.93440800  0.73953900  1
  H  H2  1  0.51698300  0.06559200  0.26046100  1
  H  H3  1  0.70823400  0.28712800  0.84364100  1
  H  H4  1  0.29176600  0.71287200  0.15635900  1
  H  H5  1  0.85028400  0.93106200  0.47539400  1
  H  H6  1  0.14971600  0.06893800  0.52460600  1
  H  H7  1  0.82103800  0.35664000  0.71600800  1
  H  H8  1  0.17896200  0.64336000  0.28399200  1
  H  H9  1  0.54617300  0.91422700  0.56054900  1
  H  H10  1  0.45382700  0.08577300  0.43945100  1
  H  H11  1  0.84267100  0.87198200  0.54046200  1
  H  H12  1  0.15732900  0.12801800  0.45953800  1
  S  S13  1  0.48071200  0.54139900  0.62724900  1
  S  S14  1  0.51928800  0.45860100  0.37275100  1
  O  O15  1  0.89164300  0.13061500  0.19488200  1
  O  O16  1  0.10835700  0.86938500  0.80511800  1
  O  O17  1  0.25944000  0.97613100  0.08591200  1
  O  O18  1  0.74056000  0.02386900  0.91408800  1
  O  O19  1  0.73031500  0.11337200  0.08460800  1
  O  O20  1  0.26968500  0.88662800  0.91539200  1
  O  O21  1  0.76656200  0.39685200  0.81757800  1
  O  O22  1  0.23343800  0.60314800  0.18242200  1
  O  O23  1  0.29441800  0.46408500  0.64094300  1
  O  O24  1  0.70558200  0.53591500  0.35905700  1
  O  O25  1  0.43776200  0.89694200  0.61164700  1
  O  O26  1  0.56223800  0.10305800  0.38835300  1
