# generated using pymatgen
data_CaH6C2(NO)4
_symmetry_space_group_name_H-M   'P 1'
_cell_length_a   9.63561600
_cell_length_b   8.37279400
_cell_length_c   9.43086443
_cell_angle_alpha   66.84164710
_cell_angle_beta   90.00000000
_cell_angle_gamma   90.00000000
_symmetry_Int_Tables_number   1
_chemical_formula_structural   CaH6C2(NO)4
_chemical_formula_sum   'Ca4 H24 C8 N16 O16'
_cell_volume   699.54558702
_cell_formula_units_Z   4
loop_
 _symmetry_equiv_pos_site_id
 _symmetry_equiv_pos_as_xyz
  1  'x, y, z'
loop_
 _atom_site_type_symbol
 _atom_site_label
 _atom_site_symmetry_multiplicity
 _atom_site_fract_x
 _atom_site_fract_y
 _atom_site_fract_z
 _atom_site_occupancy
  Ca  Ca0  1  0.02499200  0.20074700  0.81428400  1
  Ca  Ca1  1  0.52499200  0.79925300  0.68571600  1
  Ca  Ca2  1  0.97500800  0.79925300  0.18571600  1
  Ca  Ca3  1  0.47500800  0.20074700  0.31428400  1
  H  H4  1  0.75363800  0.44737200  0.02573100  1
  H  H5  1  0.25363800  0.55262800  0.47426900  1
  H  H6  1  0.24636200  0.55262800  0.97426900  1
  H  H7  1  0.74636200  0.44737200  0.52573100  1
  H  H8  1  0.87924800  0.19765200  0.10296100  1
  H  H9  1  0.37924800  0.80234800  0.39703900  1
  H  H10  1  0.12075200  0.80234800  0.89703900  1
  H  H11  1  0.62075200  0.19765200  0.60296100  1
  H  H12  1  0.00041300  0.35005600  0.06132800  1
  H  H13  1  0.50041300  0.64994400  0.43867200  1
  H  H14  1  0.99958700  0.64994400  0.93867200  1
  H  H15  1  0.49958700  0.35005600  0.56132800  1
  H  H16  1  0.16586100  0.13912100  0.39830400  1
  H  H17  1  0.66586100  0.86087900  0.10169600  1
  H  H18  1  0.83413900  0.86087900  0.60169600  1
  H  H19  1  0.33413900  0.13912100  0.89830400  1
  H  H20  1  0.04641000  0.35079200  0.46690000  1
  H  H21  1  0.54641000  0.64920800  0.03310000  1
  H  H22  1  0.95359000  0.64920800  0.53310000  1
  H  H23  1  0.45359000  0.35079200  0.96690000  1
  H  H24  1  0.94095100  0.18553900  0.49119300  1
  H  H25  1  0.44095100  0.81446100  0.00880700  1
  H  H26  1  0.05904900  0.81446100  0.50880700  1
  H  H27  1  0.55904900  0.18553900  0.99119300  1
  C  C28  1  0.77325700  0.46496700  0.80079300  1
  C  C29  1  0.27325700  0.53503300  0.69920700  1
  C  C30  1  0.22674300  0.53503300  0.19920700  1
  C  C31  1  0.72674300  0.46496700  0.30079300  1
  C  C32  1  0.24575000  0.06993100  0.61667600  1
  C  C33  1  0.74575000  0.93006900  0.88332400  1
  C  C34  1  0.75425000  0.93006900  0.38332400  1
  C  C35  1  0.25425000  0.06993100  0.11667600  1
  N  N36  1  0.82173800  0.43144000  0.94827900  1
  N  N37  1  0.32173800  0.56856000  0.55172100  1
  N  N38  1  0.17826200  0.56856000  0.05172100  1
  N  N39  1  0.67826200  0.43144000  0.44827900  1
  N  N40  1  0.92386400  0.30109100  0.01460200  1
  N  N41  1  0.42386400  0.69890900  0.48539800  1
  N  N42  1  0.07613600  0.69890900  0.98539800  1
  N  N43  1  0.57613600  0.30109100  0.51460200  1
  N  N44  1  0.14083200  0.12404900  0.50829200  1
  N  N45  1  0.64083200  0.87595100  0.99170800  1
  N  N46  1  0.85916800  0.87595100  0.49170800  1
  N  N47  1  0.35916800  0.12404900  0.00829200  1
  N  N48  1  0.02924000  0.22073800  0.53141100  1
  N  N49  1  0.52924000  0.77926200  0.96858900  1
  N  N50  1  0.97076000  0.77926200  0.46858900  1
  N  N51  1  0.47076000  0.22073800  0.03141100  1
  O  O52  1  0.84015100  0.40482100  0.71453900  1
  O  O53  1  0.34015100  0.59517900  0.78546100  1
  O  O54  1  0.15984900  0.59517900  0.28546100  1
  O  O55  1  0.65984900  0.40482100  0.21453900  1
  O  O56  1  0.66501700  0.55947000  0.75971500  1
  O  O57  1  0.16501700  0.44053000  0.74028500  1
  O  O58  1  0.33498300  0.44053000  0.24028500  1
  O  O59  1  0.83498300  0.55947000  0.25971500  1
  O  O60  1  0.22088900  0.05741400  0.75335700  1
  O  O61  1  0.72088900  0.94258600  0.74664300  1
  O  O62  1  0.77911100  0.94258600  0.24664300  1
  O  O63  1  0.27911100  0.05741400  0.25335700  1
  O  O64  1  0.36177100  0.03166400  0.56994300  1
  O  O65  1  0.86177100  0.96833600  0.93005700  1
  O  O66  1  0.63822900  0.96833600  0.43005700  1
  O  O67  1  0.13822900  0.03166400  0.06994300  1
