# generated using pymatgen
data_YH8C2S2NO9
_symmetry_space_group_name_H-M   'P 1'
_cell_length_a   19.62356200
_cell_length_b   5.59424800
_cell_length_c   10.84105241
_cell_angle_alpha   59.14463606
_cell_angle_beta   90.00000000
_cell_angle_gamma   90.00000000
_symmetry_Int_Tables_number   1
_chemical_formula_structural   YH8C2S2NO9
_chemical_formula_sum   'Y4 H32 C8 S8 N4 O36'
_cell_volume   1021.67661239
_cell_formula_units_Z   4
loop_
 _symmetry_equiv_pos_site_id
 _symmetry_equiv_pos_as_xyz
  1  'x, y, z'
loop_
 _atom_site_type_symbol
 _atom_site_label
 _atom_site_symmetry_multiplicity
 _atom_site_fract_x
 _atom_site_fract_y
 _atom_site_fract_z
 _atom_site_occupancy
  Y  Y0  1  0.51010100  0.42231900  0.34041900  1
  Y  Y1  1  0.98989900  0.42231900  0.84041900  1
  Y  Y2  1  0.48989900  0.57768100  0.65958100  1
  Y  Y3  1  0.01010100  0.57768100  0.15958100  1
  H  H4  1  0.69547600  0.35194400  0.38583800  1
  H  H5  1  0.80452400  0.35194400  0.88583800  1
  H  H6  1  0.30452400  0.64805600  0.61416200  1
  H  H7  1  0.19547600  0.64805600  0.11416200  1
  H  H8  1  0.73497600  0.13908600  0.34897700  1
  H  H9  1  0.76502400  0.13908600  0.84897700  1
  H  H10  1  0.26502400  0.86091400  0.65102300  1
  H  H11  1  0.23497600  0.86091400  0.15102300  1
  H  H12  1  0.79498100  0.56095800  0.14538300  1
  H  H13  1  0.70501900  0.56095800  0.64538300  1
  H  H14  1  0.20501900  0.43904200  0.85461700  1
  H  H15  1  0.29498100  0.43904200  0.35461700  1
  H  H16  1  0.78602100  0.20085200  0.54217600  1
  H  H17  1  0.71397900  0.20085200  0.04217600  1
  H  H18  1  0.21397900  0.79914800  0.45782400  1
  H  H19  1  0.28602100  0.79914800  0.95782400  1
  H  H20  1  0.80947400  0.54471600  0.39859500  1
  H  H21  1  0.69052600  0.54471600  0.89859500  1
  H  H22  1  0.19052600  0.45528400  0.60140500  1
  H  H23  1  0.30947400  0.45528400  0.10140500  1
  H  H24  1  0.84367800  0.24452200  0.40239000  1
  H  H25  1  0.65632200  0.24452200  0.90239000  1
  H  H26  1  0.15632200  0.75547800  0.59761000  1
  H  H27  1  0.34367800  0.75547800  0.09761000  1
  H  H28  1  0.70633000  0.50596500  0.12702300  1
  H  H29  1  0.79367000  0.50596500  0.62702300  1
  H  H30  1  0.29367000  0.49403500  0.87297700  1
  H  H31  1  0.20633000  0.49403500  0.37297700  1
  H  H32  1  0.73122300  0.75133000  0.17810200  1
  H  H33  1  0.76877700  0.75133000  0.67810200  1
  H  H34  1  0.26877700  0.24867000  0.82189800  1
  H  H35  1  0.23122300  0.24867000  0.32189800  1
  C  C36  1  0.74360500  0.55354800  0.18634300  1
  C  C37  1  0.75639500  0.55354800  0.68634300  1
  C  C38  1  0.25639500  0.44645200  0.81365700  1
  C  C39  1  0.24360500  0.44645200  0.31365700  1
  C  C40  1  0.79930500  0.32936000  0.42817700  1
  C  C41  1  0.70069500  0.32936000  0.92817700  1
  C  C42  1  0.20069500  0.67064000  0.57182300  1
  C  C43  1  0.29930500  0.67064000  0.07182300  1
  S  S44  1  0.39696000  0.93105500  0.33164100  1
  S  S45  1  0.10304000  0.93105500  0.83164100  1
  S  S46  1  0.60304000  0.06894500  0.66835900  1
  S  S47  1  0.89696000  0.06894500  0.16835900  1
  S  S48  1  0.59812700  0.91303200  0.32634200  1
  S  S49  1  0.90187300  0.91303200  0.82634200  1
  S  S50  1  0.40187300  0.08696800  0.67365800  1
  S  S51  1  0.09812700  0.08696800  0.17365800  1
  N  N52  1  0.74007300  0.33073800  0.34137100  1
  N  N53  1  0.75992700  0.33073800  0.84137100  1
  N  N54  1  0.25992700  0.66926200  0.65862900  1
  N  N55  1  0.24007300  0.66926200  0.15862900  1
  O  O56  1  0.32580700  0.97418100  0.28824300  1
  O  O57  1  0.17419300  0.97418100  0.78824300  1
  O  O58  1  0.67419300  0.02581900  0.71175700  1
  O  O59  1  0.82580700  0.02581900  0.21175700  1
  O  O60  1  0.43173800  0.76554400  0.27625200  1
  O  O61  1  0.06826200  0.76554400  0.77625200  1
  O  O62  1  0.56826200  0.23445600  0.72374800  1
  O  O63  1  0.93173800  0.23445600  0.22374800  1
  O  O64  1  0.43337900  0.20397000  0.27435200  1
  O  O65  1  0.06662100  0.20397000  0.77435200  1
  O  O66  1  0.56662100  0.79603000  0.72564800  1
  O  O67  1  0.93337900  0.79603000  0.22564800  1
  O  O68  1  0.40298000  0.77429400  0.49369500  1
  O  O69  1  0.09702000  0.77429400  0.99369500  1
  O  O70  1  0.59702000  0.22570600  0.50630500  1
  O  O71  1  0.90298000  0.22570600  0.00630500  1
  O  O72  1  0.58763900  0.78527500  0.23546700  1
  O  O73  1  0.91236100  0.78527500  0.73546700  1
  O  O74  1  0.41236100  0.21472500  0.76453300  1
  O  O75  1  0.08763900  0.21472500  0.26453300  1
  O  O76  1  0.58086100  0.21560600  0.24333300  1
  O  O77  1  0.91913900  0.21560600  0.74333300  1
  O  O78  1  0.41913900  0.78439400  0.75666700  1
  O  O79  1  0.08086100  0.78439400  0.25666700  1
  O  O80  1  0.54585600  0.76959300  0.44695800  1
  O  O81  1  0.95414400  0.76959300  0.94695800  1
  O  O82  1  0.45414400  0.23040700  0.55304200  1
  O  O83  1  0.04585600  0.23040700  0.05304200  1
  O  O84  1  0.66758500  0.86444500  0.38168600  1
  O  O85  1  0.83241500  0.86444500  0.88168600  1
  O  O86  1  0.33241500  0.13555500  0.61831400  1
  O  O87  1  0.16758500  0.13555500  0.11831400  1
  O  O88  1  0.49967200  0.87758900  0.01649100  1
  O  O89  1  0.00032800  0.87758900  0.51649100  1
  O  O90  1  0.50032800  0.12241100  0.98350900  1
  O  O91  1  0.99967200  0.12241100  0.48350900  1
