# generated using pymatgen
data_H24PdC8(NCl2)2
_symmetry_space_group_name_H-M   'P 1'
_cell_length_a   8.98062200
_cell_length_b   8.98062200
_cell_length_c   11.59353900
_cell_angle_alpha   90.00000000
_cell_angle_beta   90.00000000
_cell_angle_gamma   90.00000000
_symmetry_Int_Tables_number   1
_chemical_formula_structural   H24PdC8(NCl2)2
_chemical_formula_sum   'H48 Pd2 C16 N4 Cl8'
_cell_volume   935.03713968
_cell_formula_units_Z   2
loop_
 _symmetry_equiv_pos_site_id
 _symmetry_equiv_pos_as_xyz
  1  'x, y, z'
loop_
 _atom_site_type_symbol
 _atom_site_label
 _atom_site_symmetry_multiplicity
 _atom_site_fract_x
 _atom_site_fract_y
 _atom_site_fract_z
 _atom_site_occupancy
  H  H0  1  0.02458400  0.66218300  0.11898100  1
  H  H1  1  0.97541600  0.33781700  0.11898100  1
  H  H2  1  0.47541600  0.16218300  0.61898100  1
  H  H3  1  0.52458400  0.83781700  0.61898100  1
  H  H4  1  0.97541600  0.33781700  0.88101900  1
  H  H5  1  0.02458400  0.66218300  0.88101900  1
  H  H6  1  0.52458400  0.83781700  0.38101900  1
  H  H7  1  0.47541600  0.16218300  0.38101900  1
  H  H8  1  0.66218300  0.02458400  0.11898100  1
  H  H9  1  0.33781700  0.97541600  0.11898100  1
  H  H10  1  0.16218300  0.47541600  0.61898100  1
  H  H11  1  0.83781700  0.52458400  0.61898100  1
  H  H12  1  0.33781700  0.97541600  0.88101900  1
  H  H13  1  0.66218300  0.02458400  0.88101900  1
  H  H14  1  0.83781700  0.52458400  0.38101900  1
  H  H15  1  0.16218300  0.47541600  0.38101900  1
  H  H16  1  0.84448600  0.57161000  0.12434700  1
  H  H17  1  0.15551400  0.42839000  0.12434700  1
  H  H18  1  0.65551400  0.07161000  0.62434700  1
  H  H19  1  0.34448600  0.92839000  0.62434700  1
  H  H20  1  0.15551400  0.42839000  0.87565300  1
  H  H21  1  0.84448600  0.57161000  0.87565300  1
  H  H22  1  0.34448600  0.92839000  0.37565300  1
  H  H23  1  0.65551400  0.07161000  0.37565300  1
  H  H24  1  0.57161000  0.84448600  0.12434700  1
  H  H25  1  0.42839000  0.15551400  0.12434700  1
  H  H26  1  0.07161000  0.65551400  0.62434700  1
  H  H27  1  0.92839000  0.34448600  0.62434700  1
  H  H28  1  0.42839000  0.15551400  0.87565300  1
  H  H29  1  0.57161000  0.84448600  0.87565300  1
  H  H30  1  0.92839000  0.34448600  0.37565300  1
  H  H31  1  0.07161000  0.65551400  0.37565300  1
  H  H32  1  0.89505500  0.70990400  0.23058400  1
  H  H33  1  0.10494500  0.29009600  0.23058400  1
  H  H34  1  0.60494500  0.20990400  0.73058400  1
  H  H35  1  0.39505500  0.79009600  0.73058400  1
  H  H36  1  0.10494500  0.29009600  0.76941600  1
  H  H37  1  0.89505500  0.70990400  0.76941600  1
  H  H38  1  0.39505500  0.79009600  0.26941600  1
  H  H39  1  0.60494500  0.20990400  0.26941600  1
  H  H40  1  0.70990400  0.89505500  0.23058400  1
  H  H41  1  0.29009600  0.10494500  0.23058400  1
  H  H42  1  0.20990400  0.60494500  0.73058400  1
  H  H43  1  0.79009600  0.39505500  0.73058400  1
  H  H44  1  0.29009600  0.10494500  0.76941600  1
  H  H45  1  0.70990400  0.89505500  0.76941600  1
  H  H46  1  0.79009600  0.39505500  0.26941600  1
  H  H47  1  0.20990400  0.60494500  0.26941600  1
  Pd  Pd48  1  0.50000000  0.50000000  0.00000000  1
  Pd  Pd49  1  0.00000000  0.00000000  0.50000000  1
  C  C50  1  0.93553100  0.61999600  0.17501800  1
  C  C51  1  0.06446900  0.38000400  0.17501800  1
  C  C52  1  0.56446900  0.11999600  0.67501800  1
  C  C53  1  0.43553100  0.88000400  0.67501800  1
  C  C54  1  0.06446900  0.38000400  0.82498200  1
  C  C55  1  0.93553100  0.61999600  0.82498200  1
  C  C56  1  0.43553100  0.88000400  0.32498200  1
  C  C57  1  0.56446900  0.11999600  0.32498200  1
  C  C58  1  0.61999600  0.93553100  0.17501800  1
  C  C59  1  0.38000400  0.06446900  0.17501800  1
  C  C60  1  0.11999600  0.56446900  0.67501800  1
  C  C61  1  0.88000400  0.43553100  0.67501800  1
  C  C62  1  0.38000400  0.06446900  0.82498200  1
  C  C63  1  0.61999600  0.93553100  0.82498200  1
  C  C64  1  0.88000400  0.43553100  0.32498200  1
  C  C65  1  0.11999600  0.56446900  0.32498200  1
  N  N66  1  0.00000000  0.50000000  0.25000000  1
  N  N67  1  0.50000000  0.00000000  0.75000000  1
  N  N68  1  0.00000000  0.50000000  0.75000000  1
  N  N69  1  0.50000000  0.00000000  0.25000000  1
  Cl  Cl70  1  0.50000000  0.50000000  0.79954300  1
  Cl  Cl71  1  0.00000000  0.00000000  0.29954300  1
  Cl  Cl72  1  0.50000000  0.50000000  0.20045700  1
  Cl  Cl73  1  0.00000000  0.00000000  0.70045700  1
  Cl  Cl74  1  0.31561500  0.68438500  0.00000000  1
  Cl  Cl75  1  0.68438500  0.31561500  0.00000000  1
  Cl  Cl76  1  0.18438500  0.18438500  0.50000000  1
  Cl  Cl77  1  0.81561500  0.81561500  0.50000000  1
