# generated using pymatgen
data_CaMgB6(HO)22
_symmetry_space_group_name_H-M   'P 1'
_cell_length_a   7.11087881
_cell_length_b   7.11087881
_cell_length_c   19.46448758
_cell_angle_alpha   89.68199105
_cell_angle_beta   89.68199105
_cell_angle_gamma   63.26713626
_symmetry_Int_Tables_number   1
_chemical_formula_structural   CaMgB6(HO)22
_chemical_formula_sum   'Ca2 Mg2 B12 H44 O44'
_cell_volume   878.99613476
_cell_formula_units_Z   2
loop_
 _symmetry_equiv_pos_site_id
 _symmetry_equiv_pos_as_xyz
  1  'x, y, z'
loop_
 _atom_site_type_symbol
 _atom_site_label
 _atom_site_symmetry_multiplicity
 _atom_site_fract_x
 _atom_site_fract_y
 _atom_site_fract_z
 _atom_site_occupancy
  Ca  Ca0  1  0.21407400  0.78592600  0.75000000  1
  Ca  Ca1  1  0.78592600  0.21407400  0.25000000  1
  Mg  Mg2  1  0.00000000  0.00000000  0.50000000  1
  Mg  Mg3  1  0.00000000  0.00000000  0.00000000  1
  B  B4  1  0.85962300  0.94297500  0.65007300  1
  B  B5  1  0.05702500  0.14037700  0.84992700  1
  B  B6  1  0.14037700  0.05702500  0.34992700  1
  B  B7  1  0.94297500  0.85962300  0.15007300  1
  B  B8  1  0.94690000  0.24630400  0.64216300  1
  B  B9  1  0.75369600  0.05310000  0.85783700  1
  B  B10  1  0.05310000  0.75369600  0.35783700  1
  B  B11  1  0.24630400  0.94690000  0.14216300  1
  B  B12  1  0.57928100  0.30959300  0.66538900  1
  B  B13  1  0.69040700  0.42071900  0.83461100  1
  B  B14  1  0.42071900  0.69040700  0.33461100  1
  B  B15  1  0.30959300  0.57928100  0.16538900  1
  H  H16  1  0.78384100  0.82401800  0.56321800  1
  H  H17  1  0.17598200  0.21615900  0.93678200  1
  H  H18  1  0.21615900  0.17598200  0.43678200  1
  H  H19  1  0.82401800  0.78384100  0.06321800  1
  H  H20  1  0.94486000  0.62852500  0.68379200  1
  H  H21  1  0.37147500  0.05514000  0.81620800  1
  H  H22  1  0.05514000  0.37147500  0.31620800  1
  H  H23  1  0.62852500  0.94486000  0.18379200  1
  H  H24  1  0.27090900  0.38983400  0.67496000  1
  H  H25  1  0.61016600  0.72909100  0.82504000  1
  H  H26  1  0.72909100  0.61016600  0.32504000  1
  H  H27  1  0.38983400  0.27090900  0.17496000  1
  H  H28  1  0.11584500  0.26078900  0.72293300  1
  H  H29  1  0.73921100  0.88415500  0.77706700  1
  H  H30  1  0.88415500  0.73921100  0.27706700  1
  H  H31  1  0.26078900  0.11584500  0.22293300  1
  H  H32  1  0.88597700  0.38425500  0.54426300  1
  H  H33  1  0.61574500  0.11402300  0.95573700  1
  H  H34  1  0.11402300  0.61574500  0.45573700  1
  H  H35  1  0.38425500  0.88597700  0.04426300  1
  H  H36  1  0.34429300  0.82685100  0.58735000  1
  H  H37  1  0.17314900  0.65570700  0.91265000  1
  H  H38  1  0.65570700  0.17314900  0.41265000  1
  H  H39  1  0.82685100  0.34429300  0.08735000  1
  H  H40  1  0.44072100  0.74907300  0.51308000  1
  H  H41  1  0.25092700  0.55927900  0.98692000  1
  H  H42  1  0.55927900  0.25092700  0.48692000  1
  H  H43  1  0.74907300  0.44072100  0.01308000  1
  H  H44  1  0.52014000  0.91951400  0.67148300  1
  H  H45  1  0.08048600  0.47986000  0.82851700  1
  H  H46  1  0.47986000  0.08048600  0.32851700  1
  H  H47  1  0.91951400  0.52014000  0.17148300  1
  H  H48  1  0.58801600  0.66847000  0.66582000  1
  H  H49  1  0.33153000  0.41198400  0.83418000  1
  H  H50  1  0.41198400  0.33153000  0.33418000  1
  H  H51  1  0.66847000  0.58801600  0.16582000  1
  H  H52  1  0.28301100  0.48887400  0.55408500  1
  H  H53  1  0.51112600  0.71698900  0.94591500  1
  H  H54  1  0.71698900  0.51112600  0.44591500  1
  H  H55  1  0.48887400  0.28301100  0.05408500  1
  H  H56  1  0.22836500  0.30100500  0.54455700  1
  H  H57  1  0.69899500  0.77163500  0.95544300  1
  H  H58  1  0.77163500  0.69899500  0.45544300  1
  H  H59  1  0.30100500  0.22836500  0.04455700  1
  O  O60  1  0.00282500  0.03230500  0.66332900  1
  O  O61  1  0.96769500  0.99717500  0.83667100  1
  O  O62  1  0.99717500  0.96769500  0.33667100  1
  O  O63  1  0.03230500  0.00282500  0.16332900  1
  O  O64  1  0.89134900  0.86442600  0.57750600  1
  O  O65  1  0.13557400  0.10865100  0.92249400  1
  O  O66  1  0.10865100  0.13557400  0.42249400  1
  O  O67  1  0.86442600  0.89134900  0.07750600  1
  O  O68  1  0.90745600  0.77112600  0.70093600  1
  O  O69  1  0.22887400  0.09254400  0.79906400  1
  O  O70  1  0.09254400  0.22887400  0.29906400  1
  O  O71  1  0.77112600  0.90745600  0.20093600  1
  O  O72  1  0.63504200  0.09852800  0.66082600  1
  O  O73  1  0.90147200  0.36495800  0.83917400  1
  O  O74  1  0.36495800  0.90147200  0.33917400  1
  O  O75  1  0.09852800  0.63504200  0.16082600  1
  O  O76  1  0.72065200  0.39083000  0.65780300  1
  O  O77  1  0.60917000  0.27934800  0.84219700  1
  O  O78  1  0.27934800  0.60917000  0.34219700  1
  O  O79  1  0.39083000  0.72065200  0.15780300  1
  O  O80  1  0.37054600  0.45436000  0.67699800  1
  O  O81  1  0.54564000  0.62945400  0.82300200  1
  O  O82  1  0.62945400  0.54564000  0.32300200  1
  O  O83  1  0.45436000  0.37054600  0.17699800  1
  O  O84  1  0.07805500  0.32807200  0.67723500  1
  O  O85  1  0.67192800  0.92194500  0.82276500  1
  O  O86  1  0.92194500  0.67192800  0.32276500  1
  O  O87  1  0.32807200  0.07805500  0.17723500  1
  O  O88  1  0.98034200  0.24847000  0.56503000  1
  O  O89  1  0.75153000  0.01965800  0.93497000  1
  O  O90  1  0.01965800  0.75153000  0.43497000  1
  O  O91  1  0.24847000  0.98034200  0.06503000  1
  O  O92  1  0.30629300  0.81263500  0.53896700  1
  O  O93  1  0.18736500  0.69370700  0.96103300  1
  O  O94  1  0.69370700  0.18736500  0.46103300  1
  O  O95  1  0.81263500  0.30629300  0.03896700  1
  O  O96  1  0.46713600  0.81231000  0.66761700  1
  O  O97  1  0.18769000  0.53286400  0.83238300  1
  O  O98  1  0.53286400  0.18769000  0.33238300  1
  O  O99  1  0.81231000  0.46713600  0.16761700  1
  O  O100  1  0.30135900  0.37493100  0.52230500  1
  O  O101  1  0.62506900  0.69864200  0.97769500  1
  O  O102  1  0.69864100  0.62506900  0.47769500  1
  O  O103  1  0.37493100  0.30135900  0.02230500  1
