# generated using pymatgen
data_K2UP2(H2O5)2
_symmetry_space_group_name_H-M   'P 1'
_cell_length_a   6.95730300
_cell_length_b   7.82665900
_cell_length_c   10.74040988
_cell_angle_alpha   68.85280368
_cell_angle_beta   90.00000000
_cell_angle_gamma   90.00000000
_symmetry_Int_Tables_number   1
_chemical_formula_structural   K2UP2(H2O5)2
_chemical_formula_sum   'K4 U2 P4 H8 O20'
_cell_volume   545.45633489
_cell_formula_units_Z   2
loop_
 _symmetry_equiv_pos_site_id
 _symmetry_equiv_pos_as_xyz
  1  'x, y, z'
loop_
 _atom_site_type_symbol
 _atom_site_label
 _atom_site_symmetry_multiplicity
 _atom_site_fract_x
 _atom_site_fract_y
 _atom_site_fract_z
 _atom_site_occupancy
  K  K0  1  0.28369600  0.98180600  0.40888800  1
  K  K1  1  0.78369600  0.01819400  0.59111200  1
  K  K2  1  0.51939000  0.65924700  0.91790300  1
  K  K3  1  0.01939000  0.34075300  0.08209700  1
  U  U4  1  0.24274300  0.17069300  0.76800500  1
  U  U5  1  0.74274300  0.82930700  0.23199500  1
  P  P6  1  0.73491400  0.14636400  0.88130800  1
  P  P7  1  0.23491400  0.85363600  0.11869200  1
  P  P8  1  0.46549500  0.42082900  0.44735100  1
  P  P9  1  0.96549500  0.57917100  0.55264900  1
  H  H10  1  0.71610800  0.33903600  0.82422900  1
  H  H11  1  0.21610800  0.66096400  0.17577100  1
  H  H12  1  0.27160600  0.43830000  0.40295800  1
  H  H13  1  0.77160600  0.56170000  0.59704200  1
  H  H14  1  0.96186100  0.38574500  0.37114800  1
  H  H15  1  0.46186100  0.61425500  0.62885200  1
  H  H16  1  0.01117300  0.70156800  0.78994100  1
  H  H17  1  0.51117300  0.29843200  0.21005900  1
  O  O18  1  0.25840400  0.31746100  0.86754500  1
  O  O19  1  0.75840400  0.68253900  0.13245500  1
  O  O20  1  0.22619500  0.02771000  0.66725800  1
  O  O21  1  0.72619500  0.97229000  0.33274200  1
  O  O22  1  0.92256000  0.09522100  0.82799200  1
  O  O23  1  0.42256000  0.90477900  0.17200800  1
  O  O24  1  0.74061900  0.10010400  0.03291500  1
  O  O25  1  0.24061900  0.89989600  0.96708500  1
  O  O26  1  0.56472900  0.06294100  0.83112100  1
  O  O27  1  0.06472900  0.93705900  0.16887900  1
  O  O28  1  0.45643000  0.36411900  0.60120600  1
  O  O29  1  0.95643000  0.63588100  0.39879400  1
  O  O30  1  0.56433900  0.27824500  0.40235400  1
  O  O31  1  0.06433900  0.72175500  0.59764600  1
  O  O32  1  0.54875600  0.61578200  0.38655800  1
  O  O33  1  0.04875600  0.38421800  0.61344200  1
  O  O34  1  0.48244900  0.72866200  0.64683200  1
  O  O35  1  0.98244900  0.27133800  0.35316800  1
  O  O36  1  0.41293200  0.35128200  0.14053600  1
  O  O37  1  0.91293200  0.64871800  0.85946400  1
