# generated using pymatgen
data_Co3(OF2)2
_symmetry_space_group_name_H-M   'P 1'
_cell_length_a   4.67976573
_cell_length_b   4.67976573
_cell_length_c   9.38380445
_cell_angle_alpha   89.72566923
_cell_angle_beta   89.72566923
_cell_angle_gamma   89.82003154
_symmetry_Int_Tables_number   1
_chemical_formula_structural   Co3(OF2)2
_chemical_formula_sum   'Co6 O4 F8'
_cell_volume   205.50155221
_cell_formula_units_Z   2
loop_
 _symmetry_equiv_pos_site_id
 _symmetry_equiv_pos_as_xyz
  1  'x, y, z'
loop_
 _atom_site_type_symbol
 _atom_site_label
 _atom_site_symmetry_multiplicity
 _atom_site_fract_x
 _atom_site_fract_y
 _atom_site_fract_z
 _atom_site_occupancy
  Co  Co0  1  0.95604500  0.97001500  0.82700200  1
  Co  Co1  1  0.02998500  0.04395500  0.17299800  1
  Co  Co2  1  0.98281300  0.01718700  0.50000000  1
  Co  Co3  1  0.49188500  0.50811500  0.00000000  1
  Co  Co4  1  0.52471700  0.47390000  0.67221700  1
  Co  Co5  1  0.52610000  0.47528300  0.32778300  1
  O  O6  1  0.79469700  0.19561800  0.66586300  1
  O  O7  1  0.80438200  0.20530300  0.33413700  1
  O  O8  1  0.30422600  0.31129100  0.16694200  1
  O  O9  1  0.68870900  0.69577400  0.83305800  1
  F  F10  1  0.80180900  0.19819100  0.00000000  1
  F  F11  1  0.28031100  0.28697700  0.82970600  1
  F  F12  1  0.31007900  0.30616600  0.49933500  1
  F  F13  1  0.69383400  0.68992100  0.50066500  1
  F  F14  1  0.71302300  0.71968900  0.17029400  1
  F  F15  1  0.18525000  0.81475000  0.00000000  1
  F  F16  1  0.20021600  0.78807900  0.66577400  1
  F  F17  1  0.21192100  0.79978400  0.33422600  1
