# generated using pymatgen
data_VO2F
_symmetry_space_group_name_H-M   'P 1'
_cell_length_a   5.17387682
_cell_length_b   5.17387682
_cell_length_c   13.00701200
_cell_angle_alpha   90.00000000
_cell_angle_beta   90.00000000
_cell_angle_gamma   120.00001050
_symmetry_Int_Tables_number   1
_chemical_formula_structural   VO2F
_chemical_formula_sum   'V6 O12 F6'
_cell_volume   301.53678248
_cell_formula_units_Z   6
loop_
 _symmetry_equiv_pos_site_id
 _symmetry_equiv_pos_as_xyz
  1  'x, y, z'
loop_
 _atom_site_type_symbol
 _atom_site_label
 _atom_site_symmetry_multiplicity
 _atom_site_fract_x
 _atom_site_fract_y
 _atom_site_fract_z
 _atom_site_occupancy
  V  V0  1  0.64062300  0.59722700  0.50221600  1
  V  V1  1  0.65256800  0.70426400  0.00245800  1
  V  V2  1  0.95660300  0.35937700  0.16888300  1
  V  V3  1  0.29573600  0.94830400  0.33579100  1
  V  V4  1  0.05169600  0.34743200  0.66912500  1
  V  V5  1  0.40277300  0.04339700  0.83554900  1
  O  O6  1  0.66591300  0.25219000  0.24711700  1
  O  O7  1  0.74781000  0.41372300  0.58045000  1
  O  O8  1  0.91420600  0.57469200  0.08152600  1
  O  O9  1  0.00562900  0.76056900  0.41654300  1
  O  O10  1  0.66048600  0.08579400  0.74819200  1
  O  O11  1  0.23943100  0.24506000  0.74987600  1
  O  O12  1  0.75494000  0.99437100  0.08320900  1
  O  O13  1  0.42530800  0.33951400  0.41485900  1
  O  O14  1  0.25444200  0.67102800  0.25077700  1
  O  O15  1  0.58627700  0.33408700  0.91378400  1
  O  O16  1  0.32897200  0.58341300  0.58411100  1
  O  O17  1  0.41658700  0.74555800  0.91744400  1
  F  F18  1  0.08882500  0.07979900  0.24995500  1
  F  F19  1  0.99097400  0.91117500  0.91662200  1
  F  F20  1  0.06878300  0.65884600  0.74940800  1
  F  F21  1  0.92020100  0.00902600  0.58328800  1
  F  F22  1  0.34115400  0.40993700  0.08274100  1
  F  F23  1  0.59006300  0.93121700  0.41607500  1
