# generated using pymatgen
data_Mg2Cu2P2(H4O5)3
_symmetry_space_group_name_H-M   'P 1'
_cell_length_a   11.62771240
_cell_length_b   11.62771240
_cell_length_c   10.63551020
_cell_angle_alpha   80.09748464
_cell_angle_beta   99.90251536
_cell_angle_gamma   154.87869834
_symmetry_Int_Tables_number   1
_chemical_formula_structural   Mg2Cu2P2(H4O5)3
_chemical_formula_sum   'Mg4 Cu4 P4 H24 O30'
_cell_volume   600.91607270
_cell_formula_units_Z   2
loop_
 _symmetry_equiv_pos_site_id
 _symmetry_equiv_pos_as_xyz
  1  'x, y, z'
loop_
 _atom_site_type_symbol
 _atom_site_label
 _atom_site_symmetry_multiplicity
 _atom_site_fract_x
 _atom_site_fract_y
 _atom_site_fract_z
 _atom_site_occupancy
  Mg  Mg0  1  0.95377500  0.71273900  0.96378500  1
  Mg  Mg1  1  0.71273900  0.95377500  0.53621500  1
  Mg  Mg2  1  0.04622500  0.28726100  0.03621500  1
  Mg  Mg3  1  0.28726100  0.04622500  0.46378500  1
  Cu  Cu4  1  0.09919200  0.60696600  0.86673200  1
  Cu  Cu5  1  0.60696600  0.09919200  0.63326800  1
  Cu  Cu6  1  0.90080900  0.39303400  0.13326800  1
  Cu  Cu7  1  0.39303400  0.90080900  0.36673200  1
  P  P8  1  0.17363900  0.48167400  0.72871800  1
  P  P9  1  0.48167400  0.17363900  0.77128200  1
  P  P10  1  0.82636100  0.51832600  0.27128200  1
  P  P11  1  0.51832600  0.82636100  0.22871800  1
  H  H12  1  0.32556700  0.86737300  0.06877200  1
  H  H13  1  0.86737300  0.32556700  0.43122800  1
  H  H14  1  0.67443300  0.13262700  0.93122800  1
  H  H15  1  0.13262700  0.67443300  0.56877200  1
  H  H16  1  0.39728700  0.19595600  0.09143300  1
  H  H17  1  0.19595600  0.39728700  0.40856700  1
  H  H18  1  0.60271300  0.80404400  0.90856700  1
  H  H19  1  0.80404400  0.60271300  0.59143300  1
  H  H20  1  0.12409900  0.94913200  0.16178100  1
  H  H21  1  0.94913200  0.12409900  0.33821900  1
  H  H22  1  0.87590100  0.05086800  0.83821900  1
  H  H23  1  0.05086800  0.87590100  0.66178100  1
  H  H24  1  0.56054500  0.51994400  0.85615200  1
  H  H25  1  0.51994400  0.56054500  0.64384800  1
  H  H26  1  0.43945500  0.48005600  0.14384800  1
  H  H27  1  0.48005600  0.43945500  0.35615200  1
  H  H28  1  0.77168700  0.77470100  0.93453200  1
  H  H29  1  0.77470100  0.77168700  0.56546800  1
  H  H30  1  0.22831300  0.22529900  0.06546800  1
  H  H31  1  0.22529900  0.22831300  0.43453200  1
  H  H32  1  0.15018700  0.22350500  0.72958500  1
  H  H33  1  0.22350500  0.15018700  0.77041500  1
  H  H34  1  0.84981300  0.77649500  0.27041500  1
  H  H35  1  0.77649500  0.84981300  0.22958500  1
  O  O36  1  0.26938100  0.53699100  0.87052900  1
  O  O37  1  0.53699100  0.26938100  0.62947100  1
  O  O38  1  0.73061900  0.46300900  0.12947100  1
  O  O39  1  0.46300900  0.73061900  0.37052900  1
  O  O40  1  0.98678800  0.42820400  0.71727400  1
  O  O41  1  0.42820400  0.98678800  0.78272600  1
  O  O42  1  0.01321200  0.57179600  0.28272600  1
  O  O43  1  0.57179600  0.01321200  0.21727400  1
  O  O44  1  0.99528900  0.22147300  0.68867500  1
  O  O45  1  0.22147300  0.99528900  0.81132500  1
  O  O46  1  0.00471100  0.77852700  0.31132500  1
  O  O47  1  0.77852700  0.00471100  0.18867500  1
  O  O48  1  0.41158000  0.72802300  0.64234000  1
  O  O49  1  0.72802300  0.41158000  0.85766000  1
  O  O50  1  0.58842000  0.27197700  0.35766000  1
  O  O51  1  0.27197700  0.58842000  0.14234000  1
  O  O52  1  0.15115600  0.72575500  0.02136300  1
  O  O53  1  0.72575500  0.15115600  0.47863700  1
  O  O54  1  0.84884400  0.27424500  0.97863700  1
  O  O55  1  0.27424500  0.84884400  0.52136300  1
  O  O56  1  0.19975900  0.03694400  0.07502400  1
  O  O57  1  0.03694400  0.19975900  0.42497600  1
  O  O58  1  0.80024100  0.96305600  0.92497600  1
  O  O59  1  0.96305600  0.80024100  0.57502400  1
  O  O60  1  0.73126000  0.66169900  0.90976100  1
  O  O61  1  0.66169900  0.73126000  0.59023900  1
  O  O62  1  0.26874000  0.33830100  0.09023900  1
  O  O63  1  0.33830100  0.26874000  0.40976100  1
  O  O64  1  0.29561700  0.29561700  0.75000000  1
  O  O65  1  0.70438300  0.70438300  0.25000000  1
