# generated using pymatgen
data_V3O5F
_symmetry_space_group_name_H-M   'P 1'
_cell_length_a   4.61463700
_cell_length_b   4.62036400
_cell_length_c   8.74836300
_cell_angle_alpha   90.00000000
_cell_angle_beta   90.00000000
_cell_angle_gamma   90.00000000
_symmetry_Int_Tables_number   1
_chemical_formula_structural   V3O5F
_chemical_formula_sum   'V6 O10 F2'
_cell_volume   186.52649537
_cell_formula_units_Z   2
loop_
 _symmetry_equiv_pos_site_id
 _symmetry_equiv_pos_as_xyz
  1  'x, y, z'
loop_
 _atom_site_type_symbol
 _atom_site_label
 _atom_site_symmetry_multiplicity
 _atom_site_fract_x
 _atom_site_fract_y
 _atom_site_fract_z
 _atom_site_occupancy
  V  V0  1  0.75746600  0.98150300  0.18074800  1
  V  V1  1  0.77438900  0.03322100  0.50000000  1
  V  V2  1  0.75746600  0.98150300  0.81925200  1
  V  V3  1  0.24253400  0.48150300  0.31925200  1
  V  V4  1  0.22561100  0.53322100  0.00000000  1
  V  V5  1  0.24253400  0.48150300  0.68074800  1
  O  O6  1  0.95335500  0.79657100  0.33508300  1
  O  O7  1  0.95335500  0.79657100  0.66491700  1
  O  O8  1  0.93777800  0.81051300  0.00000000  1
  O  O9  1  0.04664500  0.29657100  0.16491700  1
  O  O10  1  0.06222200  0.31051300  0.50000000  1
  O  O11  1  0.04664500  0.29657100  0.83508300  1
  O  O12  1  0.44900700  0.70003100  0.16492300  1
  O  O13  1  0.44900700  0.70003100  0.83507700  1
  O  O14  1  0.55099300  0.20003100  0.33507700  1
  O  O15  1  0.55099300  0.20003100  0.66492300  1
  F  F16  1  0.45048400  0.69980200  0.50000000  1
  F  F17  1  0.54951600  0.19980200  0.00000000  1
