# generated using pymatgen
data_Mg14CoC
_symmetry_space_group_name_H-M   'P 1'
_cell_length_a   6.26402465
_cell_length_b   6.26402465
_cell_length_c   8.72984600
_cell_angle_alpha   90.00000000
_cell_angle_beta   90.00000000
_cell_angle_gamma   104.49539895
_symmetry_Int_Tables_number   1
_chemical_formula_structural   Mg14CoC
_chemical_formula_sum   'Mg14 Co1 C1'
_cell_volume   331.63786334
_cell_formula_units_Z   1
loop_
 _symmetry_equiv_pos_site_id
 _symmetry_equiv_pos_as_xyz
  1  'x, y, z'
loop_
 _atom_site_type_symbol
 _atom_site_label
 _atom_site_symmetry_multiplicity
 _atom_site_fract_x
 _atom_site_fract_y
 _atom_site_fract_z
 _atom_site_occupancy
  Mg  Mg0  1  0.86349000  0.13651000  0.00000000  1
  Mg  Mg1  1  0.32187600  0.67812400  0.00000000  1
  Mg  Mg2  1  0.34396300  0.05300100  0.50000000  1
  Mg  Mg3  1  0.39102400  0.20261600  0.00000000  1
  Mg  Mg4  1  0.94699900  0.65603700  0.50000000  1
  Mg  Mg5  1  0.79738400  0.60897600  0.00000000  1
  Mg  Mg6  1  0.20078900  0.41384900  0.32548900  1
  Mg  Mg7  1  0.20078900  0.41384900  0.67451100  1
  Mg  Mg8  1  0.58615100  0.79921100  0.32548900  1
  Mg  Mg9  1  0.58615100  0.79921100  0.67451100  1
  Mg  Mg10  1  0.69609000  0.30391000  0.28991400  1
  Mg  Mg11  1  0.69609000  0.30391000  0.71008600  1
  Mg  Mg12  1  0.07869800  0.92130200  0.23588900  1
  Mg  Mg13  1  0.07869800  0.92130200  0.76411100  1
  Co  Co14  1  0.90118800  0.09881200  0.50000000  1
  C  C15  1  0.31062800  0.68937200  0.50000000  1
