# generated using pymatgen
data_Co2(CO3)3
_symmetry_space_group_name_H-M   'P 1'
_cell_length_a   7.44659000
_cell_length_b   7.62132067
_cell_length_c   7.64467242
_cell_angle_alpha   108.96576973
_cell_angle_beta   108.43863291
_cell_angle_gamma   109.38456611
_symmetry_Int_Tables_number   1
_chemical_formula_structural   Co2(CO3)3
_chemical_formula_sum   'Co4 C6 O18'
_cell_volume   340.49765744
_cell_formula_units_Z   2
loop_
 _symmetry_equiv_pos_site_id
 _symmetry_equiv_pos_as_xyz
  1  'x, y, z'
loop_
 _atom_site_type_symbol
 _atom_site_label
 _atom_site_symmetry_multiplicity
 _atom_site_fract_x
 _atom_site_fract_y
 _atom_site_fract_z
 _atom_site_occupancy
  Co  Co0  1  0.54617500  0.16542800  0.04434800  1
  Co  Co1  1  0.05175300  0.54995000  0.16882900  1
  Co  Co2  1  0.44537600  0.44215400  0.47663300  1
  Co  Co3  1  0.16073100  0.03937600  0.54426300  1
  C  C4  1  0.24875200  0.93964000  0.16695800  1
  C  C5  1  0.94481500  0.16857700  0.25245200  1
  C  C6  1  0.79817000  0.58090600  0.40254800  1
  C  C7  1  0.40142500  0.80811700  0.58993800  1
  C  C8  1  0.60118800  0.40680400  0.80667600  1
  C  C9  1  0.16931200  0.24973500  0.93595400  1
  O  O10  1  0.35668300  0.94547100  0.06539700  1
  O  O11  1  0.77446000  0.08913100  0.07762100  1
  O  O12  1  0.07157100  0.76481500  0.08668900  1
  O  O13  1  0.34988500  0.30471300  0.08775000  1
  O  O14  1  0.96670800  0.70078300  0.39552300  1
  O  O15  1  0.74513700  0.38258200  0.33962800  1
  O  O16  1  0.68890000  0.65498900  0.46891400  1
  O  O17  1  0.34312200  0.75474200  0.39329100  1
  O  O18  1  0.94635400  0.06923200  0.36007200  1
  O  O19  1  0.11266500  0.34774000  0.31515200  1
  O  O20  1  0.30873000  0.09853100  0.34363000  1
  O  O21  1  0.39584600  0.97648500  0.70394500  1
  O  O22  1  0.46138100  0.70355600  0.67138100  1
  O  O23  1  0.69819700  0.47903900  0.71517000  1
  O  O24  1  0.39354500  0.34692800  0.72582500  1
  O  O25  1  0.70024000  0.39593200  0.97316200  1
  O  O26  1  0.07793200  0.07549900  0.76030600  1
  O  O27  1  0.06964400  0.35942600  0.95049900  1
