# generated using pymatgen
data_Mg2CoO4
_symmetry_space_group_name_H-M   'P 1'
_cell_length_a   5.94614436
_cell_length_b   8.40911700
_cell_length_c   5.94614436
_cell_angle_alpha   90.00000000
_cell_angle_beta   90.00000000
_cell_angle_gamma   90.00000000
_symmetry_Int_Tables_number   1
_chemical_formula_structural   Mg2CoO4
_chemical_formula_sum   'Mg8 Co4 O16'
_cell_volume   297.31806168
_cell_formula_units_Z   4
loop_
 _symmetry_equiv_pos_site_id
 _symmetry_equiv_pos_as_xyz
  1  'x, y, z'
loop_
 _atom_site_type_symbol
 _atom_site_label
 _atom_site_symmetry_multiplicity
 _atom_site_fract_x
 _atom_site_fract_y
 _atom_site_fract_z
 _atom_site_occupancy
  Mg  Mg0  1  0.75000000  0.25000000  0.75000000  1
  Mg  Mg1  1  0.25000000  0.75000000  0.25000000  1
  Mg  Mg2  1  0.75000000  0.25000000  0.25000000  1
  Mg  Mg3  1  0.25000000  0.75000000  0.75000000  1
  Mg  Mg4  1  0.50000000  0.50000000  0.00000000  1
  Mg  Mg5  1  0.00000000  0.00000000  0.50000000  1
  Mg  Mg6  1  0.00000000  0.50000000  0.00000000  1
  Mg  Mg7  1  0.50000000  0.00000000  0.50000000  1
  Co  Co8  1  0.75000000  0.62500000  0.50000000  1
  Co  Co9  1  0.25000000  0.37500000  0.50000000  1
  Co  Co10  1  0.25000000  0.12500000  0.00000000  1
  Co  Co11  1  0.75000000  0.87500000  0.00000000  1
  O  O12  1  0.50160200  0.25080100  0.00000000  1
  O  O13  1  0.00160200  0.75080100  0.50000000  1
  O  O14  1  0.99839700  0.25080100  0.00000000  1
  O  O15  1  0.49839700  0.75080100  0.50000000  1
  O  O16  1  0.25000000  0.50080100  0.75160200  1
  O  O17  1  0.75000000  0.00080100  0.25160200  1
  O  O18  1  0.25000000  0.50080100  0.24839800  1
  O  O19  1  0.75000000  0.00080100  0.74839800  1
  O  O20  1  0.75000000  0.49919900  0.75160200  1
  O  O21  1  0.25000000  0.99919900  0.25160200  1
  O  O22  1  0.75000000  0.49919900  0.24839800  1
  O  O23  1  0.25000000  0.99919900  0.74839800  1
  O  O24  1  0.00160300  0.74919900  0.00000000  1
  O  O25  1  0.50160300  0.24919900  0.50000000  1
  O  O26  1  0.49839800  0.74919900  0.00000000  1
  O  O27  1  0.99839800  0.24919900  0.50000000  1
