# generated using pymatgen
data_FeOF
_symmetry_space_group_name_H-M   'P 1'
_cell_length_a   3.96468500
_cell_length_b   6.29873718
_cell_length_c   6.29876461
_cell_angle_alpha   89.87942373
_cell_angle_beta   90.00024072
_cell_angle_gamma   89.99971152
_symmetry_Int_Tables_number   1
_chemical_formula_structural   FeOF
_chemical_formula_sum   'Fe4 O4 F4'
_cell_volume   157.29560636
_cell_formula_units_Z   4
loop_
 _symmetry_equiv_pos_site_id
 _symmetry_equiv_pos_as_xyz
  1  'x, y, z'
loop_
 _atom_site_type_symbol
 _atom_site_label
 _atom_site_symmetry_multiplicity
 _atom_site_fract_x
 _atom_site_fract_y
 _atom_site_fract_z
 _atom_site_occupancy
  Fe  Fe0  1  0.99999500  0.74947700  0.49297500  1
  Fe  Fe1  1  0.49999800  0.49297900  0.74971900  1
  Fe  Fe2  1  0.99999700  0.75053000  0.00700700  1
  Fe  Fe3  1  0.49999700  0.00701100  0.75029000  1
  O  O4  1  0.50000000  0.75049300  0.53859400  1
  O  O5  1  0.99999700  0.53859100  0.75064200  1
  O  O6  1  0.99999800  0.96141400  0.74936200  1
  O  O7  1  0.49999800  0.74950800  0.96141000  1
  F  F8  1  0.50000300  0.25020600  0.94999700  1
  F  F9  1  0.00000900  0.94999400  0.25035200  1
  F  F10  1  0.00000600  0.55000800  0.24964500  1
  F  F11  1  0.50000200  0.24979000  0.55000800  1
