# generated using pymatgen
data_VCrO3
_symmetry_space_group_name_H-M   'P 1'
_cell_length_a   5.11649900
_cell_length_b   5.49680418
_cell_length_c   7.50623825
_cell_angle_alpha   84.21641853
_cell_angle_beta   89.95014829
_cell_angle_gamma   89.98526121
_symmetry_Int_Tables_number   1
_chemical_formula_structural   VCrO3
_chemical_formula_sum   'V4 Cr4 O12'
_cell_volume   210.03369195
_cell_formula_units_Z   4
loop_
 _symmetry_equiv_pos_site_id
 _symmetry_equiv_pos_as_xyz
  1  'x, y, z'
loop_
 _atom_site_type_symbol
 _atom_site_label
 _atom_site_symmetry_multiplicity
 _atom_site_fract_x
 _atom_site_fract_y
 _atom_site_fract_z
 _atom_site_occupancy
  V  V0  1  0.49892500  0.20017500  0.85069700  1
  V  V1  1  0.99959000  0.70228600  0.85077200  1
  V  V2  1  0.50052400  0.79448600  0.64756300  1
  V  V3  1  0.99959000  0.30054500  0.14946700  1
  Cr  Cr4  1  0.99899400  0.30035100  0.64924600  1
  Cr  Cr5  1  0.50030400  0.20093700  0.35081200  1
  Cr  Cr6  1  0.00053000  0.69918600  0.34900800  1
  Cr  Cr7  1  0.50088300  0.80355700  0.15273800  1
  O  O8  1  0.30100600  0.49594700  0.74818000  1
  O  O9  1  0.85116200  0.34605000  0.90055400  1
  O  O10  1  0.65079800  0.14995400  0.59882100  1
  O  O11  1  0.19511600  0.99843100  0.74880600  1
  O  O12  1  0.15126200  0.35049500  0.40087500  1
  O  O13  1  0.65001700  0.84567900  0.90272500  1
  O  O14  1  0.84871300  0.64864500  0.59658600  1
  O  O15  1  0.35151100  0.15297700  0.10033200  1
  O  O16  1  0.34753400  0.85122900  0.40022400  1
  O  O17  1  0.15373200  0.65538300  0.09993800  1
  O  O18  1  0.69749400  0.50296200  0.25116200  1
  O  O19  1  0.80231500  0.00072500  0.25149200  1
