# generated using pymatgen
data_Ti10O13
_symmetry_space_group_name_H-M   'P 1'
_cell_length_a   5.10064874
_cell_length_b   5.10064874
_cell_length_c   12.13834554
_cell_angle_alpha   86.14804969
_cell_angle_beta   86.14804969
_cell_angle_gamma   48.30215136
_symmetry_Int_Tables_number   1
_chemical_formula_structural   Ti10O13
_chemical_formula_sum   'Ti10 O13'
_cell_volume   235.15533969
_cell_formula_units_Z   1
loop_
 _symmetry_equiv_pos_site_id
 _symmetry_equiv_pos_as_xyz
  1  'x, y, z'
loop_
 _atom_site_type_symbol
 _atom_site_label
 _atom_site_symmetry_multiplicity
 _atom_site_fract_x
 _atom_site_fract_y
 _atom_site_fract_z
 _atom_site_occupancy
  Ti  Ti0  1  0.83264600  0.83264600  0.54024100  1
  Ti  Ti1  1  0.54917200  0.54917200  0.62547000  1
  Ti  Ti2  1  0.45082800  0.45082800  0.37453000  1
  Ti  Ti3  1  0.16735400  0.16735400  0.45975900  1
  Ti  Ti4  1  0.38468500  0.38468500  0.15441700  1
  Ti  Ti5  1  0.06887200  0.06887200  0.23191900  1
  Ti  Ti6  1  0.30641800  0.30641800  0.92776800  1
  Ti  Ti7  1  0.69358200  0.69358200  0.07223200  1
  Ti  Ti8  1  0.93112800  0.93112800  0.76808100  1
  Ti  Ti9  1  0.61531500  0.61531500  0.84558300  1
  O  O10  1  0.03750400  0.03750400  0.61068200  1
  O  O11  1  0.73637800  0.73637800  0.69615300  1
  O  O12  1  0.35775100  0.35775100  0.53957300  1
  O  O13  1  0.96249600  0.96249600  0.38931800  1
  O  O14  1  0.64224900  0.64224900  0.46042700  1
  O  O15  1  0.26362200  0.26362200  0.30384700  1
  O  O16  1  0.88235300  0.88235300  0.15247800  1
  O  O17  1  0.58186600  0.58186600  0.22715100  1
  O  O18  1  0.81295500  0.81295500  0.92093000  1
  O  O19  1  0.50000000  0.50000000  0.00000000  1
  O  O20  1  0.18704500  0.18704500  0.07907000  1
  O  O21  1  0.41813400  0.41813400  0.77284900  1
  O  O22  1  0.11764700  0.11764700  0.84752200  1
