# generated using pymatgen
data_Mg10FeO11
_symmetry_space_group_name_H-M   'P 1'
_cell_length_a   7.98714519
_cell_length_b   12.44603268
_cell_length_c   9.07458489
_cell_angle_alpha   101.70204564
_cell_angle_beta   79.06024766
_cell_angle_gamma   100.55914215
_symmetry_Int_Tables_number   1
_chemical_formula_structural   Mg10FeO11
_chemical_formula_sum   'Mg40 Fe4 O44'
_cell_volume   857.39930091
_cell_formula_units_Z   4
loop_
 _symmetry_equiv_pos_site_id
 _symmetry_equiv_pos_as_xyz
  1  'x, y, z'
loop_
 _atom_site_type_symbol
 _atom_site_label
 _atom_site_symmetry_multiplicity
 _atom_site_fract_x
 _atom_site_fract_y
 _atom_site_fract_z
 _atom_site_occupancy
  Mg  Mg0  1  0.15879700  0.20482500  0.86280300  1
  Mg  Mg1  1  0.91033300  0.45526300  0.36261500  1
  Mg  Mg2  1  0.66021400  0.70500100  0.86413000  1
  Mg  Mg3  1  0.40883700  0.95466600  0.36430500  1
  Mg  Mg4  1  0.50022100  0.49960200  0.00078800  1
  Mg  Mg5  1  0.25033300  0.74998600  0.49937900  1
  Mg  Mg6  1  0.99878700  0.99955400  0.99960300  1
  Mg  Mg7  1  0.74883300  0.24926600  0.50097000  1
  Mg  Mg8  1  0.36255700  0.18106000  0.54451000  1
  Mg  Mg9  1  0.11257700  0.43082100  0.04526000  1
  Mg  Mg10  1  0.86262100  0.68083900  0.54543400  1
  Mg  Mg11  1  0.61262100  0.93101400  0.04466200  1
  Mg  Mg12  1  0.29652800  0.52352400  0.31912500  1
  Mg  Mg13  1  0.04645800  0.77352300  0.81899400  1
  Mg  Mg14  1  0.79644500  0.02378500  0.31823800  1
  Mg  Mg15  1  0.54651500  0.27366500  0.81831200  1
  Mg  Mg16  1  0.31716300  0.40825300  0.72693600  1
  Mg  Mg17  1  0.06737800  0.65913400  0.22760700  1
  Mg  Mg18  1  0.81726600  0.90914300  0.72777200  1
  Mg  Mg19  1  0.56720600  0.15825100  0.22708100  1
  Mg  Mg20  1  0.34201700  0.29630700  0.13668700  1
  Mg  Mg21  1  0.09186300  0.54625700  0.63656200  1
  Mg  Mg22  1  0.84159500  0.79536900  0.13589500  1
  Mg  Mg23  1  0.59197700  0.04544400  0.63599400  1
  Mg  Mg24  1  0.97746100  0.11351000  0.59252600  1
  Mg  Mg25  1  0.72753300  0.36375200  0.09149200  1
  Mg  Mg26  1  0.47778000  0.61371700  0.59140100  1
  Mg  Mg27  1  0.22758400  0.86354100  0.09237400  1
  Mg  Mg28  1  0.18135300  0.09081400  0.27228700  1
  Mg  Mg29  1  0.93155300  0.34083300  0.77210700  1
  Mg  Mg30  1  0.68176500  0.59102000  0.27115600  1
  Mg  Mg31  1  0.43141800  0.84106100  0.77125800  1
  Mg  Mg32  1  0.52203100  0.38693300  0.41023900  1
  Mg  Mg33  1  0.27131800  0.63667000  0.90866000  1
  Mg  Mg34  1  0.02101100  0.88680000  0.40866500  1
  Mg  Mg35  1  0.77175400  0.13707000  0.91036000  1
  Mg  Mg36  1  0.13701300  0.31757900  0.45334100  1
  Mg  Mg37  1  0.88730900  0.56746300  0.95330800  1
  Mg  Mg38  1  0.63810900  0.81775000  0.45491600  1
  Mg  Mg39  1  0.38779100  0.06784400  0.95500900  1
  Fe  Fe40  1  0.95451700  0.22726800  0.18184100  1
  Fe  Fe41  1  0.70461300  0.47729500  0.68177400  1
  Fe  Fe42  1  0.20447200  0.97722800  0.68183800  1
  Fe  Fe43  1  0.45462100  0.72732700  0.18180000  1
  O  O44  1  0.32952000  0.35220400  0.93176100  1
  O  O45  1  0.07982700  0.60256100  0.43187800  1
  O  O46  1  0.82946500  0.85223900  0.93187100  1
  O  O47  1  0.57926900  0.10208600  0.43175000  1
  O  O48  1  0.12961700  0.37876000  0.25181500  1
  O  O49  1  0.87995000  0.62855300  0.75101700  1
  O  O50  1  0.62617000  0.87545600  0.25088800  1
  O  O51  1  0.37601400  0.12555300  0.75159300  1
  O  O52  1  0.52950400  0.32578500  0.61178300  1
  O  O53  1  0.28323000  0.57881700  0.11189600  1
  O  O54  1  0.03271800  0.82924600  0.61289800  1
  O  O55  1  0.77907000  0.07602500  0.11265900  1
  O  O56  1  0.98293800  0.05901700  0.79903000  1
  O  O57  1  0.73796900  0.30697100  0.29651700  1
  O  O58  1  0.48782000  0.55680300  0.79644900  1
  O  O59  1  0.23305600  0.80895000  0.29879100  1
  O  O60  1  0.17127100  0.14781400  0.06730600  1
  O  O61  1  0.92127600  0.39754500  0.56692100  1
  O  O62  1  0.67594200  0.64539000  0.06468900  1
  O  O63  1  0.42623700  0.89571400  0.56487000  1
  O  O64  1  0.14781200  0.26110200  0.65886900  1
  O  O65  1  0.89885300  0.51075900  0.15905100  1
  O  O66  1  0.64854900  0.76060800  0.65932700  1
  O  O67  1  0.39756300  0.01101200  0.15909500  1
  O  O68  1  0.51127200  0.44339700  0.20481000  1
  O  O69  1  0.26148100  0.69356800  0.70449700  1
  O  O70  1  0.01040900  0.94390300  0.20431300  1
  O  O71  1  0.76027500  0.19379300  0.70457900  1
  O  O72  1  0.19290800  0.03509000  0.47349000  1
  O  O73  1  0.94347700  0.28554400  0.97262500  1
  O  O74  1  0.69366500  0.53476900  0.47207900  1
  O  O75  1  0.44279900  0.78440100  0.97292200  1
  O  O76  1  0.96553800  0.16969700  0.39162500  1
  O  O77  1  0.71548600  0.41904700  0.89091100  1
  O  O78  1  0.46631600  0.66943700  0.39010200  1
  O  O79  1  0.21611600  0.92019500  0.89080400  1
  O  O80  1  0.30713300  0.46600400  0.52389600  1
  O  O81  1  0.05779300  0.71602700  0.02363300  1
  O  O82  1  0.80760900  0.96592400  0.52335600  1
  O  O83  1  0.55684500  0.21587300  0.02363900  1
  O  O84  1  0.35201500  0.23855200  0.33973400  1
  O  O85  1  0.10225200  0.48867200  0.83995200  1
  O  O86  1  0.85157800  0.73863000  0.34024600  1
  O  O87  1  0.60125600  0.98847200  0.84003700  1
