# generated using pymatgen
data_BaCaI4
_symmetry_space_group_name_H-M   'P 1'
_cell_length_a   11.45684617
_cell_length_b   11.45684617
_cell_length_c   8.30078700
_cell_angle_alpha   90.00000000
_cell_angle_beta   90.00000000
_cell_angle_gamma   149.20882435
_symmetry_Int_Tables_number   1
_chemical_formula_structural   BaCaI4
_chemical_formula_sum   'Ba2 Ca2 I8'
_cell_volume   557.75507237
_cell_formula_units_Z   2
loop_
 _symmetry_equiv_pos_site_id
 _symmetry_equiv_pos_as_xyz
  1  'x, y, z'
loop_
 _atom_site_type_symbol
 _atom_site_label
 _atom_site_symmetry_multiplicity
 _atom_site_fract_x
 _atom_site_fract_y
 _atom_site_fract_z
 _atom_site_occupancy
  Ba  Ba0  1  0.83747700  0.16252300  0.42050000  1
  Ba  Ba1  1  0.16252300  0.83747700  0.92050000  1
  Ca  Ca2  1  0.59099500  0.40900500  0.50121800  1
  Ca  Ca3  1  0.40900500  0.59099500  0.00121800  1
  I  I4  1  0.90949000  0.09051000  0.03354900  1
  I  I5  1  0.53946900  0.46053100  0.85756100  1
  I  I6  1  0.66904000  0.33096000  0.19033200  1
  I  I7  1  0.71259900  0.28740100  0.70654700  1
  I  I8  1  0.09051000  0.90949000  0.53354900  1
  I  I9  1  0.28740100  0.71259900  0.20654700  1
  I  I10  1  0.46053100  0.53946900  0.35756100  1
  I  I11  1  0.33096000  0.66904000  0.69033200  1
