# generated using pymatgen
data_Fe4O3F5
_symmetry_space_group_name_H-M   'P 1'
_cell_length_a   4.82158800
_cell_length_b   6.15176186
_cell_length_c   9.66321091
_cell_angle_alpha   90.10699611
_cell_angle_beta   90.70595666
_cell_angle_gamma   90.14559221
_symmetry_Int_Tables_number   1
_chemical_formula_structural   Fe4O3F5
_chemical_formula_sum   'Fe8 O6 F10'
_cell_volume   286.59982429
_cell_formula_units_Z   2
loop_
 _symmetry_equiv_pos_site_id
 _symmetry_equiv_pos_as_xyz
  1  'x, y, z'
loop_
 _atom_site_type_symbol
 _atom_site_label
 _atom_site_symmetry_multiplicity
 _atom_site_fract_x
 _atom_site_fract_y
 _atom_site_fract_z
 _atom_site_occupancy
  Fe  Fe0  1  0.00837200  0.00026800  0.00572500  1
  Fe  Fe1  1  0.95935000  0.49988400  0.98330700  1
  Fe  Fe2  1  0.00807700  0.99960800  0.50299500  1
  Fe  Fe3  1  0.98536300  0.49950300  0.49002600  1
  Fe  Fe4  1  0.45974600  0.75131500  0.76260400  1
  Fe  Fe5  1  0.49598100  0.24739200  0.74417400  1
  Fe  Fe6  1  0.52819000  0.75102500  0.26740200  1
  Fe  Fe7  1  0.55951300  0.25010200  0.24893300  1
  O  O8  1  0.82160200  0.24642800  0.08724600  1
  O  O9  1  0.66659000  0.49658600  0.84355900  1
  O  O10  1  0.70676700  0.99932100  0.34195500  1
  O  O11  1  0.69936100  0.50167900  0.33947700  1
  O  O12  1  0.31453900  0.00247400  0.66486100  1
  O  O13  1  0.17149000  0.75240000  0.90994400  1
  F  F14  1  0.78613700  0.74701200  0.60961600  1
  F  F15  1  0.80219700  0.25331600  0.60732300  1
  F  F16  1  0.79343100  0.75253800  0.09684900  1
  F  F17  1  0.69311500  0.00075900  0.85621600  1
  F  F18  1  0.29212500  0.49785800  0.65024500  1
  F  F19  1  0.31303000  0.99791900  0.15012500  1
  F  F20  1  0.31035400  0.50388300  0.14869800  1
  F  F21  1  0.22213900  0.25085400  0.39383200  1
  F  F22  1  0.19399600  0.24933700  0.89861900  1
  F  F23  1  0.20853400  0.74854000  0.39626700  1
