# generated using pymatgen
data_GdAsO3
_symmetry_space_group_name_H-M   'P 1'
_cell_length_a   12.06043200
_cell_length_b   4.44231000
_cell_length_c   6.50015463
_cell_angle_alpha   59.90759353
_cell_angle_beta   90.00000000
_cell_angle_gamma   90.00000000
_symmetry_Int_Tables_number   1
_chemical_formula_structural   GdAsO3
_chemical_formula_sum   'Gd4 As4 O12'
_cell_volume   301.31510207
_cell_formula_units_Z   4
loop_
 _symmetry_equiv_pos_site_id
 _symmetry_equiv_pos_as_xyz
  1  'x, y, z'
loop_
 _atom_site_type_symbol
 _atom_site_label
 _atom_site_symmetry_multiplicity
 _atom_site_fract_x
 _atom_site_fract_y
 _atom_site_fract_z
 _atom_site_occupancy
  Gd  Gd0  1  0.35494100  0.64581500  0.34933500  1
  Gd  Gd1  1  0.14505900  0.64581500  0.84933500  1
  Gd  Gd2  1  0.85494100  0.35418500  0.15066500  1
  Gd  Gd3  1  0.64505900  0.35418500  0.65066500  1
  As  As4  1  0.06763400  0.78861300  0.27726600  1
  As  As5  1  0.56763400  0.21138700  0.22273400  1
  As  As6  1  0.43236600  0.78861300  0.77726600  1
  As  As7  1  0.93236600  0.21138700  0.72273400  1
  O  O8  1  0.17652200  0.61371000  0.49830600  1
  O  O9  1  0.15221600  0.04742000  0.01238300  1
  O  O10  1  0.44993700  0.44139400  0.70977100  1
  O  O11  1  0.94993700  0.55860600  0.79022900  1
  O  O12  1  0.65221600  0.95258000  0.48761700  1
  O  O13  1  0.67652200  0.38629000  0.00169400  1
  O  O14  1  0.32347800  0.61371000  0.99830600  1
  O  O15  1  0.34778400  0.04742000  0.51238300  1
  O  O16  1  0.05006300  0.44139400  0.20977100  1
  O  O17  1  0.55006300  0.55860600  0.29022900  1
  O  O18  1  0.84778400  0.95258000  0.98761700  1
  O  O19  1  0.82347800  0.38629000  0.50169400  1
