# generated using pymatgen
data_Ca5MnO6
_symmetry_space_group_name_H-M   'P 1'
_cell_length_a   5.85102301
_cell_length_b   6.76317796
_cell_length_c   16.51610080
_cell_angle_alpha   90.00000000
_cell_angle_beta   89.88780378
_cell_angle_gamma   90.00000000
_symmetry_Int_Tables_number   1
_chemical_formula_structural   Ca5MnO6
_chemical_formula_sum   'Ca20 Mn4 O24'
_cell_volume   653.56579357
_cell_formula_units_Z   4
loop_
 _symmetry_equiv_pos_site_id
 _symmetry_equiv_pos_as_xyz
  1  'x, y, z'
loop_
 _atom_site_type_symbol
 _atom_site_label
 _atom_site_symmetry_multiplicity
 _atom_site_fract_x
 _atom_site_fract_y
 _atom_site_fract_z
 _atom_site_occupancy
  Ca  Ca0  1  0.50000000  0.25000000  0.00000000  1
  Ca  Ca1  1  0.00000000  0.50000000  0.50000000  1
  Ca  Ca2  1  0.50000000  0.75000000  0.00000000  1
  Ca  Ca3  1  0.00000000  0.00000000  0.50000000  1
  Ca  Ca4  1  0.83124100  0.25000000  0.33470700  1
  Ca  Ca5  1  0.33124100  0.50000000  0.83470700  1
  Ca  Ca6  1  0.83124100  0.75000000  0.33470700  1
  Ca  Ca7  1  0.33124100  0.00000000  0.83470700  1
  Ca  Ca8  1  0.66875900  0.50000000  0.16529300  1
  Ca  Ca9  1  0.16875900  0.75000000  0.66529300  1
  Ca  Ca10  1  0.66875900  0.00000000  0.16529300  1
  Ca  Ca11  1  0.16875900  0.25000000  0.66529300  1
  Ca  Ca12  1  0.33505200  0.50000000  0.33536500  1
  Ca  Ca13  1  0.83505200  0.75000000  0.83536500  1
  Ca  Ca14  1  0.33505200  0.00000000  0.33536500  1
  Ca  Ca15  1  0.83505200  0.25000000  0.83536500  1
  Ca  Ca16  1  0.16494800  0.25000000  0.16463500  1
  Ca  Ca17  1  0.66494800  0.50000000  0.66463500  1
  Ca  Ca18  1  0.16494800  0.75000000  0.16463500  1
  Ca  Ca19  1  0.66494800  0.00000000  0.66463500  1
  Mn  Mn20  1  0.00000000  0.50000000  0.00000000  1
  Mn  Mn21  1  0.50000000  0.75000000  0.50000000  1
  Mn  Mn22  1  0.00000000  0.00000000  0.00000000  1
  Mn  Mn23  1  0.50000000  0.25000000  0.50000000  1
  O  O24  1  0.17142600  0.25000000  0.41793800  1
  O  O25  1  0.67142600  0.50000000  0.91793800  1
  O  O26  1  0.17142600  0.75000000  0.41793800  1
  O  O27  1  0.67142600  0.00000000  0.91793800  1
  O  O28  1  0.32857400  0.50000000  0.08206200  1
  O  O29  1  0.82857400  0.75000000  0.58206200  1
  O  O30  1  0.32857400  0.00000000  0.08206200  1
  O  O31  1  0.82857400  0.25000000  0.58206200  1
  O  O32  1  0.66052400  0.50000000  0.42031900  1
  O  O33  1  0.16052400  0.75000000  0.92031900  1
  O  O34  1  0.66052400  0.00000000  0.42031900  1
  O  O35  1  0.16052400  0.25000000  0.92031900  1
  O  O36  1  0.83947600  0.25000000  0.07968100  1
  O  O37  1  0.33947600  0.50000000  0.57968100  1
  O  O38  1  0.83947600  0.75000000  0.07968100  1
  O  O39  1  0.33947600  0.00000000  0.57968100  1
  O  O40  1  0.99697800  0.50000000  0.25089000  1
  O  O41  1  0.49697800  0.75000000  0.75089000  1
  O  O42  1  0.99697800  0.00000000  0.25089000  1
  O  O43  1  0.49697800  0.25000000  0.75089000  1
  O  O44  1  0.50302200  0.25000000  0.24911000  1
  O  O45  1  0.00302200  0.50000000  0.74911000  1
  O  O46  1  0.50302200  0.75000000  0.24911000  1
  O  O47  1  0.00302200  0.00000000  0.74911000  1
