# generated using pymatgen
data_Mn(CO3)2
_symmetry_space_group_name_H-M   'P 1'
_cell_length_a   4.66888862
_cell_length_b   11.27689333
_cell_length_c   4.66897339
_cell_angle_alpha   78.05049791
_cell_angle_beta   120.00223890
_cell_angle_gamma   90.00444884
_symmetry_Int_Tables_number   1
_chemical_formula_structural   Mn(CO3)2
_chemical_formula_sum   'Mn2 C4 O12'
_cell_volume   206.71343880
_cell_formula_units_Z   2
loop_
 _symmetry_equiv_pos_site_id
 _symmetry_equiv_pos_as_xyz
  1  'x, y, z'
loop_
 _atom_site_type_symbol
 _atom_site_label
 _atom_site_symmetry_multiplicity
 _atom_site_fract_x
 _atom_site_fract_y
 _atom_site_fract_z
 _atom_site_occupancy
  Mn  Mn0  1  0.74999000  0.74998900  0.50005700  1
  Mn  Mn1  1  0.25001900  0.25001000  0.50000500  1
  C  C2  1  0.88325100  0.35015600  0.76645400  1
  C  C3  1  0.38324400  0.85015100  0.76646800  1
  C  C4  1  0.61677400  0.14985400  0.23351600  1
  C  C5  1  0.11675500  0.64983700  0.23356000  1
  O  O6  1  0.90952200  0.14765400  0.26830300  1
  O  O7  1  0.40968400  0.64764400  0.26834300  1
  O  O8  1  0.14125100  0.35235900  0.05703000  1
  O  O9  1  0.64138000  0.85232000  0.05724000  1
  O  O10  1  0.91579700  0.35236100  0.50624800  1
  O  O11  1  0.41583000  0.85234600  0.50613900  1
  O  O12  1  0.58417100  0.14765600  0.49366000  1
  O  O13  1  0.08413500  0.64764900  0.49385300  1
  O  O14  1  0.35880000  0.14765500  0.94296100  1
  O  O15  1  0.85861800  0.64764800  0.94282900  1
  O  O16  1  0.59047800  0.35236900  0.73168500  1
  O  O17  1  0.09030200  0.85234000  0.73165000  1
