# generated using pymatgen
data_Sr(IO3)2
_symmetry_space_group_name_H-M   'P 1'
_cell_length_a   7.38755852
_cell_length_b   7.38755852
_cell_length_c   8.19759777
_cell_angle_alpha   58.93614119
_cell_angle_beta   58.93614119
_cell_angle_gamma   67.04333214
_symmetry_Int_Tables_number   1
_chemical_formula_structural   Sr(IO3)2
_chemical_formula_sum   'Sr2 I4 O12'
_cell_volume   323.56939589
_cell_formula_units_Z   2
loop_
 _symmetry_equiv_pos_site_id
 _symmetry_equiv_pos_as_xyz
  1  'x, y, z'
loop_
 _atom_site_type_symbol
 _atom_site_label
 _atom_site_symmetry_multiplicity
 _atom_site_fract_x
 _atom_site_fract_y
 _atom_site_fract_z
 _atom_site_occupancy
  Sr  Sr0  1  0.34313900  0.65686100  0.75000000  1
  Sr  Sr1  1  0.65686100  0.34313900  0.25000000  1
  I  I2  1  0.84215400  0.78775600  0.20709300  1
  I  I3  1  0.78775600  0.84215400  0.70709300  1
  I  I4  1  0.21224400  0.15784600  0.29290700  1
  I  I5  1  0.15784600  0.21224400  0.79290700  1
  O  O6  1  0.92243300  0.24356800  0.41821000  1
  O  O7  1  0.71256200  0.91367600  0.49567000  1
  O  O8  1  0.41560900  0.30688700  0.63385300  1
  O  O9  1  0.69311300  0.58439100  0.86614700  1
  O  O10  1  0.24356800  0.92243300  0.91821000  1
  O  O11  1  0.91367600  0.71256200  0.99567000  1
  O  O12  1  0.08632400  0.28743800  0.00433000  1
  O  O13  1  0.75643200  0.07756700  0.08179000  1
  O  O14  1  0.30688700  0.41560900  0.13385300  1
  O  O15  1  0.58439100  0.69311300  0.36614700  1
  O  O16  1  0.28743800  0.08632400  0.50433000  1
  O  O17  1  0.07756700  0.75643200  0.58179000  1
