# generated using pymatgen
data_GeP3
_symmetry_space_group_name_H-M   'P 1'
_cell_length_a   5.30488451
_cell_length_b   5.30488451
_cell_length_c   5.30488434
_cell_angle_alpha   84.20363437
_cell_angle_beta   84.20363437
_cell_angle_gamma   84.20364544
_symmetry_Int_Tables_number   1
_chemical_formula_structural   GeP3
_chemical_formula_sum   'Ge2 P6'
_cell_volume   147.14331945
_cell_formula_units_Z   2
loop_
 _symmetry_equiv_pos_site_id
 _symmetry_equiv_pos_as_xyz
  1  'x, y, z'
loop_
 _atom_site_type_symbol
 _atom_site_label
 _atom_site_symmetry_multiplicity
 _atom_site_fract_x
 _atom_site_fract_y
 _atom_site_fract_z
 _atom_site_occupancy
  Ge  Ge0  1  0.73642500  0.73642500  0.73642500  1
  Ge  Ge1  1  0.26357500  0.26357500  0.26357500  1
  P  P2  1  0.21176900  0.21176900  0.73755600  1
  P  P3  1  0.73755600  0.21176900  0.21176900  1
  P  P4  1  0.26244400  0.78823100  0.78823100  1
  P  P5  1  0.78823100  0.78823100  0.26244400  1
  P  P6  1  0.78823100  0.26244400  0.78823100  1
  P  P7  1  0.21176900  0.73755600  0.21176900  1
