# generated using pymatgen
data_RbFeO2
_symmetry_space_group_name_H-M   'P 1'
_cell_length_a   6.07617352
_cell_length_b   6.07617140
_cell_length_c   6.07617423
_cell_angle_alpha   59.99994611
_cell_angle_beta   59.99994996
_cell_angle_gamma   59.99994996
_symmetry_Int_Tables_number   1
_chemical_formula_structural   RbFeO2
_chemical_formula_sum   'Rb2 Fe2 O4'
_cell_volume   158.62619210
_cell_formula_units_Z   2
loop_
 _symmetry_equiv_pos_site_id
 _symmetry_equiv_pos_as_xyz
  1  'x, y, z'
loop_
 _atom_site_type_symbol
 _atom_site_label
 _atom_site_symmetry_multiplicity
 _atom_site_fract_x
 _atom_site_fract_y
 _atom_site_fract_z
 _atom_site_occupancy
  Rb  Rb0  1  0.50000000  0.50000000  0.50000000  1
  Rb  Rb1  1  0.75000000  0.75000000  0.75000000  1
  Fe  Fe2  1  0.25000000  0.24999900  0.25000000  1
  Fe  Fe3  1  0.00000000  0.99999900  0.00000000  1
  O  O4  1  0.12499900  0.12500000  0.12499900  1
  O  O5  1  0.12499900  0.12500000  0.62500200  1
  O  O6  1  0.12499900  0.62500200  0.12499900  1
  O  O7  1  0.62500200  0.12500000  0.12499900  1
