# generated using pymatgen
data_V6O11F
_symmetry_space_group_name_H-M   'P 1'
_cell_length_a   4.61609400
_cell_length_b   5.53104771
_cell_length_c   7.53219619
_cell_angle_alpha   85.81312792
_cell_angle_beta   89.22114796
_cell_angle_gamma   89.01055831
_symmetry_Int_Tables_number   1
_chemical_formula_structural   V6O11F
_chemical_formula_sum   'V6 O11 F1'
_cell_volume   191.75430196
_cell_formula_units_Z   1
loop_
 _symmetry_equiv_pos_site_id
 _symmetry_equiv_pos_as_xyz
  1  'x, y, z'
loop_
 _atom_site_type_symbol
 _atom_site_label
 _atom_site_symmetry_multiplicity
 _atom_site_fract_x
 _atom_site_fract_y
 _atom_site_fract_z
 _atom_site_occupancy
  V  V0  1  0.52316900  0.84744900  0.67356600  1
  V  V1  1  0.48108700  0.48192600  0.99005700  1
  V  V2  1  0.49195600  0.16922500  0.33387600  1
  V  V3  1  0.98440400  0.32102700  0.66234200  1
  V  V4  1  0.98069400  0.66547700  0.31130700  1
  V  V5  1  0.00786900  0.00468300  0.00823400  1
  O  O6  1  0.80204000  0.36591900  0.43174100  1
  O  O7  1  0.79715000  0.69148900  0.10805500  1
  O  O8  1  0.80957900  0.04148400  0.77092500  1
  O  O9  1  0.69165400  0.20375400  0.10380400  1
  O  O10  1  0.71266100  0.53637000  0.76443000  1
  O  O11  1  0.69504900  0.86371100  0.44626000  1
  O  O12  1  0.30105700  0.13966300  0.57419100  1
  O  O13  1  0.30476500  0.46439500  0.23218300  1
  O  O14  1  0.31304400  0.80040700  0.88738000  1
  O  O15  1  0.20772200  0.96258500  0.24325100  1
  O  O16  1  0.20125800  0.30716800  0.89902000  1
  F  F17  1  0.19484200  0.63326900  0.55937900  1
