# generated using pymatgen
data_V3O5F
_symmetry_space_group_name_H-M   'P 1'
_cell_length_a   4.65614800
_cell_length_b   5.55605516
_cell_length_c   7.50171953
_cell_angle_alpha   84.50991025
_cell_angle_beta   89.27507259
_cell_angle_gamma   88.85874336
_symmetry_Int_Tables_number   1
_chemical_formula_structural   V3O5F
_chemical_formula_sum   'V6 O10 F2'
_cell_volume   193.12827953
_cell_formula_units_Z   2
loop_
 _symmetry_equiv_pos_site_id
 _symmetry_equiv_pos_as_xyz
  1  'x, y, z'
loop_
 _atom_site_type_symbol
 _atom_site_label
 _atom_site_symmetry_multiplicity
 _atom_site_fract_x
 _atom_site_fract_y
 _atom_site_fract_z
 _atom_site_occupancy
  V  V0  1  0.51883400  0.67815800  0.34056600  1
  V  V1  1  0.48116600  0.32184200  0.65943400  1
  V  V2  1  0.50000000  0.00000000  0.00000000  1
  V  V3  1  0.98356600  0.14598000  0.33632800  1
  V  V4  1  0.00000000  0.50000000  0.00000000  1
  V  V5  1  0.01643400  0.85402000  0.66367200  1
  O  O6  1  0.79858900  0.19373800  0.10132300  1
  O  O7  1  0.79652400  0.86108200  0.43799300  1
  O  O8  1  0.69738600  0.04095100  0.76214700  1
  O  O9  1  0.69822800  0.36647900  0.43764800  1
  O  O10  1  0.69146600  0.69534200  0.10850800  1
  O  O11  1  0.30261400  0.95904900  0.23785300  1
  O  O12  1  0.30853400  0.30465800  0.89149200  1
  O  O13  1  0.30177200  0.63352100  0.56235200  1
  O  O14  1  0.20141100  0.80626200  0.89867700  1
  O  O15  1  0.20347600  0.13891800  0.56200700  1
  F  F16  1  0.79703500  0.53894800  0.76026600  1
  F  F17  1  0.20296500  0.46105200  0.23973400  1
