# generated using pymatgen
data_Li2AlVO4
_symmetry_space_group_name_H-M   'P 1'
_cell_length_a   7.75494685
_cell_length_b   7.80995740
_cell_length_c   7.77348215
_cell_angle_alpha   81.95210763
_cell_angle_beta   68.70284214
_cell_angle_gamma   95.25584914
_symmetry_Int_Tables_number   1
_chemical_formula_structural   Li2AlVO4
_chemical_formula_sum   'Li12 Al6 V6 O24'
_cell_volume   429.12594316
_cell_formula_units_Z   6
loop_
 _symmetry_equiv_pos_site_id
 _symmetry_equiv_pos_as_xyz
  1  'x, y, z'
loop_
 _atom_site_type_symbol
 _atom_site_label
 _atom_site_symmetry_multiplicity
 _atom_site_fract_x
 _atom_site_fract_y
 _atom_site_fract_z
 _atom_site_occupancy
  Li  Li0  1  0.99941000  0.75173500  0.75263700  1
  Li  Li1  1  0.99938000  0.25171200  0.25227100  1
  Li  Li2  1  0.33313400  0.99799900  0.66547700  1
  Li  Li3  1  0.33325200  0.49775800  0.16494600  1
  Li  Li4  1  0.66124700  0.50392100  0.84049100  1
  Li  Li5  1  0.66124700  0.00453500  0.34035000  1
  Li  Li6  1  0.67189900  0.24553700  0.57647700  1
  Li  Li7  1  0.67195500  0.74612500  0.07647500  1
  Li  Li8  1  0.99973700  0.99344300  0.99194300  1
  Li  Li9  1  0.99972800  0.49374700  0.49249900  1
  Li  Li10  1  0.33423000  0.75626600  0.42317900  1
  Li  Li11  1  0.33432800  0.25645800  0.92358900  1
  Al  Al12  1  0.66676900  0.87542500  0.70816400  1
  Al  Al13  1  0.66659500  0.37535800  0.20836500  1
  Al  Al14  1  0.99880400  0.12001600  0.62302100  1
  Al  Al15  1  0.99947300  0.62017400  0.12279100  1
  Al  Al16  1  0.33378200  0.63002100  0.79342400  1
  Al  Al17  1  0.33487600  0.12988500  0.29345000  1
  V  V18  1  0.66646300  0.62504000  0.45863300  1
  V  V19  1  0.00197300  0.87539800  0.37269500  1
  V  V20  1  0.33124300  0.37421500  0.54412800  1
  V  V21  1  0.66638400  0.12490000  0.95878300  1
  V  V22  1  0.00209300  0.37561200  0.87237900  1
  V  V23  1  0.33154300  0.87415300  0.04415100  1
  O  O24  1  0.15445400  0.68641300  0.25985100  1
  O  O25  1  0.15361600  0.18679700  0.76053700  1
  O  O26  1  0.17943300  0.56297900  0.65573300  1
  O  O27  1  0.18060200  0.06212200  0.15533500  1
  O  O28  1  0.16457400  0.45884900  0.00955500  1
  O  O29  1  0.16412500  0.95926900  0.50930000  1
  O  O30  1  0.16814200  0.79036300  0.90651200  1
  O  O31  1  0.16892200  0.29026600  0.40689200  1
  O  O32  1  0.48652100  0.45395300  0.69008100  1
  O  O33  1  0.48760000  0.95425500  0.19077900  1
  O  O34  1  0.84729000  0.79630800  0.22704400  1
  O  O35  1  0.84663000  0.29588600  0.72664700  1
  O  O36  1  0.49720600  0.70074000  0.91936000  1
  O  O37  1  0.49801000  0.20046500  0.41941700  1
  O  O38  1  0.83511300  0.05004000  0.49737000  1
  O  O39  1  0.83533000  0.54969700  0.99751400  1
  O  O40  1  0.82198800  0.70221800  0.60211700  1
  O  O41  1  0.82202900  0.20245100  0.10199800  1
  O  O42  1  0.51144900  0.04849100  0.81498600  1
  O  O43  1  0.51131800  0.54848300  0.31479200  1
  O  O44  1  0.83049700  0.94445700  0.83255700  1
  O  O45  1  0.83055100  0.44511500  0.33262000  1
  O  O46  1  0.50259600  0.80521600  0.58431000  1
  O  O47  1  0.50245900  0.30573400  0.08437100  1
