# generated using pymatgen
data_Sr2Ti6N2O11
_symmetry_space_group_name_H-M   'P 1'
_cell_length_a   7.85204152
_cell_length_b   7.85204152
_cell_length_c   9.31133608
_cell_angle_alpha   82.48155041
_cell_angle_beta   82.48155041
_cell_angle_gamma   28.26261287
_symmetry_Int_Tables_number   1
_chemical_formula_structural   Sr2Ti6N2O11
_chemical_formula_sum   'Sr2 Ti6 N2 O11'
_cell_volume   269.35178535
_cell_formula_units_Z   1
loop_
 _symmetry_equiv_pos_site_id
 _symmetry_equiv_pos_as_xyz
  1  'x, y, z'
loop_
 _atom_site_type_symbol
 _atom_site_label
 _atom_site_symmetry_multiplicity
 _atom_site_fract_x
 _atom_site_fract_y
 _atom_site_fract_z
 _atom_site_occupancy
  Sr  Sr0  1  0.54672700  0.54672700  0.21980100  1
  Sr  Sr1  1  0.45005400  0.45005400  0.76939500  1
  Ti  Ti2  1  0.11521000  0.11521000  0.90859000  1
  Ti  Ti3  1  0.16755800  0.16755800  0.56294800  1
  Ti  Ti4  1  0.23566500  0.23566500  0.23495500  1
  Ti  Ti5  1  0.75507100  0.75507100  0.77684600  1
  Ti  Ti6  1  0.83779800  0.83779800  0.44284300  1
  Ti  Ti7  1  0.88379100  0.88379100  0.08885000  1
  N  N8  1  0.64376300  0.64376300  0.89039300  1
  N  N9  1  0.99862100  0.99862100  0.00112400  1
  O  O10  1  0.07001400  0.07001400  0.70072700  1
  O  O11  1  0.12726200  0.12726200  0.38565200  1
  O  O12  1  0.16119800  0.16119800  0.10076500  1
  O  O13  1  0.70286400  0.70286400  0.57193000  1
  O  O14  1  0.75664800  0.75664800  0.24850000  1
  O  O15  1  0.24677300  0.24677300  0.74494800  1
  O  O16  1  0.29958900  0.29958900  0.43052500  1
  O  O17  1  0.35793100  0.35793100  0.12059300  1
  O  O18  1  0.83818900  0.83818900  0.90596600  1
  O  O19  1  0.88254100  0.88254100  0.61069700  1
  O  O20  1  0.93221100  0.93221100  0.29646200  1
