# generated using pymatgen
data_Na3CoO3
_symmetry_space_group_name_H-M   'P 1'
_cell_length_a   7.51691001
_cell_length_b   7.51692301
_cell_length_c   7.51687300
_cell_angle_alpha   90.00269825
_cell_angle_beta   89.99814022
_cell_angle_gamma   89.99573156
_symmetry_Int_Tables_number   1
_chemical_formula_structural   Na3CoO3
_chemical_formula_sum   'Na12 Co4 O12'
_cell_volume   424.73364413
_cell_formula_units_Z   4
loop_
 _symmetry_equiv_pos_site_id
 _symmetry_equiv_pos_as_xyz
  1  'x, y, z'
loop_
 _atom_site_type_symbol
 _atom_site_label
 _atom_site_symmetry_multiplicity
 _atom_site_fract_x
 _atom_site_fract_y
 _atom_site_fract_z
 _atom_site_occupancy
  Na  Na0  1  0.03270600  0.03270700  0.03269800  1
  Na  Na1  1  0.21238000  0.28761200  0.71238100  1
  Na  Na2  1  0.23302500  0.73303800  0.76697600  1
  Na  Na3  1  0.26696300  0.26696700  0.26697300  1
  Na  Na4  1  0.28762200  0.71238400  0.21238100  1
  Na  Na5  1  0.46729400  0.96728600  0.53271100  1
  Na  Na6  1  0.53271200  0.46729300  0.96729100  1
  Na  Na7  1  0.71238600  0.21238000  0.28761900  1
  Na  Na8  1  0.73302500  0.76697600  0.23303300  1
  Na  Na9  1  0.76696800  0.23302400  0.73303500  1
  Na  Na10  1  0.78761600  0.78762400  0.78761500  1
  Na  Na11  1  0.96729100  0.53270700  0.46728600  1
  Co  Co12  1  0.97841700  0.02159000  0.52157900  1
  Co  Co13  1  0.52158200  0.97842400  0.02158400  1
  Co  Co14  1  0.47841800  0.47841100  0.47842000  1
  Co  Co15  1  0.02158500  0.52157400  0.97841600  1
  O  O16  1  0.00147500  0.22354000  0.40122300  1
  O  O17  1  0.09878800  0.99852100  0.72354100  1
  O  O18  1  0.22354200  0.40122200  0.00147800  1
  O  O19  1  0.27646700  0.59877500  0.50147100  1
  O  O20  1  0.40121300  0.00148000  0.22355200  1
  O  O21  1  0.49852400  0.77643500  0.90120900  1
  O  O22  1  0.50147300  0.27647700  0.59877000  1
  O  O23  1  0.59877800  0.50147400  0.27646900  1
  O  O24  1  0.72355300  0.09878800  0.99852000  1
  O  O25  1  0.77645200  0.90121700  0.49852900  1
  O  O26  1  0.90121700  0.49852200  0.77645200  1
  O  O27  1  0.99852500  0.72355300  0.09878800  1
