# generated using pymatgen
data_Ca2PrO4
_symmetry_space_group_name_H-M   'P 1'
_cell_length_a   3.62090800
_cell_length_b   5.96481500
_cell_length_c   9.97998700
_cell_angle_alpha   90.00000000
_cell_angle_beta   90.00000000
_cell_angle_gamma   90.00000000
_symmetry_Int_Tables_number   1
_chemical_formula_structural   Ca2PrO4
_chemical_formula_sum   'Ca4 Pr2 O8'
_cell_volume   215.54822182
_cell_formula_units_Z   2
loop_
 _symmetry_equiv_pos_site_id
 _symmetry_equiv_pos_as_xyz
  1  'x, y, z'
loop_
 _atom_site_type_symbol
 _atom_site_label
 _atom_site_symmetry_multiplicity
 _atom_site_fract_x
 _atom_site_fract_y
 _atom_site_fract_z
 _atom_site_occupancy
  Ca  Ca0  1  0.50000000  0.05935100  0.32578900  1
  Ca  Ca1  1  0.50000000  0.44064900  0.82578900  1
  Ca  Ca2  1  0.50000000  0.55935100  0.17421100  1
  Ca  Ca3  1  0.50000000  0.94064900  0.67421100  1
  Pr  Pr4  1  0.00000000  0.00000000  0.00000000  1
  Pr  Pr5  1  0.00000000  0.50000000  0.50000000  1
  O  O6  1  0.00000000  0.16276900  0.78577700  1
  O  O7  1  0.50000000  0.25167600  0.03873200  1
  O  O8  1  0.50000000  0.24832400  0.53873200  1
  O  O9  1  0.00000000  0.33723100  0.28577700  1
  O  O10  1  0.00000000  0.66276900  0.71422300  1
  O  O11  1  0.50000000  0.75167600  0.46126800  1
  O  O12  1  0.50000000  0.74832400  0.96126800  1
  O  O13  1  0.00000000  0.83723100  0.21422300  1
