# generated using pymatgen
data_Y4Cu2O7
_symmetry_space_group_name_H-M   'P 1'
_cell_length_a   6.38584052
_cell_length_b   6.38584052
_cell_length_c   8.34083363
_cell_angle_alpha   71.37698924
_cell_angle_beta   71.37698924
_cell_angle_gamma   33.48798041
_symmetry_Int_Tables_number   1
_chemical_formula_structural   Y4Cu2O7
_chemical_formula_sum   'Y4 Cu2 O7'
_cell_volume   176.92835473
_cell_formula_units_Z   1
loop_
 _symmetry_equiv_pos_site_id
 _symmetry_equiv_pos_as_xyz
  1  'x, y, z'
loop_
 _atom_site_type_symbol
 _atom_site_label
 _atom_site_symmetry_multiplicity
 _atom_site_fract_x
 _atom_site_fract_y
 _atom_site_fract_z
 _atom_site_occupancy
  Y  Y0  1  0.64414000  0.64414000  0.16318200  1
  Y  Y1  1  0.33747500  0.33747500  0.32103300  1
  Y  Y2  1  0.66252500  0.66252500  0.67896700  1
  Y  Y3  1  0.35586000  0.35586000  0.83681800  1
  Cu  Cu4  1  0.00000000  0.00000000  0.00000000  1
  Cu  Cu5  1  0.00000000  0.00000000  0.50000000  1
  O  O6  1  0.25161500  0.25161500  0.12040600  1
  O  O7  1  0.50000000  0.50000000  0.00000000  1
  O  O8  1  0.01146000  0.01146000  0.71245600  1
  O  O9  1  0.72258600  0.72258600  0.38598700  1
  O  O10  1  0.27741400  0.27741400  0.61401300  1
  O  O11  1  0.98854000  0.98854000  0.28754400  1
  O  O12  1  0.74838500  0.74838500  0.87959400  1
