# generated using pymatgen
data_Fe6O7F5
_symmetry_space_group_name_H-M   'P 1'
_cell_length_a   4.69503700
_cell_length_b   5.61679096
_cell_length_c   7.77444695
_cell_angle_alpha   85.08255571
_cell_angle_beta   88.08746577
_cell_angle_gamma   87.68478734
_symmetry_Int_Tables_number   1
_chemical_formula_structural   Fe6O7F5
_chemical_formula_sum   'Fe6 O7 F5'
_cell_volume   204.00674449
_cell_formula_units_Z   1
loop_
 _symmetry_equiv_pos_site_id
 _symmetry_equiv_pos_as_xyz
  1  'x, y, z'
loop_
 _atom_site_type_symbol
 _atom_site_label
 _atom_site_symmetry_multiplicity
 _atom_site_fract_x
 _atom_site_fract_y
 _atom_site_fract_z
 _atom_site_occupancy
  Fe  Fe0  1  0.51501100  0.82842900  0.65113300  1
  Fe  Fe1  1  0.51168500  0.48784900  0.00142600  1
  Fe  Fe2  1  0.49561700  0.17040000  0.34014800  1
  Fe  Fe3  1  0.02254800  0.34178300  0.68525600  1
  Fe  Fe4  1  0.97783800  0.65713200  0.31112600  1
  Fe  Fe5  1  0.98176600  0.01149300  0.00767500  1
  O  O6  1  0.80751800  0.70790000  0.09209800  1
  O  O7  1  0.69729000  0.20152500  0.12151200  1
  O  O8  1  0.68987400  0.53718300  0.76265500  1
  O  O9  1  0.69803800  0.87712700  0.42502500  1
  O  O10  1  0.30926000  0.13644600  0.56196800  1
  O  O11  1  0.30419400  0.45371400  0.24116800  1
  O  O12  1  0.19063500  0.28831200  0.90580000  1
  F  F13  1  0.80939100  0.37305400  0.44452900  1
  F  F14  1  0.80112900  0.03509400  0.76863800  1
  F  F15  1  0.29538800  0.80036700  0.89153300  1
  F  F16  1  0.20451400  0.95269200  0.22803600  1
  F  F17  1  0.18830500  0.63949900  0.56027100  1
