# generated using pymatgen
data_ZnReO4
_symmetry_space_group_name_H-M   'P 1'
_cell_length_a   4.69471653
_cell_length_b   4.69471653
_cell_length_c   3.10969000
_cell_angle_alpha   90.00000000
_cell_angle_beta   90.00000000
_cell_angle_gamma   91.53388047
_symmetry_Int_Tables_number   1
_chemical_formula_structural   ZnReO4
_chemical_formula_sum   'Zn1 Re1 O4'
_cell_volume   68.51413804
_cell_formula_units_Z   1
loop_
 _symmetry_equiv_pos_site_id
 _symmetry_equiv_pos_as_xyz
  1  'x, y, z'
loop_
 _atom_site_type_symbol
 _atom_site_label
 _atom_site_symmetry_multiplicity
 _atom_site_fract_x
 _atom_site_fract_y
 _atom_site_fract_z
 _atom_site_occupancy
  Zn  Zn0  1  0.00000000  0.00000000  0.00000000  1
  Re  Re1  1  0.50000000  0.50000000  0.50000000  1
  O  O2  1  0.21752200  0.21752200  0.50000000  1
  O  O3  1  0.68706300  0.31293700  0.00000000  1
  O  O4  1  0.31293700  0.68706300  0.00000000  1
  O  O5  1  0.78247800  0.78247800  0.50000000  1
