# generated using pymatgen
data_V6O7F5
_symmetry_space_group_name_H-M   'P 1'
_cell_length_a   4.69654030
_cell_length_b   4.69654030
_cell_length_c   9.28552348
_cell_angle_alpha   89.92944889
_cell_angle_beta   89.92944889
_cell_angle_gamma   87.46825625
_symmetry_Int_Tables_number   1
_chemical_formula_structural   V6O7F5
_chemical_formula_sum   'V6 O7 F5'
_cell_volume   204.61513160
_cell_formula_units_Z   1
loop_
 _symmetry_equiv_pos_site_id
 _symmetry_equiv_pos_as_xyz
  1  'x, y, z'
loop_
 _atom_site_type_symbol
 _atom_site_label
 _atom_site_symmetry_multiplicity
 _atom_site_fract_x
 _atom_site_fract_y
 _atom_site_fract_z
 _atom_site_occupancy
  V  V0  1  0.01268000  0.00446100  0.67362400  1
  V  V1  1  0.97523300  0.02476700  0.00000000  1
  V  V2  1  0.99553900  0.98732000  0.32637600  1
  V  V3  1  0.47733700  0.46775900  0.82552700  1
  V  V4  1  0.50640000  0.49360000  0.50000000  1
  V  V5  1  0.53224100  0.52266300  0.17447300  1
  O  O6  1  0.81429100  0.81365400  0.16602800  1
  O  O7  1  0.68221900  0.31778100  0.00000000  1
  O  O8  1  0.69421300  0.29243000  0.65577400  1
  O  O9  1  0.70757000  0.30578700  0.34422600  1
  O  O10  1  0.30434400  0.68391800  0.65829400  1
  O  O11  1  0.31608200  0.69565600  0.34170600  1
  O  O12  1  0.18634600  0.18570900  0.83397200  1
  F  F13  1  0.78830100  0.79666000  0.83359200  1
  F  F14  1  0.80795100  0.79757700  0.50297000  1
  F  F15  1  0.29349300  0.70650700  0.00000000  1
  F  F16  1  0.20242300  0.19204900  0.49703000  1
  F  F17  1  0.20334000  0.21169900  0.16640800  1
