# generated using pymatgen
data_K3CoPCO7
_symmetry_space_group_name_H-M   'P 1'
_cell_length_a   6.97049502
_cell_length_b   11.11957877
_cell_length_c   11.12066922
_cell_angle_alpha   118.88419189
_cell_angle_beta   89.98736101
_cell_angle_gamma   89.99899078
_symmetry_Int_Tables_number   1
_chemical_formula_structural   K3CoPCO7
_chemical_formula_sum   'K12 Co4 P4 C4 O28'
_cell_volume   754.72292690
_cell_formula_units_Z   4
loop_
 _symmetry_equiv_pos_site_id
 _symmetry_equiv_pos_as_xyz
  1  'x, y, z'
loop_
 _atom_site_type_symbol
 _atom_site_label
 _atom_site_symmetry_multiplicity
 _atom_site_fract_x
 _atom_site_fract_y
 _atom_site_fract_z
 _atom_site_occupancy
  K  K0  1  0.24910900  0.34365900  0.41400100  1
  K  K1  1  0.25228900  0.84319800  0.91327600  1
  K  K2  1  0.74926200  0.65664000  0.58599500  1
  K  K3  1  0.75090700  0.15672400  0.08639500  1
  K  K4  1  0.01032500  0.98373100  0.27419200  1
  K  K5  1  0.01085500  0.48364900  0.77382300  1
  K  K6  1  0.49031200  0.98313200  0.27347600  1
  K  K7  1  0.48987000  0.48181600  0.77230000  1
  K  K8  1  0.51014600  0.01652900  0.72568700  1
  K  K9  1  0.51073600  0.51599300  0.22623900  1
  K  K10  1  0.99017500  0.01654400  0.72653200  1
  K  K11  1  0.98957800  0.51829400  0.22770100  1
  Co  Co12  1  0.75010500  0.70423400  0.05393500  1
  Co  Co13  1  0.24985000  0.29585400  0.94615600  1
  Co  Co14  1  0.75080800  0.20399000  0.55518600  1
  Co  Co15  1  0.25119800  0.79589000  0.44486700  1
  P  P16  1  0.24903500  0.15862100  0.57856300  1
  P  P17  1  0.25090000  0.65795100  0.07784200  1
  P  P18  1  0.74942800  0.84160400  0.42152300  1
  P  P19  1  0.75069000  0.34206700  0.92229300  1
  C  C20  1  0.74881900  0.33033000  0.41335400  1
  C  C21  1  0.75091000  0.83057700  0.91314100  1
  C  C22  1  0.24924600  0.66951600  0.58652300  1
  C  C23  1  0.25047300  0.16935900  0.08680900  1
  O  O24  1  0.25105000  0.10430900  0.15627600  1
  O  O25  1  0.24942000  0.60449800  0.65605700  1
  O  O26  1  0.75157100  0.89554500  0.84358900  1
  O  O27  1  0.74834200  0.39549900  0.34393900  1
  O  O28  1  0.74383300  0.39502300  0.54782700  1
  O  O29  1  0.74916100  0.89534500  0.04768000  1
  O  O30  1  0.24291200  0.60476700  0.45208700  1
  O  O31  1  0.25043000  0.10467100  0.95225700  1
  O  O32  1  0.75435400  0.19582700  0.35331100  1
  O  O33  1  0.75183700  0.69593000  0.85321000  1
  O  O34  1  0.25556800  0.80402400  0.64640500  1
  O  O35  1  0.24989200  0.30402300  0.14682200  1
  O  O36  1  0.24682000  0.99852400  0.48998600  1
  O  O37  1  0.25098100  0.49821100  0.98789700  1
  O  O38  1  0.74688000  0.00162500  0.51070400  1
  O  O39  1  0.75005500  0.50181800  0.01197700  1
  O  O40  1  0.75026000  0.80050900  0.26693100  1
  O  O41  1  0.75095300  0.30098600  0.76753800  1
  O  O42  1  0.24953900  0.20043200  0.73332700  1
  O  O43  1  0.25085000  0.69874300  0.23256300  1
  O  O44  1  0.06775200  0.21765900  0.54266300  1
  O  O45  1  0.06937700  0.71693000  0.04219300  1
  O  O46  1  0.43068600  0.21571000  0.54109500  1
  O  O47  1  0.43235200  0.71692200  0.04201700  1
  O  O48  1  0.56798200  0.78211000  0.45675400  1
  O  O49  1  0.56916300  0.28291400  0.95776600  1
  O  O50  1  0.93085900  0.78409700  0.45873300  1
  O  O51  1  0.93209500  0.28344700  0.95858800  1
