# generated using pymatgen
data_V4OF11
_symmetry_space_group_name_H-M   'P 1'
_cell_length_a   5.28513500
_cell_length_b   5.44732791
_cell_length_c   9.03157888
_cell_angle_alpha   74.62378206
_cell_angle_beta   90.00000000
_cell_angle_gamma   60.98014294
_symmetry_Int_Tables_number   1
_chemical_formula_structural   V4OF11
_chemical_formula_sum   'V4 O1 F11'
_cell_volume   216.66811458
_cell_formula_units_Z   1
loop_
 _symmetry_equiv_pos_site_id
 _symmetry_equiv_pos_as_xyz
  1  'x, y, z'
loop_
 _atom_site_type_symbol
 _atom_site_label
 _atom_site_symmetry_multiplicity
 _atom_site_fract_x
 _atom_site_fract_y
 _atom_site_fract_z
 _atom_site_occupancy
  V  V0  1  0.76481300  0.48535800  0.24263600  1
  V  V1  1  0.50169300  0.99758400  0.49852500  1
  V  V2  1  0.24927800  0.50241600  0.75147500  1
  V  V3  1  0.00017100  0.01464200  0.00736400  1
  O  O4  1  0.95058300  0.25000000  0.12500000  1
  F  F5  1  0.92786900  0.74833600  0.57554600  1
  F  F6  1  0.92909800  0.74747600  0.17584400  1
  F  F7  1  0.53091000  0.74320700  0.37070900  1
  F  F8  1  0.42657500  0.75252400  0.07415600  1
  F  F9  1  0.42620500  0.75166400  0.67445400  1
  F  F10  1  0.57109300  0.25223300  0.32507600  1
  F  F11  1  0.57332600  0.24776700  0.92492400  1
  F  F12  1  0.47638300  0.25000000  0.62500000  1
  F  F13  1  0.02411600  0.75679300  0.87929100  1
  F  F14  1  0.07467900  0.24853000  0.82509900  1
  F  F15  1  0.07320900  0.25147000  0.42490100  1
