# generated using pymatgen
data_Fe13O15
_symmetry_space_group_name_H-M   'P 1'
_cell_length_a   5.30417600
_cell_length_b   6.88353736
_cell_length_c   9.06719198
_cell_angle_alpha   72.64091295
_cell_angle_beta   74.05742478
_cell_angle_gamma   83.68671195
_symmetry_Int_Tables_number   1
_chemical_formula_structural   Fe13O15
_chemical_formula_sum   'Fe13 O15'
_cell_volume   303.68338944
_cell_formula_units_Z   1
loop_
 _symmetry_equiv_pos_site_id
 _symmetry_equiv_pos_as_xyz
  1  'x, y, z'
loop_
 _atom_site_type_symbol
 _atom_site_label
 _atom_site_symmetry_multiplicity
 _atom_site_fract_x
 _atom_site_fract_y
 _atom_site_fract_z
 _atom_site_occupancy
  Fe  Fe0  1  0.25246600  0.59832700  0.43824400  1
  Fe  Fe1  1  0.60766300  0.58669000  0.09910600  1
  Fe  Fe2  1  0.80293000  0.78997500  0.29421900  1
  Fe  Fe3  1  0.11729300  0.77428600  0.97534100  1
  Fe  Fe4  1  0.46040400  0.79307400  0.63736500  1
  Fe  Fe5  1  0.00000000  0.00000000  0.50000000  1
  Fe  Fe6  1  0.88270700  0.22571400  0.02465900  1
  Fe  Fe7  1  0.31803600  0.01872100  0.17061600  1
  Fe  Fe8  1  0.53959600  0.20692600  0.36263500  1
  Fe  Fe9  1  0.68196400  0.98127900  0.82938400  1
  Fe  Fe10  1  0.19707000  0.21002500  0.70578100  1
  Fe  Fe11  1  0.39233700  0.41331000  0.90089400  1
  Fe  Fe12  1  0.74753400  0.40167300  0.56175600  1
  O  O13  1  0.52027700  0.71693600  0.87082600  1
  O  O14  1  0.72083500  0.90468500  0.06708400  1
  O  O15  1  0.84837600  0.71753500  0.51521500  1
  O  O16  1  0.07165700  0.92510100  0.73528400  1
  O  O17  1  0.19839300  0.73333200  0.20532500  1
  O  O18  1  0.41245000  0.90948400  0.38963700  1
  O  O19  1  0.58755000  0.09051600  0.61036300  1
  O  O20  1  0.27916500  0.09531500  0.93291600  1
  O  O21  1  0.92834300  0.07489900  0.26471600  1
  O  O22  1  0.47972300  0.28306400  0.12917400  1
  O  O23  1  0.65065500  0.51231500  0.33617000  1
  O  O24  1  0.80160700  0.26666800  0.79467500  1
  O  O25  1  0.15162400  0.28246500  0.48478500  1
  O  O26  1  0.34934500  0.48768500  0.66383000  1
  O  O27  1  0.00000000  0.50000000  0.00000000  1
