# generated using pymatgen
data_VF5
_symmetry_space_group_name_H-M   'P 1'
_cell_length_a   5.37862688
_cell_length_b   5.37862688
_cell_length_c   8.29379231
_cell_angle_alpha   66.18383735
_cell_angle_beta   66.18383735
_cell_angle_gamma   70.71567052
_symmetry_Int_Tables_number   1
_chemical_formula_structural   VF5
_chemical_formula_sum   'V2 F10'
_cell_volume   196.76501041
_cell_formula_units_Z   2
loop_
 _symmetry_equiv_pos_site_id
 _symmetry_equiv_pos_as_xyz
  1  'x, y, z'
loop_
 _atom_site_type_symbol
 _atom_site_label
 _atom_site_symmetry_multiplicity
 _atom_site_fract_x
 _atom_site_fract_y
 _atom_site_fract_z
 _atom_site_occupancy
  V  V0  1  0.01122300  0.98470100  0.03661100  1
  V  V1  1  0.98470100  0.01122300  0.53661100  1
  F  F2  1  0.23999800  0.71420000  0.94840400  1
  F  F3  1  0.24666400  0.20191800  0.87133500  1
  F  F4  1  0.79859900  0.74710600  0.61462500  1
  F  F5  1  0.91155800  0.08558000  0.74107900  1
  F  F6  1  0.71420000  0.23999800  0.44840400  1
  F  F7  1  0.28827500  0.74989800  0.53202500  1
  F  F8  1  0.08558000  0.91155800  0.24107900  1
  F  F9  1  0.20191800  0.24666400  0.37133500  1
  F  F10  1  0.74710600  0.79859900  0.11462500  1
  F  F11  1  0.74989800  0.28827500  0.03202500  1
