# generated using pymatgen
data_Na3CrBPO7
_symmetry_space_group_name_H-M   'P 1'
_cell_length_a   5.28941300
_cell_length_b   8.95043431
_cell_length_c   13.16506105
_cell_angle_alpha   89.99026658
_cell_angle_beta   90.00041774
_cell_angle_gamma   88.14690815
_symmetry_Int_Tables_number   1
_chemical_formula_structural   Na3CrBPO7
_chemical_formula_sum   'Na12 Cr4 B4 P4 O28'
_cell_volume   622.94151373
_cell_formula_units_Z   4
loop_
 _symmetry_equiv_pos_site_id
 _symmetry_equiv_pos_as_xyz
  1  'x, y, z'
loop_
 _atom_site_type_symbol
 _atom_site_label
 _atom_site_symmetry_multiplicity
 _atom_site_fract_x
 _atom_site_fract_y
 _atom_site_fract_z
 _atom_site_occupancy
  Na  Na0  1  0.75838700  0.07245100  0.12498400  1
  Na  Na1  1  0.75836600  0.07251200  0.62496000  1
  Na  Na2  1  0.24161100  0.92753800  0.37500500  1
  Na  Na3  1  0.24163300  0.92750700  0.87504500  1
  Na  Na4  1  0.25082800  0.25438100  0.00189300  1
  Na  Na5  1  0.25073700  0.25443500  0.50186600  1
  Na  Na6  1  0.25081300  0.25437300  0.24808300  1
  Na  Na7  1  0.25089100  0.25438800  0.74807900  1
  Na  Na8  1  0.74916800  0.74562900  0.25191600  1
  Na  Na9  1  0.74915400  0.74562200  0.75192200  1
  Na  Na10  1  0.74922800  0.74560300  0.49810700  1
  Na  Na11  1  0.74923600  0.74559300  0.99813700  1
  Cr  Cr12  1  0.77917400  0.33657400  0.87501200  1
  Cr  Cr13  1  0.22084500  0.66354600  0.62502700  1
  Cr  Cr14  1  0.77911100  0.33667500  0.37500300  1
  Cr  Cr15  1  0.22071900  0.66329800  0.12499600  1
  B  B16  1  0.72884800  0.06824200  0.37501500  1
  B  B17  1  0.72885700  0.06819900  0.87502200  1
  B  B18  1  0.27112100  0.93169800  0.12498500  1
  B  B19  1  0.27117900  0.93185100  0.62496500  1
  P  P20  1  0.71913200  0.42247200  0.12500400  1
  P  P21  1  0.71912800  0.42254400  0.62500800  1
  P  P22  1  0.28083900  0.57750500  0.37500600  1
  P  P23  1  0.28094200  0.57747600  0.87499000  1
  O  O24  1  0.30155400  0.08013100  0.12499100  1
  O  O25  1  0.30149300  0.08028200  0.62498200  1
  O  O26  1  0.69841100  0.91981100  0.37500300  1
  O  O27  1  0.69847000  0.91975900  0.87501600  1
  O  O28  1  0.96370500  0.13822900  0.37506600  1
  O  O29  1  0.96375800  0.13815000  0.87505100  1
  O  O30  1  0.03624500  0.86170500  0.12493500  1
  O  O31  1  0.03630100  0.86184700  0.62494500  1
  O  O32  1  0.52878800  0.17641700  0.37501400  1
  O  O33  1  0.52889200  0.17647300  0.87501800  1
  O  O34  1  0.47111200  0.82348800  0.12498600  1
  O  O35  1  0.47117400  0.82359700  0.62498300  1
  O  O36  1  0.43000600  0.46413700  0.12506700  1
  O  O37  1  0.43002100  0.46431500  0.62506000  1
  O  O38  1  0.56997300  0.53580200  0.37492400  1
  O  O39  1  0.57007000  0.53571800  0.87493200  1
  O  O40  1  0.12730900  0.43377300  0.37501900  1
  O  O41  1  0.12738500  0.43377300  0.87498900  1
  O  O42  1  0.87261400  0.56621700  0.12498600  1
  O  O43  1  0.87270400  0.56625000  0.62499200  1
  O  O44  1  0.78545100  0.32252000  0.03134700  1
  O  O45  1  0.78544500  0.32258800  0.53133500  1
  O  O46  1  0.78561900  0.32246800  0.21863300  1
  O  O47  1  0.78563900  0.32251400  0.71864000  1
  O  O48  1  0.21436600  0.67749200  0.28136400  1
  O  O49  1  0.21441400  0.67753000  0.78137800  1
  O  O50  1  0.21459700  0.67749300  0.46865800  1
  O  O51  1  0.21453700  0.67740800  0.96865500  1
