# generated using pymatgen
data_SbRu
_symmetry_space_group_name_H-M   'P 1'
_cell_length_a   3.79916600
_cell_length_b   5.95901700
_cell_length_c   6.66025500
_cell_angle_alpha   90.00000000
_cell_angle_beta   90.00000000
_cell_angle_gamma   90.00000000
_symmetry_Int_Tables_number   1
_chemical_formula_structural   SbRu
_chemical_formula_sum   'Sb4 Ru4'
_cell_volume   150.78347625
_cell_formula_units_Z   4
loop_
 _symmetry_equiv_pos_site_id
 _symmetry_equiv_pos_as_xyz
  1  'x, y, z'
loop_
 _atom_site_type_symbol
 _atom_site_label
 _atom_site_symmetry_multiplicity
 _atom_site_fract_x
 _atom_site_fract_y
 _atom_site_fract_z
 _atom_site_occupancy
  Sb  Sb0  1  0.75000000  0.79971400  0.58000600  1
  Sb  Sb1  1  0.25000000  0.20028600  0.41999400  1
  Sb  Sb2  1  0.75000000  0.29971400  0.91999400  1
  Sb  Sb3  1  0.25000000  0.70028600  0.08000600  1
  Ru  Ru4  1  0.75000000  0.99295400  0.20600400  1
  Ru  Ru5  1  0.25000000  0.00704600  0.79399600  1
  Ru  Ru6  1  0.75000000  0.49295400  0.29399600  1
  Ru  Ru7  1  0.25000000  0.50704600  0.70600400  1
