# generated using pymatgen
data_NbRhO4
_symmetry_space_group_name_H-M   'P 1'
_cell_length_a   5.69074589
_cell_length_b   5.69074589
_cell_length_c   5.69074589
_cell_angle_alpha   106.48286607
_cell_angle_beta   106.48286607
_cell_angle_gamma   115.62904078
_symmetry_Int_Tables_number   1
_chemical_formula_structural   NbRhO4
_chemical_formula_sum   'Nb2 Rh2 O8'
_cell_volume   140.62636257
_cell_formula_units_Z   2
loop_
 _symmetry_equiv_pos_site_id
 _symmetry_equiv_pos_as_xyz
  1  'x, y, z'
loop_
 _atom_site_type_symbol
 _atom_site_label
 _atom_site_symmetry_multiplicity
 _atom_site_fract_x
 _atom_site_fract_y
 _atom_site_fract_z
 _atom_site_occupancy
  Nb  Nb0  1  0.76545300  0.26545300  0.50000000  1
  Nb  Nb1  1  0.51545300  0.51545300  0.00000000  1
  Rh  Rh2  1  0.24752800  0.74752800  0.50000000  1
  Rh  Rh3  1  0.99752800  0.99752800  0.00000000  1
  O  O4  1  0.45000400  0.25560200  0.19440100  1
  O  O5  1  0.94370400  0.73790700  0.20579700  1
  O  O6  1  0.50560200  0.81120100  0.30559900  1
  O  O7  1  0.98790700  0.28211100  0.29420300  1
  O  O8  1  0.98790700  0.69370400  0.70579700  1
  O  O9  1  0.50560200  0.20000400  0.69440100  1
  O  O10  1  0.06120100  0.25560200  0.80559900  1
  O  O11  1  0.53211100  0.73790700  0.79420300  1
