# generated using pymatgen
data_Cr3Co5O16
_symmetry_space_group_name_H-M   'P 1'
_cell_length_a   5.73111569
_cell_length_b   5.73111569
_cell_length_c   8.61089600
_cell_angle_alpha   89.99904510
_cell_angle_beta   89.99904510
_cell_angle_gamma   60.34368667
_symmetry_Int_Tables_number   1
_chemical_formula_structural   Cr3Co5O16
_chemical_formula_sum   'Cr3 Co5 O16'
_cell_volume   245.78251749
_cell_formula_units_Z   1
loop_
 _symmetry_equiv_pos_site_id
 _symmetry_equiv_pos_as_xyz
  1  'x, y, z'
loop_
 _atom_site_type_symbol
 _atom_site_label
 _atom_site_symmetry_multiplicity
 _atom_site_fract_x
 _atom_site_fract_y
 _atom_site_fract_z
 _atom_site_occupancy
  Cr  Cr0  1  0.67228000  0.16845200  0.79767000  1
  Cr  Cr1  1  0.16845200  0.67228000  0.79767000  1
  Cr  Cr2  1  0.83849800  0.83849800  0.29922900  1
  Co  Co3  1  0.32926500  0.32926500  0.51292500  1
  Co  Co4  1  0.17306700  0.17306700  0.78666600  1
  Co  Co5  1  0.66476900  0.66476900  0.01836500  1
  Co  Co6  1  0.83143300  0.33984600  0.29195800  1
  Co  Co7  1  0.33984600  0.83143300  0.29195800  1
  O  O8  1  0.66224800  0.16735300  0.39471300  1
  O  O9  1  0.47146800  0.47146800  0.65628900  1
  O  O10  1  0.32765900  0.32765900  0.90548400  1
  O  O11  1  0.00879900  0.00879900  0.68260900  1
  O  O12  1  0.00865200  0.00865200  0.18377400  1
  O  O13  1  0.16735300  0.66224800  0.39471300  1
  O  O14  1  0.47338000  0.04436500  0.65536000  1
  O  O15  1  0.04436500  0.47338000  0.65536000  1
  O  O16  1  0.82489100  0.82489100  0.89125300  1
  O  O17  1  0.16829000  0.16829000  0.39675500  1
  O  O18  1  0.95196000  0.52172900  0.15853800  1
  O  O19  1  0.52172900  0.95196000  0.15853800  1
  O  O20  1  0.66045700  0.66045700  0.40203000  1
  O  O21  1  0.82793700  0.34025800  0.89771300  1
  O  O22  1  0.52111700  0.52111700  0.16123300  1
  O  O23  1  0.34025800  0.82793700  0.89771300  1
