# generated using pymatgen
data_Co(NiO2)4
_symmetry_space_group_name_H-M   'P 1'
_cell_length_a   5.71805661
_cell_length_b   5.71805661
_cell_length_c   5.85208820
_cell_angle_alpha   60.59269721
_cell_angle_beta   60.59269721
_cell_angle_gamma   59.79837916
_symmetry_Int_Tables_number   1
_chemical_formula_structural   Co(NiO2)4
_chemical_formula_sum   'Co1 Ni4 O8'
_cell_volume   136.28505626
_cell_formula_units_Z   1
loop_
 _symmetry_equiv_pos_site_id
 _symmetry_equiv_pos_as_xyz
  1  'x, y, z'
loop_
 _atom_site_type_symbol
 _atom_site_label
 _atom_site_symmetry_multiplicity
 _atom_site_fract_x
 _atom_site_fract_y
 _atom_site_fract_z
 _atom_site_occupancy
  Co  Co0  1  0.50000000  0.50000000  0.00000000  1
  Ni  Ni1  1  0.00000000  0.50000000  0.00000000  1
  Ni  Ni2  1  0.00000000  0.00000000  0.00000000  1
  Ni  Ni3  1  0.50000000  0.50000000  0.50000000  1
  Ni  Ni4  1  0.50000000  0.00000000  0.00000000  1
  O  O5  1  0.28958300  0.75184000  0.20816700  1
  O  O6  1  0.71041700  0.24816000  0.79183300  1
  O  O7  1  0.73344200  0.73344200  0.80322200  1
  O  O8  1  0.26655800  0.26655800  0.19677800  1
  O  O9  1  0.74960300  0.74960300  0.21000600  1
  O  O10  1  0.25039700  0.25039700  0.78999400  1
  O  O11  1  0.75184000  0.28958300  0.20816700  1
  O  O12  1  0.24816000  0.71041700  0.79183300  1
