# generated using pymatgen
data_MnV4CrO12
_symmetry_space_group_name_H-M   'P 1'
_cell_length_a   6.83177051
_cell_length_b   6.83177051
_cell_length_c   5.90292054
_cell_angle_alpha   74.87499694
_cell_angle_beta   74.87499694
_cell_angle_gamma   84.50789215
_symmetry_Int_Tables_number   1
_chemical_formula_structural   MnV4CrO12
_chemical_formula_sum   'Mn1 V4 Cr1 O12'
_cell_volume   256.63751042
_cell_formula_units_Z   1
loop_
 _symmetry_equiv_pos_site_id
 _symmetry_equiv_pos_as_xyz
  1  'x, y, z'
loop_
 _atom_site_type_symbol
 _atom_site_label
 _atom_site_symmetry_multiplicity
 _atom_site_fract_x
 _atom_site_fract_y
 _atom_site_fract_z
 _atom_site_occupancy
  Mn  Mn0  1  0.08480200  0.91519800  0.50000000  1
  V  V1  1  0.79192700  0.60708200  0.01551300  1
  V  V2  1  0.61030200  0.79348500  0.50978700  1
  V  V3  1  0.39291800  0.20807300  0.98448700  1
  V  V4  1  0.20651500  0.38969800  0.49021300  1
  Cr  Cr5  1  0.91650600  0.08349400  0.00000000  1
  O  O6  1  0.96080700  0.80503100  0.90805300  1
  O  O7  1  0.90707000  0.37371600  0.03915900  1
  O  O8  1  0.80516800  0.96603300  0.37683600  1
  O  O9  1  0.63882600  0.64590900  0.80401600  1
  O  O10  1  0.62628400  0.09293000  0.96084100  1
  O  O11  1  0.64069100  0.63157700  0.30278900  1
  O  O12  1  0.35409100  0.36117400  0.19598400  1
  O  O13  1  0.38300300  0.91626900  0.53459400  1
  O  O14  1  0.36842300  0.35930900  0.69721100  1
  O  O15  1  0.19496900  0.03919300  0.09194700  1
  O  O16  1  0.08373100  0.61699700  0.46540600  1
  O  O17  1  0.03396700  0.19483200  0.62316400  1
