# generated using pymatgen
data_Fe2OF3
_symmetry_space_group_name_H-M   'P 1'
_cell_length_a   7.41603922
_cell_length_b   7.41603922
_cell_length_c   6.95695500
_cell_angle_alpha   90.00000000
_cell_angle_beta   90.00000000
_cell_angle_gamma   130.12910734
_symmetry_Int_Tables_number   1
_chemical_formula_structural   Fe2OF3
_chemical_formula_sum   'Fe8 O4 F12'
_cell_volume   292.54599626
_cell_formula_units_Z   4
loop_
 _symmetry_equiv_pos_site_id
 _symmetry_equiv_pos_as_xyz
  1  'x, y, z'
loop_
 _atom_site_type_symbol
 _atom_site_label
 _atom_site_symmetry_multiplicity
 _atom_site_fract_x
 _atom_site_fract_y
 _atom_site_fract_z
 _atom_site_occupancy
  Fe  Fe0  1  0.22654300  0.22654300  0.00000000  1
  Fe  Fe1  1  0.77345700  0.77345700  0.00000000  1
  Fe  Fe2  1  0.50000000  0.50000000  0.50000000  1
  Fe  Fe3  1  0.00000000  0.00000000  0.50000000  1
  Fe  Fe4  1  0.24644900  0.75355100  0.00000000  1
  Fe  Fe5  1  0.75355100  0.24644900  0.00000000  1
  Fe  Fe6  1  0.50000000  0.00000000  0.50000000  1
  Fe  Fe7  1  0.00000000  0.50000000  0.50000000  1
  O  O8  1  0.09642700  0.90357300  0.00000000  1
  O  O9  1  0.90357300  0.09642700  0.00000000  1
  O  O10  1  0.66046700  0.33953300  0.50000000  1
  O  O11  1  0.33953300  0.66046700  0.50000000  1
  F  F12  1  0.59434300  0.40565700  0.00000000  1
  F  F13  1  0.24854000  0.24854000  0.29094300  1
  F  F14  1  0.75146000  0.75146000  0.29094300  1
  F  F15  1  0.24854000  0.24854000  0.70905700  1
  F  F16  1  0.50000000  0.00000000  0.20824100  1
  F  F17  1  0.00000000  0.50000000  0.20824100  1
  F  F18  1  0.75146000  0.75146000  0.70905700  1
  F  F19  1  0.40565700  0.59434300  0.00000000  1
  F  F20  1  0.14882600  0.85117400  0.50000000  1
  F  F21  1  0.85117400  0.14882600  0.50000000  1
  F  F22  1  0.50000000  0.00000000  0.79175900  1
  F  F23  1  0.00000000  0.50000000  0.79175900  1
