# generated using pymatgen
data_MnPO4
_symmetry_space_group_name_H-M   'P 1'
_cell_length_a   5.26221910
_cell_length_b   9.11797831
_cell_length_c   5.26215161
_cell_angle_alpha   67.24597801
_cell_angle_beta   55.70645613
_cell_angle_gamma   67.24515942
_symmetry_Int_Tables_number   1
_chemical_formula_structural   MnPO4
_chemical_formula_sum   'Mn2 P2 O8'
_cell_volume   187.57272184
_cell_formula_units_Z   2
loop_
 _symmetry_equiv_pos_site_id
 _symmetry_equiv_pos_as_xyz
  1  'x, y, z'
loop_
 _atom_site_type_symbol
 _atom_site_label
 _atom_site_symmetry_multiplicity
 _atom_site_fract_x
 _atom_site_fract_y
 _atom_site_fract_z
 _atom_site_occupancy
  Mn  Mn0  1  0.21017200  0.25757300  0.27782600  1
  Mn  Mn1  1  0.77781000  0.75757000  0.71017900  1
  P  P2  1  0.15226600  0.62611100  0.09947900  1
  P  P3  1  0.59948600  0.12610900  0.65226600  1
  O  O4  1  0.02618800  0.76672200  0.26524400  1
  O  O5  1  0.19917800  0.45855100  0.32344600  1
  O  O6  1  0.29879200  0.15280100  0.97267000  1
  O  O7  1  0.50865700  0.12129200  0.42244500  1
  O  O8  1  0.47266800  0.65279500  0.79879000  1
  O  O9  1  0.76524800  0.26671900  0.52618800  1
  O  O10  1  0.92244800  0.62129400  0.00865200  1
  O  O11  1  0.82344700  0.95854800  0.69917700  1
