# generated using pymatgen
data_V3Zn7H3SO19
_symmetry_space_group_name_H-M   'P 1'
_cell_length_a   12.96714613
_cell_length_b   12.96714613
_cell_length_c   5.27397500
_cell_angle_alpha   90.00000000
_cell_angle_beta   90.00000000
_cell_angle_gamma   120.00000066
_symmetry_Int_Tables_number   1
_chemical_formula_structural   V3Zn7H3SO19
_chemical_formula_sum   'V6 Zn14 H6 S2 O38'
_cell_volume   767.99343157
_cell_formula_units_Z   2
loop_
 _symmetry_equiv_pos_site_id
 _symmetry_equiv_pos_as_xyz
  1  'x, y, z'
loop_
 _atom_site_type_symbol
 _atom_site_label
 _atom_site_symmetry_multiplicity
 _atom_site_fract_x
 _atom_site_fract_y
 _atom_site_fract_z
 _atom_site_occupancy
  V  V0  1  0.15091300  0.84908700  0.02645900  1
  V  V1  1  0.15091300  0.30182600  0.02645900  1
  V  V2  1  0.30182600  0.15091300  0.52645900  1
  V  V3  1  0.69817400  0.84908700  0.02645900  1
  V  V4  1  0.84908700  0.69817400  0.52645900  1
  V  V5  1  0.84908700  0.15091300  0.52645900  1
  Zn  Zn6  1  0.07918200  0.65459900  0.50329700  1
  Zn  Zn7  1  0.07918200  0.42458300  0.50329700  1
  Zn  Zn8  1  0.34540100  0.92081800  0.50329700  1
  Zn  Zn9  1  0.00000000  0.00000000  0.32124400  1
  Zn  Zn10  1  0.00000000  0.00000000  0.82124400  1
  Zn  Zn11  1  0.57541700  0.92081800  0.50329700  1
  Zn  Zn12  1  0.34540100  0.42458300  0.50329700  1
  Zn  Zn13  1  0.57541700  0.65459900  0.50329700  1
  Zn  Zn14  1  0.42458300  0.34540100  0.00329700  1
  Zn  Zn15  1  0.65459900  0.57541700  0.00329700  1
  Zn  Zn16  1  0.42458300  0.07918200  0.00329700  1
  Zn  Zn17  1  0.65459900  0.07918200  0.00329700  1
  Zn  Zn18  1  0.92081800  0.57541700  0.00329700  1
  Zn  Zn19  1  0.92081800  0.34540100  0.00329700  1
  H  H20  1  0.13422100  0.56711100  0.13732600  1
  H  H21  1  0.43288900  0.86577900  0.13732600  1
  H  H22  1  0.43288900  0.56711100  0.13732600  1
  H  H23  1  0.56711100  0.43288900  0.63732600  1
  H  H24  1  0.56711100  0.13422100  0.63732600  1
  H  H25  1  0.86577900  0.43288900  0.63732600  1
  S  S26  1  0.33333300  0.66666700  0.74584100  1
  S  S27  1  0.66666700  0.33333300  0.24584100  1
  O  O28  1  0.07410600  0.92589400  0.06999800  1
  O  O29  1  0.06715700  0.72029400  0.84590300  1
  O  O30  1  0.19153500  0.80846500  0.31467100  1
  O  O31  1  0.05823700  0.52911800  0.22976200  1
  O  O32  1  0.27970600  0.93284300  0.84590300  1
  O  O33  1  0.06715700  0.34686200  0.84590300  1
  O  O34  1  0.20824000  0.60412000  0.64354700  1
  O  O35  1  0.07410600  0.14821200  0.06999800  1
  O  O36  1  0.19153500  0.38307000  0.31467100  1
  O  O37  1  0.47088200  0.94176300  0.22976200  1
  O  O38  1  0.33333300  0.66666700  0.02349500  1
  O  O39  1  0.39588000  0.79176000  0.64354700  1
  O  O40  1  0.39588000  0.60412000  0.64354700  1
  O  O41  1  0.27970600  0.34686200  0.84590300  1
  O  O42  1  0.14821200  0.07410600  0.56999800  1
  O  O43  1  0.65313800  0.93284300  0.84590300  1
  O  O44  1  0.34686200  0.27970600  0.34590300  1
  O  O45  1  0.47088200  0.52911800  0.22976200  1
  O  O46  1  0.61693000  0.80846500  0.31467100  1
  O  O47  1  0.38307000  0.19153500  0.81467100  1
  O  O48  1  0.52911800  0.47088200  0.72976200  1
  O  O49  1  0.65313800  0.72029400  0.84590300  1
  O  O50  1  0.34686200  0.06715700  0.34590300  1
  O  O51  1  0.85178800  0.92589400  0.06999800  1
  O  O52  1  0.72029400  0.65313800  0.34590300  1
  O  O53  1  0.60412000  0.39588000  0.14354700  1
  O  O54  1  0.60412000  0.20824000  0.14354700  1
  O  O55  1  0.66666700  0.33333300  0.52349500  1
  O  O56  1  0.80846500  0.61693000  0.81467100  1
  O  O57  1  0.52911800  0.05823700  0.72976200  1
  O  O58  1  0.92589400  0.85178800  0.56999800  1
  O  O59  1  0.79176000  0.39588000  0.14354700  1
  O  O60  1  0.93284300  0.65313800  0.34590300  1
  O  O61  1  0.72029400  0.06715700  0.34590300  1
  O  O62  1  0.94176300  0.47088200  0.72976200  1
  O  O63  1  0.80846500  0.19153500  0.81467100  1
  O  O64  1  0.93284300  0.27970600  0.34590300  1
  O  O65  1  0.92589400  0.07410600  0.56999800  1
