# generated using pymatgen
data_Rb5(WO3)18
_symmetry_space_group_name_H-M   'P 1'
_cell_length_a   7.48520056
_cell_length_b   7.48520056
_cell_length_c   23.08679900
_cell_angle_alpha   90.00000000
_cell_angle_beta   90.00000000
_cell_angle_gamma   120.00000496
_symmetry_Int_Tables_number   1
_chemical_formula_structural   Rb5(WO3)18
_chemical_formula_sum   'Rb5 W18 O54'
_cell_volume   1120.21456433
_cell_formula_units_Z   1
loop_
 _symmetry_equiv_pos_site_id
 _symmetry_equiv_pos_as_xyz
  1  'x, y, z'
loop_
 _atom_site_type_symbol
 _atom_site_label
 _atom_site_symmetry_multiplicity
 _atom_site_fract_x
 _atom_site_fract_y
 _atom_site_fract_z
 _atom_site_occupancy
  Rb  Rb0  1  0.00000000  0.00000000  0.50000000  1
  Rb  Rb1  1  0.00000000  0.00000000  0.15447100  1
  Rb  Rb2  1  0.00000000  0.00000000  0.33126500  1
  Rb  Rb3  1  0.00000000  0.00000000  0.66873500  1
  Rb  Rb4  1  0.00000000  0.00000000  0.84552900  1
  W  W5  1  0.00000000  0.50737200  0.91725100  1
  W  W6  1  0.00000000  0.50019800  0.58349000  1
  W  W7  1  0.00000000  0.50289300  0.24967500  1
  W  W8  1  0.00000000  0.49710700  0.75032500  1
  W  W9  1  0.00000000  0.49262800  0.08274900  1
  W  W10  1  0.00000000  0.49980200  0.41651000  1
  W  W11  1  0.49710700  0.49710700  0.24967500  1
  W  W12  1  0.49262800  0.49262800  0.91725100  1
  W  W13  1  0.49980200  0.49980200  0.58349000  1
  W  W14  1  0.50019800  0.50019800  0.41651000  1
  W  W15  1  0.50737200  0.50737200  0.08274900  1
  W  W16  1  0.50289300  0.50289300  0.75032500  1
  W  W17  1  0.49262800  0.00000000  0.08274900  1
  W  W18  1  0.49980200  0.00000000  0.41651000  1
  W  W19  1  0.49710700  0.00000000  0.75032500  1
  W  W20  1  0.50289300  0.00000000  0.24967500  1
  W  W21  1  0.50019800  0.00000000  0.58349000  1
  W  W22  1  0.50737200  0.00000000  0.91725100  1
  O  O23  1  0.00000000  0.49979400  0.66653100  1
  O  O24  1  0.00000000  0.50020600  0.33346900  1
  O  O25  1  0.00000000  0.50000000  0.00000000  1
  O  O26  1  0.00000000  0.49953700  0.16716300  1
  O  O27  1  0.00000000  0.50046300  0.83283700  1
  O  O28  1  0.00000000  0.50000000  0.50000000  1
  O  O29  1  0.21327900  0.78652800  0.08400200  1
  O  O30  1  0.21207200  0.78812400  0.74970400  1
  O  O31  1  0.21202200  0.78833700  0.41672000  1
  O  O32  1  0.21347200  0.78672100  0.91599800  1
  O  O33  1  0.21166300  0.78797800  0.58328000  1
  O  O34  1  0.21187600  0.78792800  0.25029600  1
  O  O35  1  0.21207200  0.42394800  0.25029600  1
  O  O36  1  0.21202200  0.42368500  0.58328000  1
  O  O37  1  0.21327900  0.42675100  0.91599800  1
  O  O38  1  0.21166300  0.42368500  0.41672000  1
  O  O39  1  0.21347200  0.42675100  0.08400200  1
  O  O40  1  0.21187600  0.42394800  0.74970400  1
  O  O41  1  0.57631500  0.78797800  0.41672000  1
  O  O42  1  0.57605200  0.78792800  0.74970400  1
  O  O43  1  0.57324900  0.78672100  0.08400200  1
  O  O44  1  0.57631500  0.78833700  0.58328000  1
  O  O45  1  0.57605200  0.78812400  0.25029600  1
  O  O46  1  0.57324900  0.78652800  0.91599800  1
  O  O47  1  0.50020600  0.50020600  0.66653100  1
  O  O48  1  0.49953700  0.49953700  0.83283700  1
  O  O49  1  0.50046300  0.50046300  0.16716300  1
  O  O50  1  0.49979400  0.49979400  0.33346900  1
  O  O51  1  0.50000000  0.50000000  0.00000000  1
  O  O52  1  0.50000000  0.50000000  0.50000000  1
  O  O53  1  0.42675100  0.21347200  0.08400200  1
  O  O54  1  0.42368500  0.21166300  0.41672000  1
  O  O55  1  0.42394800  0.21187600  0.74970400  1
  O  O56  1  0.42368500  0.21202200  0.58328000  1
  O  O57  1  0.42394800  0.21207200  0.25029600  1
  O  O58  1  0.42675100  0.21327900  0.91599800  1
  O  O59  1  0.78652800  0.57324900  0.91599800  1
  O  O60  1  0.78812400  0.57605200  0.25029600  1
  O  O61  1  0.78833700  0.57631500  0.58328000  1
  O  O62  1  0.49979400  0.00000000  0.66653100  1
  O  O63  1  0.50000000  0.00000000  0.00000000  1
  O  O64  1  0.50046300  0.00000000  0.83283700  1
  O  O65  1  0.49953700  0.00000000  0.16716300  1
  O  O66  1  0.50020600  0.00000000  0.33346900  1
  O  O67  1  0.50000000  0.00000000  0.50000000  1
  O  O68  1  0.78792800  0.57605200  0.74970400  1
  O  O69  1  0.78797800  0.57631500  0.41672000  1
  O  O70  1  0.78672100  0.57324900  0.08400200  1
  O  O71  1  0.78812400  0.21207200  0.74970400  1
  O  O72  1  0.78652800  0.21327900  0.08400200  1
  O  O73  1  0.78833700  0.21202200  0.41672000  1
  O  O74  1  0.78792800  0.21187600  0.25029600  1
  O  O75  1  0.78672100  0.21347200  0.91599800  1
  O  O76  1  0.78797800  0.21166300  0.58328000  1
