# generated using pymatgen
data_KP(HO2)2
_symmetry_space_group_name_H-M   'P 1'
_cell_length_a   7.73261998
_cell_length_b   7.73261998
_cell_length_c   14.51333799
_cell_angle_alpha   88.36061160
_cell_angle_beta   88.36061160
_cell_angle_gamma   72.18759238
_symmetry_Int_Tables_number   1
_chemical_formula_structural   KP(HO2)2
_chemical_formula_sum   'K8 P8 H16 O32'
_cell_volume   825.68434033
_cell_formula_units_Z   8
loop_
 _symmetry_equiv_pos_site_id
 _symmetry_equiv_pos_as_xyz
  1  'x, y, z'
loop_
 _atom_site_type_symbol
 _atom_site_label
 _atom_site_symmetry_multiplicity
 _atom_site_fract_x
 _atom_site_fract_y
 _atom_site_fract_z
 _atom_site_occupancy
  K  K0  1  0.85923100  0.63860700  0.71059600  1
  K  K1  1  0.63860700  0.85923100  0.21059600  1
  K  K2  1  0.39223700  0.64894200  0.96087400  1
  K  K3  1  0.89833500  0.14061800  0.95357000  1
  K  K4  1  0.64894200  0.39223700  0.46087400  1
  K  K5  1  0.14061800  0.89833500  0.45357000  1
  K  K6  1  0.36116000  0.14524300  0.72714900  1
  K  K7  1  0.14524300  0.36116000  0.22714900  1
  P  P8  1  0.87462900  0.67642400  0.96086600  1
  P  P9  1  0.67642400  0.87462900  0.46086600  1
  P  P10  1  0.36199000  0.64874500  0.71213600  1
  P  P11  1  0.84664600  0.16008000  0.71471000  1
  P  P12  1  0.64874500  0.36199000  0.21213600  1
  P  P13  1  0.16008000  0.84664600  0.21471000  1
  P  P14  1  0.37551600  0.15653000  0.96418600  1
  P  P15  1  0.15653000  0.37551600  0.46418600  1
  H  H16  1  0.63460600  0.88748700  0.89603500  1
  H  H17  1  0.88748700  0.63460600  0.39603500  1
  H  H18  1  0.48822800  0.77947300  0.59789900  1
  H  H19  1  0.77947300  0.48822800  0.09789900  1
  H  H20  1  0.11640800  0.87903400  0.76589400  1
  H  H21  1  0.62184700  0.38895500  0.77961500  1
  H  H22  1  0.87903400  0.11640800  0.26589400  1
  H  H23  1  0.38895500  0.62184700  0.27961500  1
  H  H24  1  0.76174700  0.01926700  0.59688200  1
  H  H25  1  0.24289700  0.52044700  0.57952100  1
  H  H26  1  0.01926700  0.76174700  0.09688200  1
  H  H27  1  0.52044700  0.24289700  0.07952100  1
  H  H28  1  0.10151000  0.43435000  0.90871100  1
  H  H29  1  0.43435000  0.10151000  0.40871100  1
  H  H30  1  0.02560100  0.25908300  0.58168800  1
  H  H31  1  0.25908300  0.02560100  0.08168800  1
  O  O32  1  0.77296000  0.82334400  0.88609900  1
  O  O33  1  0.82334400  0.77296000  0.38609900  1
  O  O34  1  0.96029100  0.49881500  0.90261300  1
  O  O35  1  0.49881500  0.96029100  0.40261300  1
  O  O36  1  0.43363300  0.98693800  0.90530300  1
  O  O37  1  0.98693800  0.43363300  0.40530300  1
  O  O38  1  0.64408200  0.73742600  0.53216000  1
  O  O39  1  0.73742600  0.64408200  0.03216000  1
  O  O40  1  0.37593100  0.81003400  0.64366200  1
  O  O41  1  0.86108300  0.30188900  0.64141200  1
  O  O42  1  0.81003400  0.37593100  0.14366200  1
  O  O43  1  0.52284000  0.59069800  0.77674800  1
  O  O44  1  0.30188900  0.86108300  0.14141200  1
  O  O45  1  0.59069800  0.52284000  0.27674800  1
  O  O46  1  0.69020500  0.25080900  0.78790700  1
  O  O47  1  0.25080900  0.69020500  0.28790700  1
  O  O48  1  0.17814500  0.73666200  0.76714700  1
  O  O49  1  0.73666200  0.17814500  0.26714700  1
  O  O50  1  0.34433300  0.48770900  0.65787800  1
  O  O51  1  0.48770900  0.34433300  0.15787800  1
  O  O52  1  0.78255900  0.00558800  0.66982300  1
  O  O53  1  0.02632600  0.73881100  0.00128300  1
  O  O54  1  0.00558800  0.78255900  0.16982300  1
  O  O55  1  0.73881100  0.02632600  0.50128300  1
  O  O56  1  0.16234500  0.54908700  0.51814200  1
  O  O57  1  0.54908700  0.16234500  0.01814200  1
  O  O58  1  0.29223600  0.33384300  0.91049100  1
  O  O59  1  0.33384300  0.29223600  0.41049100  1
  O  O60  1  0.14379400  0.22517800  0.54010900  1
  O  O61  1  0.22517800  0.14379400  0.04010900  1
  O  O62  1  0.02048500  0.07242400  0.76811300  1
  O  O63  1  0.07242400  0.02048500  0.26811300  1
