# generated using pymatgen
data_Na9(WO3)16
_symmetry_space_group_name_H-M   'P 1'
_cell_length_a   6.75804917
_cell_length_b   6.75804917
_cell_length_c   22.07124329
_cell_angle_alpha   89.92779407
_cell_angle_beta   89.92779407
_cell_angle_gamma   70.52349402
_symmetry_Int_Tables_number   1
_chemical_formula_structural   Na9(WO3)16
_chemical_formula_sum   'Na9 W16 O48'
_cell_volume   950.33899123
_cell_formula_units_Z   1
loop_
 _symmetry_equiv_pos_site_id
 _symmetry_equiv_pos_as_xyz
  1  'x, y, z'
loop_
 _atom_site_type_symbol
 _atom_site_label
 _atom_site_symmetry_multiplicity
 _atom_site_fract_x
 _atom_site_fract_y
 _atom_site_fract_z
 _atom_site_occupancy
  Na  Na0  1  0.50000000  0.50000000  0.00000000  1
  Na  Na1  1  0.24956100  0.24956100  0.87421700  1
  Na  Na2  1  0.25000700  0.25000700  0.62481000  1
  Na  Na3  1  0.75039500  0.75039500  0.87409100  1
  Na  Na4  1  0.74998000  0.74998000  0.62479800  1
  Na  Na5  1  0.25002000  0.25002000  0.37520200  1
  Na  Na6  1  0.24960500  0.24960500  0.12590900  1
  Na  Na7  1  0.74999300  0.74999300  0.37519000  1
  Na  Na8  1  0.75043900  0.75043900  0.12578300  1
  W  W9  1  0.00000000  0.50000000  0.00000000  1
  W  W10  1  0.00009100  0.50021100  0.74936800  1
  W  W11  1  0.24907900  0.75134500  0.87363700  1
  W  W12  1  0.75134500  0.24907900  0.87363700  1
  W  W13  1  0.50000000  0.00000000  0.00000000  1
  W  W14  1  0.75001900  0.25002100  0.62479200  1
  W  W15  1  0.25002100  0.75001900  0.62479200  1
  W  W16  1  0.50021100  0.00009100  0.74936800  1
  W  W17  1  0.00000000  0.50000000  0.50000000  1
  W  W18  1  0.24998100  0.74997900  0.37520800  1
  W  W19  1  0.50000000  0.00000000  0.50000000  1
  W  W20  1  0.74997900  0.24998100  0.37520800  1
  W  W21  1  0.99990900  0.49978900  0.25063200  1
  W  W22  1  0.75092100  0.24865500  0.12636300  1
  W  W23  1  0.24865500  0.75092100  0.12636300  1
  W  W24  1  0.49978900  0.99990900  0.25063200  1
  O  O25  1  0.14539500  0.61526600  0.94006000  1
  O  O26  1  0.61526600  0.14539500  0.94006000  1
  O  O27  1  0.12867400  0.60480300  0.81657400  1
  O  O28  1  0.60480300  0.12867400  0.81657400  1
  O  O29  1  0.74780300  0.74780300  0.99347800  1
  O  O30  1  0.51250800  0.51250800  0.87594000  1
  O  O31  1  0.01208700  0.01208700  0.62483600  1
  O  O32  1  0.25040200  0.25040200  0.74400200  1
  O  O33  1  0.37192000  0.89305500  0.93374800  1
  O  O34  1  0.89305500  0.37192000  0.93374800  1
  O  O35  1  0.64026500  0.11705400  0.68915200  1
  O  O36  1  0.35962600  0.88351000  0.81058300  1
  O  O37  1  0.88351000  0.35962600  0.81058300  1
  O  O38  1  0.11705400  0.64026500  0.68915200  1
  O  O39  1  0.62882600  0.10489500  0.56653400  1
  O  O40  1  0.10489500  0.62882600  0.56653400  1
  O  O41  1  0.98751500  0.98751500  0.87493700  1
  O  O42  1  0.74972800  0.74972800  0.75605400  1
  O  O43  1  0.24967200  0.24967200  0.50603600  1
  O  O44  1  0.48797700  0.48797700  0.62513700  1
  O  O45  1  0.87100300  0.39507300  0.68337400  1
  O  O46  1  0.39507300  0.87100300  0.68337400  1
  O  O47  1  0.85998600  0.38329000  0.56073400  1
  O  O48  1  0.14001400  0.61671000  0.43926600  1
  O  O49  1  0.61671000  0.14001400  0.43926600  1
  O  O50  1  0.38329000  0.85998600  0.56073400  1
  O  O51  1  0.60492700  0.12899700  0.31662600  1
  O  O52  1  0.12899700  0.60492800  0.31662600  1
  O  O53  1  0.51202300  0.51202300  0.37486300  1
  O  O54  1  0.75032800  0.75032800  0.49396400  1
  O  O55  1  0.01248500  0.01248500  0.12506300  1
  O  O56  1  0.25027200  0.25027200  0.24394600  1
  O  O57  1  0.37117400  0.89510500  0.43346600  1
  O  O58  1  0.89510500  0.37117400  0.43346600  1
  O  O59  1  0.35973500  0.88294600  0.31084800  1
  O  O60  1  0.11649000  0.64037400  0.18941700  1
  O  O61  1  0.64037400  0.11649000  0.18941700  1
  O  O62  1  0.88294600  0.35973500  0.31084800  1
  O  O63  1  0.10694500  0.62808000  0.06625200  1
  O  O64  1  0.62808000  0.10694500  0.06625200  1
  O  O65  1  0.48749200  0.48749200  0.12406000  1
  O  O66  1  0.25219700  0.25219700  0.00652200  1
  O  O67  1  0.98791300  0.98791300  0.37516400  1
  O  O68  1  0.74959800  0.74959800  0.25599800  1
  O  O69  1  0.39519700  0.87132600  0.18342600  1
  O  O70  1  0.87132600  0.39519700  0.18342600  1
  O  O71  1  0.38473400  0.85460500  0.05994000  1
  O  O72  1  0.85460500  0.38473400  0.05994000  1
