# generated using pymatgen
data_Mg17(SiO3)16
_symmetry_space_group_name_H-M   'P 1'
_cell_length_a   8.93334100
_cell_length_b   9.48811400
_cell_length_c   10.85969988
_cell_angle_alpha   89.28868192
_cell_angle_beta   90.00000000
_cell_angle_gamma   90.00000000
_symmetry_Int_Tables_number   1
_chemical_formula_structural   Mg17(SiO3)16
_chemical_formula_sum   'Mg17 Si16 O48'
_cell_volume   920.40328505
_cell_formula_units_Z   1
loop_
 _symmetry_equiv_pos_site_id
 _symmetry_equiv_pos_as_xyz
  1  'x, y, z'
loop_
 _atom_site_type_symbol
 _atom_site_label
 _atom_site_symmetry_multiplicity
 _atom_site_fract_x
 _atom_site_fract_y
 _atom_site_fract_z
 _atom_site_occupancy
  Mg  Mg0  1  0.10301800  0.01102000  0.75308100  1
  Mg  Mg1  1  0.73898000  0.00333600  0.75150900  1
  Mg  Mg2  1  0.26191900  0.00000000  0.50000000  1
  Mg  Mg3  1  0.89586200  0.00000000  0.00000000  1
  Mg  Mg4  1  0.26173600  0.00000000  0.00000000  1
  Mg  Mg5  1  0.10301800  0.98898000  0.24691900  1
  Mg  Mg6  1  0.73898000  0.99666400  0.24849100  1
  Mg  Mg7  1  0.89568600  0.00000000  0.50000000  1
  Mg  Mg8  1  0.76466600  0.50000000  0.50000000  1
  Mg  Mg9  1  0.13052000  0.50000000  0.50000000  1
  Mg  Mg10  1  0.44074200  0.50000000  0.50000000  1
  Mg  Mg11  1  0.60987600  0.49938300  0.24835000  1
  Mg  Mg12  1  0.75949200  0.50000000  0.00000000  1
  Mg  Mg13  1  0.25178800  0.49798300  0.24424400  1
  Mg  Mg14  1  0.40274300  0.50000000  0.00000000  1
  Mg  Mg15  1  0.60987600  0.50061700  0.75165000  1
  Mg  Mg16  1  0.25178800  0.50201700  0.75575600  1
  Si  Si17  1  0.58948100  0.20883800  0.90694200  1
  Si  Si18  1  0.40951200  0.20679700  0.15642000  1
  Si  Si19  1  0.41234300  0.21173200  0.65536100  1
  Si  Si20  1  0.59329100  0.20638300  0.40501700  1
  Si  Si21  1  0.09131000  0.29256600  0.90783000  1
  Si  Si22  1  0.08668800  0.26869300  0.39242800  1
  Si  Si23  1  0.91278300  0.29064900  0.65816800  1
  Si  Si24  1  0.90409600  0.28574600  0.15089600  1
  Si  Si25  1  0.09131000  0.70743400  0.09217000  1
  Si  Si26  1  0.90409600  0.71425400  0.84910400  1
  Si  Si27  1  0.08668800  0.73130700  0.60757200  1
  Si  Si28  1  0.91278300  0.70935100  0.34183200  1
  Si  Si29  1  0.41234300  0.78826800  0.34463900  1
  Si  Si30  1  0.40951200  0.79320300  0.84358000  1
  Si  Si31  1  0.58948100  0.79116200  0.09305800  1
  Si  Si32  1  0.59329100  0.79361700  0.59498300  1
  O  O33  1  0.74473700  0.12285000  0.90776700  1
  O  O34  1  0.74763500  0.11864900  0.40443800  1
  O  O35  1  0.25588900  0.12644700  0.65458800  1
  O  O36  1  0.25407300  0.11956800  0.15875200  1
  O  O37  1  0.09693100  0.12002200  0.91451900  1
  O  O38  1  0.90032200  0.11404700  0.15784600  1
  O  O39  1  0.90394300  0.11945700  0.66312000  1
  O  O40  1  0.08825200  0.10042200  0.40707100  1
  O  O41  1  0.48209300  0.15554700  0.52024600  1
  O  O42  1  0.47604900  0.15245600  0.01955700  1
  O  O43  1  0.52332100  0.15315600  0.26961900  1
  O  O44  1  0.52258800  0.15521500  0.76986100  1
  O  O45  1  0.01812200  0.33602500  0.26333000  1
  O  O46  1  0.02252600  0.34583500  0.77087200  1
  O  O47  1  0.97321700  0.34620100  0.01647700  1
  O  O48  1  0.98349600  0.33713700  0.51301600  1
  O  O49  1  0.40928200  0.37970100  0.16054300  1
  O  O50  1  0.41413100  0.38596400  0.66005200  1
  O  O51  1  0.59505300  0.38174100  0.91149700  1
  O  O52  1  0.60208700  0.37985500  0.41114000  1
  O  O53  1  0.24717300  0.37924600  0.90960400  1
  O  O54  1  0.24298800  0.36217500  0.40158100  1
  O  O55  1  0.75057600  0.37502800  0.15459600  1
  O  O56  1  0.76108000  0.38249900  0.65499000  1
  O  O57  1  0.24717300  0.62075400  0.09039600  1
  O  O58  1  0.76108000  0.61750100  0.34501000  1
  O  O59  1  0.75057600  0.62497200  0.84540400  1
  O  O60  1  0.24298800  0.63782500  0.59841900  1
  O  O61  1  0.41413100  0.61403600  0.33994800  1
  O  O62  1  0.40928200  0.62029900  0.83945700  1
  O  O63  1  0.59505300  0.61825900  0.08850300  1
  O  O64  1  0.60208700  0.62014500  0.58886000  1
  O  O65  1  0.02252600  0.65416500  0.22912800  1
  O  O66  1  0.01812200  0.66397500  0.73667000  1
  O  O67  1  0.97321700  0.65379900  0.98352300  1
  O  O68  1  0.98349600  0.66286300  0.48698400  1
  O  O69  1  0.52332100  0.84684400  0.73038100  1
  O  O70  1  0.48209300  0.84445300  0.47975400  1
  O  O71  1  0.47604900  0.84754400  0.98044300  1
  O  O72  1  0.52258800  0.84478500  0.23013900  1
  O  O73  1  0.90032200  0.88595300  0.84215400  1
  O  O74  1  0.09693100  0.87997800  0.08548100  1
  O  O75  1  0.08825200  0.89957800  0.59292900  1
  O  O76  1  0.90394300  0.88054300  0.33688000  1
  O  O77  1  0.25407300  0.88043200  0.84124800  1
  O  O78  1  0.25588900  0.87355300  0.34541200  1
  O  O79  1  0.74473700  0.87715000  0.09223300  1
  O  O80  1  0.74763500  0.88135100  0.59556200  1
