# generated using pymatgen
data_KMn2P2HO9
_symmetry_space_group_name_H-M   'P 1'
_cell_length_a   6.78175500
_cell_length_b   6.56688600
_cell_length_c   8.94472447
_cell_angle_alpha   70.02982638
_cell_angle_beta   90.00000000
_cell_angle_gamma   90.00000000
_symmetry_Int_Tables_number   1
_chemical_formula_structural   KMn2P2HO9
_chemical_formula_sum   'K2 Mn4 P4 H2 O18'
_cell_volume   374.40063499
_cell_formula_units_Z   2
loop_
 _symmetry_equiv_pos_site_id
 _symmetry_equiv_pos_as_xyz
  1  'x, y, z'
loop_
 _atom_site_type_symbol
 _atom_site_label
 _atom_site_symmetry_multiplicity
 _atom_site_fract_x
 _atom_site_fract_y
 _atom_site_fract_z
 _atom_site_occupancy
  K  K0  1  0.25000000  0.92834100  0.20061500  1
  K  K1  1  0.75000000  0.07165900  0.79938500  1
  Mn  Mn2  1  0.25000000  0.46788800  0.70940800  1
  Mn  Mn3  1  0.75000000  0.53211200  0.29059200  1
  Mn  Mn4  1  0.50000000  0.50000000  0.00000000  1
  Mn  Mn5  1  0.00000000  0.50000000  0.00000000  1
  P  P6  1  0.25000000  0.90196200  0.80977000  1
  P  P7  1  0.75000000  0.59326900  0.64149000  1
  P  P8  1  0.25000000  0.40673100  0.35851000  1
  P  P9  1  0.75000000  0.09803800  0.19023000  1
  H  H10  1  0.75000000  0.02300400  0.45235700  1
  H  H11  1  0.25000000  0.97699600  0.54764300  1
  O  O12  1  0.43702100  0.80994900  0.90954900  1
  O  O13  1  0.06297900  0.80994900  0.90954900  1
  O  O14  1  0.75000000  0.83982000  0.58368400  1
  O  O15  1  0.25000000  0.83185100  0.65592800  1
  O  O16  1  0.75000000  0.85424400  0.24399600  1
  O  O17  1  0.25000000  0.42607000  0.93322300  1
  O  O18  1  0.93438800  0.49642700  0.74891600  1
  O  O19  1  0.56561200  0.49642700  0.74891600  1
  O  O20  1  0.25000000  0.51819800  0.48755400  1
  O  O21  1  0.75000000  0.48180200  0.51244600  1
  O  O22  1  0.43438800  0.50357300  0.25108400  1
  O  O23  1  0.06561200  0.50357300  0.25108400  1
  O  O24  1  0.75000000  0.57393000  0.06677700  1
  O  O25  1  0.25000000  0.14575600  0.75600400  1
  O  O26  1  0.75000000  0.16814900  0.34407200  1
  O  O27  1  0.25000000  0.16018000  0.41631600  1
  O  O28  1  0.93702100  0.19005100  0.09045100  1
  O  O29  1  0.56297900  0.19005100  0.09045100  1
