# generated using pymatgen
data_FeOF
_symmetry_space_group_name_H-M   'P 1'
_cell_length_a   3.10301300
_cell_length_b   14.22311600
_cell_length_c   14.26320692
_cell_angle_alpha   89.76801167
_cell_angle_beta   90.00000000
_cell_angle_gamma   90.00000000
_symmetry_Int_Tables_number   1
_chemical_formula_structural   FeOF
_chemical_formula_sum   'Fe18 O18 F18'
_cell_volume   629.49454313
_cell_formula_units_Z   18
loop_
 _symmetry_equiv_pos_site_id
 _symmetry_equiv_pos_as_xyz
  1  'x, y, z'
loop_
 _atom_site_type_symbol
 _atom_site_label
 _atom_site_symmetry_multiplicity
 _atom_site_fract_x
 _atom_site_fract_y
 _atom_site_fract_z
 _atom_site_occupancy
  Fe  Fe0  1  0.00000000  0.98784700  0.99605700  1
  Fe  Fe1  1  0.00000000  0.99207000  0.32661400  1
  Fe  Fe2  1  0.00000000  0.99392100  0.67015100  1
  Fe  Fe3  1  0.50000000  0.84575700  0.16348000  1
  Fe  Fe4  1  0.50000000  0.83380800  0.52059200  1
  Fe  Fe5  1  0.50000000  0.84675700  0.82983800  1
  Fe  Fe6  1  0.00000000  0.65469500  0.99592100  1
  Fe  Fe7  1  0.00000000  0.65657100  0.33453500  1
  Fe  Fe8  1  0.00000000  0.66342000  0.65570600  1
  Fe  Fe9  1  0.50000000  0.51295300  0.49999900  1
  Fe  Fe10  1  0.50000000  0.51748600  0.16772000  1
  Fe  Fe11  1  0.50000000  0.49565100  0.84731900  1
  Fe  Fe12  1  0.00000000  0.33261600  0.99787800  1
  Fe  Fe13  1  0.00000000  0.32011800  0.33125300  1
  Fe  Fe14  1  0.00000000  0.31969900  0.66636900  1
  Fe  Fe15  1  0.50000000  0.18360700  0.15997500  1
  Fe  Fe16  1  0.50000000  0.18011700  0.49960800  1
  Fe  Fe17  1  0.50000000  0.16182000  0.81350100  1
  O  O18  1  0.50000000  0.93497400  0.27031200  1
  O  O19  1  0.50000000  0.93763700  0.60045100  1
  O  O20  1  0.50000000  0.93594800  0.93552600  1
  O  O21  1  0.00000000  0.89931100  0.10276300  1
  O  O22  1  0.00000000  0.89358600  0.76800800  1
  O  O23  1  0.00000000  0.76653100  0.56741200  1
  O  O24  1  0.50000000  0.60427400  0.27056300  1
  O  O25  1  0.50000000  0.59716800  0.60702100  1
  O  O26  1  0.50000000  0.60232400  0.93273200  1
  O  O27  1  0.00000000  0.56527800  0.10135500  1
  O  O28  1  0.00000000  0.56592500  0.43689200  1
  O  O29  1  0.00000000  0.42924300  0.90225600  1
  O  O30  1  0.50000000  0.26880200  0.26579000  1
  O  O31  1  0.50000000  0.26877700  0.60284300  1
  O  O32  1  0.00000000  0.23600000  0.09536800  1
  O  O33  1  0.00000000  0.23118000  0.43385600  1
  O  O34  1  0.00000000  0.23425300  0.77188700  1
  O  O35  1  0.50000000  0.06262200  0.72928400  1
  F  F36  1  0.00000000  0.90061500  0.43521500  1
  F  F37  1  0.00000000  0.76852100  0.23199600  1
  F  F38  1  0.00000000  0.76747200  0.90217500  1
  F  F39  1  0.50000000  0.73196900  0.06630900  1
  F  F40  1  0.50000000  0.72614700  0.73748400  1
  F  F41  1  0.50000000  0.73689000  0.39673700  1
  F  F42  1  0.00000000  0.56178100  0.77172700  1
  F  F43  1  0.00000000  0.43567000  0.23293200  1
  F  F44  1  0.00000000  0.43311900  0.56481300  1
  F  F45  1  0.50000000  0.39794100  0.06788300  1
  F  F46  1  0.50000000  0.39873900  0.39815200  1
  F  F47  1  0.50000000  0.40298600  0.73106200  1
  F  F48  1  0.50000000  0.26554100  0.93616400  1
  F  F49  1  0.00000000  0.10317700  0.23004300  1
  F  F50  1  0.00000000  0.10256400  0.55961900  1
  F  F51  1  0.00000000  0.10283600  0.90233200  1
  F  F52  1  0.50000000  0.06772500  0.06754900  1
  F  F53  1  0.50000000  0.06356400  0.39697300  1
