# generated using pymatgen
data_Cr(PO3)4
_symmetry_space_group_name_H-M   'P 1'
_cell_length_a   7.18401183
_cell_length_b   7.18401183
_cell_length_c   10.08397276
_cell_angle_alpha   66.73531709
_cell_angle_beta   66.73531709
_cell_angle_gamma   70.21681583
_symmetry_Int_Tables_number   1
_chemical_formula_structural   Cr(PO3)4
_chemical_formula_sum   'Cr2 P8 O24'
_cell_volume   428.85546319
_cell_formula_units_Z   2
loop_
 _symmetry_equiv_pos_site_id
 _symmetry_equiv_pos_as_xyz
  1  'x, y, z'
loop_
 _atom_site_type_symbol
 _atom_site_label
 _atom_site_symmetry_multiplicity
 _atom_site_fract_x
 _atom_site_fract_y
 _atom_site_fract_z
 _atom_site_occupancy
  Cr  Cr0  1  0.55394500  0.44605500  0.25000000  1
  Cr  Cr1  1  0.44605500  0.55394500  0.75000000  1
  P  P2  1  0.74641600  0.23423600  0.98132200  1
  P  P3  1  0.76576400  0.25358400  0.51867800  1
  P  P4  1  0.18848700  0.21242400  0.30674400  1
  P  P5  1  0.21242400  0.18848700  0.80674400  1
  P  P6  1  0.78757600  0.81151300  0.19325600  1
  P  P7  1  0.81151300  0.78757600  0.69325600  1
  P  P8  1  0.23423600  0.74641600  0.48132200  1
  P  P9  1  0.25358400  0.76576400  0.01867800  1
  O  O10  1  0.58405600  0.34903100  0.90277500  1
  O  O11  1  0.96683400  0.20795800  0.85507000  1
  O  O12  1  0.65096900  0.41594400  0.59722500  1
  O  O13  1  0.75974300  0.30548600  0.09801900  1
  O  O14  1  0.30961200  0.15029600  0.65718200  1
  O  O15  1  0.25049300  0.38226800  0.80949300  1
  O  O16  1  0.38226800  0.25049300  0.30949300  1
  O  O17  1  0.00218800  0.28495400  0.44261000  1
  O  O18  1  0.15029600  0.30961200  0.15718200  1
  O  O19  1  0.69451400  0.24025700  0.40198100  1
  O  O20  1  0.79204200  0.03316600  0.64493000  1
  O  O21  1  0.28495400  0.00218800  0.94261000  1
  O  O22  1  0.71504600  0.99781200  0.05739000  1
  O  O23  1  0.20795800  0.96683400  0.35507000  1
  O  O24  1  0.30548600  0.75974300  0.59801900  1
  O  O25  1  0.84970400  0.69038800  0.84281800  1
  O  O26  1  0.99781200  0.71504600  0.55739000  1
  O  O27  1  0.61773200  0.74950700  0.69050700  1
  O  O28  1  0.74950700  0.61773200  0.19050700  1
  O  O29  1  0.69038800  0.84970400  0.34281800  1
  O  O30  1  0.24025700  0.69451400  0.90198100  1
  O  O31  1  0.34903100  0.58405600  0.40277500  1
  O  O32  1  0.03316600  0.79204200  0.14493000  1
  O  O33  1  0.41594400  0.65096900  0.09722500  1
