# generated using pymatgen
data_Mg2Cu2P2(H4O5)3
_symmetry_space_group_name_H-M   'P 1'
_cell_length_a   5.04300726
_cell_length_b   11.63018552
_cell_length_c   10.59216804
_cell_angle_alpha   79.99542096
_cell_angle_beta   90.00138516
_cell_angle_gamma   77.44261563
_symmetry_Int_Tables_number   1
_chemical_formula_structural   Mg2Cu2P2(H4O5)3
_chemical_formula_sum   'Mg4 Cu4 P4 H24 O30'
_cell_volume   596.69900553
_cell_formula_units_Z   2
loop_
 _symmetry_equiv_pos_site_id
 _symmetry_equiv_pos_as_xyz
  1  'x, y, z'
loop_
 _atom_site_type_symbol
 _atom_site_label
 _atom_site_symmetry_multiplicity
 _atom_site_fract_x
 _atom_site_fract_y
 _atom_site_fract_z
 _atom_site_occupancy
  Mg  Mg0  1  0.95228800  0.76138100  0.96578500  1
  Mg  Mg1  1  0.28320500  0.76087400  0.46498000  1
  Mg  Mg2  1  0.72033400  0.23928100  0.53516700  1
  Mg  Mg3  1  0.04235300  0.24063600  0.03537800  1
  Cu  Cu4  1  0.09800600  0.50847300  0.86797600  1
  Cu  Cu5  1  0.60787900  0.49395100  0.63288700  1
  Cu  Cu6  1  0.39621100  0.50775000  0.36535200  1
  Cu  Cu7  1  0.90283100  0.49246900  0.13307500  1
  P  P8  1  0.47589500  0.69401300  0.77172800  1
  P  P9  1  0.82866600  0.69165500  0.27212800  1
  P  P10  1  0.17232900  0.30829800  0.72848500  1
  P  P11  1  0.52042500  0.30749300  0.22821700  1
  H  H12  1  0.55803400  0.96254600  0.85664400  1
  H  H13  1  0.22668200  0.92353900  0.76771700  1
  H  H14  1  0.48455500  0.96089600  0.36070700  1
  H  H15  1  0.03480600  0.81995600  0.66755700  1
  H  H16  1  0.84803500  0.92426500  0.26747700  1
  H  H17  1  0.14430600  0.81747500  0.16526100  1
  H  H18  1  0.79359100  0.79977800  0.58765500  1
  H  H19  1  0.41169700  0.79825400  0.08875400  1
  H  H20  1  0.66812200  0.45664800  0.93013500  1
  H  H21  1  0.13294600  0.53903400  0.57004000  1
  H  H22  1  0.87351200  0.45877300  0.43465600  1
  H  H23  1  0.32871700  0.54376200  0.07045300  1
  H  H24  1  0.59243300  0.20117900  0.91612400  1
  H  H25  1  0.21543200  0.19981700  0.41353500  1
  H  H26  1  0.85448000  0.18268900  0.83519300  1
  H  H27  1  0.14842400  0.07106100  0.73014100  1
  H  H28  1  0.97457100  0.17984800  0.33356900  1
  H  H29  1  0.51854300  0.03917300  0.64114600  1
  H  H30  1  0.77518000  0.00656000  0.93015100  1
  H  H31  1  0.78670100  0.07108000  0.23315600  1
  H  H32  1  0.77918300  0.99549000  0.56703600  1
  H  H33  1  0.44508400  0.04312800  0.14190700  1
  H  H34  1  0.22265700  0.00239900  0.43592000  1
  H  H35  1  0.22792900  0.99645700  0.06903700  1
  O  O36  1  0.72833200  0.93304200  0.91100500  1
  O  O37  1  0.33595100  0.93116400  0.40883700  1
  O  O38  1  0.95737600  0.83716300  0.57750800  1
  O  O39  1  0.21405600  0.77593200  0.81025500  1
  O  O40  1  0.21029100  0.83385900  0.07640100  1
  O  O41  1  0.53588200  0.73448100  0.62999000  1
  O  O42  1  0.00657800  0.77452900  0.31051700  1
  O  O43  1  0.71994800  0.68482800  0.86115300  1
  O  O44  1  0.72940600  0.73164000  0.13013000  1
  O  O45  1  0.59477100  0.68198300  0.36066100  1
  O  O46  1  0.41940800  0.56082000  0.78040400  1
  O  O47  1  0.27021500  0.57493500  0.52175800  1
  O  O48  1  0.01981300  0.55893300  0.28264700  1
  O  O49  1  0.84354700  0.42551000  0.97780300  1
  O  O50  1  0.15488100  0.57511300  0.02237300  1
  O  O51  1  0.98199600  0.44238700  0.71758000  1
  O  O52  1  0.72915200  0.42628200  0.47990500  1
  O  O53  1  0.57244000  0.44177800  0.21569100  1
  O  O54  1  0.41050800  0.31644000  0.64149700  1
  O  O55  1  0.26759500  0.27086300  0.87078800  1
  O  O56  1  0.27561400  0.31542800  0.14112100  1
  O  O57  1  0.99490500  0.22484200  0.69016600  1
  O  O58  1  0.46630600  0.26930400  0.37136000  1
  O  O59  1  0.79329100  0.16455600  0.92470500  1
  O  O60  1  0.78173900  0.22617400  0.18908900  1
  O  O61  1  0.04964500  0.16415400  0.42360200  1
  O  O62  1  0.65809000  0.06895100  0.58559000  1
  O  O63  1  0.29716500  0.99810100  0.74668900  1
  O  O64  1  0.27113100  0.07012300  0.08927700  1
  O  O65  1  0.70611100  0.99946800  0.24957100  1
