# generated using pymatgen
data_Na7Mn16O32
_symmetry_space_group_name_H-M   'P 1'
_cell_length_a   10.32659591
_cell_length_b   10.32659591
_cell_length_c   10.32659591
_cell_angle_alpha   131.61627166
_cell_angle_beta   131.61627166
_cell_angle_gamma   70.83576347
_symmetry_Int_Tables_number   1
_chemical_formula_structural   Na7Mn16O32
_chemical_formula_sum   'Na7 Mn16 O32'
_cell_volume   602.82470542
_cell_formula_units_Z   1
loop_
 _symmetry_equiv_pos_site_id
 _symmetry_equiv_pos_as_xyz
  1  'x, y, z'
loop_
 _atom_site_type_symbol
 _atom_site_label
 _atom_site_symmetry_multiplicity
 _atom_site_fract_x
 _atom_site_fract_y
 _atom_site_fract_z
 _atom_site_occupancy
  Na  Na0  1  0.50000000  0.50000000  0.00000000  1
  Na  Na1  1  0.12301400  0.12301400  0.49239000  1
  Na  Na2  1  0.63062400  0.63062400  0.50761000  1
  Na  Na3  1  0.25000000  0.75000000  0.50000000  1
  Na  Na4  1  0.75000000  0.25000000  0.50000000  1
  Na  Na5  1  0.87698600  0.36937600  0.00000000  1
  Na  Na6  1  0.36937600  0.87698600  0.00000000  1
  Mn  Mn7  1  0.43338600  0.18542700  0.49515500  1
  Mn  Mn8  1  0.18542700  0.43338600  0.49515500  1
  Mn  Mn9  1  0.69027200  0.93823100  0.50484500  1
  Mn  Mn10  1  0.93823100  0.69027200  0.50484500  1
  Mn  Mn11  1  0.30972800  0.81457300  0.24795900  1
  Mn  Mn12  1  0.56661400  0.06176900  0.75204100  1
  Mn  Mn13  1  0.81457300  0.30972800  0.24795900  1
  Mn  Mn14  1  0.06176900  0.56661400  0.75204100  1
  Mn  Mn15  1  0.43736900  0.18836500  0.00000000  1
  Mn  Mn16  1  0.93890600  0.68902300  0.00000000  1
  Mn  Mn17  1  0.18836500  0.43736900  0.00000000  1
  Mn  Mn18  1  0.68902300  0.93890600  0.00000000  1
  Mn  Mn19  1  0.56263100  0.56263100  0.75099600  1
  Mn  Mn20  1  0.06109400  0.06109400  0.75011600  1
  Mn  Mn21  1  0.31097700  0.31097700  0.24988400  1
  Mn  Mn22  1  0.81163500  0.81163500  0.24900400  1
  O  O23  1  0.15754700  0.65675900  0.70918400  1
  O  O24  1  0.65675900  0.15754700  0.70918400  1
  O  O25  1  0.44836400  0.94757600  0.29081600  1
  O  O26  1  0.94757600  0.44836400  0.29081600  1
  O  O27  1  0.05242400  0.34324100  0.50078800  1
  O  O28  1  0.55163600  0.84245300  0.49921200  1
  O  O29  1  0.34324100  0.05242400  0.50078800  1
  O  O30  1  0.84245300  0.55163600  0.49921200  1
  O  O31  1  0.78762600  0.07093100  0.00000000  1
  O  O32  1  0.57516400  0.28218400  0.00000000  1
  O  O33  1  0.28218400  0.57516400  0.00000000  1
  O  O34  1  0.07093100  0.78762600  0.00000000  1
  O  O35  1  0.96719900  0.46835500  0.79101800  1
  O  O36  1  0.46835500  0.96719900  0.79101800  1
  O  O37  1  0.17618100  0.67733700  0.20898200  1
  O  O38  1  0.67733700  0.17618100  0.20898200  1
  O  O39  1  0.90689400  0.90689400  0.20975600  1
  O  O40  1  0.19754300  0.19754300  0.78796600  1
  O  O41  1  0.69713800  0.69713800  0.79024400  1
  O  O42  1  0.40957800  0.40957800  0.21203400  1
  O  O43  1  0.09310600  0.30286200  0.00000000  1
  O  O44  1  0.59042200  0.80245700  0.00000000  1
  O  O45  1  0.80245700  0.59042200  0.00000000  1
  O  O46  1  0.30286200  0.09310600  0.00000000  1
  O  O47  1  0.82381900  0.03280100  0.50115600  1
  O  O48  1  0.32266300  0.53164500  0.49884400  1
  O  O49  1  0.03280100  0.82381900  0.50115600  1
  O  O50  1  0.53164500  0.32266300  0.49884400  1
  O  O51  1  0.21237400  0.21237400  0.28330600  1
  O  O52  1  0.92906900  0.92906900  0.71669400  1
  O  O53  1  0.71781600  0.71781600  0.29298000  1
  O  O54  1  0.42483600  0.42483600  0.70702000  1
