# generated using pymatgen
data_Mn3OF6
_symmetry_space_group_name_H-M   'P 1'
_cell_length_a   4.83223684
_cell_length_b   10.23445471
_cell_length_c   11.63230511
_cell_angle_alpha   65.57027848
_cell_angle_beta   79.68233131
_cell_angle_gamma   89.62003598
_symmetry_Int_Tables_number   1
_chemical_formula_structural   Mn3OF6
_chemical_formula_sum   'Mn12 O4 F24'
_cell_volume   513.84188792
_cell_formula_units_Z   4
loop_
 _symmetry_equiv_pos_site_id
 _symmetry_equiv_pos_as_xyz
  1  'x, y, z'
loop_
 _atom_site_type_symbol
 _atom_site_label
 _atom_site_symmetry_multiplicity
 _atom_site_fract_x
 _atom_site_fract_y
 _atom_site_fract_z
 _atom_site_occupancy
  Mn  Mn0  1  0.98316400  0.01222900  0.98137000  1
  Mn  Mn1  1  0.96379100  0.16101200  0.20879700  1
  Mn  Mn2  1  0.83264100  0.81571100  0.35102900  1
  Mn  Mn3  1  0.51285500  0.51020500  0.97342800  1
  Mn  Mn4  1  0.57970300  0.87293000  0.78623000  1
  Mn  Mn5  1  0.67391100  0.68791700  0.64333900  1
  Mn  Mn6  1  0.68096900  0.46766400  0.51847100  1
  Mn  Mn7  1  0.27772900  0.98400500  0.49802300  1
  Mn  Mn8  1  0.37147700  0.66931400  0.19007200  1
  Mn  Mn9  1  0.11391000  0.36887000  0.79798100  1
  Mn  Mn10  1  0.15127600  0.18665800  0.65300900  1
  Mn  Mn11  1  0.31718900  0.32279300  0.33396800  1
  O  O12  1  0.58824100  0.67609000  0.49279600  1
  O  O13  1  0.47554200  0.85299000  0.64164800  1
  O  O14  1  0.34539600  0.34217700  0.65797100  1
  O  O15  1  0.13305900  0.15326400  0.34787700  1
  F  F16  1  0.86671800  0.20099500  0.79004900  1
  F  F17  1  0.89605400  0.51357700  0.65566300  1
  F  F18  1  0.94817700  0.02764300  0.64284300  1
  F  F19  1  0.74344400  0.90265000  0.91191600  1
  F  F20  1  0.84526100  0.40484000  0.91930800  1
  F  F21  1  0.98899700  0.33109000  0.49261900  1
  F  F22  1  0.82318100  0.70525500  0.78029000  1
  F  F23  1  0.67344400  0.29114000  0.23612200  1
  F  F24  1  0.77663000  0.11860800  0.09468000  1
  F  F25  1  0.62289100  0.97665100  0.36123900  1
  F  F26  1  0.64590900  0.60369500  0.09153400  1
  F  F27  1  0.51794900  0.47343700  0.36096800  1
  F  F28  1  0.62145500  0.79393300  0.21287200  1
  F  F29  1  0.25192200  0.19742200  0.92335800  1
  F  F30  1  0.38593000  0.52159200  0.79218700  1
  F  F31  1  0.32644000  0.02694500  0.78647300  1
  F  F32  1  0.32485100  0.70237800  0.91337000  1
  F  F33  1  0.43905900  0.17216900  0.50923200  1
  F  F34  1  0.23845100  0.33156600  0.09151600  1
  F  F35  1  0.14851400  0.50539700  0.21388800  1
  F  F36  1  0.07572200  0.66461800  0.34079100  1
  F  F37  1  0.02806900  0.82549700  0.50033800  1
  F  F38  1  0.18112500  0.83437600  0.07723900  1
  F  F39  1  0.11141200  0.96785000  0.23438300  1
