# generated using pymatgen
data_Cu3OF5
_symmetry_space_group_name_H-M   'P 1'
_cell_length_a   7.51255887
_cell_length_b   4.59455407
_cell_length_c   5.91396840
_cell_angle_alpha   93.73918969
_cell_angle_beta   89.23723719
_cell_angle_gamma   89.29177920
_symmetry_Int_Tables_number   1
_chemical_formula_structural   Cu3OF5
_chemical_formula_sum   'Cu6 O2 F10'
_cell_volume   203.66110898
_cell_formula_units_Z   2
loop_
 _symmetry_equiv_pos_site_id
 _symmetry_equiv_pos_as_xyz
  1  'x, y, z'
loop_
 _atom_site_type_symbol
 _atom_site_label
 _atom_site_symmetry_multiplicity
 _atom_site_fract_x
 _atom_site_fract_y
 _atom_site_fract_z
 _atom_site_occupancy
  Cu  Cu0  1  0.00742300  0.98164200  0.99043200  1
  Cu  Cu1  1  0.99285300  0.53031000  0.52435800  1
  Cu  Cu2  1  0.33068800  0.00492900  0.33199600  1
  Cu  Cu3  1  0.67687900  0.51303200  0.19162500  1
  Cu  Cu4  1  0.32449200  0.51095600  0.83584100  1
  Cu  Cu5  1  0.66871500  0.98673300  0.65880200  1
  O  O6  1  0.10651200  0.69617000  0.79949000  1
  O  O7  1  0.77239400  0.69894100  0.47196800  1
  F  F8  1  0.22311100  0.20030000  0.01154400  1
  F  F9  1  0.11374800  0.79888000  0.31417100  1
  F  F10  1  0.44436200  0.70212400  0.14678600  1
  F  F11  1  0.21950200  0.30353300  0.51879700  1
  F  F12  1  0.55113200  0.20802000  0.34697400  1
  F  F13  1  0.44518300  0.79541800  0.65030100  1
  F  F14  1  0.90181500  0.28629500  0.18790700  1
  F  F15  1  0.55599700  0.29716200  0.85343000  1
  F  F16  1  0.88279400  0.19481400  0.68077900  1
  F  F17  1  0.78240000  0.79074200  0.98479900  1
