# generated using pymatgen
data_YbDy3
_symmetry_space_group_name_H-M   'P 1'
_cell_length_a   6.21131258
_cell_length_b   6.21131258
_cell_length_c   6.21131258
_cell_angle_alpha   131.87709406
_cell_angle_beta   131.87709406
_cell_angle_gamma   70.42321286
_symmetry_Int_Tables_number   1
_chemical_formula_structural   YbDy3
_chemical_formula_sum   'Yb1 Dy3'
_cell_volume   130.18566485
_cell_formula_units_Z   1
loop_
 _symmetry_equiv_pos_site_id
 _symmetry_equiv_pos_as_xyz
  1  'x, y, z'
loop_
 _atom_site_type_symbol
 _atom_site_label
 _atom_site_symmetry_multiplicity
 _atom_site_fract_x
 _atom_site_fract_y
 _atom_site_fract_z
 _atom_site_occupancy
  Yb  Yb0  1  0.00000000  0.00000000  0.00000000  1
  Dy  Dy1  1  0.75000000  0.25000000  0.50000000  1
  Dy  Dy2  1  0.25000000  0.75000000  0.50000000  1
  Dy  Dy3  1  0.50000000  0.50000000  0.00000000  1
