# generated using pymatgen
data_Na7(NiO2)10
_symmetry_space_group_name_H-M   'P 1'
_cell_length_a   2.94144100
_cell_length_b   10.99462783
_cell_length_c   12.69952581
_cell_angle_alpha   107.36966153
_cell_angle_beta   91.45075786
_cell_angle_gamma   91.46479765
_symmetry_Int_Tables_number   1
_chemical_formula_structural   Na7(NiO2)10
_chemical_formula_sum   'Na7 Ni10 O20'
_cell_volume   391.61279011
_cell_formula_units_Z   1
loop_
 _symmetry_equiv_pos_site_id
 _symmetry_equiv_pos_as_xyz
  1  'x, y, z'
loop_
 _atom_site_type_symbol
 _atom_site_label
 _atom_site_symmetry_multiplicity
 _atom_site_fract_x
 _atom_site_fract_y
 _atom_site_fract_z
 _atom_site_occupancy
  Na  Na0  1  0.01270500  0.91128200  0.82764400  1
  Na  Na1  1  0.50197000  0.38148400  0.76838800  1
  Na  Na2  1  0.00000000  0.50000000  0.00000000  1
  Na  Na3  1  0.98729500  0.08871800  0.17235600  1
  Na  Na4  1  0.49803000  0.61851600  0.23161200  1
  Na  Na5  1  0.51376000  0.21022200  0.42294700  1
  Na  Na6  1  0.48624000  0.78977800  0.57705300  1
  Ni  Ni7  1  0.00778700  0.20308000  0.89983400  1
  Ni  Ni8  1  0.99221300  0.79692000  0.10016600  1
  Ni  Ni9  1  0.49947500  0.69289300  0.90066800  1
  Ni  Ni10  1  0.50052500  0.30710700  0.09933200  1
  Ni  Ni11  1  0.00361900  0.39754800  0.30061300  1
  Ni  Ni12  1  0.00000000  0.00000000  0.50000000  1
  Ni  Ni13  1  0.49246100  0.90603200  0.29838800  1
  Ni  Ni14  1  0.50000000  0.50000000  0.50000000  1
  Ni  Ni15  1  0.99638100  0.60245200  0.69938700  1
  Ni  Ni16  1  0.50753900  0.09396800  0.70161200  1
  O  O17  1  0.51324700  0.72407900  0.75620100  1
  O  O18  1  0.02886600  0.56783400  0.83710500  1
  O  O19  1  0.03112300  0.18682100  0.04127000  1
  O  O20  1  0.51759900  0.07792500  0.84502300  1
  O  O21  1  0.50330800  0.66927300  0.04762800  1
  O  O22  1  0.01335600  0.78139000  0.24340600  1
  O  O23  1  0.49669200  0.33072700  0.95237200  1
  O  O24  1  0.98664400  0.21861000  0.75659400  1
  O  O25  1  0.96887700  0.81317900  0.95873000  1
  O  O26  1  0.48240100  0.92207500  0.15497700  1
  O  O27  1  0.48675300  0.27592100  0.24379900  1
  O  O28  1  0.03403200  0.37371200  0.44064700  1
  O  O29  1  0.49283100  0.88690200  0.44102800  1
  O  O30  1  0.02746500  0.96558400  0.64378300  1
  O  O31  1  0.52050800  0.51510800  0.35722500  1
  O  O32  1  0.97113400  0.43216600  0.16289500  1
  O  O33  1  0.97253500  0.03441600  0.35621700  1
  O  O34  1  0.50716900  0.11309800  0.55897200  1
  O  O35  1  0.96596800  0.62628800  0.55935300  1
  O  O36  1  0.47949200  0.48489200  0.64277500  1
