# generated using pymatgen
data_Li2Cr3CoO8
_symmetry_space_group_name_H-M   'P 1'
_cell_length_a   8.24173100
_cell_length_b   8.24173100
_cell_length_c   8.24173100
_cell_angle_alpha   90.00000000
_cell_angle_beta   90.00000000
_cell_angle_gamma   90.00000000
_symmetry_Int_Tables_number   1
_chemical_formula_structural   Li2Cr3CoO8
_chemical_formula_sum   'Li8 Cr12 Co4 O32'
_cell_volume   559.82889031
_cell_formula_units_Z   4
loop_
 _symmetry_equiv_pos_site_id
 _symmetry_equiv_pos_as_xyz
  1  'x, y, z'
loop_
 _atom_site_type_symbol
 _atom_site_label
 _atom_site_symmetry_multiplicity
 _atom_site_fract_x
 _atom_site_fract_y
 _atom_site_fract_z
 _atom_site_occupancy
  Li  Li0  1  0.99860500  0.99860500  0.99860500  1
  Li  Li1  1  0.25139500  0.25139500  0.25139500  1
  Li  Li2  1  0.24860500  0.74860500  0.75139500  1
  Li  Li3  1  0.50139500  0.00139500  0.49860500  1
  Li  Li4  1  0.49860500  0.50139500  0.00139500  1
  Li  Li5  1  0.75139500  0.24860500  0.74860500  1
  Li  Li6  1  0.74860500  0.75139500  0.24860500  1
  Li  Li7  1  0.00139500  0.49860500  0.50139500  1
  Cr  Cr8  1  0.12674700  0.12325300  0.62500000  1
  Cr  Cr9  1  0.12500000  0.37325300  0.87674700  1
  Cr  Cr10  1  0.12325300  0.62500000  0.12674700  1
  Cr  Cr11  1  0.37674700  0.37500000  0.62674700  1
  Cr  Cr12  1  0.37500000  0.62674700  0.37674700  1
  Cr  Cr13  1  0.37325300  0.87674700  0.12500000  1
  Cr  Cr14  1  0.62674700  0.37674700  0.37500000  1
  Cr  Cr15  1  0.62500000  0.12674700  0.12325300  1
  Cr  Cr16  1  0.62325300  0.87500000  0.87325300  1
  Cr  Cr17  1  0.87674700  0.12500000  0.37325300  1
  Cr  Cr18  1  0.87500000  0.87325300  0.62325300  1
  Cr  Cr19  1  0.87325300  0.62325300  0.87500000  1
  Co  Co20  1  0.12500000  0.87500000  0.37500000  1
  Co  Co21  1  0.37500000  0.12500000  0.87500000  1
  Co  Co22  1  0.62500000  0.62500000  0.62500000  1
  Co  Co23  1  0.87500000  0.37500000  0.12500000  1
  O  O24  1  0.11336200  0.11125500  0.38784100  1
  O  O25  1  0.11215900  0.88663800  0.61125500  1
  O  O26  1  0.10720400  0.60720400  0.89279600  1
  O  O27  1  0.13874500  0.13663800  0.86215900  1
  O  O28  1  0.11125500  0.38784100  0.11336200  1
  O  O29  1  0.14279600  0.35720400  0.64279600  1
  O  O30  1  0.13784100  0.63874500  0.36336200  1
  O  O31  1  0.13663800  0.86215900  0.13874500  1
  O  O32  1  0.36336200  0.13784100  0.63874500  1
  O  O33  1  0.36215900  0.36125500  0.86336200  1
  O  O34  1  0.35720400  0.64279600  0.14279600  1
  O  O35  1  0.38874500  0.61215900  0.61336200  1
  O  O36  1  0.36125500  0.86336200  0.36215900  1
  O  O37  1  0.39279600  0.39279600  0.39279600  1
  O  O38  1  0.38784100  0.11336200  0.11125500  1
  O  O39  1  0.38663800  0.88874500  0.88784100  1
  O  O40  1  0.61336200  0.38874500  0.61215900  1
  O  O41  1  0.61215900  0.61336200  0.38874500  1
  O  O42  1  0.60720400  0.89279600  0.10720400  1
  O  O43  1  0.63874500  0.36336200  0.13784100  1
  O  O44  1  0.61125500  0.11215900  0.88663800  1
  O  O45  1  0.64279600  0.14279600  0.35720400  1
  O  O46  1  0.63784100  0.86125500  0.63663800  1
  O  O47  1  0.63663800  0.63784100  0.86125500  1
  O  O48  1  0.86336200  0.36215900  0.36125500  1
  O  O49  1  0.86215900  0.13874500  0.13663800  1
  O  O50  1  0.85720400  0.85720400  0.85720400  1
  O  O51  1  0.88874500  0.88784100  0.38663800  1
  O  O52  1  0.86125500  0.63663800  0.63784100  1
  O  O53  1  0.89279600  0.10720400  0.60720400  1
  O  O54  1  0.88784100  0.38663800  0.88874500  1
  O  O55  1  0.88663800  0.61125500  0.11215900  1
