# generated using pymatgen
data_V6O5F19
_symmetry_space_group_name_H-M   'P 1'
_cell_length_a   5.37474400
_cell_length_b   5.59869726
_cell_length_c   15.02954273
_cell_angle_alpha   100.25422755
_cell_angle_beta   89.71077399
_cell_angle_gamma   93.00887285
_symmetry_Int_Tables_number   1
_chemical_formula_structural   V6O5F19
_chemical_formula_sum   'V6 O5 F19'
_cell_volume   444.42095264
_cell_formula_units_Z   1
loop_
 _symmetry_equiv_pos_site_id
 _symmetry_equiv_pos_as_xyz
  1  'x, y, z'
loop_
 _atom_site_type_symbol
 _atom_site_label
 _atom_site_symmetry_multiplicity
 _atom_site_fract_x
 _atom_site_fract_y
 _atom_site_fract_z
 _atom_site_occupancy
  V  V0  1  0.03711100  0.95785900  0.99733000  1
  V  V1  1  0.48944000  0.84841200  0.66506200  1
  V  V2  1  0.97128800  0.73565100  0.33729300  1
  V  V3  1  0.54210300  0.46556800  0.00316900  1
  V  V4  1  0.96108000  0.39179500  0.67068200  1
  V  V5  1  0.51645600  0.22522800  0.33459800  1
  O  O6  1  0.80436900  0.97674000  0.36013900  1
  O  O7  1  0.79245600  0.63119700  0.69156300  1
  O  O8  1  0.70122200  0.47461800  0.35640900  1
  O  O9  1  0.76093000  0.28764300  0.01631500  1
  O  O10  1  0.22054100  0.73472400  0.98410400  1
  F  F11  1  0.73635800  0.77552900  0.02775900  1
  F  F12  1  0.27804700  0.85583000  0.30902100  1
  F  F13  1  0.90906900  0.94300000  0.88773000  1
  F  F14  1  0.59999800  0.77225500  0.55292000  1
  F  F15  1  0.90782400  0.60999800  0.22265600  1
  F  F16  1  0.43109800  0.86972400  0.78213200  1
  F  F17  1  0.07819500  0.67873800  0.44252300  1
  F  F18  1  0.41255600  0.54007700  0.11261800  1
  F  F19  1  0.27592100  0.53736500  0.64439200  1
  F  F20  1  0.23147300  0.34178100  0.30450600  1
  F  F21  1  0.55650900  0.48258400  0.88652800  1
  F  F22  1  0.92566800  0.27612700  0.55449900  1
  F  F23  1  0.59536100  0.09619800  0.22279100  1
  F  F24  1  0.08239300  0.35239100  0.77559200  1
  F  F25  1  0.42500700  0.18197000  0.44409100  1
  F  F26  1  0.06341200  0.08386100  0.11378300  1
  F  F27  1  0.70141600  0.15016600  0.68880100  1
  F  F28  1  0.27266000  0.21478900  0.97231600  1
  F  F29  1  0.22004000  0.00818000  0.63867800  1
