# generated using pymatgen
data_Mn6OF11
_symmetry_space_group_name_H-M   'P 1'
_cell_length_a   4.95835000
_cell_length_b   5.91164399
_cell_length_c   16.21647648
_cell_angle_alpha   90.60232878
_cell_angle_beta   90.02336847
_cell_angle_gamma   90.04695785
_symmetry_Int_Tables_number   1
_chemical_formula_structural   Mn6OF11
_chemical_formula_sum   'Mn12 O2 F22'
_cell_volume   475.31089129
_cell_formula_units_Z   2
loop_
 _symmetry_equiv_pos_site_id
 _symmetry_equiv_pos_as_xyz
  1  'x, y, z'
loop_
 _atom_site_type_symbol
 _atom_site_label
 _atom_site_symmetry_multiplicity
 _atom_site_fract_x
 _atom_site_fract_y
 _atom_site_fract_z
 _atom_site_occupancy
  Mn  Mn0  1  0.99577500  0.14517200  0.58301700  1
  Mn  Mn1  1  0.99285900  0.83083600  0.75072100  1
  Mn  Mn2  1  0.97016700  0.18971200  0.91001900  1
  Mn  Mn3  1  0.99986600  0.16238600  0.25067100  1
  Mn  Mn4  1  0.98504200  0.83356700  0.42352300  1
  Mn  Mn5  1  0.01141400  0.83183400  0.07798900  1
  Mn  Mn6  1  0.50548000  0.33236200  0.41867300  1
  Mn  Mn7  1  0.50203800  0.33012600  0.08336800  1
  Mn  Mn8  1  0.50132500  0.33472800  0.75078800  1
  Mn  Mn9  1  0.50580700  0.64108900  0.91246400  1
  Mn  Mn10  1  0.52771200  0.68749900  0.57914000  1
  Mn  Mn11  1  0.49870800  0.67078500  0.25166400  1
  O  O12  1  0.79384900  0.91370300  0.53342100  1
  O  O13  1  0.69982100  0.40931100  0.86184900  1
  F  F14  1  0.77838700  0.11345900  0.69268300  1
  F  F15  1  0.76356800  0.10392000  0.35847500  1
  F  F16  1  0.78627200  0.11077400  0.02543800  1
  F  F17  1  0.75824500  0.88968500  0.86158800  1
  F  F18  1  0.77367400  0.88845400  0.19008500  1
  F  F19  1  0.71715800  0.61175300  0.69261100  1
  F  F20  1  0.74578400  0.39406400  0.52969100  1
  F  F21  1  0.73239500  0.60430000  0.36086200  1
  F  F22  1  0.72994900  0.39191100  0.19301100  1
  F  F23  1  0.72111200  0.61145700  0.02255000  1
  F  F24  1  0.26272400  0.39096000  0.97403800  1
  F  F25  1  0.26508600  0.61587200  0.80857600  1
  F  F26  1  0.25771700  0.36531100  0.63842200  1
  F  F27  1  0.28956900  0.61769200  0.47429400  1
  F  F28  1  0.27140600  0.60717200  0.13957300  1
  F  F29  1  0.27521400  0.38876000  0.30712900  1
  F  F30  1  0.21161900  0.11557500  0.80555000  1
  F  F31  1  0.22916600  0.12183500  0.47815100  1
  F  F32  1  0.23368700  0.88529300  0.64264000  1
  F  F33  1  0.25219100  0.86897900  0.96541300  1
  F  F34  1  0.23445300  0.10180700  0.13950700  1
  F  F35  1  0.22076200  0.88785600  0.31240900  1
