# generated using pymatgen
data_Li3VO3F
_symmetry_space_group_name_H-M   'P 1'
_cell_length_a   7.22962853
_cell_length_b   7.20149907
_cell_length_c   7.23562196
_cell_angle_alpha   109.81070462
_cell_angle_beta   109.72726527
_cell_angle_gamma   108.95362364
_symmetry_Int_Tables_number   1
_chemical_formula_structural   Li3VO3F
_chemical_formula_sum   'Li12 V4 O12 F4'
_cell_volume   289.70258020
_cell_formula_units_Z   4
loop_
 _symmetry_equiv_pos_site_id
 _symmetry_equiv_pos_as_xyz
  1  'x, y, z'
loop_
 _atom_site_type_symbol
 _atom_site_label
 _atom_site_symmetry_multiplicity
 _atom_site_fract_x
 _atom_site_fract_y
 _atom_site_fract_z
 _atom_site_occupancy
  Li  Li0  1  0.98428200  0.49932600  0.24417700  1
  Li  Li1  1  0.51616400  0.00693100  0.26418100  1
  Li  Li2  1  0.75326100  0.26481500  0.75792300  1
  Li  Li3  1  0.75159800  0.48567600  0.48200300  1
  Li  Li4  1  0.73630500  0.72948000  0.23997900  1
  Li  Li5  1  0.25612900  0.50120800  0.99667400  1
  Li  Li6  1  0.48857400  0.48144200  0.75866000  1
  Li  Li7  1  0.50870300  0.26112700  0.00269500  1
  Li  Li8  1  0.00075600  0.25224200  0.50400100  1
  Li  Li9  1  0.50690400  0.74228100  0.50437600  1
  Li  Li10  1  0.26203200  0.00445700  0.51377900  1
  Li  Li11  1  0.24655800  0.73630400  0.74045500  1
  V  V12  1  0.74128200  0.01936200  0.00017400  1
  V  V13  1  0.25680600  0.27623200  0.25696900  1
  V  V14  1  0.97691900  0.73289800  0.97654600  1
  V  V15  1  0.00002300  0.02094800  0.74055000  1
  O  O16  1  0.75556200  0.23139500  0.24175100  1
  O  O17  1  0.76228700  0.52078900  0.99969100  1
  O  O18  1  0.22244300  0.00693300  0.99824400  1
  O  O19  1  0.99884000  0.24433500  0.00041000  1
  O  O20  1  0.99675600  0.99528300  0.21863700  1
  O  O21  1  0.48507800  0.47923600  0.24858300  1
  O  O22  1  0.51832500  0.98778200  0.76507400  1
  O  O23  1  0.00570500  0.53057200  0.77416800  1
  O  O24  1  0.24688900  0.47055300  0.48109000  1
  O  O25  1  0.76597900  0.99157000  0.51983200  1
  O  O26  1  0.23784500  0.23129500  0.75109800  1
  O  O27  1  0.76721500  0.77067500  0.76512900  1
  F  F28  1  0.49393100  0.24381900  0.49100700  1
  F  F29  1  0.24667500  0.76251700  0.25035100  1
  F  F30  1  0.50230200  0.76024700  0.00615900  1
  F  F31  1  0.00787400  0.75827400  0.50563600  1
