# generated using pymatgen
data_K2CoP4H10O17
_symmetry_space_group_name_H-M   'P 1'
_cell_length_a   16.37381900
_cell_length_b   7.49235400
_cell_length_c   13.13207892
_cell_angle_alpha   88.19472495
_cell_angle_beta   90.00000000
_cell_angle_gamma   90.00000000
_symmetry_Int_Tables_number   1
_chemical_formula_structural   K2CoP4H10O17
_chemical_formula_sum   'K8 Co4 P16 H40 O68'
_cell_volume   1610.22345628
_cell_formula_units_Z   4
loop_
 _symmetry_equiv_pos_site_id
 _symmetry_equiv_pos_as_xyz
  1  'x, y, z'
loop_
 _atom_site_type_symbol
 _atom_site_label
 _atom_site_symmetry_multiplicity
 _atom_site_fract_x
 _atom_site_fract_y
 _atom_site_fract_z
 _atom_site_occupancy
  K  K0  1  0.22484300  0.02142700  0.06854400  1
  K  K1  1  0.27515700  0.52142700  0.06854400  1
  K  K2  1  0.65812500  0.22607700  0.39557700  1
  K  K3  1  0.84187500  0.72607700  0.39557700  1
  K  K4  1  0.15812500  0.27392300  0.60442300  1
  K  K5  1  0.34187500  0.77392300  0.60442300  1
  K  K6  1  0.72484300  0.47857300  0.93145600  1
  K  K7  1  0.77515700  0.97857300  0.93145600  1
  Co  Co8  1  0.50000000  0.50000000  0.00000000  1
  Co  Co9  1  0.00000000  0.00000000  0.00000000  1
  Co  Co10  1  0.50000000  0.50000000  0.50000000  1
  Co  Co11  1  0.00000000  0.00000000  0.50000000  1
  P  P12  1  0.88043700  0.27079500  0.12817000  1
  P  P13  1  0.05693200  0.34840000  0.13341700  1
  P  P14  1  0.61956300  0.77079500  0.12817000  1
  P  P15  1  0.44306800  0.84840000  0.13341700  1
  P  P16  1  0.87716600  0.26107000  0.35512300  1
  P  P17  1  0.05167700  0.35674900  0.35844000  1
  P  P18  1  0.62283400  0.76107000  0.35512300  1
  P  P19  1  0.44832300  0.85674900  0.35844000  1
  P  P20  1  0.55167700  0.14325100  0.64156000  1
  P  P21  1  0.37716600  0.23893000  0.64487700  1
  P  P22  1  0.94832300  0.64325100  0.64156000  1
  P  P23  1  0.12283400  0.73893000  0.64487700  1
  P  P24  1  0.55693200  0.15160000  0.86658300  1
  P  P25  1  0.38043700  0.22920500  0.87183000  1
  P  P26  1  0.94306800  0.65160000  0.86658300  1
  P  P27  1  0.11956300  0.72920500  0.87183000  1
  H  H28  1  0.46175800  0.23029200  0.12741700  1
  H  H29  1  0.03824200  0.73029200  0.12741700  1
  H  H30  1  0.55351100  0.29519200  0.14902200  1
  H  H31  1  0.94648900  0.79519200  0.14902200  1
  H  H32  1  0.66903200  0.11716200  0.16110100  1
  H  H33  1  0.70106400  0.31322100  0.16462600  1
  H  H34  1  0.83096800  0.61716200  0.16110100  1
  H  H35  1  0.79893600  0.81322100  0.16462600  1
  H  H36  1  0.32991600  0.16016200  0.22013300  1
  H  H37  1  0.17008400  0.66016200  0.22013300  1
  H  H38  1  0.28097000  0.29492500  0.28673800  1
  H  H39  1  0.21903000  0.79492500  0.28673800  1
  H  H40  1  0.47626600  0.39723900  0.30147900  1
  H  H41  1  0.02373400  0.89723900  0.30147900  1
  H  H42  1  0.45208000  0.22936400  0.37184300  1
  H  H43  1  0.04792000  0.72936400  0.37184300  1
  H  H44  1  0.22272700  0.48432400  0.39746700  1
  H  H45  1  0.27727300  0.98432400  0.39746700  1
  H  H46  1  0.30709400  0.43192600  0.44900100  1
  H  H47  1  0.19290600  0.93192600  0.44900100  1
  H  H48  1  0.80709400  0.06807400  0.55099900  1
  H  H49  1  0.69290600  0.56807400  0.55099900  1
  H  H50  1  0.72272700  0.01567600  0.60253300  1
  H  H51  1  0.77727300  0.51567600  0.60253300  1
  H  H52  1  0.95208000  0.27063600  0.62815700  1
  H  H53  1  0.54792000  0.77063600  0.62815700  1
  H  H54  1  0.97626600  0.10276100  0.69852100  1
  H  H55  1  0.52373400  0.60276100  0.69852100  1
  H  H56  1  0.78097000  0.20507500  0.71326200  1
  H  H57  1  0.71903000  0.70507500  0.71326200  1
  H  H58  1  0.82991600  0.33983800  0.77986700  1
  H  H59  1  0.67008400  0.83983800  0.77986700  1
  H  H60  1  0.20106400  0.18677900  0.83537400  1
  H  H61  1  0.16903200  0.38283800  0.83889900  1
  H  H62  1  0.29893600  0.68677900  0.83537400  1
  H  H63  1  0.33096800  0.88283800  0.83889900  1
  H  H64  1  0.05351100  0.20480800  0.85097800  1
  H  H65  1  0.44648900  0.70480800  0.85097800  1
  H  H66  1  0.96175800  0.26970800  0.87258300  1
  H  H67  1  0.53824200  0.76970800  0.87258300  1
  O  O68  1  0.89106000  0.12193800  0.05502600  1
  O  O69  1  0.60894000  0.62193800  0.05502600  1
  O  O70  1  0.07638100  0.19478400  0.06628100  1
  O  O71  1  0.42361900  0.69478400  0.06628100  1
  O  O72  1  0.39744900  0.02036400  0.12036300  1
  O  O73  1  0.80750200  0.39096700  0.11623100  1
  O  O74  1  0.10255100  0.52036400  0.12036300  1
  O  O75  1  0.69249800  0.89096700  0.11623100  1
  O  O76  1  0.96046100  0.39883400  0.12590800  1
  O  O77  1  0.49650400  0.33758700  0.13425800  1
  O  O78  1  0.53953900  0.89883400  0.12590800  1
  O  O79  1  0.00349600  0.83758700  0.13425800  1
  O  O80  1  0.65379300  0.23766600  0.18339100  1
  O  O81  1  0.84620700  0.73766600  0.18339100  1
  O  O82  1  0.28543300  0.24779700  0.21701600  1
  O  O83  1  0.21456700  0.74779700  0.21701600  1
  O  O84  1  0.88466100  0.17831300  0.24182700  1
  O  O85  1  0.06570900  0.26671600  0.24921300  1
  O  O86  1  0.61533900  0.67831300  0.24182700  1
  O  O87  1  0.43429100  0.76671600  0.24921300  1
  O  O88  1  0.95429900  0.39969900  0.35709100  1
  O  O89  1  0.40482300  0.03125200  0.36516900  1
  O  O90  1  0.80289900  0.37214700  0.36474600  1
  O  O91  1  0.48350500  0.34434600  0.36997600  1
  O  O92  1  0.54570100  0.89969900  0.35709100  1
  O  O93  1  0.09517700  0.53125200  0.36516900  1
  O  O94  1  0.69710100  0.87214700  0.36474600  1
  O  O95  1  0.01649500  0.84434600  0.36997600  1
  O  O96  1  0.26230500  0.38726500  0.40754100  1
  O  O97  1  0.89238100  0.10475300  0.42859100  1
  O  O98  1  0.23769500  0.88726500  0.40754100  1
  O  O99  1  0.60761900  0.60475300  0.42859100  1
  O  O100  1  0.06930100  0.21080800  0.43697200  1
  O  O101  1  0.43069900  0.71080800  0.43697200  1
  O  O102  1  0.56930100  0.28919200  0.56302800  1
  O  O103  1  0.93069900  0.78919200  0.56302800  1
  O  O104  1  0.39238100  0.39524700  0.57140900  1
  O  O105  1  0.76230500  0.11273500  0.59245900  1
  O  O106  1  0.10761900  0.89524700  0.57140900  1
  O  O107  1  0.73769500  0.61273500  0.59245900  1
  O  O108  1  0.98350500  0.15565400  0.63002400  1
  O  O109  1  0.30289900  0.12785300  0.63525400  1
  O  O110  1  0.90482300  0.46874800  0.63483100  1
  O  O111  1  0.45429900  0.10030100  0.64290900  1
  O  O112  1  0.51649500  0.65565400  0.63002400  1
  O  O113  1  0.19710100  0.62785300  0.63525400  1
  O  O114  1  0.59517700  0.96874800  0.63483100  1
  O  O115  1  0.04570100  0.60030100  0.64290900  1
  O  O116  1  0.56570900  0.23328400  0.75078700  1
  O  O117  1  0.38466100  0.32168700  0.75817300  1
  O  O118  1  0.93429100  0.73328400  0.75078700  1
  O  O119  1  0.11533900  0.82168700  0.75817300  1
  O  O120  1  0.78543300  0.25220300  0.78298400  1
  O  O121  1  0.71456700  0.75220300  0.78298400  1
  O  O122  1  0.15379300  0.26233400  0.81660900  1
  O  O123  1  0.34620700  0.76233400  0.81660900  1
  O  O124  1  0.99650400  0.16241300  0.86574200  1
  O  O125  1  0.46046100  0.10116600  0.87409200  1
  O  O126  1  0.50349600  0.66241300  0.86574200  1
  O  O127  1  0.03953900  0.60116600  0.87409200  1
  O  O128  1  0.30750200  0.10903300  0.88376900  1
  O  O129  1  0.89744900  0.47963600  0.87963700  1
  O  O130  1  0.19249800  0.60903300  0.88376900  1
  O  O131  1  0.60255100  0.97963600  0.87963700  1
  O  O132  1  0.57638100  0.30521600  0.93371900  1
  O  O133  1  0.92361900  0.80521600  0.93371900  1
  O  O134  1  0.39106000  0.37806200  0.94497400  1
  O  O135  1  0.10894000  0.87806200  0.94497400  1
