# generated using pymatgen
data_Li3MnPCO7
_symmetry_space_group_name_H-M   'P 1'
_cell_length_a   6.52930566
_cell_length_b   8.58491993
_cell_length_c   10.58580534
_cell_angle_alpha   95.28852314
_cell_angle_beta   93.76960317
_cell_angle_gamma   95.52551576
_symmetry_Int_Tables_number   1
_chemical_formula_structural   Li3MnPCO7
_chemical_formula_sum   'Li12 Mn4 P4 C4 O28'
_cell_volume   586.43169754
_cell_formula_units_Z   4
loop_
 _symmetry_equiv_pos_site_id
 _symmetry_equiv_pos_as_xyz
  1  'x, y, z'
loop_
 _atom_site_type_symbol
 _atom_site_label
 _atom_site_symmetry_multiplicity
 _atom_site_fract_x
 _atom_site_fract_y
 _atom_site_fract_z
 _atom_site_occupancy
  Li  Li0  1  0.75230800  0.12051400  0.10606400  1
  Li  Li1  1  0.75207400  0.12053600  0.60616800  1
  Li  Li2  1  0.14236900  0.87455500  0.02098800  1
  Li  Li3  1  0.14228700  0.87457200  0.52107200  1
  Li  Li4  1  0.41068500  0.74520200  0.20631500  1
  Li  Li5  1  0.41063900  0.74507600  0.70642600  1
  Li  Li6  1  0.48526000  0.24960100  0.42087500  1
  Li  Li7  1  0.48513400  0.24956000  0.92085100  1
  Li  Li8  1  0.92834300  0.75073200  0.25437600  1
  Li  Li9  1  0.92827500  0.75061600  0.75442700  1
  Li  Li10  1  0.96781100  0.24381200  0.37275700  1
  Li  Li11  1  0.96786900  0.24382800  0.87276100  1
  Mn  Mn12  1  0.20831400  0.35330000  0.65526400  1
  Mn  Mn13  1  0.68803500  0.64131700  0.97201200  1
  Mn  Mn14  1  0.20851600  0.35313600  0.15547200  1
  Mn  Mn15  1  0.68775100  0.64174200  0.47163600  1
  P  P16  1  0.70167000  0.41096700  0.20635800  1
  P  P17  1  0.70165700  0.41102800  0.70625500  1
  P  P18  1  0.19467300  0.58370600  0.42086300  1
  P  P19  1  0.19470100  0.58353400  0.92091000  1
  C  C20  1  0.18988500  0.04267400  0.21205300  1
  C  C21  1  0.18983200  0.04260300  0.71206100  1
  C  C22  1  0.70652900  0.95184500  0.41542100  1
  C  C23  1  0.70651400  0.95175100  0.91541200  1
  O  O24  1  0.73830200  0.90217500  0.02743400  1
  O  O25  1  0.73827600  0.90231000  0.52743400  1
  O  O26  1  0.15885800  0.09258400  0.10015000  1
  O  O27  1  0.15887000  0.09257300  0.60016600  1
  O  O28  1  0.52516600  0.31424300  0.11727500  1
  O  O29  1  0.52514300  0.31420600  0.61723200  1
  O  O30  1  0.37131700  0.68024200  0.00990500  1
  O  O31  1  0.37121600  0.68029800  0.50999200  1
  O  O32  1  0.75685700  0.57382100  0.15853600  1
  O  O33  1  0.75677000  0.57383300  0.65838500  1
  O  O34  1  0.13950400  0.42081100  0.46853700  1
  O  O35  1  0.13957500  0.42070400  0.96874200  1
  O  O36  1  0.88869300  0.30967100  0.20202800  1
  O  O37  1  0.88871100  0.30969600  0.70196200  1
  O  O38  1  0.00756700  0.68495000  0.42518900  1
  O  O39  1  0.00759700  0.68479800  0.92523600  1
  O  O40  1  0.17981800  0.89113600  0.21823600  1
  O  O41  1  0.17971600  0.89105300  0.71818300  1
  O  O42  1  0.71610600  0.10330400  0.40890800  1
  O  O43  1  0.71610300  0.10321700  0.90896500  1
  O  O44  1  0.25645000  0.56596900  0.28138800  1
  O  O45  1  0.25626200  0.56571100  0.78141000  1
  O  O46  1  0.63985100  0.42877800  0.34578900  1
  O  O47  1  0.63988800  0.42873300  0.84572200  1
  O  O48  1  0.67035200  0.85053700  0.31620300  1
  O  O49  1  0.67034300  0.85052700  0.81615400  1
  O  O50  1  0.22577600  0.14364400  0.31152200  1
  O  O51  1  0.22570100  0.14350700  0.81157600  1
