# generated using pymatgen
data_Na9Mn15O32
_symmetry_space_group_name_H-M   'P 1'
_cell_length_a   6.04028400
_cell_length_b   6.17798287
_cell_length_c   20.13536813
_cell_angle_alpha   89.91935019
_cell_angle_beta   97.15926901
_cell_angle_gamma   117.98174332
_symmetry_Int_Tables_number   1
_chemical_formula_structural   Na9Mn15O32
_chemical_formula_sum   'Na9 Mn15 O32'
_cell_volume   656.97651106
_cell_formula_units_Z   1
loop_
 _symmetry_equiv_pos_site_id
 _symmetry_equiv_pos_as_xyz
  1  'x, y, z'
loop_
 _atom_site_type_symbol
 _atom_site_label
 _atom_site_symmetry_multiplicity
 _atom_site_fract_x
 _atom_site_fract_y
 _atom_site_fract_z
 _atom_site_occupancy
  Na  Na0  1  0.81884500  0.16550700  0.96482600  1
  Na  Na1  1  0.25040100  0.12326300  0.87559400  1
  Na  Na2  1  0.67992400  0.07843900  0.78449700  1
  Na  Na3  1  0.31463100  0.39468100  0.72183400  1
  Na  Na4  1  0.80185400  0.65201000  0.46690200  1
  Na  Na5  1  0.69918600  0.60234700  0.28417400  1
  Na  Na6  1  0.19671300  0.34857500  0.53459000  1
  Na  Na7  1  0.28957800  0.88680300  0.21581100  1
  Na  Na8  1  0.19989000  0.86526400  0.02783800  1
  Mn  Mn9  1  0.25035400  0.62258000  0.87526700  1
  Mn  Mn10  1  0.99504900  0.72792200  0.75161900  1
  Mn  Mn11  1  0.75679300  0.36794700  0.62693000  1
  Mn  Mn12  1  0.51251700  0.52436000  0.99866400  1
  Mn  Mn13  1  0.75596700  0.87151900  0.62750100  1
  Mn  Mn14  1  0.25247000  0.86769800  0.62662000  1
  Mn  Mn15  1  0.75027000  0.62264800  0.87479000  1
  Mn  Mn16  1  0.49702300  0.99702300  0.50079500  1
  Mn  Mn17  1  0.24603600  0.37976000  0.12249200  1
  Mn  Mn18  1  0.24904800  0.12623800  0.37499800  1
  Mn  Mn19  1  0.74873100  0.12586000  0.37521100  1
  Mn  Mn20  1  0.74395700  0.87877100  0.12389200  1
  Mn  Mn21  1  0.99366600  0.24585900  0.24875900  1
  Mn  Mn22  1  0.24826700  0.62503000  0.37456700  1
  Mn  Mn23  1  0.74391300  0.37612500  0.12248600  1
  O  O24  1  0.20053800  0.39341100  0.94534000  1
  O  O25  1  0.59857800  0.77412500  0.93042600  1
  O  O26  1  0.90378200  0.47201700  0.81858600  1
  O  O27  1  0.08760800  0.76483400  0.92167900  1
  O  O28  1  0.30277700  0.85495100  0.80701800  1
  O  O29  1  0.86726800  0.86165600  0.80843000  1
  O  O30  1  0.09987900  0.57995800  0.67932000  1
  O  O31  1  0.63484000  0.38526600  0.94156300  1
  O  O32  1  0.91461100  0.73051400  0.57559500  1
  O  O33  1  0.08920600  0.99082900  0.68574600  1
  O  O34  1  0.58211800  0.25266700  0.43332000  1
  O  O35  1  0.41157300  0.47916100  0.82866700  1
  O  O36  1  0.58978300  0.01138700  0.67649200  1
  O  O37  1  0.34926800  0.42163900  0.32700000  1
  O  O38  1  0.40824300  0.15487800  0.57091100  1
  O  O39  1  0.85188300  0.16202400  0.57856900  1
  O  O40  1  0.67412700  0.57852200  0.68035400  1
  O  O41  1  0.14695900  0.82863000  0.42195600  1
  O  O42  1  0.58880300  0.84170100  0.43052100  1
  O  O43  1  0.41545400  0.99172600  0.32326900  1
  O  O44  1  0.64222800  0.57640400  0.17418800  1
  O  O45  1  0.91422800  0.99811400  0.31792800  1
  O  O46  1  0.08302000  0.26167900  0.42663700  1
  O  O47  1  0.42081100  0.74316900  0.56901200  1
  O  O48  1  0.41702900  0.68349500  0.06992900  1
  O  O49  1  0.90758500  0.40771900  0.31908900  1
  O  O50  1  0.64330200  0.08459200  0.17441700  1
  O  O51  1  0.07680200  0.07835600  0.17986800  1
  O  O52  1  0.07635900  0.49777200  0.17853500  1
  O  O53  1  0.85280300  0.17642800  0.07349500  1
  O  O54  1  0.41561700  0.26378300  0.06584200  1
  O  O55  1  0.83410600  0.67262200  0.06783900  1
