# generated using pymatgen
data_Li5La3Nb2O12
_symmetry_space_group_name_H-M   'P 1'
_cell_length_a   11.13676461
_cell_length_b   11.15882142
_cell_length_c   11.15887156
_cell_angle_alpha   109.73105760
_cell_angle_beta   109.12966861
_cell_angle_gamma   109.31840115
_symmetry_Int_Tables_number   1
_chemical_formula_structural   Li5La3Nb2O12
_chemical_formula_sum   'Li20 La12 Nb8 O48'
_cell_volume   1070.57492569
_cell_formula_units_Z   4
loop_
 _symmetry_equiv_pos_site_id
 _symmetry_equiv_pos_as_xyz
  1  'x, y, z'
loop_
 _atom_site_type_symbol
 _atom_site_label
 _atom_site_symmetry_multiplicity
 _atom_site_fract_x
 _atom_site_fract_y
 _atom_site_fract_z
 _atom_site_occupancy
  Li  Li0  1  0.16836400  0.90552500  0.88802600  1
  Li  Li1  1  0.05923400  0.11081800  0.81185000  1
  Li  Li2  1  0.25500600  0.68422500  0.78975600  1
  Li  Li3  1  0.21229500  0.74657200  0.32314900  1
  Li  Li4  1  0.28496300  0.61213300  0.52651600  1
  Li  Li5  1  0.32988800  0.22140700  0.73509800  1
  Li  Li6  1  0.57368900  0.75332200  0.96079300  1
  Li  Li7  1  0.24323300  0.03795300  0.42852600  1
  Li  Li8  1  0.47509300  0.71224500  0.38750200  1
  Li  Li9  1  0.52441000  0.28415600  0.61180400  1
  Li  Li10  1  0.60518400  0.52618700  0.28497600  1
  Li  Li11  1  0.42702000  0.24594200  0.03975500  1
  Li  Li12  1  0.67577000  0.78836300  0.25654500  1
  Li  Li13  1  0.70566000  0.38830600  0.46083100  1
  Li  Li14  1  0.80278400  0.25197300  0.69029900  1
  Li  Li15  1  0.89327100  0.18236200  0.93185600  1
  Li  Li16  1  0.97194200  0.58401700  0.75937500  1
  Li  Li17  1  0.74606600  0.31863400  0.21027800  1
  Li  Li18  1  0.92878200  0.88925000  0.18304100  1
  Li  Li19  1  0.82129500  0.07399000  0.11188300  1
  La  La20  1  0.24922100  0.88590000  0.63235300  1
  La  La21  1  0.13063500  0.37750500  0.75109200  1
  La  La22  1  0.13103200  0.25894100  0.38083300  1
  La  La23  1  0.62503000  0.87273500  0.74367800  1
  La  La24  1  0.24261000  0.38030800  0.13329400  1
  La  La25  1  0.36062500  0.74928800  0.11653900  1
  La  La26  1  0.36977800  0.12133800  0.24540600  1
  La  La27  1  0.63148300  0.25064800  0.88143800  1
  La  La28  1  0.75093600  0.61939000  0.86914100  1
  La  La29  1  0.86412100  0.75528600  0.61625400  1
  La  La30  1  0.75100600  0.12200700  0.37499700  1
  La  La31  1  0.88310900  0.62876700  0.25127900  1
  Nb  Nb32  1  0.99779400  0.50012300  0.49582800  1
  Nb  Nb33  1  0.99428000  0.00091100  0.49923700  1
  Nb  Nb34  1  0.99847800  0.50308800  0.00331500  1
  Nb  Nb35  1  0.49983100  0.49699800  0.50626100  1
  Nb  Nb36  1  0.50713100  0.00086700  0.50196800  1
  Nb  Nb37  1  0.00230400  0.99422200  0.00407100  1
  Nb  Nb38  1  0.49861300  0.50110800  0.99694300  1
  Nb  Nb39  1  0.50363200  0.00004700  0.00021900  1
  O  O40  1  0.08113600  0.97248900  0.67328600  1
  O  O41  1  0.11533700  0.58073700  0.90717900  1
  O  O42  1  0.02902700  0.32389200  0.91285400  1
  O  O43  1  0.07921100  0.69876900  0.68005200  1
  O  O44  1  0.08632400  0.88457000  0.41249600  1
  O  O45  1  0.09884700  0.62710800  0.42762300  1
  O  O46  1  0.17479100  0.48620200  0.59279000  1
  O  O47  1  0.41655200  0.82679500  0.79859800  1
  O  O48  1  0.30295300  0.32220400  0.91270700  1
  O  O49  1  0.38718000  0.59156900  0.91598700  1
  O  O50  1  0.01818300  0.19173200  0.11362800  1
  O  O51  1  0.32633800  0.92670100  0.31654900  1
  O  O52  1  0.17178300  0.19067500  0.57397100  1
  O  O53  1  0.20509600  0.59233200  0.17342500  1
  O  O54  1  0.40904900  0.82133300  0.52054200  1
  O  O55  1  0.32738700  0.90659500  0.01946800  1
  O  O56  1  0.30292600  0.47449500  0.38853400  1
  O  O57  1  0.11445700  0.02912100  0.20721000  1
  O  O58  1  0.53400500  0.62013400  0.70268600  1
  O  O59  1  0.41595000  0.08890500  0.88804400  1
  O  O60  1  0.52635200  0.40207500  0.82768600  1
  O  O61  1  0.38366900  0.29269900  0.46863300  1
  O  O62  1  0.19812500  0.10838300  0.02034500  1
  O  O63  1  0.57464900  0.90146600  0.37699000  1
  O  O64  1  0.41577700  0.09712100  0.61761800  1
  O  O65  1  0.80581300  0.88250800  0.98687000  1
  O  O66  1  0.61238300  0.69197400  0.51972500  1
  O  O67  1  0.48067400  0.59453100  0.18003400  1
  O  O68  1  0.47085300  0.37889300  0.29726200  1
  O  O69  1  0.59392800  0.91794900  0.11511700  1
  O  O70  1  0.88550400  0.98496200  0.81280700  1
  O  O71  1  0.67875500  0.08870200  0.97529400  1
  O  O72  1  0.69955600  0.52212800  0.61360100  1
  O  O73  1  0.60101200  0.18005100  0.48735800  1
  O  O74  1  0.80479100  0.41719100  0.82401000  1
  O  O75  1  0.67546800  0.09023800  0.70651000  1
  O  O76  1  0.97218300  0.79851700  0.87351600  1
  O  O77  1  0.82552600  0.79381300  0.40641700  1
  O  O78  1  0.61452300  0.42085900  0.09996600  1
  O  O79  1  0.69394200  0.67835200  0.07906100  1
  O  O80  1  0.58288200  0.17419100  0.19972800  1
  O  O81  1  0.81772200  0.51611200  0.39934000  1
  O  O82  1  0.90437400  0.38986100  0.58370400  1
  O  O83  1  0.92186400  0.12382800  0.59363600  1
  O  O84  1  0.90971800  0.29657100  0.32639400  1
  O  O85  1  0.88283000  0.40830600  0.08000000  1
  O  O86  1  0.97218600  0.67209300  0.08995900  1
  O  O87  1  0.90313100  0.02064000  0.32292500  1
