# generated using pymatgen
data_Sr24Fe16O53
_symmetry_space_group_name_H-M   'P 1'
_cell_length_a   11.96197042
_cell_length_b   11.96197042
_cell_length_c   11.11588301
_cell_angle_alpha   76.57790548
_cell_angle_beta   76.57790548
_cell_angle_gamma   117.45638758
_symmetry_Int_Tables_number   1
_chemical_formula_structural   Sr24Fe16O53
_chemical_formula_sum   'Sr24 Fe16 O53'
_cell_volume   1262.42888464
_cell_formula_units_Z   1
loop_
 _symmetry_equiv_pos_site_id
 _symmetry_equiv_pos_as_xyz
  1  'x, y, z'
loop_
 _atom_site_type_symbol
 _atom_site_label
 _atom_site_symmetry_multiplicity
 _atom_site_fract_x
 _atom_site_fract_y
 _atom_site_fract_z
 _atom_site_occupancy
  Sr  Sr0  1  0.00000000  0.00000000  0.50000000  1
  Sr  Sr1  1  0.43516400  0.06941200  0.62419700  1
  Sr  Sr2  1  0.06941200  0.43516400  0.62419700  1
  Sr  Sr3  1  0.25976500  0.25976500  0.62011300  1
  Sr  Sr4  1  0.18307700  0.81692300  0.50000000  1
  Sr  Sr5  1  0.81692300  0.18307700  0.50000000  1
  Sr  Sr6  1  0.68084500  0.31899300  0.25141000  1
  Sr  Sr7  1  0.25133000  0.25133000  0.12439800  1
  Sr  Sr8  1  0.49987700  0.49987700  0.26006700  1
  Sr  Sr9  1  0.31899300  0.68084500  0.25141000  1
  Sr  Sr10  1  0.93058800  0.56483600  0.37580300  1
  Sr  Sr11  1  0.06677500  0.43340400  0.12464500  1
  Sr  Sr12  1  0.43340400  0.06677500  0.12464500  1
  Sr  Sr13  1  0.00000000  0.00000000  0.00000000  1
  Sr  Sr14  1  0.74023500  0.74023500  0.37988700  1
  Sr  Sr15  1  0.56483600  0.93058800  0.37580300  1
  Sr  Sr16  1  0.18138900  0.81861100  0.00000000  1
  Sr  Sr17  1  0.81861100  0.18138900  0.00000000  1
  Sr  Sr18  1  0.74867000  0.74867000  0.87560200  1
  Sr  Sr19  1  0.93322500  0.56659600  0.87535500  1
  Sr  Sr20  1  0.68100700  0.31915500  0.74859000  1
  Sr  Sr21  1  0.50012300  0.50012300  0.73993300  1
  Sr  Sr22  1  0.31915500  0.68100700  0.74859000  1
  Sr  Sr23  1  0.56659600  0.93322500  0.87535500  1
  Fe  Fe24  1  0.40175400  0.59824600  0.50000000  1
  Fe  Fe25  1  0.59824600  0.40175400  0.50000000  1
  Fe  Fe26  1  0.15380300  0.34443100  0.37491600  1
  Fe  Fe27  1  0.84619700  0.65556900  0.62508400  1
  Fe  Fe28  1  0.34443100  0.15380300  0.37491600  1
  Fe  Fe29  1  0.65556900  0.84619700  0.62508400  1
  Fe  Fe30  1  0.89434200  0.10489600  0.25058700  1
  Fe  Fe31  1  0.10489600  0.89434200  0.25058700  1
  Fe  Fe32  1  0.65536500  0.84573600  0.12421800  1
  Fe  Fe33  1  0.60500300  0.39499700  0.00000000  1
  Fe  Fe34  1  0.34463500  0.15426400  0.87578200  1
  Fe  Fe35  1  0.15426400  0.34463500  0.87578200  1
  Fe  Fe36  1  0.39499700  0.60500300  0.00000000  1
  Fe  Fe37  1  0.84573600  0.65536500  0.12421800  1
  Fe  Fe38  1  0.10565800  0.89510400  0.74941300  1
  Fe  Fe39  1  0.89510400  0.10565800  0.74941300  1
  O  O40  1  0.27923900  0.47070000  0.68697800  1
  O  O41  1  0.03023800  0.21004800  0.56935200  1
  O  O42  1  0.47070000  0.27923900  0.68697800  1
  O  O43  1  0.21004800  0.03023800  0.56935200  1
  O  O44  1  0.50000000  0.50000000  0.50000000  1
  O  O45  1  0.30442700  0.69557300  0.50000000  1
  O  O46  1  0.27878100  0.47049500  0.43808400  1
  O  O47  1  0.72121900  0.52950500  0.56191600  1
  O  O48  1  0.96861200  0.79008500  0.68979200  1
  O  O49  1  0.69557300  0.30442700  0.50000000  1
  O  O50  1  0.74868400  0.74868400  0.62412000  1
  O  O51  1  0.05356700  0.43751000  0.37362200  1
  O  O52  1  0.47049500  0.27878100  0.43808400  1
  O  O53  1  0.20991500  0.03138800  0.31020800  1
  O  O54  1  0.03138800  0.20991500  0.31020800  1
  O  O55  1  0.25131600  0.25131600  0.37588000  1
  O  O56  1  0.94643300  0.56249000  0.62637800  1
  O  O57  1  0.52950500  0.72121900  0.56191600  1
  O  O58  1  0.43751000  0.05356700  0.37362200  1
  O  O59  1  0.56249000  0.94643300  0.62637800  1
  O  O60  1  0.79008500  0.96861200  0.68979200  1
  O  O61  1  0.19989100  0.80116100  0.25098600  1
  O  O62  1  0.80116100  0.19989100  0.25098600  1
  O  O63  1  0.46909200  0.28942300  0.18036200  1
  O  O64  1  0.28942300  0.46909200  0.18036200  1
  O  O65  1  0.03131000  0.20986500  0.06968000  1
  O  O66  1  0.96976200  0.78995200  0.43064800  1
  O  O67  1  0.20986500  0.03131000  0.06968000  1
  O  O68  1  0.78995200  0.96976200  0.43064800  1
  O  O69  1  0.52930000  0.72076100  0.31302200  1
  O  O70  1  0.72076100  0.52930000  0.31302200  1
  O  O71  1  0.46916300  0.28972800  0.94024000  1
  O  O72  1  0.94546200  0.56194000  0.11950000  1
  O  O73  1  0.30067900  0.69932100  0.00000000  1
  O  O74  1  0.05453800  0.43806000  0.88050000  1
  O  O75  1  0.21003400  0.03026700  0.81023500  1
  O  O76  1  0.78996600  0.96973300  0.18976500  1
  O  O77  1  0.25134500  0.25134500  0.87294300  1
  O  O78  1  0.53083700  0.71027200  0.05976000  1
  O  O79  1  0.03026700  0.21003400  0.81023500  1
  O  O80  1  0.43806000  0.05453800  0.88050000  1
  O  O81  1  0.28972800  0.46916300  0.94024000  1
  O  O82  1  0.71027200  0.53083700  0.05976000  1
  O  O83  1  0.74865500  0.74865500  0.12705700  1
  O  O84  1  0.96973300  0.78996600  0.18976500  1
  O  O85  1  0.56194000  0.94546200  0.11950000  1
  O  O86  1  0.69932100  0.30067900  0.00000000  1
  O  O87  1  0.96869000  0.79013500  0.93032000  1
  O  O88  1  0.79013500  0.96869000  0.93032000  1
  O  O89  1  0.53090800  0.71057700  0.81963800  1
  O  O90  1  0.80010900  0.19883900  0.74901400  1
  O  O91  1  0.71057700  0.53090800  0.81963800  1
  O  O92  1  0.19883900  0.80010900  0.74901400  1
