# generated using pymatgen
data_YbU3
_symmetry_space_group_name_H-M   'P 1'
_cell_length_a   6.33700900
_cell_length_b   6.33700994
_cell_length_c   5.30164900
_cell_angle_alpha   90.00000000
_cell_angle_beta   90.00000000
_cell_angle_gamma   120.00001074
_symmetry_Int_Tables_number   1
_chemical_formula_structural   YbU3
_chemical_formula_sum   'Yb2 U6'
_cell_volume   184.37849625
_cell_formula_units_Z   2
loop_
 _symmetry_equiv_pos_site_id
 _symmetry_equiv_pos_as_xyz
  1  'x, y, z'
loop_
 _atom_site_type_symbol
 _atom_site_label
 _atom_site_symmetry_multiplicity
 _atom_site_fract_x
 _atom_site_fract_y
 _atom_site_fract_z
 _atom_site_occupancy
  Yb  Yb0  1  0.33333400  0.66666800  0.75000000  1
  Yb  Yb1  1  0.66666700  0.33333300  0.24999900  1
  U  U2  1  0.14619700  0.29239500  0.24999900  1
  U  U3  1  0.70760700  0.85380300  0.24999900  1
  U  U4  1  0.14619600  0.85380300  0.24999900  1
  U  U5  1  0.85380400  0.70760500  0.75000000  1
  U  U6  1  0.29239400  0.14619700  0.75000000  1
  U  U7  1  0.85380300  0.14619700  0.75000000  1
