# generated using pymatgen
data_V4O7F5
_symmetry_space_group_name_H-M   'P 1'
_cell_length_a   5.21901638
_cell_length_b   5.34766975
_cell_length_c   8.94748712
_cell_angle_alpha   74.45233815
_cell_angle_beta   90.65624229
_cell_angle_gamma   60.59274106
_symmetry_Int_Tables_number   1
_chemical_formula_structural   V4O7F5
_chemical_formula_sum   'V4 O7 F5'
_cell_volume   206.51661664
_cell_formula_units_Z   1
loop_
 _symmetry_equiv_pos_site_id
 _symmetry_equiv_pos_as_xyz
  1  'x, y, z'
loop_
 _atom_site_type_symbol
 _atom_site_label
 _atom_site_symmetry_multiplicity
 _atom_site_fract_x
 _atom_site_fract_y
 _atom_site_fract_z
 _atom_site_occupancy
  V  V0  1  0.79068500  0.45657500  0.25550900  1
  V  V1  1  0.48727200  0.95685100  0.50602500  1
  V  V2  1  0.31109600  0.45582800  0.75233000  1
  V  V3  1  0.04186200  0.97672300  0.00517100  1
  O  O4  1  0.93885400  0.25930500  0.13044500  1
  O  O5  1  0.54151500  0.75911100  0.38107100  1
  O  O6  1  0.40234300  0.76199600  0.08787100  1
  O  O7  1  0.40165900  0.76441000  0.66422700  1
  O  O8  1  0.58533600  0.25827800  0.90925500  1
  O  O9  1  0.44228000  0.26590400  0.62328100  1
  O  O10  1  0.08057200  0.26436800  0.41150600  1
  F  F11  1  0.89720300  0.77713200  0.58067500  1
  F  F12  1  0.89559400  0.76049900  0.16540300  1
  F  F13  1  0.57320400  0.26932700  0.33122700  1
  F  F14  1  0.03507700  0.74864000  0.87083200  1
  F  F15  1  0.07544800  0.26505400  0.82517100  1
