# generated using pymatgen
data_Na5(NiO2)6
_symmetry_space_group_name_H-M   'P 1'
_cell_length_a   5.98443100
_cell_length_b   6.85380113
_cell_length_c   6.90597844
_cell_angle_alpha   66.80694730
_cell_angle_beta   76.84093641
_cell_angle_gamma   67.21001795
_symmetry_Int_Tables_number   1
_chemical_formula_structural   Na5(NiO2)6
_chemical_formula_sum   'Na5 Ni6 O12'
_cell_volume   239.09344551
_cell_formula_units_Z   1
loop_
 _symmetry_equiv_pos_site_id
 _symmetry_equiv_pos_as_xyz
  1  'x, y, z'
loop_
 _atom_site_type_symbol
 _atom_site_label
 _atom_site_symmetry_multiplicity
 _atom_site_fract_x
 _atom_site_fract_y
 _atom_site_fract_z
 _atom_site_occupancy
  Na  Na0  1  0.32025200  0.17669400  0.82705300  1
  Na  Na1  1  0.50000000  0.50000000  0.50000000  1
  Na  Na2  1  0.83831000  0.18557000  0.81723800  1
  Na  Na3  1  0.16169000  0.81443000  0.18276200  1
  Na  Na4  1  0.67974800  0.82330600  0.17294700  1
  Ni  Ni5  1  0.58056000  0.66862100  0.83377400  1
  Ni  Ni6  1  0.08014100  0.66815400  0.83301100  1
  Ni  Ni7  1  0.24833200  0.00287400  0.50145700  1
  Ni  Ni8  1  0.41944000  0.33137900  0.16622600  1
  Ni  Ni9  1  0.75166800  0.99712600  0.49854300  1
  Ni  Ni10  1  0.91985900  0.33184600  0.16698900  1
  O  O11  1  0.20992900  0.89566800  0.80421300  1
  O  O12  1  0.40440600  0.21547700  0.46852700  1
  O  O13  1  0.10459400  0.78396400  0.53178100  1
  O  O14  1  0.70954500  0.89678700  0.80107100  1
  O  O15  1  0.54979300  0.55688800  0.13861800  1
  O  O16  1  0.29045500  0.10321300  0.19892900  1
  O  O17  1  0.89540600  0.21603600  0.46821900  1
  O  O18  1  0.59559400  0.78452300  0.53147300  1
  O  O19  1  0.45020700  0.44311200  0.86138200  1
  O  O20  1  0.05430200  0.55412100  0.13327400  1
  O  O21  1  0.79007100  0.10433200  0.19578700  1
  O  O22  1  0.94569800  0.44587900  0.86672600  1
