# generated using pymatgen
data_Mn12O5F19
_symmetry_space_group_name_H-M   'P 1'
_cell_length_a   5.32476500
_cell_length_b   5.37737209
_cell_length_c   15.38662711
_cell_angle_alpha   94.04919896
_cell_angle_beta   90.63547649
_cell_angle_gamma   91.31029288
_symmetry_Int_Tables_number   1
_chemical_formula_structural   Mn12O5F19
_chemical_formula_sum   'Mn12 O5 F19'
_cell_volume   439.31869827
_cell_formula_units_Z   1
loop_
 _symmetry_equiv_pos_site_id
 _symmetry_equiv_pos_as_xyz
  1  'x, y, z'
loop_
 _atom_site_type_symbol
 _atom_site_label
 _atom_site_symmetry_multiplicity
 _atom_site_fract_x
 _atom_site_fract_y
 _atom_site_fract_z
 _atom_site_occupancy
  Mn  Mn0  1  0.00520800  0.06097700  0.00901300  1
  Mn  Mn1  1  0.98151100  0.54650800  0.82613500  1
  Mn  Mn2  1  0.99528500  0.05848500  0.66664800  1
  Mn  Mn3  1  0.01964900  0.52813700  0.50553600  1
  Mn  Mn4  1  0.94016700  0.96060000  0.32750300  1
  Mn  Mn5  1  0.06606300  0.50325400  0.16335000  1
  Mn  Mn6  1  0.50123700  0.88986100  0.83295500  1
  Mn  Mn7  1  0.49897100  0.46946100  0.01025200  1
  Mn  Mn8  1  0.43777500  0.50857600  0.32747000  1
  Mn  Mn9  1  0.52916100  0.98966900  0.48104100  1
  Mn  Mn10  1  0.46811900  0.41869800  0.67749200  1
  Mn  Mn11  1  0.46219400  0.98886300  0.16393100  1
  O  O12  1  0.15855300  0.34528100  0.73780800  1
  O  O13  1  0.27292600  0.27544300  0.09868800  1
  O  O14  1  0.30477300  0.70379800  0.23840900  1
  O  O15  1  0.66177100  0.74322300  0.38199900  1
  O  O16  1  0.65398100  0.62468200  0.76299200  1
  F  F17  1  0.17044200  0.85131300  0.76089600  1
  F  F18  1  0.34845200  0.12293200  0.92170100  1
  F  F19  1  0.17667900  0.79522200  0.42261500  1
  F  F20  1  0.30673100  0.15486200  0.58794700  1
  F  F21  1  0.17062700  0.76142900  0.06998400  1
  F  F22  1  0.16752400  0.25088400  0.27720400  1
  F  F23  1  0.30635500  0.61787200  0.90036900  1
  F  F24  1  0.37853400  0.33188400  0.43516600  1
  F  F25  1  0.30191700  0.66156500  0.59340100  1
  F  F26  1  0.65896000  0.82967200  0.05475600  1
  F  F27  1  0.83065100  0.35504100  0.93180400  1
  F  F28  1  0.78144500  0.35807700  0.60371100  1
  F  F29  1  0.65677200  0.20607700  0.26777600  1
  F  F30  1  0.81385300  0.84847800  0.56667000  1
  F  F31  1  0.83608500  0.85128600  0.89947700  1
  F  F32  1  0.82039900  0.73678700  0.21396400  1
  F  F33  1  0.86395400  0.21450100  0.43667400  1
  F  F34  1  0.78615200  0.31895800  0.10074000  1
  F  F35  1  0.66712200  0.11764500  0.74392500  1
