# generated using pymatgen
data_Al15Fe9O32
_symmetry_space_group_name_H-M   'P 1'
_cell_length_a   5.85238555
_cell_length_b   5.85238555
_cell_length_c   19.30884358
_cell_angle_alpha   81.63536319
_cell_angle_beta   81.63536319
_cell_angle_gamma   59.55940626
_symmetry_Int_Tables_number   1
_chemical_formula_structural   Al15Fe9O32
_chemical_formula_sum   'Al15 Fe9 O32'
_cell_volume   562.10836581
_cell_formula_units_Z   1
loop_
 _symmetry_equiv_pos_site_id
 _symmetry_equiv_pos_as_xyz
  1  'x, y, z'
loop_
 _atom_site_type_symbol
 _atom_site_label
 _atom_site_symmetry_multiplicity
 _atom_site_fract_x
 _atom_site_fract_y
 _atom_site_fract_z
 _atom_site_occupancy
  Al  Al0  1  0.00000000  0.50000000  0.50000000  1
  Al  Al1  1  0.24980100  0.24980100  0.24920500  1
  Al  Al2  1  0.62722100  0.62722100  0.62569800  1
  Al  Al3  1  0.37277900  0.37277900  0.37430200  1
  Al  Al4  1  0.50000000  0.00000000  0.50000000  1
  Al  Al5  1  0.25064000  0.74943900  0.24955200  1
  Al  Al6  1  0.74943900  0.25064000  0.24955200  1
  Al  Al7  1  0.12525700  0.12525700  0.12472700  1
  Al  Al8  1  0.74936000  0.25056100  0.75044800  1
  Al  Al9  1  0.50000000  0.00000000  0.00000000  1
  Al  Al10  1  0.00000000  0.50000000  0.00000000  1
  Al  Al11  1  0.75019900  0.75019900  0.75079500  1
  Al  Al12  1  0.00000000  0.00000000  0.00000000  1
  Al  Al13  1  0.87474300  0.87474300  0.87527300  1
  Al  Al14  1  0.25056100  0.74936000  0.75044800  1
  Fe  Fe15  1  0.96954800  0.96954800  0.59330100  1
  Fe  Fe16  1  0.50000000  0.50000000  0.50000000  1
  Fe  Fe17  1  0.03045200  0.03045200  0.40669900  1
  Fe  Fe18  1  0.46851400  0.46851400  0.09304600  1
  Fe  Fe19  1  0.71816700  0.71816700  0.34292600  1
  Fe  Fe20  1  0.53148600  0.53148600  0.90695400  1
  Fe  Fe21  1  0.78232500  0.78232500  0.15664700  1
  Fe  Fe22  1  0.21767500  0.21767500  0.84335300  1
  Fe  Fe23  1  0.28183300  0.28183300  0.65707400  1
  O  O24  1  0.80079900  0.35724600  0.55995100  1
  O  O25  1  0.79494000  0.79494000  0.55939900  1
  O  O26  1  0.31421300  0.31421300  0.55081800  1
  O  O27  1  0.20506000  0.20506000  0.44060100  1
  O  O28  1  0.19920100  0.64275400  0.44004900  1
  O  O29  1  0.64275400  0.19920100  0.44004900  1
  O  O30  1  0.35724600  0.80079900  0.55995100  1
  O  O31  1  0.10472500  0.54249500  0.30747800  1
  O  O32  1  0.29229200  0.29229200  0.05904300  1
  O  O33  1  0.54217500  0.54217500  0.30818600  1
  O  O34  1  0.68578700  0.68578700  0.44918200  1
  O  O35  1  0.43250000  0.43250000  0.19859700  1
  O  O36  1  0.06719100  0.06719100  0.30049900  1
  O  O37  1  0.39558100  0.95453900  0.19110000  1
  O  O38  1  0.95453900  0.39558100  0.19110000  1
  O  O39  1  0.70569100  0.14501900  0.94184000  1
  O  O40  1  0.29430900  0.85498100  0.05816000  1
  O  O41  1  0.54249500  0.10472500  0.30747800  1
  O  O42  1  0.85498100  0.29430900  0.05816000  1
  O  O43  1  0.18293800  0.18293800  0.94901200  1
  O  O44  1  0.81706200  0.81706200  0.05098800  1
  O  O45  1  0.95825700  0.95825700  0.19058500  1
  O  O46  1  0.56750000  0.56750000  0.80140300  1
  O  O47  1  0.70770800  0.70770800  0.94095700  1
  O  O48  1  0.14501900  0.70569100  0.94184000  1
  O  O49  1  0.89527500  0.45750500  0.69252200  1
  O  O50  1  0.04546100  0.60441900  0.80890000  1
  O  O51  1  0.60441900  0.04546100  0.80890000  1
  O  O52  1  0.04174300  0.04174300  0.80941500  1
  O  O53  1  0.93280900  0.93280900  0.69950100  1
  O  O54  1  0.45782500  0.45782500  0.69181400  1
  O  O55  1  0.45750500  0.89527500  0.69252200  1
