# generated using pymatgen
data_BaMn4O8
_symmetry_space_group_name_H-M   'P 1'
_cell_length_a   5.95276200
_cell_length_b   12.96342489
_cell_length_c   12.97337575
_cell_angle_alpha   89.20245356
_cell_angle_beta   83.17151684
_cell_angle_gamma   83.50132277
_symmetry_Int_Tables_number   1
_chemical_formula_structural   BaMn4O8
_chemical_formula_sum   'Ba6 Mn24 O48'
_cell_volume   987.64304860
_cell_formula_units_Z   6
loop_
 _symmetry_equiv_pos_site_id
 _symmetry_equiv_pos_as_xyz
  1  'x, y, z'
loop_
 _atom_site_type_symbol
 _atom_site_label
 _atom_site_symmetry_multiplicity
 _atom_site_fract_x
 _atom_site_fract_y
 _atom_site_fract_z
 _atom_site_occupancy
  Ba  Ba0  1  0.17031200  0.85522000  0.51628100  1
  Ba  Ba1  1  0.40378800  0.48373600  0.85491400  1
  Ba  Ba2  1  0.50000000  0.00000000  0.00000000  1
  Ba  Ba3  1  0.00000000  0.00000000  0.00000000  1
  Ba  Ba4  1  0.59621200  0.51626400  0.14508600  1
  Ba  Ba5  1  0.82968800  0.14478000  0.48371900  1
  Mn  Mn6  1  0.57506700  0.71927400  0.97750200  1
  Mn  Mn7  1  0.07532300  0.71615300  0.98092000  1
  Mn  Mn8  1  0.85824500  0.78148600  0.78772600  1
  Mn  Mn9  1  0.35663500  0.78440500  0.78837300  1
  Mn  Mn10  1  0.18395700  0.62237500  0.63534300  1
  Mn  Mn11  1  0.68698900  0.62708900  0.63053800  1
  Mn  Mn12  1  0.43565400  0.98094200  0.28368200  1
  Mn  Mn13  1  0.93349100  0.97747800  0.28083000  1
  Mn  Mn14  1  0.99933800  0.63031100  0.37323000  1
  Mn  Mn15  1  0.49821900  0.63510100  0.37758100  1
  Mn  Mn16  1  0.24966000  0.78803800  0.21496000  1
  Mn  Mn17  1  0.74795600  0.78807100  0.21924800  1
  Mn  Mn18  1  0.25204400  0.21192900  0.78075200  1
  Mn  Mn19  1  0.75034000  0.21196200  0.78504000  1
  Mn  Mn20  1  0.50178100  0.36489900  0.62241900  1
  Mn  Mn21  1  0.00066200  0.36968900  0.62677000  1
  Mn  Mn22  1  0.06650900  0.02252200  0.71917000  1
  Mn  Mn23  1  0.56434600  0.01905800  0.71631800  1
  Mn  Mn24  1  0.81604300  0.37762500  0.36465700  1
  Mn  Mn25  1  0.31301100  0.37291100  0.36946200  1
  Mn  Mn26  1  0.14175500  0.21851400  0.21227400  1
  Mn  Mn27  1  0.64336500  0.21559500  0.21162700  1
  Mn  Mn28  1  0.42493300  0.28072600  0.02249800  1
  Mn  Mn29  1  0.92467700  0.28384700  0.01908000  1
  O  O30  1  0.30815700  0.81897100  0.94137900  1
  O  O31  1  0.81130400  0.81846100  0.94029300  1
  O  O32  1  0.09617500  0.87978500  0.76287600  1
  O  O33  1  0.58243400  0.87993400  0.76718300  1
  O  O34  1  0.85040700  0.99480500  0.62774900  1
  O  O35  1  0.33998500  0.00096400  0.62707600  1
  O  O36  1  0.60799200  0.68764200  0.82529400  1
  O  O37  1  0.13463700  0.68669400  0.82600800  1
  O  O38  1  0.40290900  0.72797800  0.64946200  1
  O  O39  1  0.91058800  0.72803900  0.64912600  1
  O  O40  1  0.65334100  0.37313100  0.99519500  1
  O  O41  1  0.16198900  0.37203800  0.99973100  1
  O  O42  1  0.45762200  0.52786600  0.64839200  1
  O  O43  1  0.95293300  0.52950900  0.64420000  1
  O  O44  1  0.71818400  0.94027800  0.18247300  1
  O  O45  1  0.22118100  0.94156800  0.18014800  1
  O  O46  1  0.72402000  0.64334700  0.47039100  1
  O  O47  1  0.21817400  0.64903600  0.47237700  1
  O  O48  1  0.47314000  0.23686400  0.87971100  1
  O  O49  1  0.96913300  0.23272600  0.87965000  1
  O  O50  1  0.45159400  0.82619500  0.31287500  1
  O  O51  1  0.97875800  0.82565500  0.31221600  1
  O  O52  1  0.23273100  0.35063300  0.72746200  1
  O  O53  1  0.72546700  0.35071600  0.72828200  1
  O  O54  1  0.27453300  0.64928400  0.27171800  1
  O  O55  1  0.76726900  0.64936700  0.27253800  1
  O  O56  1  0.54840600  0.17380500  0.68712500  1
  O  O57  1  0.02124200  0.17434500  0.68778400  1
  O  O58  1  0.52686000  0.76313600  0.12028900  1
  O  O59  1  0.03086700  0.76727400  0.12035000  1
  O  O60  1  0.27598000  0.35665300  0.52960900  1
  O  O61  1  0.78182600  0.35096400  0.52762300  1
  O  O62  1  0.28181600  0.05972200  0.81752700  1
  O  O63  1  0.77881900  0.05843200  0.81985200  1
  O  O64  1  0.54237800  0.47213400  0.35160800  1
  O  O65  1  0.04706700  0.47049100  0.35580000  1
  O  O66  1  0.34665900  0.62686900  0.00480500  1
  O  O67  1  0.83801100  0.62796200  0.00026900  1
  O  O68  1  0.59709100  0.27202200  0.35053800  1
  O  O69  1  0.08941200  0.27196100  0.35087400  1
  O  O70  1  0.39200800  0.31235800  0.17470600  1
  O  O71  1  0.86536300  0.31330600  0.17399200  1
  O  O72  1  0.14959300  0.00519500  0.37225100  1
  O  O73  1  0.66001500  0.99903600  0.37292400  1
  O  O74  1  0.41756600  0.12006600  0.23281700  1
  O  O75  1  0.90382500  0.12021500  0.23712400  1
  O  O76  1  0.69184300  0.18102900  0.05862100  1
  O  O77  1  0.18869600  0.18153900  0.05970700  1
