# generated using pymatgen
data_NaSnPCO7
_symmetry_space_group_name_H-M   'P 1'
_cell_length_a   6.58776900
_cell_length_b   5.33194000
_cell_length_c   8.79252741
_cell_angle_alpha   88.25952304
_cell_angle_beta   90.00000000
_cell_angle_gamma   90.00000000
_symmetry_Int_Tables_number   1
_chemical_formula_structural   NaSnPCO7
_chemical_formula_sum   'Na2 Sn2 P2 C2 O14'
_cell_volume   308.70022065
_cell_formula_units_Z   2
loop_
 _symmetry_equiv_pos_site_id
 _symmetry_equiv_pos_as_xyz
  1  'x, y, z'
loop_
 _atom_site_type_symbol
 _atom_site_label
 _atom_site_symmetry_multiplicity
 _atom_site_fract_x
 _atom_site_fract_y
 _atom_site_fract_z
 _atom_site_occupancy
  Na  Na0  1  0.25000000  0.77068100  0.08547300  1
  Na  Na1  1  0.75000000  0.22931900  0.91452700  1
  Sn  Sn2  1  0.75000000  0.78038300  0.33220900  1
  Sn  Sn3  1  0.25000000  0.21961700  0.66779100  1
  P  P4  1  0.25000000  0.72456300  0.43054100  1
  P  P5  1  0.75000000  0.27543700  0.56945900  1
  C  C6  1  0.75000000  0.70282200  0.04629000  1
  C  C7  1  0.25000000  0.29717800  0.95371000  1
  O  O8  1  0.25000000  0.33275800  0.09235700  1
  O  O9  1  0.75000000  0.93233900  0.10612100  1
  O  O10  1  0.75000000  0.52039300  0.15392800  1
  O  O11  1  0.06618600  0.78822100  0.32592600  1
  O  O12  1  0.43381400  0.78822100  0.32592600  1
  O  O13  1  0.75000000  0.12761600  0.42179600  1
  O  O14  1  0.25000000  0.44059700  0.47494000  1
  O  O15  1  0.75000000  0.55940300  0.52506000  1
  O  O16  1  0.25000000  0.87238400  0.57820400  1
  O  O17  1  0.56618600  0.21177900  0.67407400  1
  O  O18  1  0.93381400  0.21177900  0.67407400  1
  O  O19  1  0.25000000  0.47960700  0.84607200  1
  O  O20  1  0.25000000  0.06766100  0.89387900  1
  O  O21  1  0.75000000  0.66724200  0.90764300  1
