# generated using pymatgen
data_Rb5FeO4
_symmetry_space_group_name_H-M   'P 1'
_cell_length_a   12.20572600
_cell_length_b   7.12521400
_cell_length_c   11.06198381
_cell_angle_alpha   82.10910041
_cell_angle_beta   90.00000000
_cell_angle_gamma   90.00000000
_symmetry_Int_Tables_number   1
_chemical_formula_structural   Rb5FeO4
_chemical_formula_sum   'Rb20 Fe4 O16'
_cell_volume   952.93382530
_cell_formula_units_Z   4
loop_
 _symmetry_equiv_pos_site_id
 _symmetry_equiv_pos_as_xyz
  1  'x, y, z'
loop_
 _atom_site_type_symbol
 _atom_site_label
 _atom_site_symmetry_multiplicity
 _atom_site_fract_x
 _atom_site_fract_y
 _atom_site_fract_z
 _atom_site_occupancy
  Rb  Rb0  1  0.92184400  0.22889900  0.01070300  1
  Rb  Rb1  1  0.57815600  0.72889900  0.01070300  1
  Rb  Rb2  1  0.17625200  0.16710600  0.14905100  1
  Rb  Rb3  1  0.32374800  0.66710600  0.14905100  1
  Rb  Rb4  1  0.70395200  0.00472800  0.23597600  1
  Rb  Rb5  1  0.79604800  0.50472800  0.23597600  1
  Rb  Rb6  1  0.06863100  0.45041800  0.36814900  1
  Rb  Rb7  1  0.43136900  0.95041800  0.36814900  1
  Rb  Rb8  1  0.86525600  0.07606800  0.50544800  1
  Rb  Rb9  1  0.36525600  0.42393200  0.49455200  1
  Rb  Rb10  1  0.63474400  0.57606800  0.50544800  1
  Rb  Rb11  1  0.13474400  0.92393200  0.49455200  1
  Rb  Rb12  1  0.56863100  0.04958200  0.63185100  1
  Rb  Rb13  1  0.93136900  0.54958200  0.63185100  1
  Rb  Rb14  1  0.20395200  0.49527200  0.76402400  1
  Rb  Rb15  1  0.29604800  0.99527200  0.76402400  1
  Rb  Rb16  1  0.67625200  0.33289400  0.85094900  1
  Rb  Rb17  1  0.82374800  0.83289400  0.85094900  1
  Rb  Rb18  1  0.42184400  0.27110100  0.98929700  1
  Rb  Rb19  1  0.07815600  0.77110100  0.98929700  1
  Fe  Fe20  1  0.53280000  0.38409800  0.25321200  1
  Fe  Fe21  1  0.96720000  0.88409800  0.25321200  1
  Fe  Fe22  1  0.03280000  0.11590200  0.74678800  1
  Fe  Fe23  1  0.46720000  0.61590200  0.74678800  1
  O  O24  1  0.61424400  0.34557800  0.10668200  1
  O  O25  1  0.88575600  0.84557800  0.10668200  1
  O  O26  1  0.38004700  0.30660300  0.23985800  1
  O  O27  1  0.96511200  0.15197400  0.26970300  1
  O  O28  1  0.11995300  0.80660300  0.23985800  1
  O  O29  1  0.53488800  0.65197400  0.26970300  1
  O  O30  1  0.60001200  0.24088800  0.39481300  1
  O  O31  1  0.89998800  0.74088800  0.39481300  1
  O  O32  1  0.10001200  0.25911200  0.60518700  1
  O  O33  1  0.39998800  0.75911200  0.60518700  1
  O  O34  1  0.46511200  0.34802600  0.73029700  1
  O  O35  1  0.88004700  0.19339700  0.76014200  1
  O  O36  1  0.03488800  0.84802600  0.73029700  1
  O  O37  1  0.61995300  0.69339700  0.76014200  1
  O  O38  1  0.11424400  0.15442200  0.89331800  1
  O  O39  1  0.38575600  0.65442200  0.89331800  1
