# generated using pymatgen
data_Li3MnV(PO4)3
_symmetry_space_group_name_H-M   'P 1'
_cell_length_a   9.23194434
_cell_length_b   8.41751747
_cell_length_c   8.44307926
_cell_angle_alpha   60.06107272
_cell_angle_beta   63.05114553
_cell_angle_gamma   90.14924214
_symmetry_Int_Tables_number   1
_chemical_formula_structural   Li3MnV(PO4)3
_chemical_formula_sum   'Li6 Mn2 V2 P6 O24'
_cell_volume   484.08085215
_cell_formula_units_Z   2
loop_
 _symmetry_equiv_pos_site_id
 _symmetry_equiv_pos_as_xyz
  1  'x, y, z'
loop_
 _atom_site_type_symbol
 _atom_site_label
 _atom_site_symmetry_multiplicity
 _atom_site_fract_x
 _atom_site_fract_y
 _atom_site_fract_z
 _atom_site_occupancy
  Li  Li0  1  0.13519200  0.74017900  0.19438000  1
  Li  Li1  1  0.14803400  0.33758100  0.92620400  1
  Li  Li2  1  0.38393100  0.18604100  0.36180700  1
  Li  Li3  1  0.85668600  0.66870400  0.07232500  1
  Li  Li4  1  0.87642900  0.93456000  0.38785700  1
  Li  Li5  1  0.87317200  0.25374600  0.80304000  1
  Mn  Mn6  1  0.56303100  0.85209900  0.29549400  1
  Mn  Mn7  1  0.43982000  0.14470200  0.70908400  1
  V  V8  1  0.03442900  0.34269700  0.31701200  1
  V  V9  1  0.96709400  0.65271900  0.69170000  1
  P  P10  1  0.24669000  0.05458100  0.21151700  1
  P  P11  1  0.24895600  0.45596800  0.49201800  1
  P  P12  1  0.24177200  0.73901400  0.80837900  1
  P  P13  1  0.76072100  0.25697300  0.19104300  1
  P  P14  1  0.75711700  0.54502200  0.50489800  1
  P  P15  1  0.75245600  0.94938800  0.78274400  1
  O  O16  1  0.10714600  0.85042200  0.36581100  1
  O  O17  1  0.25644400  0.14239100  0.99747100  1
  O  O18  1  0.18224600  0.18135100  0.30300200  1
  O  O19  1  0.17032400  0.49003300  0.34916600  1
  O  O20  1  0.10133100  0.45390500  0.69215300  1
  O  O21  1  0.09991900  0.76596000  0.74260900  1
  O  O22  1  0.41117200  0.04030200  0.20969600  1
  O  O23  1  0.27249800  0.25604500  0.57993200  1
  O  O24  1  0.40757200  0.61761500  0.36599800  1
  O  O25  1  0.17223100  0.51983800  0.00120400  1
  O  O26  1  0.23636200  0.86298500  0.89309900  1
  O  O27  1  0.40769200  0.78221900  0.61814100  1
  O  O28  1  0.58840900  0.21391900  0.37806900  1
  O  O29  1  0.75781900  0.13654100  0.10356200  1
  O  O30  1  0.82417100  0.47709600  0.00953500  1
  O  O31  1  0.59408700  0.38907700  0.63424900  1
  O  O32  1  0.74840400  0.75112000  0.39468100  1
  O  O33  1  0.58383300  0.96415700  0.80205800  1
  O  O34  1  0.89985700  0.21208100  0.25735100  1
  O  O35  1  0.90145300  0.53642200  0.31354800  1
  O  O36  1  0.83256600  0.51749400  0.65128000  1
  O  O37  1  0.83176900  0.83668200  0.67790700  1
  O  O38  1  0.75482500  0.86858400  0.98828700  1
  O  O39  1  0.88441500  0.16573400  0.61738200  1
