# generated using pymatgen
data_BaSrI4
_symmetry_space_group_name_H-M   'P 1'
_cell_length_a   14.43269120
_cell_length_b   14.43269120
_cell_length_c   14.43269201
_cell_angle_alpha   114.46724342
_cell_angle_beta   114.46724342
_cell_angle_gamma   114.46724355
_symmetry_Int_Tables_number   1
_chemical_formula_structural   BaSrI4
_chemical_formula_sum   'Ba6 Sr6 I24'
_cell_volume   1761.45526704
_cell_formula_units_Z   6
loop_
 _symmetry_equiv_pos_site_id
 _symmetry_equiv_pos_as_xyz
  1  'x, y, z'
loop_
 _atom_site_type_symbol
 _atom_site_label
 _atom_site_symmetry_multiplicity
 _atom_site_fract_x
 _atom_site_fract_y
 _atom_site_fract_z
 _atom_site_occupancy
  Ba  Ba0  1  0.85716200  0.28416100  0.10812600  1
  Ba  Ba1  1  0.78416100  0.35716200  0.60812600  1
  Ba  Ba2  1  0.28416100  0.10812600  0.85716200  1
  Ba  Ba3  1  0.60812600  0.78416100  0.35716200  1
  Ba  Ba4  1  0.35716200  0.60812600  0.78416100  1
  Ba  Ba5  1  0.10812600  0.85716200  0.28416100  1
  Sr  Sr6  1  0.91646500  0.09450200  0.32986700  1
  Sr  Sr7  1  0.59450200  0.41646500  0.82986700  1
  Sr  Sr8  1  0.82986700  0.59450200  0.41646500  1
  Sr  Sr9  1  0.09450200  0.32986700  0.91646500  1
  Sr  Sr10  1  0.41646500  0.82986700  0.59450200  1
  Sr  Sr11  1  0.32986700  0.91646500  0.09450200  1
  I  I12  1  0.90882500  0.07842200  0.10170300  1
  I  I13  1  0.88454400  0.15430400  0.57325900  1
  I  I14  1  0.75166400  0.09149900  0.77334500  1
  I  I15  1  0.99534100  0.39295100  0.46378700  1
  I  I16  1  0.89295100  0.49534100  0.96378700  1
  I  I17  1  0.59149900  0.25166400  0.27334500  1
  I  I18  1  0.65430400  0.38454400  0.07325900  1
  I  I19  1  0.38454400  0.07325900  0.65430400  1
  I  I20  1  0.57842200  0.40882500  0.60170300  1
  I  I21  1  0.96378700  0.89295100  0.49534100  1
  I  I22  1  0.60170300  0.57842200  0.40882500  1
  I  I23  1  0.77334500  0.75166400  0.09149900  1
  I  I24  1  0.25166400  0.27334500  0.59149900  1
  I  I25  1  0.07842200  0.10170300  0.90882500  1
  I  I26  1  0.39295100  0.46378700  0.99534100  1
  I  I27  1  0.40882500  0.60170300  0.57842200  1
  I  I28  1  0.57325900  0.88454400  0.15430400  1
  I  I29  1  0.27334500  0.59149900  0.25166400  1
  I  I30  1  0.15430400  0.57325900  0.88454400  1
  I  I31  1  0.49534100  0.96378700  0.89295100  1
  I  I32  1  0.46378700  0.99534100  0.39295100  1
  I  I33  1  0.07325900  0.65430400  0.38454400  1
  I  I34  1  0.09149900  0.77334500  0.75166400  1
  I  I35  1  0.10170300  0.90882500  0.07842200  1
