# generated using pymatgen
data_Li2MnV(PO4)3
_symmetry_space_group_name_H-M   'P 1'
_cell_length_a   9.00182312
_cell_length_b   8.55351938
_cell_length_c   8.33140198
_cell_angle_alpha   59.40956072
_cell_angle_beta   63.77084683
_cell_angle_gamma   92.56038503
_symmetry_Int_Tables_number   1
_chemical_formula_structural   Li2MnV(PO4)3
_chemical_formula_sum   'Li4 Mn2 V2 P6 O24'
_cell_volume   464.18812155
_cell_formula_units_Z   2
loop_
 _symmetry_equiv_pos_site_id
 _symmetry_equiv_pos_as_xyz
  1  'x, y, z'
loop_
 _atom_site_type_symbol
 _atom_site_label
 _atom_site_symmetry_multiplicity
 _atom_site_fract_x
 _atom_site_fract_y
 _atom_site_fract_z
 _atom_site_occupancy
  Li  Li0  1  0.37063900  0.20975600  0.37005800  1
  Li  Li1  1  0.86967900  0.69153100  0.04004400  1
  Li  Li2  1  0.86886200  0.92641900  0.40046300  1
  Li  Li3  1  0.86568900  0.25925300  0.81402600  1
  Mn  Mn4  1  0.05201300  0.35692700  0.29857000  1
  Mn  Mn5  1  0.95830300  0.64444800  0.69557100  1
  V  V6  1  0.55940200  0.84731200  0.29583200  1
  V  V7  1  0.43393200  0.14047800  0.71845500  1
  P  P8  1  0.25525300  0.03398500  0.21191300  1
  P  P9  1  0.24564000  0.45210700  0.50563200  1
  P  P10  1  0.25107300  0.74923900  0.78642800  1
  P  P11  1  0.75431700  0.24721300  0.21468500  1
  P  P12  1  0.75375600  0.54165200  0.49168000  1
  P  P13  1  0.74851000  0.96878700  0.78206400  1
  O  O14  1  0.08915400  0.84278400  0.38009400  1
  O  O15  1  0.27453700  0.11013300  0.98863800  1
  O  O16  1  0.22398700  0.17645600  0.27142200  1
  O  O17  1  0.21413300  0.48736100  0.32500500  1
  O  O18  1  0.09202800  0.44033800  0.69578100  1
  O  O19  1  0.09627300  0.77715500  0.74776100  1
  O  O20  1  0.42652500  0.99936600  0.19842800  1
  O  O21  1  0.29449300  0.26766600  0.58874900  1
  O  O22  1  0.41651300  0.62490300  0.38518700  1
  O  O23  1  0.20427900  0.54317900  0.97828700  1
  O  O24  1  0.28393500  0.90235800  0.82621700  1
  O  O25  1  0.42179400  0.80201000  0.57716000  1
  O  O26  1  0.57388800  0.19602700  0.41165100  1
  O  O27  1  0.73372700  0.11129800  0.14725700  1
  O  O28  1  0.80623300  0.46060700  0.02326500  1
  O  O29  1  0.57865300  0.37519600  0.61550900  1
  O  O30  1  0.72103500  0.73782900  0.40186300  1
  O  O31  1  0.57525700  0.00013500  0.80925800  1
  O  O32  1  0.89499600  0.20859100  0.27529000  1
  O  O33  1  0.89358400  0.54841800  0.29508100  1
  O  O34  1  0.80188900  0.49982400  0.66350300  1
  O  O35  1  0.79534000  0.83933900  0.70666200  1
  O  O36  1  0.73013800  0.87706200  0.01201700  1
  O  O37  1  0.89946200  0.17196200  0.62509700  1
