# generated using pymatgen
data_Mn3V2Co3O16
_symmetry_space_group_name_H-M   'P 1'
_cell_length_a   5.69504995
_cell_length_b   5.69504995
_cell_length_c   8.83426058
_cell_angle_alpha   89.25168586
_cell_angle_beta   89.25168586
_cell_angle_gamma   60.19340197
_symmetry_Int_Tables_number   1
_chemical_formula_structural   Mn3V2Co3O16
_chemical_formula_sum   'Mn3 V2 Co3 O16'
_cell_volume   248.59334861
_cell_formula_units_Z   1
loop_
 _symmetry_equiv_pos_site_id
 _symmetry_equiv_pos_as_xyz
  1  'x, y, z'
loop_
 _atom_site_type_symbol
 _atom_site_label
 _atom_site_symmetry_multiplicity
 _atom_site_fract_x
 _atom_site_fract_y
 _atom_site_fract_z
 _atom_site_occupancy
  Mn  Mn0  1  0.82885500  0.82885500  0.78693900  1
  Mn  Mn1  1  0.16847800  0.65720700  0.28561100  1
  Mn  Mn2  1  0.65720700  0.16847800  0.28561100  1
  V  V3  1  0.65905700  0.65905700  0.50143100  1
  V  V4  1  0.32563100  0.32563100  0.99914700  1
  Co  Co5  1  0.34044200  0.82528300  0.78816200  1
  Co  Co6  1  0.82528300  0.34044200  0.78816200  1
  Co  Co7  1  0.16747200  0.16747200  0.28832400  1
  O  O8  1  0.34300400  0.82452700  0.40507300  1
  O  O9  1  0.52071100  0.52071100  0.66421300  1
  O  O10  1  0.65960200  0.65960200  0.89447300  1
  O  O11  1  0.00346200  0.00346200  0.68891400  1
  O  O12  1  0.99935200  0.99935200  0.18349700  1
  O  O13  1  0.82452700  0.34300400  0.40507300  1
  O  O14  1  0.52158100  0.95384200  0.66188400  1
  O  O15  1  0.95384200  0.52158100  0.66188400  1
  O  O16  1  0.16863800  0.16863800  0.90250400  1
  O  O17  1  0.82622800  0.82622800  0.40640500  1
  O  O18  1  0.04334700  0.47166700  0.16173900  1
  O  O19  1  0.47166700  0.04334700  0.16173900  1
  O  O20  1  0.33072000  0.33072000  0.39797800  1
  O  O21  1  0.17228500  0.64993000  0.90407900  1
  O  O22  1  0.47977200  0.47977200  0.16059400  1
  O  O23  1  0.64993000  0.17228500  0.90407900  1
