# generated using pymatgen
data_HoGaO3
_symmetry_space_group_name_H-M   'P 1'
_cell_length_a   6.09370360
_cell_length_b   6.09370360
_cell_length_c   11.71424600
_cell_angle_alpha   90.00000000
_cell_angle_beta   90.00000000
_cell_angle_gamma   119.99999561
_symmetry_Int_Tables_number   1
_chemical_formula_structural   HoGaO3
_chemical_formula_sum   'Ho6 Ga6 O18'
_cell_volume   376.71042816
_cell_formula_units_Z   6
loop_
 _symmetry_equiv_pos_site_id
 _symmetry_equiv_pos_as_xyz
  1  'x, y, z'
loop_
 _atom_site_type_symbol
 _atom_site_label
 _atom_site_symmetry_multiplicity
 _atom_site_fract_x
 _atom_site_fract_y
 _atom_site_fract_z
 _atom_site_occupancy
  Ho  Ho0  1  0.33333300  0.66666700  0.22937800  1
  Ho  Ho1  1  0.00000000  0.00000000  0.27126700  1
  Ho  Ho2  1  0.00000000  0.00000000  0.77126700  1
  Ho  Ho3  1  0.33333300  0.66666700  0.72937800  1
  Ho  Ho4  1  0.66666700  0.33333300  0.72937800  1
  Ho  Ho5  1  0.66666700  0.33333300  0.22937800  1
  Ga  Ga6  1  0.00000000  0.66589400  0.49662700  1
  Ga  Ga7  1  0.00000000  0.33410600  0.99662700  1
  Ga  Ga8  1  0.33410600  0.33410600  0.49662700  1
  Ga  Ga9  1  0.66589400  0.66589400  0.99662700  1
  Ga  Ga10  1  0.33410600  0.00000000  0.99662700  1
  Ga  Ga11  1  0.66589400  0.00000000  0.49662700  1
  O  O12  1  0.00000000  0.69313500  0.65990100  1
  O  O13  1  0.00000000  0.64083700  0.33472100  1
  O  O14  1  0.00000000  0.35916300  0.83472100  1
  O  O15  1  0.00000000  0.30686500  0.15990100  1
  O  O16  1  0.33333300  0.66666700  0.01669100  1
  O  O17  1  0.33333300  0.66666700  0.51669100  1
  O  O18  1  0.00000000  0.00000000  0.47413200  1
  O  O19  1  0.00000000  0.00000000  0.97413200  1
  O  O20  1  0.30686500  0.30686500  0.65990100  1
  O  O21  1  0.35916300  0.35916300  0.33472100  1
  O  O22  1  0.30686500  0.00000000  0.15990100  1
  O  O23  1  0.64083700  0.64083700  0.83472100  1
  O  O24  1  0.69313500  0.69313500  0.15990100  1
  O  O25  1  0.35916300  0.00000000  0.83472100  1
  O  O26  1  0.66666700  0.33333300  0.51669100  1
  O  O27  1  0.66666700  0.33333300  0.01669100  1
  O  O28  1  0.64083700  0.00000000  0.33472100  1
  O  O29  1  0.69313500  0.00000000  0.65990100  1
