# generated using pymatgen
data_Li4MnV(PO4)3
_symmetry_space_group_name_H-M   'P 1'
_cell_length_a   9.30093299
_cell_length_b   8.41544863
_cell_length_c   8.43679677
_cell_angle_alpha   60.59734091
_cell_angle_beta   63.27214847
_cell_angle_gamma   90.37341170
_symmetry_Int_Tables_number   1
_chemical_formula_structural   Li4MnV(PO4)3
_chemical_formula_sum   'Li8 Mn2 V2 P6 O24'
_cell_volume   491.41473880
_cell_formula_units_Z   2
loop_
 _symmetry_equiv_pos_site_id
 _symmetry_equiv_pos_as_xyz
  1  'x, y, z'
loop_
 _atom_site_type_symbol
 _atom_site_label
 _atom_site_symmetry_multiplicity
 _atom_site_fract_x
 _atom_site_fract_y
 _atom_site_fract_z
 _atom_site_occupancy
  Li  Li0  1  0.86461200  0.26449400  0.80353300  1
  Li  Li1  1  0.90262100  0.94348300  0.36415100  1
  Li  Li2  1  0.85293900  0.65855600  0.07499200  1
  Li  Li3  1  0.59062800  0.79833300  0.66872100  1
  Li  Li4  1  0.40937200  0.20166700  0.33127900  1
  Li  Li5  1  0.14706100  0.34144400  0.92500800  1
  Li  Li6  1  0.09737900  0.05651700  0.63584900  1
  Li  Li7  1  0.13538800  0.73550600  0.19646700  1
  Mn  Mn8  1  0.43822200  0.15005900  0.71276200  1
  Mn  Mn9  1  0.56177800  0.84994100  0.28723800  1
  V  V10  1  0.96510000  0.64834300  0.69129200  1
  V  V11  1  0.03490000  0.35165700  0.30870800  1
  P  P12  1  0.75409000  0.94937400  0.78499200  1
  P  P13  1  0.75363500  0.54697600  0.50660700  1
  P  P14  1  0.76193100  0.25457900  0.19136500  1
  P  P15  1  0.23806900  0.74542100  0.80863500  1
  P  P16  1  0.24636500  0.45302400  0.49339300  1
  P  P17  1  0.24591000  0.05062600  0.21500800  1
  O  O18  1  0.89309100  0.15049300  0.63782700  1
  O  O19  1  0.82115300  0.50323600  0.65963900  1
  O  O20  1  0.81702800  0.83222300  0.68024300  1
  O  O21  1  0.89924900  0.55426200  0.30620900  1
  O  O22  1  0.89922900  0.20973700  0.25769500  1
  O  O23  1  0.73228000  0.75105000  0.42586100  1
  O  O24  1  0.58792900  0.96729400  0.79580300  1
  O  O25  1  0.59288000  0.39777800  0.61699300  1
  O  O26  1  0.82313000  0.47234400  0.01330200  1
  O  O27  1  0.75530800  0.13373800  0.10386100  1
  O  O28  1  0.59136400  0.20815600  0.38101700  1
  O  O29  1  0.74580600  0.85215000  0.99917400  1
  O  O30  1  0.25419400  0.14785000  0.00082600  1
  O  O31  1  0.40863600  0.79184400  0.61898300  1
  O  O32  1  0.24469200  0.86626200  0.89613900  1
  O  O33  1  0.17687000  0.52765600  0.98669800  1
  O  O34  1  0.40712000  0.60222200  0.38300700  1
  O  O35  1  0.41207100  0.03270600  0.20419700  1
  O  O36  1  0.26772000  0.24895000  0.57413900  1
  O  O37  1  0.10077100  0.79026300  0.74230500  1
  O  O38  1  0.10075100  0.44573800  0.69379100  1
  O  O39  1  0.18297200  0.16777700  0.31975700  1
  O  O40  1  0.17884700  0.49676400  0.34036100  1
  O  O41  1  0.10690900  0.84950700  0.36217300  1
