# generated using pymatgen
data_Bi3BO6
_symmetry_space_group_name_H-M   'P 1'
_cell_length_a   4.94767500
_cell_length_b   9.84630600
_cell_length_c   12.42981700
_cell_angle_alpha   90.00000000
_cell_angle_beta   90.00000000
_cell_angle_gamma   90.00000000
_symmetry_Int_Tables_number   1
_chemical_formula_structural   Bi3BO6
_chemical_formula_sum   'Bi12 B4 O24'
_cell_volume   605.53496785
_cell_formula_units_Z   4
loop_
 _symmetry_equiv_pos_site_id
 _symmetry_equiv_pos_as_xyz
  1  'x, y, z'
loop_
 _atom_site_type_symbol
 _atom_site_label
 _atom_site_symmetry_multiplicity
 _atom_site_fract_x
 _atom_site_fract_y
 _atom_site_fract_z
 _atom_site_occupancy
  Bi  Bi0  1  0.48882000  0.75000000  0.07627500  1
  Bi  Bi1  1  0.98571000  0.06361400  0.13726200  1
  Bi  Bi2  1  0.98571000  0.43638600  0.13726200  1
  Bi  Bi3  1  0.48571000  0.56361400  0.36273800  1
  Bi  Bi4  1  0.48571000  0.93638600  0.36273800  1
  Bi  Bi5  1  0.98882000  0.25000000  0.42372500  1
  Bi  Bi6  1  0.01118000  0.75000000  0.57627500  1
  Bi  Bi7  1  0.51429000  0.06361400  0.63726200  1
  Bi  Bi8  1  0.51429000  0.43638600  0.63726200  1
  Bi  Bi9  1  0.01429000  0.56361400  0.86273800  1
  Bi  Bi10  1  0.01429000  0.93638600  0.86273800  1
  Bi  Bi11  1  0.51118000  0.25000000  0.92372500  1
  B  B12  1  0.42674700  0.25000000  0.21758400  1
  B  B13  1  0.92674700  0.75000000  0.28241600  1
  B  B14  1  0.07325300  0.25000000  0.71758400  1
  B  B15  1  0.57325300  0.75000000  0.78241600  1
  O  O16  1  0.21482600  0.59022600  0.03548700  1
  O  O17  1  0.21482600  0.90977400  0.03548700  1
  O  O18  1  0.31226900  0.25000000  0.10073200  1
  O  O19  1  0.80235300  0.87627400  0.23296900  1
  O  O20  1  0.80235300  0.62372600  0.23296900  1
  O  O21  1  0.71865300  0.25000000  0.22671900  1
  O  O22  1  0.21865300  0.75000000  0.27328100  1
  O  O23  1  0.30235300  0.12372600  0.26703100  1
  O  O24  1  0.30235300  0.37627400  0.26703100  1
  O  O25  1  0.81226900  0.75000000  0.39926800  1
  O  O26  1  0.71482600  0.09022600  0.46451300  1
  O  O27  1  0.71482600  0.40977400  0.46451300  1
  O  O28  1  0.28517400  0.59022600  0.53548700  1
  O  O29  1  0.28517400  0.90977400  0.53548700  1
  O  O30  1  0.18773100  0.25000000  0.60073200  1
  O  O31  1  0.69764700  0.62372600  0.73296900  1
  O  O32  1  0.69764700  0.87627400  0.73296900  1
  O  O33  1  0.78134700  0.25000000  0.72671900  1
  O  O34  1  0.28134700  0.75000000  0.77328100  1
  O  O35  1  0.19764700  0.12372600  0.76703100  1
  O  O36  1  0.19764700  0.37627400  0.76703100  1
  O  O37  1  0.68773100  0.75000000  0.89926800  1
  O  O38  1  0.78517400  0.09022600  0.96451300  1
  O  O39  1  0.78517400  0.40977400  0.96451300  1
