# generated using pymatgen
data_Mg(ReO4)2
_symmetry_space_group_name_H-M   'P 1'
_cell_length_a   10.43627142
_cell_length_b   10.43627142
_cell_length_c   5.12739600
_cell_angle_alpha   90.00000000
_cell_angle_beta   90.00000000
_cell_angle_gamma   119.99999631
_symmetry_Int_Tables_number   1
_chemical_formula_structural   Mg(ReO4)2
_chemical_formula_sum   'Mg3 Re6 O24'
_cell_volume   483.63557477
_cell_formula_units_Z   3
loop_
 _symmetry_equiv_pos_site_id
 _symmetry_equiv_pos_as_xyz
  1  'x, y, z'
loop_
 _atom_site_type_symbol
 _atom_site_label
 _atom_site_symmetry_multiplicity
 _atom_site_fract_x
 _atom_site_fract_y
 _atom_site_fract_z
 _atom_site_occupancy
  Mg  Mg0  1  0.33333300  0.66666700  0.36173600  1
  Mg  Mg1  1  0.00000000  0.00000000  0.86271900  1
  Mg  Mg2  1  0.66666700  0.33333300  0.36173600  1
  Re  Re3  1  0.00000000  0.68268600  0.48782600  1
  Re  Re4  1  0.00000000  0.35515200  0.00643400  1
  Re  Re5  1  0.31731400  0.31731400  0.48782600  1
  Re  Re6  1  0.64484800  0.64484800  0.00643400  1
  Re  Re7  1  0.35515200  0.00000000  0.00643400  1
  Re  Re8  1  0.68268600  0.00000000  0.48782600  1
  O  O9  1  0.00000000  0.83696700  0.62830900  1
  O  O10  1  0.00000000  0.69360700  0.15221900  1
  O  O11  1  0.16222100  0.68017600  0.57664500  1
  O  O12  1  0.00000000  0.36993000  0.67152600  1
  O  O13  1  0.15906300  0.51062400  0.13199700  1
  O  O14  1  0.00000000  0.18955900  0.07712400  1
  O  O15  1  0.35156100  0.84093700  0.13199700  1
  O  O16  1  0.31982400  0.48204500  0.57664500  1
  O  O17  1  0.16303300  0.16303300  0.62830900  1
  O  O18  1  0.30639300  0.30639300  0.15221900  1
  O  O19  1  0.51795500  0.83777900  0.57664500  1
  O  O20  1  0.48937600  0.64843900  0.13199700  1
  O  O21  1  0.18955900  0.00000000  0.07712400  1
  O  O22  1  0.48204500  0.31982400  0.57664500  1
  O  O23  1  0.63007000  0.63007000  0.67152600  1
  O  O24  1  0.64843900  0.48937600  0.13199700  1
  O  O25  1  0.81044100  0.81044100  0.07712400  1
  O  O26  1  0.36993000  0.00000000  0.67152600  1
  O  O27  1  0.51062400  0.15906300  0.13199700  1
  O  O28  1  0.83777900  0.51795500  0.57664500  1
  O  O29  1  0.68017600  0.16222100  0.57664500  1
  O  O30  1  0.84093700  0.35156100  0.13199700  1
  O  O31  1  0.69360700  0.00000000  0.15221900  1
  O  O32  1  0.83696700  0.00000000  0.62830900  1
