# generated using pymatgen
data_In2WO6
_symmetry_space_group_name_H-M   'P 1'
_cell_length_a   4.90405900
_cell_length_b   9.07141900
_cell_length_c   20.89367100
_cell_angle_alpha   90.00000000
_cell_angle_beta   90.00000000
_cell_angle_gamma   90.00000000
_symmetry_Int_Tables_number   1
_chemical_formula_structural   In2WO6
_chemical_formula_sum   'In16 W8 O48'
_cell_volume   929.49201959
_cell_formula_units_Z   8
loop_
 _symmetry_equiv_pos_site_id
 _symmetry_equiv_pos_as_xyz
  1  'x, y, z'
loop_
 _atom_site_type_symbol
 _atom_site_label
 _atom_site_symmetry_multiplicity
 _atom_site_fract_x
 _atom_site_fract_y
 _atom_site_fract_z
 _atom_site_occupancy
  In  In0  1  0.48382200  0.13132700  0.43839300  1
  In  In1  1  0.48474300  0.13929000  0.67123800  1
  In  In2  1  0.51373900  0.20582700  0.93326900  1
  In  In3  1  0.50029700  0.19336100  0.19979800  1
  In  In4  1  0.00029700  0.30663900  0.80020200  1
  In  In5  1  0.01373900  0.29417300  0.06673100  1
  In  In6  1  0.98474300  0.36071000  0.32876200  1
  In  In7  1  0.98382200  0.36867300  0.56160700  1
  In  In8  1  0.51617800  0.63132700  0.06160700  1
  In  In9  1  0.51525700  0.63929000  0.82876200  1
  In  In10  1  0.48626100  0.70582700  0.56673100  1
  In  In11  1  0.49970300  0.69336100  0.30020200  1
  In  In12  1  0.99970300  0.80663900  0.69979800  1
  In  In13  1  0.98626100  0.79417300  0.43326900  1
  In  In14  1  0.01525700  0.86071000  0.17123800  1
  In  In15  1  0.01617800  0.86867300  0.93839300  1
  W  W16  1  0.97824700  0.00415800  0.56052200  1
  W  W17  1  0.98583000  0.00889600  0.31130500  1
  W  W18  1  0.48583000  0.49110400  0.68869500  1
  W  W19  1  0.47824700  0.49584200  0.43947800  1
  W  W20  1  0.02175300  0.50415800  0.93947800  1
  W  W21  1  0.01417000  0.50889600  0.18869500  1
  W  W22  1  0.51417000  0.99110400  0.81130500  1
  W  W23  1  0.52175300  0.99584200  0.06052200  1
  O  O24  1  0.21680200  0.01928200  0.23488800  1
  O  O25  1  0.73602200  0.02180000  0.13847600  1
  O  O26  1  0.74265400  0.01698300  0.88757300  1
  O  O27  1  0.29096700  0.01996200  0.98505800  1
  O  O28  1  0.29731200  0.14493300  0.10701200  1
  O  O29  1  0.74606000  0.14757100  0.01845100  1
  O  O30  1  0.28708400  0.15069900  0.84712500  1
  O  O31  1  0.73265100  0.13351500  0.76392100  1
  O  O32  1  0.20671600  0.15816000  0.35535200  1
  O  O33  1  0.19695900  0.16435100  0.59423300  1
  O  O34  1  0.75322900  0.15826800  0.52541600  1
  O  O35  1  0.76320200  0.17471600  0.28208800  1
  O  O36  1  0.26320200  0.32528400  0.71791200  1
  O  O37  1  0.25322900  0.34173200  0.47458400  1
  O  O38  1  0.69695900  0.33564900  0.40576700  1
  O  O39  1  0.70671600  0.34184000  0.64464800  1
  O  O40  1  0.23265100  0.36648500  0.23607900  1
  O  O41  1  0.78708400  0.34930100  0.15287500  1
  O  O42  1  0.24606000  0.35242900  0.98154900  1
  O  O43  1  0.79731200  0.35506700  0.89298800  1
  O  O44  1  0.79096700  0.48003800  0.01494200  1
  O  O45  1  0.24265400  0.48301700  0.11242700  1
  O  O46  1  0.23602200  0.47820000  0.86152400  1
  O  O47  1  0.71680200  0.48071800  0.76511200  1
  O  O48  1  0.78319800  0.51928200  0.26511200  1
  O  O49  1  0.26397800  0.52180000  0.36152400  1
  O  O50  1  0.25734600  0.51698300  0.61242700  1
  O  O51  1  0.70903300  0.51996200  0.51494200  1
  O  O52  1  0.70268800  0.64493300  0.39298800  1
  O  O53  1  0.25394000  0.64757100  0.48154900  1
  O  O54  1  0.71291600  0.65069900  0.65287500  1
  O  O55  1  0.26734900  0.63351500  0.73607900  1
  O  O56  1  0.79328400  0.65816000  0.14464800  1
  O  O57  1  0.80304100  0.66435100  0.90576700  1
  O  O58  1  0.24677100  0.65826800  0.97458400  1
  O  O59  1  0.23679800  0.67471600  0.21791200  1
  O  O60  1  0.73679800  0.82528400  0.78208800  1
  O  O61  1  0.74677100  0.84173200  0.02541600  1
  O  O62  1  0.30304100  0.83564900  0.09423300  1
  O  O63  1  0.29328400  0.84184000  0.85535200  1
  O  O64  1  0.76734900  0.86648500  0.26392100  1
  O  O65  1  0.21291600  0.84930100  0.34712500  1
  O  O66  1  0.75394000  0.85242900  0.51845100  1
  O  O67  1  0.20268800  0.85506700  0.60701200  1
  O  O68  1  0.20903300  0.98003800  0.48505800  1
  O  O69  1  0.75734600  0.98301700  0.38757300  1
  O  O70  1  0.76397800  0.97820000  0.63847600  1
  O  O71  1  0.28319800  0.98071800  0.73488800  1
