# generated using pymatgen
data_Te2MoW3(SeS2)2
_symmetry_space_group_name_H-M   'P 1'
_cell_length_a   3.30745161
_cell_length_b   3.30745161
_cell_length_c   37.66630700
_cell_angle_alpha   90.00000000
_cell_angle_beta   90.00000000
_cell_angle_gamma   119.99999214
_symmetry_Int_Tables_number   1
_chemical_formula_structural   Te2MoW3(SeS2)2
_chemical_formula_sum   'Te2 Mo1 W3 Se2 S4'
_cell_volume   356.83767822
_cell_formula_units_Z   1
loop_
 _symmetry_equiv_pos_site_id
 _symmetry_equiv_pos_as_xyz
  1  'x, y, z'
loop_
 _atom_site_type_symbol
 _atom_site_label
 _atom_site_symmetry_multiplicity
 _atom_site_fract_x
 _atom_site_fract_y
 _atom_site_fract_z
 _atom_site_occupancy
  Te  Te0  1  0.00000000  0.00000000  0.70864600  1
  Te  Te1  1  0.00000000  0.00000000  0.60653000  1
  Mo  Mo2  1  0.00000000  0.00000000  0.46958900  1
  W  W3  1  0.00000000  0.00000000  0.09392900  1
  W  W4  1  0.33333300  0.66666700  0.28180900  1
  W  W5  1  0.33333300  0.66666700  0.65761900  1
  Se  Se6  1  0.33333300  0.66666700  0.42496600  1
  Se  Se7  1  0.33333300  0.66666700  0.51422500  1
  S  S8  1  0.00000000  0.00000000  0.32247500  1
  S  S9  1  0.33333300  0.66666700  0.05325600  1
  S  S10  1  0.33333300  0.66666700  0.13458900  1
  S  S11  1  0.00000000  0.00000000  0.24111500  1
