# generated using pymatgen
data_Lu2TeO6
_symmetry_space_group_name_H-M   'P 1'
_cell_length_a   9.71200415
_cell_length_b   9.71200415
_cell_length_c   5.30711846
_cell_angle_alpha   76.14369816
_cell_angle_beta   76.14369816
_cell_angle_gamma   68.66668051
_symmetry_Int_Tables_number   1
_chemical_formula_structural   Lu2TeO6
_chemical_formula_sum   'Lu8 Te4 O24'
_cell_volume   446.24319688
_cell_formula_units_Z   4
loop_
 _symmetry_equiv_pos_site_id
 _symmetry_equiv_pos_as_xyz
  1  'x, y, z'
loop_
 _atom_site_type_symbol
 _atom_site_label
 _atom_site_symmetry_multiplicity
 _atom_site_fract_x
 _atom_site_fract_y
 _atom_site_fract_z
 _atom_site_occupancy
  Lu  Lu0  1  0.93905800  0.71716800  0.38533700  1
  Lu  Lu1  1  0.71716800  0.93905800  0.88533700  1
  Lu  Lu2  1  0.37542400  0.62457600  0.25000000  1
  Lu  Lu3  1  0.89746300  0.10253700  0.25000000  1
  Lu  Lu4  1  0.10253700  0.89746300  0.75000000  1
  Lu  Lu5  1  0.62457600  0.37542400  0.75000000  1
  Lu  Lu6  1  0.28283200  0.06094200  0.11466300  1
  Lu  Lu7  1  0.06094200  0.28283200  0.61466300  1
  Te  Te8  1  0.80498000  0.50168300  0.06689900  1
  Te  Te9  1  0.50168300  0.80498000  0.56689900  1
  Te  Te10  1  0.49831700  0.19502000  0.43310100  1
  Te  Te11  1  0.19502000  0.49831700  0.93310100  1
  O  O12  1  0.89387600  0.92484600  0.07732900  1
  O  O13  1  0.92484600  0.89387600  0.57732900  1
  O  O14  1  0.52947800  0.94492600  0.25524800  1
  O  O15  1  0.78517900  0.68845900  0.15016800  1
  O  O16  1  0.94492600  0.52947800  0.75524800  1
  O  O17  1  0.68845900  0.78517900  0.65016800  1
  O  O18  1  0.82076800  0.37678300  0.40055500  1
  O  O19  1  0.37678300  0.82076800  0.90055500  1
  O  O20  1  0.60960700  0.54163500  0.01060200  1
  O  O21  1  0.31224200  0.84493800  0.42651200  1
  O  O22  1  0.54163500  0.60960700  0.51060200  1
  O  O23  1  0.84493800  0.31224200  0.92651200  1
  O  O24  1  0.15506200  0.68775800  0.07348800  1
  O  O25  1  0.45836500  0.39039300  0.48939800  1
  O  O26  1  0.68775800  0.15506200  0.57348800  1
  O  O27  1  0.39039300  0.45836500  0.98939800  1
  O  O28  1  0.62321700  0.17923200  0.09944500  1
  O  O29  1  0.17923200  0.62321700  0.59944500  1
  O  O30  1  0.31154100  0.21482100  0.34983200  1
  O  O31  1  0.05507400  0.47052200  0.24475200  1
  O  O32  1  0.21482100  0.31154100  0.84983200  1
  O  O33  1  0.47052200  0.05507400  0.74475200  1
  O  O34  1  0.07515400  0.10612400  0.42267100  1
  O  O35  1  0.10612400  0.07515400  0.92267100  1
