# generated using pymatgen
data_EuY2O4
_symmetry_space_group_name_H-M   'P 1'
_cell_length_a   10.16602503
_cell_length_b   11.99776971
_cell_length_c   3.42186960
_cell_angle_alpha   89.83659985
_cell_angle_beta   90.19810852
_cell_angle_gamma   90.18368408
_symmetry_Int_Tables_number   1
_chemical_formula_structural   EuY2O4
_chemical_formula_sum   'Eu4 Y8 O16'
_cell_volume   417.35783553
_cell_formula_units_Z   4
loop_
 _symmetry_equiv_pos_site_id
 _symmetry_equiv_pos_as_xyz
  1  'x, y, z'
loop_
 _atom_site_type_symbol
 _atom_site_label
 _atom_site_symmetry_multiplicity
 _atom_site_fract_x
 _atom_site_fract_y
 _atom_site_fract_z
 _atom_site_occupancy
  Eu  Eu0  1  0.24425200  0.35134000  0.75522900  1
  Eu  Eu1  1  0.25314100  0.84819900  0.24778600  1
  Eu  Eu2  1  0.74592300  0.14947600  0.75603300  1
  Eu  Eu3  1  0.75452000  0.64998300  0.25638300  1
  Y  Y4  1  0.07497700  0.11274800  0.74968900  1
  Y  Y5  1  0.07824300  0.60940000  0.75468100  1
  Y  Y6  1  0.42068100  0.10918400  0.25072600  1
  Y  Y7  1  0.42659700  0.61244800  0.24876600  1
  Y  Y8  1  0.57376600  0.38661800  0.75120400  1
  Y  Y9  1  0.57911800  0.88977300  0.75534800  1
  Y  Y10  1  0.91937400  0.38967400  0.25346100  1
  Y  Y11  1  0.92560300  0.88752500  0.25138800  1
  O  O12  1  0.02057400  0.71727300  0.25441500  1
  O  O13  1  0.07962500  0.92298600  0.74876600  1
  O  O14  1  0.12379700  0.47642100  0.25428800  1
  O  O15  1  0.20938000  0.17748600  0.25040200  1
  O  O16  1  0.29103600  0.67337800  0.74978600  1
  O  O17  1  0.37345800  0.97691700  0.75293900  1
  O  O18  1  0.41973600  0.42243800  0.25347700  1
  O  O19  1  0.48383800  0.21475600  0.75083600  1
  O  O20  1  0.51832100  0.78354200  0.25513400  1
  O  O21  1  0.58031700  0.57689600  0.75143000  1
  O  O22  1  0.62716600  0.02184000  0.25492900  1
  O  O23  1  0.70763600  0.32407900  0.25118200  1
  O  O24  1  0.79159000  0.82333700  0.75270600  1
  O  O25  1  0.87320700  0.52283200  0.75264300  1
  O  O26  1  0.92154300  0.07678800  0.24884100  1
  O  O27  1  0.97867100  0.28251700  0.75304200  1
