# generated using pymatgen
data_TiV4CoO12
_symmetry_space_group_name_H-M   'P 1'
_cell_length_a   6.82674905
_cell_length_b   6.82674905
_cell_length_c   5.74850454
_cell_angle_alpha   75.13572635
_cell_angle_beta   75.13572635
_cell_angle_gamma   84.39587857
_symmetry_Int_Tables_number   1
_chemical_formula_structural   TiV4CoO12
_chemical_formula_sum   'Ti1 V4 Co1 O12'
_cell_volume   250.13042714
_cell_formula_units_Z   1
loop_
 _symmetry_equiv_pos_site_id
 _symmetry_equiv_pos_as_xyz
  1  'x, y, z'
loop_
 _atom_site_type_symbol
 _atom_site_label
 _atom_site_symmetry_multiplicity
 _atom_site_fract_x
 _atom_site_fract_y
 _atom_site_fract_z
 _atom_site_occupancy
  Ti  Ti0  1  0.09496000  0.90504000  0.50000000  1
  V  V1  1  0.79541700  0.61179200  0.99855100  1
  V  V2  1  0.61514500  0.80349500  0.50090700  1
  V  V3  1  0.38820800  0.20458300  0.00144900  1
  V  V4  1  0.19650500  0.38485500  0.49909300  1
  Co  Co5  1  0.91367800  0.08632200  0.00000000  1
  O  O6  1  0.96520100  0.81254100  0.87106900  1
  O  O7  1  0.91399600  0.38264100  0.01045700  1
  O  O8  1  0.82201400  0.96965700  0.37394700  1
  O  O9  1  0.61987800  0.64707400  0.80842700  1
  O  O10  1  0.61735900  0.08600400  0.98954300  1
  O  O11  1  0.66718600  0.62618400  0.29960300  1
  O  O12  1  0.35292600  0.38012200  0.19157300  1
  O  O13  1  0.35948600  0.91357800  0.51867200  1
  O  O14  1  0.37381600  0.33281400  0.70039700  1
  O  O15  1  0.18745900  0.03479900  0.12893100  1
  O  O16  1  0.08642200  0.64051400  0.48132800  1
  O  O17  1  0.03034300  0.17798600  0.62605300  1
