# generated using pymatgen
data_Mg3(AsO4)2
_symmetry_space_group_name_H-M   'P 1'
_cell_length_a   6.48700979
_cell_length_b   6.48700979
_cell_length_c   8.30616400
_cell_angle_alpha   90.00000000
_cell_angle_beta   90.00000000
_cell_angle_gamma   123.70190783
_symmetry_Int_Tables_number   1
_chemical_formula_structural   Mg3(AsO4)2
_chemical_formula_sum   'Mg6 As4 O16'
_cell_volume   290.78991588
_cell_formula_units_Z   2
loop_
 _symmetry_equiv_pos_site_id
 _symmetry_equiv_pos_as_xyz
  1  'x, y, z'
loop_
 _atom_site_type_symbol
 _atom_site_label
 _atom_site_symmetry_multiplicity
 _atom_site_fract_x
 _atom_site_fract_y
 _atom_site_fract_z
 _atom_site_occupancy
  Mg  Mg0  1  0.11070200  0.38929800  0.25000000  1
  Mg  Mg1  1  0.38929800  0.11070200  0.75000000  1
  Mg  Mg2  1  0.00000000  0.00000000  0.00000000  1
  Mg  Mg3  1  0.50000000  0.50000000  0.50000000  1
  Mg  Mg4  1  0.88929800  0.61070200  0.75000000  1
  Mg  Mg5  1  0.61070200  0.88929800  0.25000000  1
  As  As6  1  0.87957200  0.12042800  0.61525100  1
  As  As7  1  0.12042800  0.87957200  0.38474900  1
  As  As8  1  0.62042800  0.37957200  0.11525100  1
  As  As9  1  0.37957200  0.62042800  0.88474900  1
  O  O10  1  0.35133300  0.11365500  0.50025500  1
  O  O11  1  0.11365500  0.35133300  0.49974500  1
  O  O12  1  0.38634500  0.14866700  0.99974500  1
  O  O13  1  0.14866700  0.38634500  0.00025500  1
  O  O14  1  0.99946500  0.00053500  0.24984400  1
  O  O15  1  0.50053500  0.49946500  0.74984400  1
  O  O16  1  0.74668100  0.25331900  0.22730400  1
  O  O17  1  0.75331900  0.24668100  0.72730400  1
  O  O18  1  0.25331900  0.74668100  0.77269600  1
  O  O19  1  0.24668100  0.75331900  0.27269600  1
  O  O20  1  0.49946500  0.50053500  0.25015600  1
  O  O21  1  0.00053500  0.99946500  0.75015600  1
  O  O22  1  0.85133300  0.61365500  0.99974500  1
  O  O23  1  0.61365500  0.85133300  0.00025500  1
  O  O24  1  0.88634500  0.64866700  0.50025500  1
  O  O25  1  0.64866700  0.88634500  0.49974500  1
