# generated using pymatgen
data_Dy2P4O13
_symmetry_space_group_name_H-M   'P 1'
_cell_length_a   9.49505227
_cell_length_b   9.49505227
_cell_length_c   8.62785100
_cell_angle_alpha   90.00000000
_cell_angle_beta   90.00000000
_cell_angle_gamma   136.27238229
_symmetry_Int_Tables_number   1
_chemical_formula_structural   Dy2P4O13
_chemical_formula_sum   'Dy4 P8 O26'
_cell_volume   537.67574679
_cell_formula_units_Z   2
loop_
 _symmetry_equiv_pos_site_id
 _symmetry_equiv_pos_as_xyz
  1  'x, y, z'
loop_
 _atom_site_type_symbol
 _atom_site_label
 _atom_site_symmetry_multiplicity
 _atom_site_fract_x
 _atom_site_fract_y
 _atom_site_fract_z
 _atom_site_occupancy
  Dy  Dy0  1  0.10683600  0.40060200  0.85288300  1
  Dy  Dy1  1  0.59939800  0.89316400  0.64711700  1
  Dy  Dy2  1  0.40060200  0.10683600  0.14711700  1
  Dy  Dy3  1  0.89316400  0.59939800  0.35288300  1
  P  P4  1  0.58472200  0.90426800  0.00276800  1
  P  P5  1  0.09573200  0.41527800  0.49723200  1
  P  P6  1  0.72049800  0.83716900  0.27390300  1
  P  P7  1  0.16283100  0.27950200  0.22609700  1
  P  P8  1  0.27950200  0.16283100  0.77390300  1
  P  P9  1  0.83716900  0.72049800  0.72609700  1
  P  P10  1  0.90426800  0.58472200  0.99723200  1
  P  P11  1  0.41527800  0.09573200  0.50276800  1
  O  O12  1  0.06210900  0.93789100  0.75000000  1
  O  O13  1  0.06773400  0.77669100  0.09831700  1
  O  O14  1  0.22330900  0.93226600  0.40168300  1
  O  O15  1  0.52752800  0.98301300  0.10852800  1
  O  O16  1  0.01698700  0.47247200  0.39147200  1
  O  O17  1  0.41861000  0.73950900  0.88690400  1
  O  O18  1  0.26049100  0.58139000  0.61309600  1
  O  O19  1  0.15849300  0.38691600  0.10212900  1
  O  O20  1  0.61308400  0.84150700  0.39787100  1
  O  O21  1  0.61787100  0.78804600  0.10812700  1
  O  O22  1  0.21195400  0.38212900  0.39187300  1
  O  O23  1  0.69811700  0.74357700  0.70432600  1
  O  O24  1  0.25642300  0.30188300  0.79567400  1
  O  O25  1  0.74357700  0.69811700  0.29567400  1
  O  O26  1  0.30188300  0.25642300  0.20432600  1
  O  O27  1  0.78804600  0.61787100  0.89187300  1
  O  O28  1  0.38212900  0.21195400  0.60812700  1
  O  O29  1  0.84150700  0.61308400  0.60212900  1
  O  O30  1  0.38691600  0.15849300  0.89787100  1
  O  O31  1  0.73950900  0.41861000  0.11309600  1
  O  O32  1  0.58139000  0.26049100  0.38690400  1
  O  O33  1  0.47247200  0.01698700  0.60852800  1
  O  O34  1  0.98301300  0.52752800  0.89147200  1
  O  O35  1  0.93226600  0.22330900  0.59831700  1
  O  O36  1  0.77669100  0.06773400  0.90168300  1
  O  O37  1  0.93789100  0.06210900  0.25000000  1
