# generated using pymatgen
data_V(SO4)2
_symmetry_space_group_name_H-M   'P 1'
_cell_length_a   8.89262287
_cell_length_b   8.89262287
_cell_length_c   8.89262335
_cell_angle_alpha   56.19744020
_cell_angle_beta   56.19744020
_cell_angle_gamma   56.19744319
_symmetry_Int_Tables_number   1
_chemical_formula_structural   V(SO4)2
_chemical_formula_sum   'V3 S6 O24'
_cell_volume   453.48445840
_cell_formula_units_Z   3
loop_
 _symmetry_equiv_pos_site_id
 _symmetry_equiv_pos_as_xyz
  1  'x, y, z'
loop_
 _atom_site_type_symbol
 _atom_site_label
 _atom_site_symmetry_multiplicity
 _atom_site_fract_x
 _atom_site_fract_y
 _atom_site_fract_z
 _atom_site_occupancy
  V  V0  1  0.64530400  0.64530400  0.64530400  1
  V  V1  1  0.35565100  0.35565100  0.35565100  1
  V  V2  1  0.14786900  0.14786900  0.14786900  1
  S  S3  1  0.96466900  0.25498600  0.52996100  1
  S  S4  1  0.52996100  0.96466900  0.25498600  1
  S  S5  1  0.25498600  0.52996100  0.96466900  1
  S  S6  1  0.74371900  0.47029700  0.03899000  1
  S  S7  1  0.47029700  0.03899000  0.74371900  1
  S  S8  1  0.03899000  0.74371900  0.47029700  1
  O  O9  1  0.88214400  0.70533800  0.48885400  1
  O  O10  1  0.70533800  0.48885400  0.88214400  1
  O  O11  1  0.99140100  0.06338100  0.66878200  1
  O  O12  1  0.48885400  0.88214400  0.70533800  1
  O  O13  1  0.97901300  0.28440000  0.34067300  1
  O  O14  1  0.77302100  0.40393000  0.59826700  1
  O  O15  1  0.59826700  0.77302100  0.40393000  1
  O  O16  1  0.66878200  0.99140100  0.06338100  1
  O  O17  1  0.40393000  0.59826700  0.77302100  1
  O  O18  1  0.94070900  0.32148800  0.02568500  1
  O  O19  1  0.71098200  0.64907500  0.03342200  1
  O  O20  1  0.64907500  0.03342200  0.71098200  1
  O  O21  1  0.34067300  0.97901300  0.28440000  1
  O  O22  1  0.28440000  0.34067300  0.97901300  1
  O  O23  1  0.06338100  0.66878200  0.99140100  1
  O  O24  1  0.60248800  0.37714700  0.23199200  1
  O  O25  1  0.32148800  0.02568500  0.94070900  1
  O  O26  1  0.37714700  0.23199200  0.60248800  1
  O  O27  1  0.23199200  0.60248800  0.37714700  1
  O  O28  1  0.03342200  0.71098200  0.64907500  1
  O  O29  1  0.48350700  0.11421600  0.32628100  1
  O  O30  1  0.02568500  0.94070900  0.32148800  1
  O  O31  1  0.32628100  0.48350700  0.11421600  1
  O  O32  1  0.11421600  0.32628100  0.48350700  1
