# generated using pymatgen
data_S
_symmetry_space_group_name_H-M   'P 1'
_cell_length_a   14.72191035
_cell_length_b   14.14742272
_cell_length_c   9.61960256
_cell_angle_alpha   73.79683514
_cell_angle_beta   67.33976410
_cell_angle_gamma   38.86340076
_symmetry_Int_Tables_number   1
_chemical_formula_structural   S
_chemical_formula_sum   S32
_cell_volume   1159.35051171
_cell_formula_units_Z   32
loop_
 _symmetry_equiv_pos_site_id
 _symmetry_equiv_pos_as_xyz
  1  'x, y, z'
loop_
 _atom_site_type_symbol
 _atom_site_label
 _atom_site_symmetry_multiplicity
 _atom_site_fract_x
 _atom_site_fract_y
 _atom_site_fract_z
 _atom_site_occupancy
  S  S0  1  0.88242300  0.77805300  0.75443900  1
  S  S1  1  0.58508600  0.75443900  0.77805300  1
  S  S2  1  0.75443900  0.58508600  0.88242300  1
  S  S3  1  0.77805300  0.88242300  0.58508600  1
  S  S4  1  0.36757700  0.47194700  0.49556100  1
  S  S5  1  0.66491400  0.49556100  0.47194700  1
  S  S6  1  0.49556100  0.66491400  0.36757700  1
  S  S7  1  0.47194700  0.36757700  0.66491400  1
  S  S8  1  0.83161600  0.92984600  0.85701500  1
  S  S9  1  0.38152300  0.85701500  0.92984600  1
  S  S10  1  0.85701500  0.38152300  0.83161600  1
  S  S11  1  0.92984600  0.83161600  0.38152300  1
  S  S12  1  0.41838400  0.32015400  0.39298500  1
  S  S13  1  0.86847700  0.39298500  0.32015400  1
  S  S14  1  0.39298500  0.86847700  0.41838400  1
  S  S15  1  0.32015400  0.41838400  0.86847700  1
  S  S16  1  0.00549300  0.89901900  0.76642500  1
  S  S17  1  0.32906300  0.76642500  0.89901900  1
  S  S18  1  0.76642500  0.32906300  0.00549300  1
  S  S19  1  0.89901900  0.00549300  0.32906300  1
  S  S20  1  0.24450700  0.35098100  0.48357500  1
  S  S21  1  0.92093700  0.48357500  0.35098100  1
  S  S22  1  0.48357500  0.92093700  0.24450700  1
  S  S23  1  0.35098100  0.24450700  0.92093700  1
  S  S24  1  0.95307700  0.05286100  0.60139600  1
  S  S25  1  0.39266500  0.60139600  0.05286100  1
  S  S26  1  0.60139600  0.39266500  0.95307700  1
  S  S27  1  0.05286100  0.95307700  0.39266500  1
  S  S28  1  0.29692300  0.19713900  0.64860400  1
  S  S29  1  0.85733500  0.64860400  0.19713900  1
  S  S30  1  0.64860400  0.85733500  0.29692300  1
  S  S31  1  0.19713900  0.29692300  0.85733500  1
