# generated using pymatgen
data_V3(PO4)2
_symmetry_space_group_name_H-M   'P 1'
_cell_length_a   8.79027948
_cell_length_b   9.34978818
_cell_length_c   9.70916881
_cell_angle_alpha   116.71194950
_cell_angle_beta   92.42121008
_cell_angle_gamma   113.47214649
_symmetry_Int_Tables_number   1
_chemical_formula_structural   V3(PO4)2
_chemical_formula_sum   'V12 P8 O32'
_cell_volume   629.53079964
_cell_formula_units_Z   4
loop_
 _symmetry_equiv_pos_site_id
 _symmetry_equiv_pos_as_xyz
  1  'x, y, z'
loop_
 _atom_site_type_symbol
 _atom_site_label
 _atom_site_symmetry_multiplicity
 _atom_site_fract_x
 _atom_site_fract_y
 _atom_site_fract_z
 _atom_site_occupancy
  V  V0  1  0.00152900  0.26826900  0.53462500  1
  V  V1  1  0.06983900  0.33979700  0.89229800  1
  V  V2  1  0.11451900  0.18877100  0.16224300  1
  V  V3  1  0.40312200  0.80072200  0.32361600  1
  V  V4  1  0.51885600  0.89289900  0.82568200  1
  V  V5  1  0.39833700  0.47590300  0.73758100  1
  V  V6  1  0.60166300  0.52409700  0.26241900  1
  V  V7  1  0.48114400  0.10710100  0.17431800  1
  V  V8  1  0.59687800  0.19927800  0.67638400  1
  V  V9  1  0.88548100  0.81122900  0.83775700  1
  V  V10  1  0.93016100  0.66020300  0.10770200  1
  V  V11  1  0.99847100  0.73173100  0.46537500  1
  P  P12  1  0.17565100  0.68489700  0.93190200  1
  P  P13  1  0.27477700  0.56312200  0.44991400  1
  P  P14  1  0.23626000  0.06392100  0.39785200  1
  P  P15  1  0.31658300  0.17089000  0.90376100  1
  P  P16  1  0.68341700  0.82911000  0.09623900  1
  P  P17  1  0.76374000  0.93607800  0.60214800  1
  P  P18  1  0.72522300  0.43687800  0.55008600  1
  P  P19  1  0.82434900  0.31510300  0.06809800  1
  O  O20  1  0.07217600  0.88305700  0.34623200  1
  O  O21  1  0.00525000  0.69455100  0.91596700  1
  O  O22  1  0.22653500  0.70902200  0.45765800  1
  O  O23  1  0.19016200  0.65673500  0.07993800  1
  O  O24  1  0.16132300  0.50660000  0.78415500  1
  O  O25  1  0.32605100  0.85346700  0.95073000  1
  O  O26  1  0.11017100  0.38082500  0.39385000  1
  O  O27  1  0.13165800  0.04424000  0.89797100  1
  O  O28  1  0.38640100  0.62534500  0.61250300  1
  O  O29  1  0.22150700  0.22224800  0.53513500  1
  O  O30  1  0.36902500  0.53421900  0.31352000  1
  O  O31  1  0.30855400  0.32021900  0.87550500  1
  O  O32  1  0.60049500  0.94372000  0.54742200  1
  O  O33  1  0.59569300  0.92502300  0.21427200  1
  O  O34  1  0.24905700  0.08476700  0.24848100  1
  O  O35  1  0.57911300  0.74048600  0.91904400  1
  O  O36  1  0.42088700  0.25951400  0.08095600  1
  O  O37  1  0.75094300  0.91523300  0.75151900  1
  O  O38  1  0.40430700  0.07497700  0.78572800  1
  O  O39  1  0.39950500  0.05628000  0.45257800  1
  O  O40  1  0.69144600  0.67978100  0.12449500  1
  O  O41  1  0.63097500  0.46578100  0.68648000  1
  O  O42  1  0.77849300  0.77775200  0.46486500  1
  O  O43  1  0.61359900  0.37465500  0.38749700  1
  O  O44  1  0.86834200  0.95576000  0.10202900  1
  O  O45  1  0.88982900  0.61917500  0.60615000  1
  O  O46  1  0.67394900  0.14653300  0.04927000  1
  O  O47  1  0.83867700  0.49340000  0.21584500  1
  O  O48  1  0.80983800  0.34326500  0.92006200  1
  O  O49  1  0.77346500  0.29097800  0.54234100  1
  O  O50  1  0.99475000  0.30544900  0.08403300  1
  O  O51  1  0.92782400  0.11694300  0.65376800  1
