# generated using pymatgen
data_Na2CuBSO7
_symmetry_space_group_name_H-M   'P 1'
_cell_length_a   7.33988000
_cell_length_b   5.06973200
_cell_length_c   8.76142494
_cell_angle_alpha   88.63371267
_cell_angle_beta   90.00000000
_cell_angle_gamma   90.00000000
_symmetry_Int_Tables_number   1
_chemical_formula_structural   Na2CuBSO7
_chemical_formula_sum   'Na4 Cu2 B2 S2 O14'
_cell_volume   325.93065956
_cell_formula_units_Z   2
loop_
 _symmetry_equiv_pos_site_id
 _symmetry_equiv_pos_as_xyz
  1  'x, y, z'
loop_
 _atom_site_type_symbol
 _atom_site_label
 _atom_site_symmetry_multiplicity
 _atom_site_fract_x
 _atom_site_fract_y
 _atom_site_fract_z
 _atom_site_occupancy
  Na  Na0  1  0.50185700  0.76804200  0.76950300  1
  Na  Na1  1  0.99814300  0.76804200  0.76950300  1
  Na  Na2  1  0.49814300  0.23195800  0.23049700  1
  Na  Na3  1  0.00185700  0.23195800  0.23049700  1
  Cu  Cu4  1  0.25000000  0.22595700  0.65540500  1
  Cu  Cu5  1  0.75000000  0.77404300  0.34459500  1
  B  B6  1  0.25000000  0.27401800  0.92578100  1
  B  B7  1  0.75000000  0.72598200  0.07421900  1
  S  S8  1  0.75000000  0.27826900  0.57910400  1
  S  S9  1  0.25000000  0.72173100  0.42089600  1
  O  O10  1  0.75000000  0.71214600  0.92420700  1
  O  O11  1  0.25000000  0.04238100  0.84236300  1
  O  O12  1  0.25000000  0.47626200  0.81347000  1
  O  O13  1  0.91602700  0.21497600  0.66586700  1
  O  O14  1  0.58397300  0.21497600  0.66586700  1
  O  O15  1  0.25000000  0.86006300  0.57179700  1
  O  O16  1  0.75000000  0.57399000  0.53927800  1
  O  O17  1  0.25000000  0.42601000  0.46072200  1
  O  O18  1  0.75000000  0.13993700  0.42820300  1
  O  O19  1  0.41602700  0.78502400  0.33413300  1
  O  O20  1  0.08397300  0.78502400  0.33413300  1
  O  O21  1  0.75000000  0.52373800  0.18653000  1
  O  O22  1  0.75000000  0.95761900  0.15763700  1
  O  O23  1  0.25000000  0.28785400  0.07579300  1
