# generated using pymatgen
data_Ga2(WO4)3
_symmetry_space_group_name_H-M   'P 1'
_cell_length_a   9.39428500
_cell_length_b   9.47223500
_cell_length_c   13.05358300
_cell_angle_alpha   90.00000000
_cell_angle_beta   90.00000000
_cell_angle_gamma   90.00000000
_symmetry_Int_Tables_number   1
_chemical_formula_structural   Ga2(WO4)3
_chemical_formula_sum   'Ga8 W12 O48'
_cell_volume   1161.57145387
_cell_formula_units_Z   4
loop_
 _symmetry_equiv_pos_site_id
 _symmetry_equiv_pos_as_xyz
  1  'x, y, z'
loop_
 _atom_site_type_symbol
 _atom_site_label
 _atom_site_symmetry_multiplicity
 _atom_site_fract_x
 _atom_site_fract_y
 _atom_site_fract_z
 _atom_site_occupancy
  Ga  Ga0  1  0.24939000  0.03695600  0.62182200  1
  Ga  Ga1  1  0.74939000  0.03695600  0.87817800  1
  Ga  Ga2  1  0.74939000  0.46304400  0.12182200  1
  Ga  Ga3  1  0.24939000  0.46304400  0.37817800  1
  Ga  Ga4  1  0.25061000  0.53695600  0.87817800  1
  Ga  Ga5  1  0.75061000  0.53695600  0.62182200  1
  Ga  Ga6  1  0.25061000  0.96304400  0.12182200  1
  Ga  Ga7  1  0.75061000  0.96304400  0.37817800  1
  W  W8  1  0.39696500  0.11391400  0.35563100  1
  W  W9  1  0.89696500  0.11391400  0.14436900  1
  W  W10  1  0.46964800  0.25000000  0.00000000  1
  W  W11  1  0.96964800  0.25000000  0.50000000  1
  W  W12  1  0.39696500  0.38608600  0.64436900  1
  W  W13  1  0.89696500  0.38608600  0.85563100  1
  W  W14  1  0.10303500  0.61391400  0.14436900  1
  W  W15  1  0.60303500  0.61391400  0.35563100  1
  W  W16  1  0.53035200  0.75000000  0.00000000  1
  W  W17  1  0.03035200  0.75000000  0.50000000  1
  W  W18  1  0.10303500  0.88608600  0.85563100  1
  W  W19  1  0.60303500  0.88608600  0.64436900  1
  O  O20  1  0.18161900  0.00177700  0.76089800  1
  O  O21  1  0.68161900  0.00177700  0.73910200  1
  O  O22  1  0.82562800  0.07146700  0.01982200  1
  O  O23  1  0.32562800  0.07146700  0.48017800  1
  O  O24  1  0.08832700  0.09108000  0.14532900  1
  O  O25  1  0.58832700  0.09108000  0.35467100  1
  O  O26  1  0.36024700  0.12450300  0.06830100  1
  O  O27  1  0.86024700  0.12450300  0.43169900  1
  O  O28  1  0.58236600  0.16013800  0.90841100  1
  O  O29  1  0.08236600  0.16013800  0.59158900  1
  O  O30  1  0.85792900  0.20242100  0.82843500  1
  O  O31  1  0.35792900  0.20242100  0.67156500  1
  O  O32  1  0.85792900  0.29757900  0.17156500  1
  O  O33  1  0.35792900  0.29757900  0.32843500  1
  O  O34  1  0.58236600  0.33986200  0.09158900  1
  O  O35  1  0.08236600  0.33986200  0.40841100  1
  O  O36  1  0.86024700  0.37549700  0.56830100  1
  O  O37  1  0.36024700  0.37549700  0.93169900  1
  O  O38  1  0.58832700  0.40892000  0.64532900  1
  O  O39  1  0.08832700  0.40892000  0.85467100  1
  O  O40  1  0.32562800  0.42853300  0.51982200  1
  O  O41  1  0.82562800  0.42853300  0.98017800  1
  O  O42  1  0.68161900  0.49822300  0.26089800  1
  O  O43  1  0.18161900  0.49822300  0.23910200  1
  O  O44  1  0.31838100  0.50177700  0.73910200  1
  O  O45  1  0.81838100  0.50177700  0.76089800  1
  O  O46  1  0.17437200  0.57146700  0.01982200  1
  O  O47  1  0.67437200  0.57146700  0.48017800  1
  O  O48  1  0.41167300  0.59108000  0.35467100  1
  O  O49  1  0.91167300  0.59108000  0.14532900  1
  O  O50  1  0.63975300  0.62450300  0.06830100  1
  O  O51  1  0.13975300  0.62450300  0.43169900  1
  O  O52  1  0.41763400  0.66013800  0.90841100  1
  O  O53  1  0.91763400  0.66013800  0.59158900  1
  O  O54  1  0.64207100  0.70242100  0.67156500  1
  O  O55  1  0.14207100  0.70242100  0.82843500  1
  O  O56  1  0.14207100  0.79757900  0.17156500  1
  O  O57  1  0.64207100  0.79757900  0.32843500  1
  O  O58  1  0.91763400  0.83986200  0.40841100  1
  O  O59  1  0.41763400  0.83986200  0.09158900  1
  O  O60  1  0.63975300  0.87549700  0.93169900  1
  O  O61  1  0.13975300  0.87549700  0.56830100  1
  O  O62  1  0.91167300  0.90892000  0.85467100  1
  O  O63  1  0.41167300  0.90892000  0.64532900  1
  O  O64  1  0.17437200  0.92853300  0.98017800  1
  O  O65  1  0.67437200  0.92853300  0.51982200  1
  O  O66  1  0.81838100  0.99822300  0.23910200  1
  O  O67  1  0.31838100  0.99822300  0.26089800  1
