# generated using pymatgen
data_CuPO3
_symmetry_space_group_name_H-M   'P 1'
_cell_length_a   5.57196600
_cell_length_b   7.61075200
_cell_length_c   14.08549922
_cell_angle_alpha   61.95793167
_cell_angle_beta   90.00000000
_cell_angle_gamma   90.00000000
_symmetry_Int_Tables_number   1
_chemical_formula_structural   CuPO3
_chemical_formula_sum   'Cu8 P8 O24'
_cell_volume   527.19769324
_cell_formula_units_Z   8
loop_
 _symmetry_equiv_pos_site_id
 _symmetry_equiv_pos_as_xyz
  1  'x, y, z'
loop_
 _atom_site_type_symbol
 _atom_site_label
 _atom_site_symmetry_multiplicity
 _atom_site_fract_x
 _atom_site_fract_y
 _atom_site_fract_z
 _atom_site_occupancy
  Cu  Cu0  1  0.37585000  0.22791100  0.98604100  1
  Cu  Cu1  1  0.86010200  0.25288000  0.14704000  1
  Cu  Cu2  1  0.36010200  0.74712000  0.35296000  1
  Cu  Cu3  1  0.87585000  0.77208900  0.51395900  1
  Cu  Cu4  1  0.12415000  0.22791100  0.48604100  1
  Cu  Cu5  1  0.63989800  0.25288000  0.64704000  1
  Cu  Cu6  1  0.13989800  0.74712000  0.85296000  1
  Cu  Cu7  1  0.62415000  0.77208900  0.01395900  1
  P  P8  1  0.12417000  0.70616700  0.10582000  1
  P  P9  1  0.35499200  0.29878200  0.20802000  1
  P  P10  1  0.85499200  0.70121800  0.29198000  1
  P  P11  1  0.62417000  0.29383300  0.39418000  1
  P  P12  1  0.37583000  0.70616700  0.60582000  1
  P  P13  1  0.14500800  0.29878200  0.70802000  1
  P  P14  1  0.64500800  0.70121800  0.79198000  1
  P  P15  1  0.87583000  0.29383300  0.89418000  1
  O  O16  1  0.32042400  0.85205900  0.04560300  1
  O  O17  1  0.94318900  0.66099400  0.04017200  1
  O  O18  1  0.54094200  0.35066900  0.12063700  1
  O  O19  1  0.98424500  0.79134700  0.17604000  1
  O  O20  1  0.23877800  0.50184800  0.19926900  1
  O  O21  1  0.16060900  0.15566700  0.21568600  1
  O  O22  1  0.66060900  0.84433300  0.28431400  1
  O  O23  1  0.73877800  0.49815200  0.30073100  1
  O  O24  1  0.48424500  0.20865300  0.32396000  1
  O  O25  1  0.04094200  0.64933100  0.37936300  1
  O  O26  1  0.44318900  0.33900600  0.45982800  1
  O  O27  1  0.82042400  0.14794100  0.45439700  1
  O  O28  1  0.17957600  0.85205900  0.54560300  1
  O  O29  1  0.55681100  0.66099400  0.54017200  1
  O  O30  1  0.95905800  0.35066900  0.62063700  1
  O  O31  1  0.51575500  0.79134700  0.67604000  1
  O  O32  1  0.26122200  0.50184800  0.69926900  1
  O  O33  1  0.33939100  0.15566700  0.71568600  1
  O  O34  1  0.83939100  0.84433300  0.78431400  1
  O  O35  1  0.76122200  0.49815200  0.80073100  1
  O  O36  1  0.01575500  0.20865300  0.82396000  1
  O  O37  1  0.45905800  0.64933100  0.87936300  1
  O  O38  1  0.05681100  0.33900600  0.95982800  1
  O  O39  1  0.67957600  0.14794100  0.95439700  1
