# generated using pymatgen
data_Ti3Mn2Cr(PO4)6
_symmetry_space_group_name_H-M   'P 1'
_cell_length_a   8.64513640
_cell_length_b   8.64513640
_cell_length_c   8.64513628
_cell_angle_alpha   60.07915807
_cell_angle_beta   60.07915807
_cell_angle_gamma   60.07915793
_symmetry_Int_Tables_number   1
_chemical_formula_structural   Ti3Mn2Cr(PO4)6
_chemical_formula_sum   'Ti3 Mn2 Cr1 P6 O24'
_cell_volume   457.69786933
_cell_formula_units_Z   1
loop_
 _symmetry_equiv_pos_site_id
 _symmetry_equiv_pos_as_xyz
  1  'x, y, z'
loop_
 _atom_site_type_symbol
 _atom_site_label
 _atom_site_symmetry_multiplicity
 _atom_site_fract_x
 _atom_site_fract_y
 _atom_site_fract_z
 _atom_site_occupancy
  Ti  Ti0  1  0.64514600  0.64514600  0.64514600  1
  Ti  Ti1  1  0.35480300  0.35480300  0.35480300  1
  Ti  Ti2  1  0.14437100  0.14437100  0.14437100  1
  Mn  Mn3  1  0.49883800  0.49883800  0.49883800  1
  Mn  Mn4  1  0.00032300  0.00032300  0.00032300  1
  Cr  Cr5  1  0.85738300  0.85738300  0.85738300  1
  P  P6  1  0.75072200  0.04142100  0.46101100  1
  P  P7  1  0.95670700  0.54360200  0.24844200  1
  P  P8  1  0.54360200  0.24844200  0.95670700  1
  P  P9  1  0.46101100  0.75072200  0.04142100  1
  P  P10  1  0.04142100  0.46101100  0.75072200  1
  P  P11  1  0.24844200  0.95670700  0.54360200  1
  O  O12  1  0.91335000  0.05641800  0.26593000  1
  O  O13  1  0.80610500  0.00696300  0.61855800  1
  O  O14  1  0.73597900  0.08620400  0.94223700  1
  O  O15  1  0.99695600  0.38140800  0.19081800  1
  O  O16  1  0.87901700  0.50072100  0.69100700  1
  O  O17  1  0.58580600  0.23465300  0.43984700  1
  O  O18  1  0.76429600  0.55795700  0.41445100  1
  O  O19  1  0.94223700  0.73597900  0.08620400  1
  O  O20  1  0.50206800  0.30890500  0.11757800  1
  O  O21  1  0.30890500  0.11757800  0.50206800  1
  O  O22  1  0.38140800  0.19081800  0.99695600  1
  O  O23  1  0.55795700  0.41445100  0.76429600  1
  O  O24  1  0.43984700  0.58580600  0.23465300  1
  O  O25  1  0.69100700  0.87901700  0.50072100  1
  O  O26  1  0.61855800  0.80610500  0.00696300  1
  O  O27  1  0.50072100  0.69100700  0.87901700  1
  O  O28  1  0.05641800  0.26593000  0.91335000  1
  O  O29  1  0.23465300  0.43984700  0.58580600  1
  O  O30  1  0.41445100  0.76429600  0.55795700  1
  O  O31  1  0.11757800  0.50206800  0.30890500  1
  O  O32  1  0.00696300  0.61855800  0.80610500  1
  O  O33  1  0.26593000  0.91335000  0.05641800  1
  O  O34  1  0.19081800  0.99695600  0.38140800  1
  O  O35  1  0.08620400  0.94223700  0.73597900  1
