# generated using pymatgen
data_Sr3LaBr9
_symmetry_space_group_name_H-M   'P 1'
_cell_length_a   7.26976600
_cell_length_b   7.81068800
_cell_length_c   30.66120705
_cell_angle_alpha   88.08562528
_cell_angle_beta   90.00000000
_cell_angle_gamma   90.00000000
_symmetry_Int_Tables_number   1
_chemical_formula_structural   Sr3LaBr9
_chemical_formula_sum   'Sr12 La4 Br36'
_cell_volume   1740.02908616
_cell_formula_units_Z   4
loop_
 _symmetry_equiv_pos_site_id
 _symmetry_equiv_pos_as_xyz
  1  'x, y, z'
loop_
 _atom_site_type_symbol
 _atom_site_label
 _atom_site_symmetry_multiplicity
 _atom_site_fract_x
 _atom_site_fract_y
 _atom_site_fract_z
 _atom_site_occupancy
  Sr  Sr0  1  0.96983000  0.67214900  0.93298800  1
  Sr  Sr1  1  0.00347800  0.70362400  0.69217300  1
  Sr  Sr2  1  0.03017000  0.67214900  0.43298800  1
  Sr  Sr3  1  0.99652200  0.70362400  0.19217300  1
  Sr  Sr4  1  0.98790900  0.31693200  0.56876000  1
  Sr  Sr5  1  0.98485400  0.28306200  0.80923200  1
  Sr  Sr6  1  0.01209100  0.31693200  0.06876000  1
  Sr  Sr7  1  0.01514600  0.28306200  0.30923200  1
  Sr  Sr8  1  0.52073800  0.21451100  0.69209600  1
  Sr  Sr9  1  0.51497000  0.17736200  0.93171500  1
  Sr  Sr10  1  0.47926200  0.21451100  0.19209600  1
  Sr  Sr11  1  0.48503000  0.17736200  0.43171500  1
  La  La12  1  0.52073500  0.79568300  0.80700100  1
  La  La13  1  0.54476700  0.82013700  0.56743700  1
  La  La14  1  0.47926500  0.79568300  0.30700100  1
  La  La15  1  0.45523300  0.82013700  0.06743700  1
  Br  Br16  1  0.80038600  0.98419400  0.86964600  1
  Br  Br17  1  0.82111700  0.99009300  0.75135100  1
  Br  Br18  1  0.81781100  0.99805300  0.62884000  1
  Br  Br19  1  0.19961400  0.98419400  0.36964600  1
  Br  Br20  1  0.17888300  0.99009300  0.25135100  1
  Br  Br21  1  0.70970200  0.89167100  0.99148500  1
  Br  Br22  1  0.18218900  0.99805300  0.12884000  1
  Br  Br23  1  0.32619000  0.84954200  0.89454600  1
  Br  Br24  1  0.29029800  0.89167100  0.49148500  1
  Br  Br25  1  0.39336200  0.84375200  0.70618200  1
  Br  Br26  1  0.67381000  0.84954200  0.39454600  1
  Br  Br27  1  0.60663800  0.84375200  0.20618200  1
  Br  Br28  1  0.15174300  0.64286900  0.79554500  1
  Br  Br29  1  0.20019500  0.64600400  0.59992400  1
  Br  Br30  1  0.84825700  0.64286900  0.29554500  1
  Br  Br31  1  0.79980500  0.64600400  0.09992400  1
  Br  Br32  1  0.75345200  0.58409200  0.51027000  1
  Br  Br33  1  0.68308600  0.50234000  0.86803900  1
  Br  Br34  1  0.69499600  0.50610500  0.75083100  1
  Br  Br35  1  0.70195900  0.51733900  0.62877200  1
  Br  Br36  1  0.24654800  0.58409200  0.01027000  1
  Br  Br37  1  0.31691400  0.50234000  0.36803900  1
  Br  Br38  1  0.30500400  0.50610500  0.25083100  1
  Br  Br39  1  0.29804100  0.51733900  0.12877200  1
  Br  Br40  1  0.76203300  0.39507400  0.98946000  1
  Br  Br41  1  0.23796700  0.39507400  0.48946000  1
  Br  Br42  1  0.15676600  0.34485500  0.90019000  1
  Br  Br43  1  0.11942500  0.32902800  0.69917000  1
  Br  Br44  1  0.84323400  0.34485500  0.40019000  1
  Br  Br45  1  0.88057500  0.32902800  0.19917000  1
  Br  Br46  1  0.38700100  0.15400400  0.79704800  1
  Br  Br47  1  0.35027200  0.13258700  0.59930700  1
  Br  Br48  1  0.61299900  0.15400400  0.29704800  1
  Br  Br49  1  0.64972800  0.13258700  0.09930700  1
  Br  Br50  1  0.75829000  0.07420300  0.50980500  1
  Br  Br51  1  0.24171000  0.07420300  0.00980500  1
