# generated using pymatgen
data_Li4V3Sn3(TeO8)2
_symmetry_space_group_name_H-M   'P 1'
_cell_length_a   6.24183894
_cell_length_b   20.30707134
_cell_length_c   6.28671272
_cell_angle_alpha   89.93808631
_cell_angle_beta   60.27243997
_cell_angle_gamma   89.98513243
_symmetry_Int_Tables_number   1
_chemical_formula_structural   Li4V3Sn3(TeO8)2
_chemical_formula_sum   'Li8 V6 Sn6 Te4 O32'
_cell_volume   691.98957617
_cell_formula_units_Z   2
loop_
 _symmetry_equiv_pos_site_id
 _symmetry_equiv_pos_as_xyz
  1  'x, y, z'
loop_
 _atom_site_type_symbol
 _atom_site_label
 _atom_site_symmetry_multiplicity
 _atom_site_fract_x
 _atom_site_fract_y
 _atom_site_fract_z
 _atom_site_occupancy
  Li  Li0  1  0.33148400  0.45197100  0.33737300  1
  Li  Li1  1  0.33145900  0.95197300  0.33737900  1
  Li  Li2  1  0.00685400  0.49343800  0.98618600  1
  Li  Li3  1  0.00683900  0.99343400  0.98619100  1
  Li  Li4  1  0.00398400  0.24928200  0.99184400  1
  Li  Li5  1  0.00399400  0.74927600  0.99183700  1
  Li  Li6  1  0.66710100  0.19900400  0.66585900  1
  Li  Li7  1  0.66710900  0.69900300  0.66584200  1
  V  V8  1  0.16775700  0.60642100  0.66477300  1
  V  V9  1  0.16780000  0.10642800  0.66477500  1
  V  V10  1  0.81647300  0.35681700  0.83540400  1
  V  V11  1  0.81647200  0.85680200  0.83538800  1
  V  V12  1  0.34778500  0.35672300  0.83534100  1
  V  V13  1  0.34782300  0.85672700  0.83536200  1
  Sn  Sn14  1  0.83272700  0.35745100  0.33414200  1
  Sn  Sn15  1  0.83273700  0.85744900  0.33411200  1
  Sn  Sn16  1  0.66527800  0.10715100  0.16588500  1
  Sn  Sn17  1  0.66529300  0.60715200  0.16587400  1
  Sn  Sn18  1  0.16897900  0.10711000  0.16580000  1
  Sn  Sn19  1  0.16897200  0.60711900  0.16578600  1
  Te  Te20  1  0.32111300  0.24938700  0.35662700  1
  Te  Te21  1  0.32117100  0.74938300  0.35666800  1
  Te  Te22  1  0.66231100  0.49030300  0.67540500  1
  Te  Te23  1  0.66230400  0.99029900  0.67540800  1
  O  O24  1  0.48887800  0.16545000  0.02201100  1
  O  O25  1  0.48891300  0.66544300  0.02198300  1
  O  O26  1  0.33489100  0.05217100  0.33036200  1
  O  O27  1  0.33489800  0.55216700  0.33034900  1
  O  O28  1  0.00003300  0.15903500  0.00001000  1
  O  O29  1  0.00002500  0.65903000  0.99998500  1
  O  O30  1  0.00067700  0.40230800  0.99674300  1
  O  O31  1  0.00081800  0.90230200  0.99670200  1
  O  O32  1  0.85173700  0.04865900  0.29682400  1
  O  O33  1  0.85174800  0.54866600  0.29680900  1
  O  O34  1  0.15956000  0.29922500  0.67894900  1
  O  O35  1  0.15969200  0.79921900  0.67894500  1
  O  O36  1  0.67376400  0.30279500  0.65504500  1
  O  O37  1  0.67356700  0.80278500  0.65502400  1
  O  O38  1  0.51971800  0.42441900  0.96288400  1
  O  O39  1  0.51955700  0.92441300  0.96288500  1
  O  O40  1  0.67348000  0.29971400  0.16775400  1
  O  O41  1  0.67344200  0.79969300  0.16778700  1
  O  O42  1  0.15824800  0.29953700  0.16861400  1
  O  O43  1  0.15827500  0.79954000  0.16854600  1
  O  O44  1  0.47912200  0.16480300  0.48991700  1
  O  O45  1  0.47911000  0.66481800  0.48987400  1
  O  O46  1  0.03142400  0.16499100  0.48956800  1
  O  O47  1  0.03139200  0.66498000  0.48958800  1
  O  O48  1  0.95866400  0.42200300  0.52068800  1
  O  O49  1  0.95863000  0.92201100  0.52066400  1
  O  O50  1  0.52104500  0.42210700  0.52039100  1
  O  O51  1  0.52100200  0.92209300  0.52041500  1
  O  O52  1  0.85527400  0.05090300  0.84276600  1
  O  O53  1  0.85529000  0.55089600  0.84277800  1
  O  O54  1  0.30193400  0.05078000  0.84295200  1
  O  O55  1  0.30197800  0.55078200  0.84292400  1
