# generated using pymatgen
data_Y3Ho
_symmetry_space_group_name_H-M   'P 1'
_cell_length_a   7.23655348
_cell_length_b   7.23655348
_cell_length_c   5.75547100
_cell_angle_alpha   90.00000000
_cell_angle_beta   90.00000000
_cell_angle_gamma   119.99999525
_symmetry_Int_Tables_number   1
_chemical_formula_structural   Y3Ho
_chemical_formula_sum   'Y6 Ho2'
_cell_volume   261.02077484
_cell_formula_units_Z   2
loop_
 _symmetry_equiv_pos_site_id
 _symmetry_equiv_pos_as_xyz
  1  'x, y, z'
loop_
 _atom_site_type_symbol
 _atom_site_label
 _atom_site_symmetry_multiplicity
 _atom_site_fract_x
 _atom_site_fract_y
 _atom_site_fract_z
 _atom_site_occupancy
  Y  Y0  1  0.16738700  0.33477300  0.25000000  1
  Y  Y1  1  0.66522700  0.83261300  0.25000000  1
  Y  Y2  1  0.16738700  0.83261300  0.25000000  1
  Y  Y3  1  0.83261300  0.66522700  0.75000000  1
  Y  Y4  1  0.33477300  0.16738700  0.75000000  1
  Y  Y5  1  0.83261300  0.16738700  0.75000000  1
  Ho  Ho6  1  0.33333300  0.66666700  0.75000000  1
  Ho  Ho7  1  0.66666700  0.33333300  0.25000000  1
