# generated using pymatgen
data_Mn3Ni2Te3O16
_symmetry_space_group_name_H-M   'P 1'
_cell_length_a   6.13562448
_cell_length_b   6.13562448
_cell_length_c   9.13999868
_cell_angle_alpha   88.93934775
_cell_angle_beta   88.93934775
_cell_angle_gamma   59.06303204
_symmetry_Int_Tables_number   1
_chemical_formula_structural   Mn3Ni2Te3O16
_chemical_formula_sum   'Mn3 Ni2 Te3 O16'
_cell_volume   295.06499041
_cell_formula_units_Z   1
loop_
 _symmetry_equiv_pos_site_id
 _symmetry_equiv_pos_as_xyz
  1  'x, y, z'
loop_
 _atom_site_type_symbol
 _atom_site_label
 _atom_site_symmetry_multiplicity
 _atom_site_fract_x
 _atom_site_fract_y
 _atom_site_fract_z
 _atom_site_occupancy
  Mn  Mn0  1  0.83232500  0.83232500  0.78486200  1
  Mn  Mn1  1  0.16521500  0.66457900  0.28967100  1
  Mn  Mn2  1  0.66457900  0.16521500  0.28967100  1
  Ni  Ni3  1  0.67436400  0.67436400  0.49089400  1
  Ni  Ni4  1  0.34509600  0.34509600  0.02086900  1
  Te  Te5  1  0.33393100  0.83181200  0.78726400  1
  Te  Te6  1  0.83181200  0.33393100  0.78726400  1
  Te  Te7  1  0.16646200  0.16646200  0.28769100  1
  O  O8  1  0.32289700  0.84446000  0.39730300  1
  O  O9  1  0.51882100  0.51882100  0.66193000  1
  O  O10  1  0.64541600  0.64541600  0.91321200  1
  O  O11  1  0.01792800  0.01792800  0.66865500  1
  O  O12  1  0.00786200  0.00786200  0.17908700  1
  O  O13  1  0.84446000  0.32289700  0.39730300  1
  O  O14  1  0.50958500  0.95892000  0.67237900  1
  O  O15  1  0.95892000  0.50958500  0.67237900  1
  O  O16  1  0.15890200  0.15890200  0.90010700  1
  O  O17  1  0.84310700  0.84310700  0.39247300  1
  O  O18  1  0.04043700  0.47947100  0.16474800  1
  O  O19  1  0.47947100  0.04043700  0.16474800  1
  O  O20  1  0.32261500  0.32261500  0.40387600  1
  O  O21  1  0.16816500  0.68170000  0.89014100  1
  O  O22  1  0.47618900  0.47618900  0.17844600  1
  O  O23  1  0.68170000  0.16816500  0.89014100  1
