# generated using pymatgen
data_Li7Fe3Co(PO4)6
_symmetry_space_group_name_H-M   'P 1'
_cell_length_a   8.79351223
_cell_length_b   8.79351223
_cell_length_c   8.79351178
_cell_angle_alpha   60.37681472
_cell_angle_beta   60.37681472
_cell_angle_gamma   60.37681090
_symmetry_Int_Tables_number   1
_chemical_formula_structural   Li7Fe3Co(PO4)6
_chemical_formula_sum   'Li7 Fe3 Co1 P6 O24'
_cell_volume   484.90627324
_cell_formula_units_Z   1
loop_
 _symmetry_equiv_pos_site_id
 _symmetry_equiv_pos_as_xyz
  1  'x, y, z'
loop_
 _atom_site_type_symbol
 _atom_site_label
 _atom_site_symmetry_multiplicity
 _atom_site_fract_x
 _atom_site_fract_y
 _atom_site_fract_z
 _atom_site_occupancy
  Li  Li0  1  0.77016600  0.27664900  0.11046900  1
  Li  Li1  1  0.11046900  0.77016600  0.27664900  1
  Li  Li2  1  0.65861500  0.84564100  0.19897000  1
  Li  Li3  1  0.27664900  0.11046900  0.77016600  1
  Li  Li4  1  0.84564100  0.19897000  0.65861500  1
  Li  Li5  1  0.47964400  0.47964400  0.47964400  1
  Li  Li6  1  0.19897000  0.65861500  0.84564100  1
  Fe  Fe7  1  0.35054300  0.35054300  0.35054300  1
  Fe  Fe8  1  0.14735500  0.14735500  0.14735500  1
  Fe  Fe9  1  0.64475000  0.64475000  0.64475000  1
  Co  Co10  1  0.84787700  0.84787700  0.84787700  1
  P  P11  1  0.45865200  0.74688700  0.04561300  1
  P  P12  1  0.25132500  0.95385800  0.54127200  1
  P  P13  1  0.04561300  0.45865200  0.74688700  1
  P  P14  1  0.95385800  0.54127200  0.25132500  1
  P  P15  1  0.74688700  0.04561300  0.45865200  1
  P  P16  1  0.54127200  0.25132500  0.95385800  1
  O  O17  1  0.50250800  0.68657700  0.88766900  1
  O  O18  1  0.28457200  0.92871900  0.03660100  1
  O  O19  1  0.39788600  0.60284300  0.24192000  1
  O  O20  1  0.68657700  0.88766900  0.50250800  1
  O  O21  1  0.24657600  0.98245000  0.35569200  1
  O  O22  1  0.06568700  0.96394300  0.70194600  1
  O  O23  1  0.88766900  0.50250800  0.68657700  1
  O  O24  1  0.62380800  0.77274100  0.03453000  1
  O  O25  1  0.39073700  0.75524400  0.60254000  1
  O  O26  1  0.03660100  0.28457200  0.92871900  1
  O  O27  1  0.03453000  0.62380800  0.77274100  1
  O  O28  1  0.24192000  0.39788600  0.60284300  1
  O  O29  1  0.75524400  0.60254000  0.39073700  1
  O  O30  1  0.98245000  0.35569200  0.24657600  1
  O  O31  1  0.96394300  0.70194600  0.06568700  1
  O  O32  1  0.60284300  0.24192000  0.39788600  1
  O  O33  1  0.35569200  0.24657600  0.98245000  1
  O  O34  1  0.10710000  0.51788900  0.30990400  1
  O  O35  1  0.92871900  0.03660100  0.28457200  1
  O  O36  1  0.77274100  0.03453000  0.62380800  1
  O  O37  1  0.30990400  0.10710000  0.51788900  1
  O  O38  1  0.60254000  0.39073700  0.75524400  1
  O  O39  1  0.70194600  0.06568700  0.96394300  1
  O  O40  1  0.51788900  0.30990400  0.10710000  1
