# generated using pymatgen
data_Hf2N2O
_symmetry_space_group_name_H-M   'P 1'
_cell_length_a   6.42990742
_cell_length_b   6.42990742
_cell_length_c   15.73057200
_cell_angle_alpha   90.00000000
_cell_angle_beta   90.00000000
_cell_angle_gamma   119.99999401
_symmetry_Int_Tables_number   1
_chemical_formula_structural   Hf2N2O
_chemical_formula_sum   'Hf16 N16 O8'
_cell_volume   563.22848666
_cell_formula_units_Z   8
loop_
 _symmetry_equiv_pos_site_id
 _symmetry_equiv_pos_as_xyz
  1  'x, y, z'
loop_
 _atom_site_type_symbol
 _atom_site_label
 _atom_site_symmetry_multiplicity
 _atom_site_fract_x
 _atom_site_fract_y
 _atom_site_fract_z
 _atom_site_occupancy
  Hf  Hf0  1  0.66666700  0.33333300  0.95539500  1
  Hf  Hf1  1  0.66666700  0.33333300  0.33175600  1
  Hf  Hf2  1  0.50000000  0.00000000  0.50000000  1
  Hf  Hf3  1  0.83276900  0.16723100  0.16551400  1
  Hf  Hf4  1  0.66553800  0.83276900  0.83448600  1
  Hf  Hf5  1  0.16723100  0.33446200  0.83448600  1
  Hf  Hf6  1  0.00000000  0.00000000  0.62759500  1
  Hf  Hf7  1  0.50000000  0.50000000  0.50000000  1
  Hf  Hf8  1  0.00000000  0.00000000  0.37240500  1
  Hf  Hf9  1  0.00000000  0.00000000  0.00000000  1
  Hf  Hf10  1  0.33446200  0.16723100  0.16551400  1
  Hf  Hf11  1  0.83276900  0.66553800  0.16551400  1
  Hf  Hf12  1  0.16723100  0.83276900  0.83448600  1
  Hf  Hf13  1  0.00000000  0.50000000  0.50000000  1
  Hf  Hf14  1  0.33333300  0.66666700  0.66824400  1
  Hf  Hf15  1  0.33333300  0.66666700  0.04460500  1
  N  N16  1  0.66666700  0.33333300  0.08709500  1
  N  N17  1  0.82277400  0.17722600  0.41708200  1
  N  N18  1  0.84417000  0.15583000  0.91308600  1
  N  N19  1  0.64554800  0.82277400  0.58291800  1
  N  N20  1  0.17722600  0.35445200  0.58291800  1
  N  N21  1  0.15583000  0.31166000  0.08691400  1
  N  N22  1  0.68834000  0.84417000  0.08691400  1
  N  N23  1  0.00000000  0.00000000  0.75952300  1
  N  N24  1  0.00000000  0.00000000  0.24047700  1
  N  N25  1  0.84417000  0.68834000  0.91308600  1
  N  N26  1  0.31166000  0.15583000  0.91308600  1
  N  N27  1  0.82277400  0.64554800  0.41708200  1
  N  N28  1  0.35445200  0.17722600  0.41708200  1
  N  N29  1  0.15583000  0.84417000  0.08691400  1
  N  N30  1  0.17722600  0.82277400  0.58291800  1
  N  N31  1  0.33333300  0.66666700  0.91290500  1
  O  O32  1  0.52654500  0.47345500  0.24153700  1
  O  O33  1  0.66666700  0.33333300  0.56049800  1
  O  O34  1  0.52654500  0.05309100  0.24153700  1
  O  O35  1  0.94690900  0.47345500  0.24153700  1
  O  O36  1  0.05309100  0.52654500  0.75846300  1
  O  O37  1  0.47345500  0.94690900  0.75846300  1
  O  O38  1  0.33333300  0.66666700  0.43950200  1
  O  O39  1  0.47345500  0.52654500  0.75846300  1
