# generated using pymatgen
data_Li6V3Sb3O16
_symmetry_space_group_name_H-M   'P 1'
_cell_length_a   6.10156291
_cell_length_b   6.03742445
_cell_length_c   10.05670900
_cell_angle_alpha   90.00026979
_cell_angle_beta   89.98573017
_cell_angle_gamma   119.65995229
_symmetry_Int_Tables_number   1
_chemical_formula_structural   Li6V3Sb3O16
_chemical_formula_sum   'Li6 V3 Sb3 O16'
_cell_volume   321.92689073
_cell_formula_units_Z   1
loop_
 _symmetry_equiv_pos_site_id
 _symmetry_equiv_pos_as_xyz
  1  'x, y, z'
loop_
 _atom_site_type_symbol
 _atom_site_label
 _atom_site_symmetry_multiplicity
 _atom_site_fract_x
 _atom_site_fract_y
 _atom_site_fract_z
 _atom_site_occupancy
  Li  Li0  1  0.33029800  0.66517600  0.50628300  1
  Li  Li1  1  0.33611100  0.66809200  0.87831000  1
  Li  Li2  1  0.97739400  0.98872400  0.99588800  1
  Li  Li3  1  0.98885800  0.99444100  0.50512700  1
  Li  Li4  1  0.67466600  0.33733400  0.99923000  1
  Li  Li5  1  0.65988000  0.32995800  0.38978600  1
  V  V6  1  0.83570100  0.66161100  0.71587000  1
  V  V7  1  0.66598000  0.83299300  0.21679000  1
  V  V8  1  0.83317400  0.16963700  0.71419600  1
  Sb  Sb9  1  0.16944900  0.83306900  0.21555200  1
  Sb  Sb10  1  0.16945500  0.33639500  0.21555800  1
  Sb  Sb11  1  0.33869500  0.16960000  0.71583200  1
  O  O12  1  0.14893900  0.84262200  0.60929500  1
  O  O13  1  0.02600800  0.51300600  0.32911900  1
  O  O14  1  0.33282700  0.66641500  0.10198100  1
  O  O15  1  0.00153500  0.00076800  0.32253400  1
  O  O16  1  0.00306200  0.00142700  0.81768900  1
  O  O17  1  0.14897800  0.30676800  0.60937600  1
  O  O18  1  0.48575600  0.97068000  0.31980100  1
  O  O19  1  0.48574700  0.51508600  0.31980500  1
  O  O20  1  0.30591900  0.15297100  0.10173600  1
  O  O21  1  0.70368900  0.85293500  0.61938700  1
  O  O22  1  0.52399700  0.49247400  0.82226800  1
  O  O23  1  0.52416300  0.03212800  0.82240000  1
  O  O24  1  0.66681500  0.33346400  0.60432000  1
  O  O25  1  0.84792200  0.69454500  0.11283700  1
  O  O26  1  0.96705700  0.48458600  0.81403800  1
  O  O27  1  0.84792300  0.15339300  0.11283300  1
