# generated using pymatgen
data_Mn2P2H7NO10
_symmetry_space_group_name_H-M   'P 1'
_cell_length_a   6.95910100
_cell_length_b   7.93384200
_cell_length_c   16.12613400
_cell_angle_alpha   90.00000000
_cell_angle_beta   90.00000000
_cell_angle_gamma   90.00000000
_symmetry_Int_Tables_number   1
_chemical_formula_structural   Mn2P2H7NO10
_chemical_formula_sum   'Mn8 P8 H28 N4 O40'
_cell_volume   890.36268658
_cell_formula_units_Z   4
loop_
 _symmetry_equiv_pos_site_id
 _symmetry_equiv_pos_as_xyz
  1  'x, y, z'
loop_
 _atom_site_type_symbol
 _atom_site_label
 _atom_site_symmetry_multiplicity
 _atom_site_fract_x
 _atom_site_fract_y
 _atom_site_fract_z
 _atom_site_occupancy
  Mn  Mn0  1  0.11795600  0.24632500  0.50105600  1
  Mn  Mn1  1  0.13828400  0.42775800  0.04359100  1
  Mn  Mn2  1  0.36171600  0.57224200  0.54359100  1
  Mn  Mn3  1  0.38204400  0.75367500  0.00105600  1
  Mn  Mn4  1  0.61795600  0.25367500  0.49894400  1
  Mn  Mn5  1  0.63828400  0.07224200  0.95640900  1
  Mn  Mn6  1  0.86171600  0.92775800  0.45640900  1
  Mn  Mn7  1  0.88204400  0.74632500  0.99894400  1
  P  P8  1  0.12999800  0.10148100  0.92729000  1
  P  P9  1  0.13016600  0.73543200  0.15881900  1
  P  P10  1  0.36983400  0.26456800  0.65881900  1
  P  P11  1  0.37000200  0.89851900  0.42729000  1
  P  P12  1  0.62999800  0.39851900  0.07271000  1
  P  P13  1  0.63016600  0.76456800  0.84118100  1
  P  P14  1  0.86983400  0.23543200  0.34118100  1
  P  P15  1  0.87000200  0.60148100  0.57271000  1
  H  H16  1  0.02618900  0.60834700  0.83058000  1
  H  H17  1  0.06318500  0.22009000  0.16984700  1
  H  H18  1  0.13068600  0.52549800  0.74469400  1
  H  H19  1  0.16017000  0.43503100  0.84017000  1
  H  H20  1  0.23300300  0.12922900  0.79709000  1
  H  H21  1  0.20177100  0.10792000  0.10777400  1
  H  H22  1  0.26905700  0.61671400  0.82122700  1
  H  H23  1  0.23094300  0.38328600  0.32122700  1
  H  H24  1  0.29822900  0.89208000  0.60777400  1
  H  H25  1  0.26699700  0.87077100  0.29709000  1
  H  H26  1  0.33983000  0.56496900  0.34017000  1
  H  H27  1  0.36931400  0.47450200  0.24469400  1
  H  H28  1  0.43681500  0.77991000  0.66984700  1
  H  H29  1  0.47381100  0.39165300  0.33058000  1
  H  H30  1  0.52618900  0.89165300  0.16942000  1
  H  H31  1  0.56318500  0.27991000  0.83015300  1
  H  H32  1  0.63068600  0.97450200  0.25530600  1
  H  H33  1  0.66017000  0.06496900  0.15983000  1
  H  H34  1  0.73300300  0.37077100  0.20291000  1
  H  H35  1  0.70177100  0.39208000  0.89222600  1
  H  H36  1  0.76905700  0.88328600  0.17877300  1
  H  H37  1  0.73094300  0.11671400  0.67877300  1
  H  H38  1  0.79822900  0.60792000  0.39222600  1
  H  H39  1  0.76699700  0.62922900  0.70291000  1
  H  H40  1  0.83983000  0.93503100  0.65983000  1
  H  H41  1  0.86931400  0.02549800  0.75530600  1
  H  H42  1  0.93681500  0.72009000  0.33015300  1
  H  H43  1  0.97381100  0.10834700  0.66942000  1
  N  N44  1  0.14642800  0.54621300  0.80737600  1
  N  N45  1  0.35357200  0.45378700  0.30737600  1
  N  N46  1  0.64642800  0.95378700  0.19262400  1
  N  N47  1  0.85357200  0.04621300  0.69262400  1
  O  O48  1  0.04954500  0.51670100  0.53680000  1
  O  O49  1  0.05433600  0.30168400  0.38504200  1
  O  O50  1  0.13480300  0.21535400  0.11655000  1
  O  O51  1  0.12009200  0.07518800  0.82999100  1
  O  O52  1  0.11715600  0.77574000  0.25136000  1
  O  O53  1  0.12844500  0.29656300  0.94090600  1
  O  O54  1  0.13338900  0.64630800  0.98530700  1
  O  O55  1  0.14510300  0.54046700  0.14870500  1
  O  O56  1  0.18948300  0.17931700  0.61793300  1
  O  O57  1  0.18514900  0.97596100  0.46334200  1
  O  O58  1  0.31485100  0.02403900  0.96334200  1
  O  O59  1  0.31051700  0.82068300  0.11793300  1
  O  O60  1  0.35489700  0.45953300  0.64870500  1
  O  O61  1  0.36661100  0.35369200  0.48530700  1
  O  O62  1  0.37155500  0.70343700  0.44090600  1
  O  O63  1  0.38284400  0.22426000  0.75136000  1
  O  O64  1  0.37990800  0.92481200  0.32999100  1
  O  O65  1  0.36519700  0.78464600  0.61655000  1
  O  O66  1  0.44566400  0.69831600  0.88504200  1
  O  O67  1  0.45045500  0.48329900  0.03680000  1
  O  O68  1  0.54954500  0.98329900  0.46320000  1
  O  O69  1  0.55433600  0.19831600  0.61495800  1
  O  O70  1  0.63480300  0.28464600  0.88345000  1
  O  O71  1  0.62009200  0.42481200  0.17000900  1
  O  O72  1  0.61715600  0.72426000  0.74864000  1
  O  O73  1  0.62844500  0.20343700  0.05909400  1
  O  O74  1  0.63338900  0.85369200  0.01469300  1
  O  O75  1  0.64510300  0.95953300  0.85129500  1
  O  O76  1  0.68948300  0.32068300  0.38206700  1
  O  O77  1  0.68514900  0.52403900  0.53665800  1
  O  O78  1  0.81485100  0.47596100  0.03665800  1
  O  O79  1  0.81051700  0.67931700  0.88206700  1
  O  O80  1  0.85489700  0.04046700  0.35129500  1
  O  O81  1  0.86661100  0.14630800  0.51469300  1
  O  O82  1  0.87155500  0.79656300  0.55909400  1
  O  O83  1  0.88284400  0.27574000  0.24864000  1
  O  O84  1  0.87990800  0.57518800  0.67000900  1
  O  O85  1  0.86519700  0.71535400  0.38345000  1
  O  O86  1  0.94566400  0.80168400  0.11495800  1
  O  O87  1  0.95045500  0.01670100  0.96320000  1
