# generated using pymatgen
data_MnV(P2O7)2
_symmetry_space_group_name_H-M   'P 1'
_cell_length_a   4.83687743
_cell_length_b   8.16856513
_cell_length_c   7.03519787
_cell_angle_alpha   92.61789951
_cell_angle_beta   106.54973390
_cell_angle_gamma   88.63253215
_symmetry_Int_Tables_number   1
_chemical_formula_structural   MnV(P2O7)2
_chemical_formula_sum   'Mn1 V1 P4 O14'
_cell_volume   266.15271836
_cell_formula_units_Z   1
loop_
 _symmetry_equiv_pos_site_id
 _symmetry_equiv_pos_as_xyz
  1  'x, y, z'
loop_
 _atom_site_type_symbol
 _atom_site_label
 _atom_site_symmetry_multiplicity
 _atom_site_fract_x
 _atom_site_fract_y
 _atom_site_fract_z
 _atom_site_occupancy
  Mn  Mn0  1  0.78603200  0.00398300  0.26825000  1
  V  V1  1  0.21000600  0.50447300  0.72330400  1
  P  P2  1  0.39034900  0.18235000  0.50573600  1
  P  P3  1  0.24276300  0.77090000  0.10969800  1
  P  P4  1  0.77165400  0.27752400  0.89370500  1
  P  P5  1  0.60795300  0.69232500  0.49770400  1
  O  O6  1  0.02559300  0.33689800  0.82231000  1
  O  O7  1  0.16558500  0.65833400  0.91826200  1
  O  O8  1  0.15281900  0.05771300  0.46403100  1
  O  O9  1  0.26987000  0.36032300  0.52404500  1
  O  O10  1  0.39924600  0.66938000  0.62593100  1
  O  O11  1  0.56436700  0.42795100  0.89361100  1
  O  O12  1  0.58965000  0.14944400  0.72716800  1
  O  O13  1  0.42659100  0.64500800  0.27141000  1
  O  O14  1  0.42391300  0.91590300  0.09206900  1
  O  O15  1  0.57796100  0.18256500  0.36585100  1
  O  O16  1  0.71935400  0.86228200  0.50998000  1
  O  O17  1  0.84690600  0.55827600  0.54748100  1
  O  O18  1  0.86828500  0.19061500  0.08261800  1
  O  O19  1  0.96640500  0.81731300  0.16143900  1
