# generated using pymatgen
data_Cr3Fe2Sb3O16
_symmetry_space_group_name_H-M   'P 1'
_cell_length_a   6.05749379
_cell_length_b   6.05749379
_cell_length_c   9.16643331
_cell_angle_alpha   89.81866406
_cell_angle_beta   89.81866406
_cell_angle_gamma   60.16035723
_symmetry_Int_Tables_number   1
_chemical_formula_structural   Cr3Fe2Sb3O16
_chemical_formula_sum   'Cr3 Fe2 Sb3 O16'
_cell_volume   291.75181152
_cell_formula_units_Z   1
loop_
 _symmetry_equiv_pos_site_id
 _symmetry_equiv_pos_as_xyz
  1  'x, y, z'
loop_
 _atom_site_type_symbol
 _atom_site_label
 _atom_site_symmetry_multiplicity
 _atom_site_fract_x
 _atom_site_fract_y
 _atom_site_fract_z
 _atom_site_occupancy
  Cr  Cr0  1  0.16781800  0.66491800  0.21006500  1
  Cr  Cr1  1  0.66491800  0.16781800  0.21006500  1
  Cr  Cr2  1  0.82964200  0.82964200  0.71017100  1
  Fe  Fe3  1  0.34275300  0.34275300  0.48955400  1
  Fe  Fe4  1  0.67355800  0.67355800  0.99590300  1
  Sb  Sb5  1  0.16737900  0.16737900  0.21073300  1
  Sb  Sb6  1  0.33369000  0.82964000  0.71233900  1
  Sb  Sb7  1  0.82964000  0.33369000  0.71233900  1
  O  O8  1  0.16990600  0.66902000  0.60126600  1
  O  O9  1  0.47416700  0.47416700  0.32524700  1
  O  O10  1  0.33245900  0.33245900  0.09816500  1
  O  O11  1  0.99959700  0.99959700  0.31504200  1
  O  O12  1  0.99787200  0.99787200  0.82090900  1
  O  O13  1  0.66902000  0.16990600  0.60126600  1
  O  O14  1  0.04935100  0.48232100  0.33731900  1
  O  O15  1  0.48232100  0.04935100  0.33731900  1
  O  O16  1  0.83504700  0.83504700  0.11260100  1
  O  O17  1  0.16501300  0.16501300  0.59969300  1
  O  O18  1  0.51894900  0.95368300  0.83686300  1
  O  O19  1  0.95368300  0.51894900  0.83686300  1
  O  O20  1  0.66423700  0.66423700  0.59374400  1
  O  O21  1  0.33114900  0.82880900  0.10321000  1
  O  O22  1  0.51691100  0.51691100  0.84154600  1
  O  O23  1  0.82880900  0.33114900  0.10321000  1
