# generated using pymatgen
data_NaMnPCO7
_symmetry_space_group_name_H-M   'P 1'
_cell_length_a   8.13129600
_cell_length_b   8.14556043
_cell_length_c   9.16097686
_cell_angle_alpha   91.36452688
_cell_angle_beta   91.48736560
_cell_angle_gamma   100.66520020
_symmetry_Int_Tables_number   1
_chemical_formula_structural   NaMnPCO7
_chemical_formula_sum   'Na4 Mn4 P4 C4 O28'
_cell_volume   595.83225893
_cell_formula_units_Z   4
loop_
 _symmetry_equiv_pos_site_id
 _symmetry_equiv_pos_as_xyz
  1  'x, y, z'
loop_
 _atom_site_type_symbol
 _atom_site_label
 _atom_site_symmetry_multiplicity
 _atom_site_fract_x
 _atom_site_fract_y
 _atom_site_fract_z
 _atom_site_occupancy
  Na  Na0  1  0.14609000  0.60085100  0.75451300  1
  Na  Na1  1  0.85037700  0.89603200  0.75498800  1
  Na  Na2  1  0.14962300  0.10396800  0.24501200  1
  Na  Na3  1  0.85391000  0.39914900  0.24548700  1
  Mn  Mn4  1  0.27372400  0.02193900  0.65959500  1
  Mn  Mn5  1  0.76076800  0.51232000  0.65542800  1
  Mn  Mn6  1  0.23923200  0.48768000  0.34457200  1
  Mn  Mn7  1  0.72627600  0.97806100  0.34040500  1
  P  P8  1  0.48484600  0.73745800  0.56678500  1
  P  P9  1  0.98295100  0.23129600  0.56597000  1
  P  P10  1  0.51515400  0.26254200  0.43321500  1
  P  P11  1  0.01704900  0.76870400  0.43403000  1
  C  C12  1  0.73700100  0.49197200  0.91842700  1
  C  C13  1  0.24011500  0.98613400  0.92052400  1
  C  C14  1  0.26299900  0.50802800  0.08157300  1
  C  C15  1  0.75988500  0.01386600  0.07947600  1
  O  O16  1  0.27631300  0.51870500  0.94878000  1
  O  O17  1  0.77777400  0.03413600  0.94802100  1
  O  O18  1  0.35177700  0.09951100  0.86015900  1
  O  O19  1  0.85169300  0.60253800  0.85258900  1
  O  O20  1  0.64132600  0.39649400  0.81901700  1
  O  O21  1  0.14447800  0.89246400  0.81574800  1
  O  O22  1  0.61938600  0.67713600  0.66541000  1
  O  O23  1  0.11050300  0.16758200  0.66849300  1
  O  O24  1  0.41692000  0.85897100  0.67240200  1
  O  O25  1  0.92531500  0.36830600  0.66311600  1
  O  O26  1  0.33856900  0.58877900  0.52650000  1
  O  O27  1  0.44306000  0.18472900  0.57311700  1
  O  O28  1  0.94115800  0.69498400  0.57691200  1
  O  O29  1  0.83567500  0.08496900  0.52505300  1
  O  O30  1  0.66143100  0.41122100  0.47350000  1
  O  O31  1  0.55694000  0.81527100  0.42688300  1
  O  O32  1  0.05884200  0.30501600  0.42308800  1
  O  O33  1  0.16432500  0.91503100  0.47494700  1
  O  O34  1  0.58308000  0.14102900  0.32759800  1
  O  O35  1  0.38061400  0.32286400  0.33459000  1
  O  O36  1  0.07468500  0.63169400  0.33688400  1
  O  O37  1  0.88949700  0.83241800  0.33150700  1
  O  O38  1  0.35867400  0.60350600  0.18098300  1
  O  O39  1  0.85552200  0.10753600  0.18425200  1
  O  O40  1  0.64822300  0.90048900  0.13984100  1
  O  O41  1  0.14830700  0.39746200  0.14741100  1
  O  O42  1  0.72368700  0.48129500  0.05122000  1
  O  O43  1  0.22222600  0.96586400  0.05197900  1
