# generated using pymatgen
data_BaYF5
_symmetry_space_group_name_H-M   'P 1'
_cell_length_a   10.29858500
_cell_length_b   5.73670000
_cell_length_c   8.18318488
_cell_angle_alpha   88.88485415
_cell_angle_beta   90.00000000
_cell_angle_gamma   90.00000000
_symmetry_Int_Tables_number   1
_chemical_formula_structural   BaYF5
_chemical_formula_sum   'Ba4 Y4 F20'
_cell_volume   483.37011684
_cell_formula_units_Z   4
loop_
 _symmetry_equiv_pos_site_id
 _symmetry_equiv_pos_as_xyz
  1  'x, y, z'
loop_
 _atom_site_type_symbol
 _atom_site_label
 _atom_site_symmetry_multiplicity
 _atom_site_fract_x
 _atom_site_fract_y
 _atom_site_fract_z
 _atom_site_occupancy
  Ba  Ba0  1  0.01840100  0.01165300  0.82535200  1
  Ba  Ba1  1  0.34211600  0.50149300  0.63770600  1
  Ba  Ba2  1  0.84211600  0.49850700  0.36229400  1
  Ba  Ba3  1  0.51840100  0.98834700  0.17464800  1
  Y  Y4  1  0.62672200  0.00621000  0.61992100  1
  Y  Y5  1  0.21045800  0.50096600  0.09945500  1
  Y  Y6  1  0.71045800  0.49903400  0.90054500  1
  Y  Y7  1  0.12672200  0.99379000  0.38007900  1
  F  F8  1  0.76804000  0.99132500  0.42215600  1
  F  F9  1  0.55343800  0.21938400  0.83740900  1
  F  F10  1  0.28511100  0.16423000  0.23013200  1
  F  F11  1  0.51315100  0.23929500  0.46465600  1
  F  F12  1  0.22083000  0.26702000  0.89259000  1
  F  F13  1  0.03889400  0.25208500  0.54015000  1
  F  F14  1  0.71166200  0.26980400  0.11694600  1
  F  F15  1  0.74812800  0.34333200  0.65123000  1
  F  F16  1  0.04315100  0.27860700  0.20796700  1
  F  F17  1  0.91839700  0.43532700  0.91082300  1
  F  F18  1  0.41839700  0.56467300  0.08917700  1
  F  F19  1  0.54315100  0.72139300  0.79203300  1
  F  F20  1  0.24812800  0.65666800  0.34877000  1
  F  F21  1  0.21166200  0.73019600  0.88305400  1
  F  F22  1  0.53889400  0.74791500  0.45985000  1
  F  F23  1  0.72083000  0.73298000  0.10741000  1
  F  F24  1  0.01315100  0.76070500  0.53534400  1
  F  F25  1  0.78511100  0.83577000  0.76986800  1
  F  F26  1  0.05343800  0.78061600  0.16259100  1
  F  F27  1  0.26804000  0.00867500  0.57784400  1
