# generated using pymatgen
data_Zr5N5O2
_symmetry_space_group_name_H-M   'P 1'
_cell_length_a   5.52583513
_cell_length_b   5.52583513
_cell_length_c   9.25826218
_cell_angle_alpha   75.04193980
_cell_angle_beta   75.04193980
_cell_angle_gamma   32.74625665
_symmetry_Int_Tables_number   1
_chemical_formula_structural   Zr5N5O2
_chemical_formula_sum   'Zr5 N5 O2'
_cell_volume   147.28032574
_cell_formula_units_Z   1
loop_
 _symmetry_equiv_pos_site_id
 _symmetry_equiv_pos_as_xyz
  1  'x, y, z'
loop_
 _atom_site_type_symbol
 _atom_site_label
 _atom_site_symmetry_multiplicity
 _atom_site_fract_x
 _atom_site_fract_y
 _atom_site_fract_z
 _atom_site_occupancy
  Zr  Zr0  1  0.12100400  0.12100400  0.07110300  1
  Zr  Zr1  1  0.70652400  0.70652400  0.69028000  1
  Zr  Zr2  1  0.30117000  0.30117000  0.30734800  1
  Zr  Zr3  1  0.89594600  0.89594600  0.91805400  1
  Zr  Zr4  1  0.00420600  0.00420600  0.49537700  1
  N  N5  1  0.51303200  0.51303200  0.98824700  1
  N  N6  1  0.66043700  0.66043700  0.44212000  1
  N  N7  1  0.74490000  0.74490000  0.14301500  1
  N  N8  1  0.27189500  0.27189500  0.84799500  1
  N  N9  1  0.34733600  0.34733600  0.55101400  1
  O  O10  1  0.05134700  0.05134700  0.70717900  1
  O  O11  1  0.96012300  0.96012300  0.28181500  1
