# generated using pymatgen
data_Ba6YBr15
_symmetry_space_group_name_H-M   'P 1'
_cell_length_a   11.26211450
_cell_length_b   11.26211450
_cell_length_c   32.37402213
_cell_angle_alpha   88.97506378
_cell_angle_beta   88.97506378
_cell_angle_gamma   91.37589858
_symmetry_Int_Tables_number   1
_chemical_formula_structural   Ba6YBr15
_chemical_formula_sum   'Ba24 Y4 Br60'
_cell_volume   4103.63643742
_cell_formula_units_Z   4
loop_
 _symmetry_equiv_pos_site_id
 _symmetry_equiv_pos_as_xyz
  1  'x, y, z'
loop_
 _atom_site_type_symbol
 _atom_site_label
 _atom_site_symmetry_multiplicity
 _atom_site_fract_x
 _atom_site_fract_y
 _atom_site_fract_z
 _atom_site_occupancy
  Ba  Ba0  1  0.02632200  0.01553100  0.38254900  1
  Ba  Ba1  1  0.01553100  0.02632200  0.88254900  1
  Ba  Ba2  1  0.46270900  0.94759300  0.36111700  1
  Ba  Ba3  1  0.25188900  0.19895400  0.25416600  1
  Ba  Ba4  1  0.94759300  0.46270900  0.86111700  1
  Ba  Ba5  1  0.19895400  0.25188900  0.75416600  1
  Ba  Ba6  1  0.08449900  0.44860600  0.36932500  1
  Ba  Ba7  1  0.32640700  0.22137900  0.47522400  1
  Ba  Ba8  1  0.44860600  0.08449900  0.86932500  1
  Ba  Ba9  1  0.22137900  0.32640700  0.97522400  1
  Ba  Ba10  1  0.55046400  0.39752300  0.35438200  1
  Ba  Ba11  1  0.39752300  0.55046400  0.85438200  1
  Ba  Ba12  1  0.60247700  0.44953600  0.14561800  1
  Ba  Ba13  1  0.44953600  0.60247700  0.64561800  1
  Ba  Ba14  1  0.77862100  0.67359300  0.02477600  1
  Ba  Ba15  1  0.55139400  0.91550100  0.13067500  1
  Ba  Ba16  1  0.67359300  0.77862100  0.52477600  1
  Ba  Ba17  1  0.91550100  0.55139400  0.63067500  1
  Ba  Ba18  1  0.80104600  0.74811100  0.24583400  1
  Ba  Ba19  1  0.05240700  0.53729100  0.13888300  1
  Ba  Ba20  1  0.74811100  0.80104600  0.74583400  1
  Ba  Ba21  1  0.53729100  0.05240700  0.63888300  1
  Ba  Ba22  1  0.98446900  0.97367800  0.11745100  1
  Ba  Ba23  1  0.97367800  0.98446900  0.61745100  1
  Y  Y24  1  0.28707500  0.24021400  0.11229100  1
  Y  Y25  1  0.24021400  0.28707500  0.61229100  1
  Y  Y26  1  0.75978600  0.71292500  0.38770900  1
  Y  Y27  1  0.71292500  0.75978600  0.88770900  1
  Br  Br28  1  0.10474300  0.17493100  0.05342500  1
  Br  Br29  1  0.17493100  0.10474300  0.55342500  1
  Br  Br30  1  0.08116100  0.21741100  0.16863900  1
  Br  Br31  1  0.05228300  0.24858000  0.44034700  1
  Br  Br32  1  0.21741100  0.08116100  0.66863900  1
  Br  Br33  1  0.24858000  0.05228300  0.94034700  1
  Br  Br34  1  0.24336100  0.45758100  0.06557200  1
  Br  Br35  1  0.51367800  0.16644400  0.29568100  1
  Br  Br36  1  0.45758100  0.24336100  0.56557200  1
  Br  Br37  1  0.01865000  0.71909700  0.38842500  1
  Br  Br38  1  0.16644400  0.51367800  0.79568100  1
  Br  Br39  1  0.31349900  0.43937100  0.17246200  1
  Br  Br40  1  0.71909700  0.01865000  0.88842500  1
  Br  Br41  1  0.55974000  0.16934100  0.41727400  1
  Br  Br42  1  0.30021100  0.44122000  0.30122500  1
  Br  Br43  1  0.50015200  0.25441200  0.06868100  1
  Br  Br44  1  0.03006300  0.73505600  0.06657900  1
  Br  Br45  1  0.77340900  0.99136800  0.18790500  1
  Br  Br46  1  0.43937100  0.31349900  0.67246200  1
  Br  Br47  1  0.16934100  0.55974000  0.91727400  1
  Br  Br48  1  0.44122000  0.30021100  0.80122500  1
  Br  Br49  1  0.25441200  0.50015200  0.56868100  1
  Br  Br50  1  0.73505600  0.03006300  0.56657900  1
  Br  Br51  1  0.99136800  0.77340900  0.68790500  1
  Br  Br52  1  0.45816800  0.16817800  0.17778900  1
  Br  Br53  1  0.33924700  0.45942400  0.41925300  1
  Br  Br54  1  0.05051000  0.78061200  0.19259000  1
  Br  Br55  1  0.16817800  0.45816800  0.67778900  1
  Br  Br56  1  0.45942400  0.33924700  0.91925300  1
  Br  Br57  1  0.78061200  0.05051000  0.69259000  1
  Br  Br58  1  0.21938800  0.94949000  0.30741000  1
  Br  Br59  1  0.54057600  0.66075300  0.08074700  1
  Br  Br60  1  0.83182200  0.54183200  0.32221100  1
  Br  Br61  1  0.94949000  0.21938800  0.80741000  1
  Br  Br62  1  0.66075300  0.54057600  0.58074700  1
  Br  Br63  1  0.54183200  0.83182200  0.82221100  1
  Br  Br64  1  0.00863200  0.22659100  0.31209500  1
  Br  Br65  1  0.26494400  0.96993700  0.43342100  1
  Br  Br66  1  0.74558800  0.49984800  0.43131900  1
  Br  Br67  1  0.55878000  0.69978900  0.19877500  1
  Br  Br68  1  0.83065900  0.44026000  0.08272600  1
  Br  Br69  1  0.56062900  0.68650100  0.32753800  1
  Br  Br70  1  0.22659100  0.00863200  0.81209500  1
  Br  Br71  1  0.96993700  0.26494400  0.93342100  1
  Br  Br72  1  0.49984800  0.74558800  0.93131900  1
  Br  Br73  1  0.69978900  0.55878000  0.69877500  1
  Br  Br74  1  0.44026000  0.83065900  0.58272600  1
  Br  Br75  1  0.28090300  0.98135000  0.11157500  1
  Br  Br76  1  0.68650100  0.56062900  0.82753800  1
  Br  Br77  1  0.83355600  0.48632200  0.20431900  1
  Br  Br78  1  0.98135000  0.28090300  0.61157500  1
  Br  Br79  1  0.54241900  0.75663900  0.43442800  1
  Br  Br80  1  0.48632200  0.83355600  0.70431900  1
  Br  Br81  1  0.75663900  0.54241900  0.93442800  1
  Br  Br82  1  0.75142000  0.94771700  0.05965300  1
  Br  Br83  1  0.78258900  0.91883900  0.33136100  1
  Br  Br84  1  0.94771700  0.75142000  0.55965300  1
  Br  Br85  1  0.91883900  0.78258900  0.83136100  1
  Br  Br86  1  0.82506900  0.89525700  0.44657500  1
  Br  Br87  1  0.89525700  0.82506900  0.94657500  1
