# generated using pymatgen
data_Hf2N2O
_symmetry_space_group_name_H-M   'P 1'
_cell_length_a   5.48004051
_cell_length_b   5.48004051
_cell_length_c   14.61213032
_cell_angle_alpha   89.93815551
_cell_angle_beta   89.93815551
_cell_angle_gamma   59.76883754
_symmetry_Int_Tables_number   1
_chemical_formula_structural   Hf2N2O
_chemical_formula_sum   'Hf12 N12 O6'
_cell_volume   379.13600256
_cell_formula_units_Z   6
loop_
 _symmetry_equiv_pos_site_id
 _symmetry_equiv_pos_as_xyz
  1  'x, y, z'
loop_
 _atom_site_type_symbol
 _atom_site_label
 _atom_site_symmetry_multiplicity
 _atom_site_fract_x
 _atom_site_fract_y
 _atom_site_fract_z
 _atom_site_occupancy
  Hf  Hf0  1  0.99624500  0.00024900  0.64294700  1
  Hf  Hf1  1  0.00024900  0.99624500  0.14294700  1
  Hf  Hf2  1  0.67695100  0.67778200  0.80990100  1
  Hf  Hf3  1  0.67827900  0.67391600  0.52402600  1
  Hf  Hf4  1  0.67778200  0.67695100  0.30990100  1
  Hf  Hf5  1  0.67391600  0.67827900  0.02402600  1
  Hf  Hf6  1  0.32608400  0.32172100  0.97597400  1
  Hf  Hf7  1  0.32221800  0.32304900  0.69009900  1
  Hf  Hf8  1  0.32172100  0.32608400  0.47597400  1
  Hf  Hf9  1  0.32304900  0.32221800  0.19009900  1
  Hf  Hf10  1  0.99975100  0.00375500  0.85705300  1
  Hf  Hf11  1  0.00375500  0.99975100  0.35705300  1
  N  N12  1  0.00361800  0.29160700  0.75190600  1
  N  N13  1  0.29160700  0.00361800  0.25190600  1
  N  N14  1  0.36805200  0.95602300  0.91770400  1
  N  N15  1  0.95602300  0.36805200  0.41770400  1
  N  N16  1  0.33888200  0.03453200  0.58463400  1
  N  N17  1  0.03453200  0.33888200  0.08463400  1
  N  N18  1  0.96546800  0.66111800  0.91536600  1
  N  N19  1  0.66111800  0.96546800  0.41536600  1
  N  N20  1  0.04397700  0.63194800  0.58229600  1
  N  N21  1  0.63194800  0.04397700  0.08229600  1
  N  N22  1  0.70839300  0.99638200  0.74809400  1
  N  N23  1  0.99638200  0.70839300  0.24809400  1
  O  O24  1  0.66545400  0.35565200  0.91804600  1
  O  O25  1  0.35565200  0.66545400  0.41804600  1
  O  O26  1  0.64434800  0.33454600  0.58195400  1
  O  O27  1  0.33454600  0.64434800  0.08195400  1
  O  O28  1  0.31133600  0.68866400  0.75000000  1
  O  O29  1  0.68866400  0.31133600  0.25000000  1
