# generated using pymatgen
data_CrFe3Sn2(PO4)6
_symmetry_space_group_name_H-M   'P 1'
_cell_length_a   8.81845529
_cell_length_b   8.81845529
_cell_length_c   8.81845510
_cell_angle_alpha   58.87249117
_cell_angle_beta   58.87249117
_cell_angle_gamma   58.87248986
_symmetry_Int_Tables_number   1
_chemical_formula_structural   CrFe3Sn2(PO4)6
_chemical_formula_sum   'Cr1 Fe3 Sn2 P6 O24'
_cell_volume   472.43087827
_cell_formula_units_Z   1
loop_
 _symmetry_equiv_pos_site_id
 _symmetry_equiv_pos_as_xyz
  1  'x, y, z'
loop_
 _atom_site_type_symbol
 _atom_site_label
 _atom_site_symmetry_multiplicity
 _atom_site_fract_x
 _atom_site_fract_y
 _atom_site_fract_z
 _atom_site_occupancy
  Cr  Cr0  1  0.85512700  0.85512700  0.85512700  1
  Fe  Fe1  1  0.14862000  0.14862000  0.14862000  1
  Fe  Fe2  1  0.35062800  0.35062800  0.35062800  1
  Fe  Fe3  1  0.64816600  0.64816600  0.64816600  1
  Sn  Sn4  1  0.00299600  0.00299600  0.00299600  1
  Sn  Sn5  1  0.49918900  0.49918900  0.49918900  1
  P  P6  1  0.03927300  0.46359400  0.74924300  1
  P  P7  1  0.95721400  0.54076700  0.24881900  1
  P  P8  1  0.24881900  0.95721400  0.54076700  1
  P  P9  1  0.54076700  0.24881900  0.95721400  1
  P  P10  1  0.46359400  0.74924300  0.03927300  1
  P  P11  1  0.74924300  0.03927300  0.46359400  1
  O  O12  1  0.50947500  0.30094800  0.11423500  1
  O  O13  1  0.11423500  0.50947500  0.30094800  1
  O  O14  1  0.26990000  0.91746500  0.05933500  1
  O  O15  1  0.30094800  0.11423500  0.50947500  1
  O  O16  1  0.61983300  0.80145300  0.00640300  1
  O  O17  1  0.44170700  0.58295300  0.23506900  1
  O  O18  1  0.91746500  0.05933500  0.26990000  1
  O  O19  1  0.58295300  0.23506900  0.44170700  1
  O  O20  1  0.99221400  0.38353100  0.19599100  1
  O  O21  1  0.23506900  0.44170700  0.58295300  1
  O  O22  1  0.93645400  0.73333000  0.08175800  1
  O  O23  1  0.19599100  0.99221400  0.38353100  1
  O  O24  1  0.80145300  0.00640300  0.61983300  1
  O  O25  1  0.05933500  0.26990000  0.91746500  1
  O  O26  1  0.76378100  0.56079400  0.41572300  1
  O  O27  1  0.00640300  0.61983300  0.80145300  1
  O  O28  1  0.41572300  0.76378100  0.56079400  1
  O  O29  1  0.08175800  0.93645400  0.73333000  1
  O  O30  1  0.56079400  0.41572300  0.76378100  1
  O  O31  1  0.38353100  0.19599100  0.99221400  1
  O  O32  1  0.69278000  0.88679600  0.49443200  1
  O  O33  1  0.73333000  0.08175800  0.93645400  1
  O  O34  1  0.88679600  0.49443200  0.69278000  1
  O  O35  1  0.49443200  0.69278000  0.88679600  1
