# generated using pymatgen
data_YBi3
_symmetry_space_group_name_H-M   'P 1'
_cell_length_a   6.82560497
_cell_length_b   6.82560497
_cell_length_c   6.07842400
_cell_angle_alpha   90.00000000
_cell_angle_beta   90.00000000
_cell_angle_gamma   119.99998999
_symmetry_Int_Tables_number   1
_chemical_formula_structural   YBi3
_chemical_formula_sum   'Y2 Bi6'
_cell_volume   245.24714829
_cell_formula_units_Z   2
loop_
 _symmetry_equiv_pos_site_id
 _symmetry_equiv_pos_as_xyz
  1  'x, y, z'
loop_
 _atom_site_type_symbol
 _atom_site_label
 _atom_site_symmetry_multiplicity
 _atom_site_fract_x
 _atom_site_fract_y
 _atom_site_fract_z
 _atom_site_occupancy
  Y  Y0  1  0.33333300  0.66666700  0.75000000  1
  Y  Y1  1  0.66666700  0.33333300  0.25000000  1
  Bi  Bi2  1  0.17217800  0.34435700  0.25000000  1
  Bi  Bi3  1  0.65564300  0.82782200  0.25000000  1
  Bi  Bi4  1  0.17217800  0.82782200  0.25000000  1
  Bi  Bi5  1  0.82782200  0.65564300  0.75000000  1
  Bi  Bi6  1  0.34435700  0.17217800  0.75000000  1
  Bi  Bi7  1  0.82782200  0.17217800  0.75000000  1
