# generated using pymatgen
data_TiFe3Sn2(PO4)6
_symmetry_space_group_name_H-M   'P 1'
_cell_length_a   8.92523093
_cell_length_b   8.92523093
_cell_length_c   8.92523110
_cell_angle_alpha   58.14928715
_cell_angle_beta   58.14928715
_cell_angle_gamma   58.14928930
_symmetry_Int_Tables_number   1
_chemical_formula_structural   TiFe3Sn2(PO4)6
_chemical_formula_sum   'Ti1 Fe3 Sn2 P6 O24'
_cell_volume   481.41428687
_cell_formula_units_Z   1
loop_
 _symmetry_equiv_pos_site_id
 _symmetry_equiv_pos_as_xyz
  1  'x, y, z'
loop_
 _atom_site_type_symbol
 _atom_site_label
 _atom_site_symmetry_multiplicity
 _atom_site_fract_x
 _atom_site_fract_y
 _atom_site_fract_z
 _atom_site_occupancy
  Ti  Ti0  1  0.14640700  0.14640700  0.14640700  1
  Fe  Fe1  1  0.85098400  0.85098400  0.85098400  1
  Fe  Fe2  1  0.64929200  0.64929200  0.64929200  1
  Fe  Fe3  1  0.35138600  0.35138600  0.35138600  1
  Sn  Sn4  1  0.99541300  0.99541300  0.99541300  1
  Sn  Sn5  1  0.49929100  0.49929100  0.49929100  1
  P  P6  1  0.53846800  0.96014300  0.24953300  1
  P  P7  1  0.24953300  0.53846800  0.96014300  1
  P  P8  1  0.04098800  0.75156600  0.46156400  1
  P  P9  1  0.75156600  0.46156400  0.04098800  1
  P  P10  1  0.46156400  0.04098800  0.75156600  1
  P  P11  1  0.96014300  0.24953300  0.53846800  1
  O  O12  1  0.49029100  0.88386800  0.70294900  1
  O  O13  1  0.88386800  0.70295000  0.49029100  1
  O  O14  1  0.72405000  0.93805700  0.08090400  1
  O  O15  1  0.70295000  0.49029100  0.88386800  1
  O  O16  1  0.37415100  0.00231700  0.20100900  1
  O  O17  1  0.55359000  0.76899200  0.41952900  1
  O  O18  1  0.08090400  0.72405000  0.93805700  1
  O  O19  1  0.41952900  0.55359000  0.76899200  1
  O  O20  1  0.00705600  0.79726100  0.62090300  1
  O  O21  1  0.76899200  0.41952900  0.55359000  1
  O  O22  1  0.06601100  0.92181300  0.27482200  1
  O  O23  1  0.79726100  0.62090300  0.00705600  1
  O  O24  1  0.20100900  0.37415100  0.00231700  1
  O  O25  1  0.93805700  0.08090400  0.72405000  1
  O  O26  1  0.23264800  0.58159000  0.43988600  1
  O  O27  1  0.00231700  0.20100900  0.37415100  1
  O  O28  1  0.58159000  0.43988600  0.23264800  1
  O  O29  1  0.92181300  0.27482200  0.06601100  1
  O  O30  1  0.43988600  0.23264800  0.58159000  1
  O  O31  1  0.62090300  0.00705600  0.79726100  1
  O  O32  1  0.30172900  0.50557500  0.11596100  1
  O  O33  1  0.27482200  0.06601100  0.92181300  1
  O  O34  1  0.11596100  0.30172900  0.50557500  1
  O  O35  1  0.50557500  0.11596100  0.30172900  1
