# generated using pymatgen
data_Mn2NbFe3(PO4)6
_symmetry_space_group_name_H-M   'P 1'
_cell_length_a   8.70573296
_cell_length_b   8.70573296
_cell_length_c   8.70573310
_cell_angle_alpha   59.96080869
_cell_angle_beta   59.96080869
_cell_angle_gamma   59.96081340
_symmetry_Int_Tables_number   1
_chemical_formula_structural   Mn2NbFe3(PO4)6
_chemical_formula_sum   'Mn2 Nb1 Fe3 P6 O24'
_cell_volume   466.13840240
_cell_formula_units_Z   1
loop_
 _symmetry_equiv_pos_site_id
 _symmetry_equiv_pos_as_xyz
  1  'x, y, z'
loop_
 _atom_site_type_symbol
 _atom_site_label
 _atom_site_symmetry_multiplicity
 _atom_site_fract_x
 _atom_site_fract_y
 _atom_site_fract_z
 _atom_site_occupancy
  Mn  Mn0  1  0.00474800  0.00474800  0.00474800  1
  Mn  Mn1  1  0.50058500  0.50058500  0.50058500  1
  Nb  Nb2  1  0.85600200  0.85600200  0.85600200  1
  Fe  Fe3  1  0.14698100  0.14698100  0.14698100  1
  Fe  Fe4  1  0.35503500  0.35503500  0.35503500  1
  Fe  Fe5  1  0.64449500  0.64449500  0.64449500  1
  P  P6  1  0.74708900  0.04462500  0.45086000  1
  P  P7  1  0.04462500  0.45086000  0.74708900  1
  P  P8  1  0.45086000  0.74708900  0.04462500  1
  P  P9  1  0.53826800  0.25525800  0.95754800  1
  P  P10  1  0.95754800  0.53826800  0.25525800  1
  P  P11  1  0.25525800  0.95754800  0.53826800  1
  O  O12  1  0.30838500  0.11535400  0.50753800  1
  O  O13  1  0.50753800  0.30838500  0.11535400  1
  O  O14  1  0.91347100  0.06028600  0.26330900  1
  O  O15  1  0.11535400  0.50753800  0.30838500  1
  O  O16  1  0.81245100  0.99419800  0.61621200  1
  O  O17  1  0.58780800  0.23670600  0.44491600  1
  O  O18  1  0.06028600  0.26330900  0.91347100  1
  O  O19  1  0.23670600  0.44491600  0.58780800  1
  O  O20  1  0.38769300  0.18685700  0.99673100  1
  O  O21  1  0.44491600  0.58780800  0.23670600  1
  O  O22  1  0.73656400  0.08846000  0.93664100  1
  O  O23  1  0.99673100  0.38769300  0.18685700  1
  O  O24  1  0.99419800  0.61621200  0.81245100  1
  O  O25  1  0.26330900  0.91347100  0.06028600  1
  O  O26  1  0.55976100  0.41305400  0.76275700  1
  O  O27  1  0.61621200  0.81245100  0.99419800  1
  O  O28  1  0.76275700  0.55976100  0.41305400  1
  O  O29  1  0.93664100  0.73656400  0.08846000  1
  O  O30  1  0.41305400  0.76275700  0.55976100  1
  O  O31  1  0.18685700  0.99673100  0.38769300  1
  O  O32  1  0.88645300  0.49549800  0.68740100  1
  O  O33  1  0.08846000  0.93664100  0.73656400  1
  O  O34  1  0.49549800  0.68740100  0.88645300  1
  O  O35  1  0.68740100  0.88645300  0.49549800  1
