# generated using pymatgen
data_VOF2
_symmetry_space_group_name_H-M   'P 1'
_cell_length_a   5.18603200
_cell_length_b   5.38769329
_cell_length_c   11.85524512
_cell_angle_alpha   100.68823145
_cell_angle_beta   102.36084174
_cell_angle_gamma   90.68611605
_symmetry_Int_Tables_number   1
_chemical_formula_structural   VOF2
_chemical_formula_sum   'V6 O6 F12'
_cell_volume   317.49110971
_cell_formula_units_Z   6
loop_
 _symmetry_equiv_pos_site_id
 _symmetry_equiv_pos_as_xyz
  1  'x, y, z'
loop_
 _atom_site_type_symbol
 _atom_site_label
 _atom_site_symmetry_multiplicity
 _atom_site_fract_x
 _atom_site_fract_y
 _atom_site_fract_z
 _atom_site_occupancy
  V  V0  1  0.85527700  0.81141900  0.66406400  1
  V  V1  1  0.69636700  0.68881600  0.33586700  1
  V  V2  1  0.51783100  0.52703600  0.99743800  1
  V  V3  1  0.35597700  0.34668600  0.66898800  1
  V  V4  1  0.02984500  0.02444100  0.00411600  1
  V  V5  1  0.18453200  0.19509500  0.33041900  1
  O  O6  1  0.95943200  0.88797500  0.35683600  1
  O  O7  1  0.61735500  0.55179900  0.68987600  1
  O  O8  1  0.29444700  0.22292500  0.02891600  1
  O  O9  1  0.69273200  0.77021800  0.97608500  1
  O  O10  1  0.35979100  0.43822300  0.30916000  1
  O  O11  1  0.09445100  0.61076900  0.64193900  1
  F  F12  1  0.97696300  0.09062500  0.16712200  1
  F  F13  1  0.88524700  0.38710800  0.37187600  1
  F  F14  1  0.67519800  0.55766900  0.16689500  1
  F  F15  1  0.65214400  0.75644000  0.49975200  1
  F  F16  1  0.76204400  0.26435600  0.96132500  1
  F  F17  1  0.42799900  0.92987700  0.29278000  1
  F  F18  1  0.21500200  0.71821200  0.03530200  1
  F  F19  1  0.55706200  0.04844600  0.69610000  1
  F  F20  1  0.34198200  0.22825900  0.49932900  1
  F  F21  1  0.31575700  0.41351700  0.83389700  1
  F  F22  1  0.02756500  0.11593900  0.63764600  1
  F  F23  1  0.00500100  0.91414900  0.83427400  1
