# generated using pymatgen
data_Na6Bi2B4SO16
_symmetry_space_group_name_H-M   'P 1'
_cell_length_a   10.25883953
_cell_length_b   10.25883953
_cell_length_c   10.25883953
_cell_angle_alpha   60.00000000
_cell_angle_beta   60.00000000
_cell_angle_gamma   60.00000000
_symmetry_Int_Tables_number   1
_chemical_formula_structural   Na6Bi2B4SO16
_chemical_formula_sum   'Na12 Bi4 B8 S2 O32'
_cell_volume   763.44844021
_cell_formula_units_Z   2
loop_
 _symmetry_equiv_pos_site_id
 _symmetry_equiv_pos_as_xyz
  1  'x, y, z'
loop_
 _atom_site_type_symbol
 _atom_site_label
 _atom_site_symmetry_multiplicity
 _atom_site_fract_x
 _atom_site_fract_y
 _atom_site_fract_z
 _atom_site_occupancy
  Na  Na0  1  0.04130500  0.45869500  0.45869500  1
  Na  Na1  1  0.04130500  0.04130500  0.45869500  1
  Na  Na2  1  0.79130500  0.79130500  0.20869500  1
  Na  Na3  1  0.45869500  0.04130500  0.04130500  1
  Na  Na4  1  0.20869500  0.79130500  0.20869500  1
  Na  Na5  1  0.79130500  0.20869500  0.79130500  1
  Na  Na6  1  0.45869500  0.04130500  0.45869500  1
  Na  Na7  1  0.04130500  0.45869500  0.04130500  1
  Na  Na8  1  0.79130500  0.20869500  0.20869500  1
  Na  Na9  1  0.20869500  0.79130500  0.79130500  1
  Na  Na10  1  0.20869500  0.20869500  0.79130500  1
  Na  Na11  1  0.45869500  0.45869500  0.04130500  1
  Bi  Bi12  1  0.62500000  0.12500000  0.62500000  1
  Bi  Bi13  1  0.12500000  0.62500000  0.62500000  1
  Bi  Bi14  1  0.62500000  0.62500000  0.12500000  1
  Bi  Bi15  1  0.62500000  0.62500000  0.62500000  1
  B  B16  1  0.79173600  0.40275500  0.40275500  1
  B  B17  1  0.84724500  0.84724500  0.45826400  1
  B  B18  1  0.40275500  0.79173600  0.40275500  1
  B  B19  1  0.40275500  0.40275500  0.40275500  1
  B  B20  1  0.84724500  0.84724500  0.84724500  1
  B  B21  1  0.84724500  0.45826400  0.84724500  1
  B  B22  1  0.45826400  0.84724500  0.84724500  1
  B  B23  1  0.40275500  0.40275500  0.79173600  1
  S  S24  1  0.00000000  0.00000000  0.00000000  1
  S  S25  1  0.25000000  0.25000000  0.25000000  1
  O  O26  1  0.05964900  0.05964900  0.82105200  1
  O  O27  1  0.05964900  0.05964900  0.05964900  1
  O  O28  1  0.05964900  0.82105200  0.05964900  1
  O  O29  1  0.71951200  0.98938800  0.83550300  1
  O  O30  1  0.82105200  0.05964900  0.05964900  1
  O  O31  1  0.98938800  0.71951200  0.45559700  1
  O  O32  1  0.45559700  0.83550300  0.98938800  1
  O  O33  1  0.83550300  0.98938800  0.45559700  1
  O  O34  1  0.79440300  0.53048800  0.41449700  1
  O  O35  1  0.53048800  0.79440300  0.26061200  1
  O  O36  1  0.98938800  0.83550300  0.71951200  1
  O  O37  1  0.71951200  0.83550300  0.45559700  1
  O  O38  1  0.79440300  0.26061200  0.53048800  1
  O  O39  1  0.41449700  0.53048800  0.26061200  1
  O  O40  1  0.98938800  0.45559700  0.83550300  1
  O  O41  1  0.83550300  0.45559700  0.71951200  1
  O  O42  1  0.41449700  0.79440300  0.53048800  1
  O  O43  1  0.83550300  0.71951200  0.98938800  1
  O  O44  1  0.26061200  0.79440300  0.41449700  1
  O  O45  1  0.45559700  0.98938800  0.71951200  1
  O  O46  1  0.53048800  0.41449700  0.79440300  1
  O  O47  1  0.26061200  0.41449700  0.53048800  1
  O  O48  1  0.71951200  0.45559700  0.98938800  1
  O  O49  1  0.45559700  0.71951200  0.83550300  1
  O  O50  1  0.41449700  0.26061200  0.79440300  1
  O  O51  1  0.79440300  0.41449700  0.26061200  1
  O  O52  1  0.26061200  0.53048800  0.79440300  1
  O  O53  1  0.42894800  0.19035100  0.19035100  1
  O  O54  1  0.53048800  0.26061200  0.41449700  1
  O  O55  1  0.19035100  0.42894800  0.19035100  1
  O  O56  1  0.19035100  0.19035100  0.19035100  1
  O  O57  1  0.19035100  0.19035100  0.42894800  1
