# generated using pymatgen
data_Ba14Na8CaN6
_symmetry_space_group_name_H-M   'P 1'
_cell_length_a   11.47138267
_cell_length_b   11.47138267
_cell_length_c   21.67637000
_cell_angle_alpha   90.00000000
_cell_angle_beta   90.00000000
_cell_angle_gamma   120.00000385
_symmetry_Int_Tables_number   1
_chemical_formula_structural   Ba14Na8CaN6
_chemical_formula_sum   'Ba28 Na16 Ca2 N12'
_cell_volume   2470.29435055
_cell_formula_units_Z   2
loop_
 _symmetry_equiv_pos_site_id
 _symmetry_equiv_pos_as_xyz
  1  'x, y, z'
loop_
 _atom_site_type_symbol
 _atom_site_label
 _atom_site_symmetry_multiplicity
 _atom_site_fract_x
 _atom_site_fract_y
 _atom_site_fract_z
 _atom_site_occupancy
  Ba  Ba0  1  0.25461200  0.96420800  0.95017600  1
  Ba  Ba1  1  0.25461200  0.96420800  0.54982400  1
  Ba  Ba2  1  0.32931800  0.95232200  0.36160400  1
  Ba  Ba3  1  0.32931800  0.95232200  0.13839600  1
  Ba  Ba4  1  0.04767800  0.37699600  0.13839600  1
  Ba  Ba5  1  0.04767800  0.37699600  0.36160400  1
  Ba  Ba6  1  0.03579200  0.29040400  0.54982400  1
  Ba  Ba7  1  0.03579200  0.29040400  0.95017600  1
  Ba  Ba8  1  0.00000000  0.00000000  0.15151600  1
  Ba  Ba9  1  0.00000000  0.00000000  0.34848400  1
  Ba  Ba10  1  0.00000000  0.00000000  0.65151600  1
  Ba  Ba11  1  0.00000000  0.00000000  0.84848400  1
  Ba  Ba12  1  0.29040400  0.25461200  0.04982400  1
  Ba  Ba13  1  0.29040400  0.25461200  0.45017600  1
  Ba  Ba14  1  0.37699600  0.32931800  0.86160400  1
  Ba  Ba15  1  0.37699600  0.32931800  0.63839600  1
  Ba  Ba16  1  0.62300400  0.67068200  0.36160400  1
  Ba  Ba17  1  0.62300400  0.67068200  0.13839600  1
  Ba  Ba18  1  0.70959600  0.74538800  0.54982400  1
  Ba  Ba19  1  0.70959600  0.74538800  0.95017600  1
  Ba  Ba20  1  0.96420800  0.70959600  0.04982400  1
  Ba  Ba21  1  0.96420800  0.70959600  0.45017600  1
  Ba  Ba22  1  0.95232200  0.62300400  0.86160400  1
  Ba  Ba23  1  0.95232200  0.62300400  0.63839600  1
  Ba  Ba24  1  0.67068200  0.04767800  0.86160400  1
  Ba  Ba25  1  0.67068200  0.04767800  0.63839600  1
  Ba  Ba26  1  0.74538800  0.03579200  0.04982400  1
  Ba  Ba27  1  0.74538800  0.03579200  0.45017600  1
  Na  Na28  1  0.31416600  0.96100900  0.75000000  1
  Na  Na29  1  0.03899100  0.35315700  0.75000000  1
  Na  Na30  1  0.33333300  0.66666700  0.00911500  1
  Na  Na31  1  0.33333300  0.66666700  0.25000000  1
  Na  Na32  1  0.33333300  0.66666700  0.49088500  1
  Na  Na33  1  0.33333300  0.66666700  0.66462600  1
  Na  Na34  1  0.33333300  0.66666700  0.83537400  1
  Na  Na35  1  0.35315700  0.31416600  0.25000000  1
  Na  Na36  1  0.64684300  0.68583400  0.75000000  1
  Na  Na37  1  0.66666700  0.33333300  0.33537400  1
  Na  Na38  1  0.66666700  0.33333300  0.50911500  1
  Na  Na39  1  0.66666700  0.33333300  0.75000000  1
  Na  Na40  1  0.66666700  0.33333300  0.99088500  1
  Na  Na41  1  0.66666700  0.33333300  0.16462600  1
  Na  Na42  1  0.96100900  0.64684300  0.25000000  1
  Na  Na43  1  0.68583400  0.03899100  0.25000000  1
  Ca  Ca44  1  0.00000000  0.00000000  0.00000000  1
  Ca  Ca45  1  0.00000000  0.00000000  0.50000000  1
  N  N46  1  0.16832100  0.97459600  0.06831200  1
  N  N47  1  0.16832100  0.97459600  0.43168800  1
  N  N48  1  0.02540400  0.19372500  0.06831200  1
  N  N49  1  0.02540400  0.19372500  0.43168800  1
  N  N50  1  0.19372500  0.16832100  0.56831200  1
  N  N51  1  0.19372500  0.16832100  0.93168800  1
  N  N52  1  0.80627500  0.83167900  0.06831200  1
  N  N53  1  0.80627500  0.83167900  0.43168800  1
  N  N54  1  0.97459600  0.80627500  0.93168800  1
  N  N55  1  0.97459600  0.80627500  0.56831200  1
  N  N56  1  0.83167900  0.02540400  0.56831200  1
  N  N57  1  0.83167900  0.02540400  0.93168800  1
