# generated using pymatgen
data_La2WO6
_symmetry_space_group_name_H-M   'P 1'
_cell_length_a   5.52391600
_cell_length_b   9.11902200
_cell_length_c   21.96385700
_cell_angle_alpha   90.00000000
_cell_angle_beta   90.00000000
_cell_angle_gamma   90.00000000
_symmetry_Int_Tables_number   1
_chemical_formula_structural   La2WO6
_chemical_formula_sum   'La16 W8 O48'
_cell_volume   1106.37903275
_cell_formula_units_Z   8
loop_
 _symmetry_equiv_pos_site_id
 _symmetry_equiv_pos_as_xyz
  1  'x, y, z'
loop_
 _atom_site_type_symbol
 _atom_site_label
 _atom_site_symmetry_multiplicity
 _atom_site_fract_x
 _atom_site_fract_y
 _atom_site_fract_z
 _atom_site_occupancy
  La  La0  1  0.45963700  0.08842400  0.43478300  1
  La  La1  1  0.41852000  0.10678400  0.66491500  1
  La  La2  1  0.53801300  0.24599100  0.93234500  1
  La  La3  1  0.49350900  0.24563400  0.20025700  1
  La  La4  1  0.99350900  0.25436600  0.79974300  1
  La  La5  1  0.03801300  0.25400900  0.06765500  1
  La  La6  1  0.91852000  0.39321600  0.33508500  1
  La  La7  1  0.95963700  0.41157600  0.56521700  1
  La  La8  1  0.54036300  0.58842400  0.06521700  1
  La  La9  1  0.58148000  0.60678400  0.83508500  1
  La  La10  1  0.46198700  0.74599100  0.56765500  1
  La  La11  1  0.50649100  0.74563400  0.29974300  1
  La  La12  1  0.00649100  0.75436600  0.70025700  1
  La  La13  1  0.96198700  0.75400900  0.43234500  1
  La  La14  1  0.08148000  0.89321600  0.16491500  1
  La  La15  1  0.04036300  0.91157600  0.93478300  1
  W  W16  1  0.93588900  0.01578900  0.55648900  1
  W  W17  1  0.98822600  0.02008000  0.31258200  1
  W  W18  1  0.48822600  0.47992000  0.68741800  1
  W  W19  1  0.43588900  0.48421100  0.44351100  1
  W  W20  1  0.06411100  0.51578900  0.94351100  1
  W  W21  1  0.01177400  0.52008000  0.18741800  1
  W  W22  1  0.51177400  0.97992000  0.81258200  1
  W  W23  1  0.56411100  0.98421100  0.05648900  1
  O  O24  1  0.24320500  0.03084700  0.25170500  1
  O  O25  1  0.78304400  0.04704600  0.11918100  1
  O  O26  1  0.76085100  0.05213900  0.87109200  1
  O  O27  1  0.31547100  0.04819000  0.00062600  1
  O  O28  1  0.32795100  0.10684200  0.11876700  1
  O  O29  1  0.77703900  0.11411800  0.00342600  1
  O  O30  1  0.29032100  0.12026900  0.85833500  1
  O  O31  1  0.66815300  0.12179900  0.75721700  1
  O  O32  1  0.11743200  0.16675700  0.36693800  1
  O  O33  1  0.10011500  0.17532300  0.59628400  1
  O  O34  1  0.76633300  0.16795300  0.51752100  1
  O  O35  1  0.78215000  0.17280100  0.28027600  1
  O  O36  1  0.28215000  0.32719900  0.71972400  1
  O  O37  1  0.26633300  0.33204700  0.48247900  1
  O  O38  1  0.60011500  0.32467700  0.40371600  1
  O  O39  1  0.61743200  0.33324300  0.63306200  1
  O  O40  1  0.16815300  0.37820100  0.24278300  1
  O  O41  1  0.79032100  0.37973100  0.14166500  1
  O  O42  1  0.27703900  0.38588200  0.99657400  1
  O  O43  1  0.82795100  0.39315800  0.88123300  1
  O  O44  1  0.81547100  0.45181000  0.99937400  1
  O  O45  1  0.26085100  0.44786100  0.12890800  1
  O  O46  1  0.28304400  0.45295400  0.88081900  1
  O  O47  1  0.74320500  0.46915300  0.74829500  1
  O  O48  1  0.75679500  0.53084700  0.24829500  1
  O  O49  1  0.21695600  0.54704600  0.38081900  1
  O  O50  1  0.23914900  0.55213900  0.62890800  1
  O  O51  1  0.68452900  0.54819000  0.49937400  1
  O  O52  1  0.67204900  0.60684200  0.38123300  1
  O  O53  1  0.22296100  0.61411800  0.49657400  1
  O  O54  1  0.70967900  0.62026900  0.64166500  1
  O  O55  1  0.33184700  0.62179900  0.74278300  1
  O  O56  1  0.88256800  0.66675700  0.13306200  1
  O  O57  1  0.89988500  0.67532300  0.90371600  1
  O  O58  1  0.23366700  0.66795300  0.98247900  1
  O  O59  1  0.21785000  0.67280100  0.21972400  1
  O  O60  1  0.71785000  0.82719900  0.78027600  1
  O  O61  1  0.73366700  0.83204700  0.01752100  1
  O  O62  1  0.39988500  0.82467700  0.09628400  1
  O  O63  1  0.38256800  0.83324300  0.86693800  1
  O  O64  1  0.83184700  0.87820100  0.25721700  1
  O  O65  1  0.20967900  0.87973100  0.35833500  1
  O  O66  1  0.72296100  0.88588200  0.50342600  1
  O  O67  1  0.17204900  0.89315800  0.61876700  1
  O  O68  1  0.18452900  0.95181000  0.50062600  1
  O  O69  1  0.73914900  0.94786100  0.37109200  1
  O  O70  1  0.71695600  0.95295400  0.61918100  1
  O  O71  1  0.25679500  0.96915300  0.75170500  1
