# generated using pymatgen
data_Ba4Hf3O10
_symmetry_space_group_name_H-M   'P 1'
_cell_length_a   15.50927065
_cell_length_b   15.50927065
_cell_length_c   5.93499700
_cell_angle_alpha   90.00000000
_cell_angle_beta   90.00000000
_cell_angle_gamma   157.86458612
_symmetry_Int_Tables_number   1
_chemical_formula_structural   Ba4Hf3O10
_chemical_formula_sum   'Ba8 Hf6 O20'
_cell_volume   537.91113951
_cell_formula_units_Z   2
loop_
 _symmetry_equiv_pos_site_id
 _symmetry_equiv_pos_as_xyz
  1  'x, y, z'
loop_
 _atom_site_type_symbol
 _atom_site_label
 _atom_site_symmetry_multiplicity
 _atom_site_fract_x
 _atom_site_fract_y
 _atom_site_fract_z
 _atom_site_occupancy
  Ba  Ba0  1  0.93119300  0.06880700  0.50000000  1
  Ba  Ba1  1  0.20366000  0.79634000  0.50000000  1
  Ba  Ba2  1  0.79634000  0.20366000  0.50000000  1
  Ba  Ba3  1  0.06880700  0.93119300  0.50000000  1
  Ba  Ba4  1  0.70366000  0.29634000  0.00000000  1
  Ba  Ba5  1  0.43119300  0.56880700  0.00000000  1
  Ba  Ba6  1  0.29634000  0.70366000  0.00000000  1
  Ba  Ba7  1  0.56880700  0.43119300  0.00000000  1
  Hf  Hf8  1  0.50000000  0.50000000  0.50000000  1
  Hf  Hf9  1  0.36089600  0.63910400  0.50000000  1
  Hf  Hf10  1  0.63910400  0.36089600  0.50000000  1
  Hf  Hf11  1  0.13910400  0.86089600  0.00000000  1
  Hf  Hf12  1  0.00000000  0.00000000  0.00000000  1
  Hf  Hf13  1  0.86089600  0.13910400  0.00000000  1
  O  O14  1  0.43090200  0.56909800  0.50000000  1
  O  O15  1  0.29235500  0.70764500  0.50000000  1
  O  O16  1  0.70764500  0.29235500  0.50000000  1
  O  O17  1  0.56909800  0.43090200  0.50000000  1
  O  O18  1  0.22967700  0.22967700  0.72956400  1
  O  O19  1  0.89914500  0.62240500  0.73917500  1
  O  O20  1  0.62240500  0.89914500  0.73917500  1
  O  O21  1  0.12240500  0.39914500  0.76082500  1
  O  O22  1  0.39914500  0.12240500  0.76082500  1
  O  O23  1  0.72967700  0.72967700  0.77043600  1
  O  O24  1  0.93090200  0.06909800  0.00000000  1
  O  O25  1  0.20764500  0.79235500  0.00000000  1
  O  O26  1  0.79235500  0.20764500  0.00000000  1
  O  O27  1  0.06909800  0.93090200  0.00000000  1
  O  O28  1  0.27032300  0.27032300  0.22956400  1
  O  O29  1  0.60085500  0.87759500  0.23917500  1
  O  O30  1  0.87759500  0.60085500  0.23917500  1
  O  O31  1  0.10085500  0.37759500  0.26082500  1
  O  O32  1  0.37759500  0.10085500  0.26082500  1
  O  O33  1  0.77032300  0.77032300  0.27043600  1
