# generated using pymatgen
data_Ti5Ni(PO4)6
_symmetry_space_group_name_H-M   'P 1'
_cell_length_a   8.40320833
_cell_length_b   8.40320833
_cell_length_c   8.40320746
_cell_angle_alpha   62.48676046
_cell_angle_beta   62.48676046
_cell_angle_gamma   62.48676495
_symmetry_Int_Tables_number   1
_chemical_formula_structural   Ti5Ni(PO4)6
_chemical_formula_sum   'Ti5 Ni1 P6 O24'
_cell_volume   442.84033449
_cell_formula_units_Z   1
loop_
 _symmetry_equiv_pos_site_id
 _symmetry_equiv_pos_as_xyz
  1  'x, y, z'
loop_
 _atom_site_type_symbol
 _atom_site_label
 _atom_site_symmetry_multiplicity
 _atom_site_fract_x
 _atom_site_fract_y
 _atom_site_fract_z
 _atom_site_occupancy
  Ti  Ti0  1  0.00020500  0.00020500  0.00020500  1
  Ti  Ti1  1  0.49923600  0.49923600  0.49923600  1
  Ti  Ti2  1  0.14069200  0.14069200  0.14069200  1
  Ti  Ti3  1  0.35829800  0.35829800  0.35829800  1
  Ti  Ti4  1  0.64089300  0.64089300  0.64089300  1
  Ni  Ni5  1  0.85720600  0.85720600  0.85720600  1
  P  P6  1  0.45914000  0.75076400  0.04344600  1
  P  P7  1  0.75076400  0.04344600  0.45914000  1
  P  P8  1  0.95669200  0.54548400  0.24687700  1
  P  P9  1  0.24687700  0.95669200  0.54548400  1
  P  P10  1  0.54548400  0.24687700  0.95669200  1
  P  P11  1  0.04344600  0.45914000  0.75076400  1
  O  O12  1  0.49380300  0.32702300  0.11219500  1
  O  O13  1  0.11219500  0.49380300  0.32702300  1
  O  O14  1  0.25567900  0.90355100  0.05743800  1
  O  O15  1  0.32702300  0.11219500  0.49380300  1
  O  O16  1  0.60894100  0.81983000  0.01371600  1
  O  O17  1  0.43501400  0.59431600  0.24450700  1
  O  O18  1  0.90355100  0.05743800  0.25567900  1
  O  O19  1  0.59431600  0.24450700  0.43501400  1
  O  O20  1  0.99957400  0.38627900  0.17705800  1
  O  O21  1  0.24450700  0.43501400  0.59431600  1
  O  O22  1  0.94631700  0.74410000  0.09885600  1
  O  O23  1  0.17705800  0.99957400  0.38627900  1
  O  O24  1  0.81983000  0.01371600  0.60894100  1
  O  O25  1  0.05743800  0.25567900  0.90355100  1
  O  O26  1  0.75764500  0.55629900  0.40384700  1
  O  O27  1  0.01371600  0.60894100  0.81983000  1
  O  O28  1  0.40384700  0.75764500  0.55629900  1
  O  O29  1  0.09885600  0.94631700  0.74410000  1
  O  O30  1  0.55629900  0.40384700  0.75764500  1
  O  O31  1  0.38627900  0.17705800  0.99957400  1
  O  O32  1  0.67877000  0.88548800  0.50082400  1
  O  O33  1  0.74410000  0.09885600  0.94631700  1
  O  O34  1  0.88548800  0.50082400  0.67877000  1
  O  O35  1  0.50082400  0.67877000  0.88548800  1
