# generated using pymatgen
data_Rb3HoO3
_symmetry_space_group_name_H-M   'P 1'
_cell_length_a   7.38657100
_cell_length_b   7.99294500
_cell_length_c   11.76358586
_cell_angle_alpha   85.91944098
_cell_angle_beta   90.00000000
_cell_angle_gamma   90.00000000
_symmetry_Int_Tables_number   1
_chemical_formula_structural   Rb3HoO3
_chemical_formula_sum   'Rb12 Ho4 O12'
_cell_volume   692.76683316
_cell_formula_units_Z   4
loop_
 _symmetry_equiv_pos_site_id
 _symmetry_equiv_pos_as_xyz
  1  'x, y, z'
loop_
 _atom_site_type_symbol
 _atom_site_label
 _atom_site_symmetry_multiplicity
 _atom_site_fract_x
 _atom_site_fract_y
 _atom_site_fract_z
 _atom_site_occupancy
  Rb  Rb0  1  0.33080800  0.35833700  0.07878800  1
  Rb  Rb1  1  0.62196400  0.93218100  0.15499400  1
  Rb  Rb2  1  0.80386800  0.37504400  0.19231400  1
  Rb  Rb3  1  0.30386800  0.62495600  0.30768600  1
  Rb  Rb4  1  0.12196400  0.06781900  0.34500600  1
  Rb  Rb5  1  0.83080800  0.64166300  0.42121200  1
  Rb  Rb6  1  0.16919200  0.35833700  0.57878800  1
  Rb  Rb7  1  0.87803600  0.93218100  0.65499400  1
  Rb  Rb8  1  0.69613200  0.37504400  0.69231400  1
  Rb  Rb9  1  0.19613200  0.62495600  0.80768600  1
  Rb  Rb10  1  0.37803600  0.06781900  0.84500600  1
  Rb  Rb11  1  0.66919200  0.64166300  0.92121200  1
  Ho  Ho12  1  0.08890800  0.83838500  0.06708100  1
  Ho  Ho13  1  0.58890800  0.16161500  0.43291900  1
  Ho  Ho14  1  0.41109200  0.83838500  0.56708100  1
  Ho  Ho15  1  0.91109200  0.16161500  0.93291900  1
  O  O16  1  0.35479900  0.74669100  0.04276400  1
  O  O17  1  0.04938300  0.10628100  0.09608900  1
  O  O18  1  0.94090400  0.68940300  0.18915000  1
  O  O19  1  0.44090400  0.31059700  0.31085000  1
  O  O20  1  0.54938300  0.89371900  0.40391100  1
  O  O21  1  0.85479900  0.25330900  0.45723600  1
  O  O22  1  0.14520100  0.74669100  0.54276400  1
  O  O23  1  0.45061700  0.10628100  0.59608900  1
  O  O24  1  0.55909600  0.68940300  0.68915000  1
  O  O25  1  0.05909600  0.31059700  0.81085000  1
  O  O26  1  0.95061700  0.89371900  0.90391100  1
  O  O27  1  0.64520100  0.25330900  0.95723600  1
