# generated using pymatgen
data_CrB3(HO3)3
_symmetry_space_group_name_H-M   'P 1'
_cell_length_a   9.31284400
_cell_length_b   11.76462100
_cell_length_c   14.27438200
_cell_angle_alpha   90.00000000
_cell_angle_beta   90.00000000
_cell_angle_gamma   90.00000000
_symmetry_Int_Tables_number   1
_chemical_formula_structural   CrB3(HO3)3
_chemical_formula_sum   'Cr8 B24 H24 O72'
_cell_volume   1563.93098395
_cell_formula_units_Z   8
loop_
 _symmetry_equiv_pos_site_id
 _symmetry_equiv_pos_as_xyz
  1  'x, y, z'
loop_
 _atom_site_type_symbol
 _atom_site_label
 _atom_site_symmetry_multiplicity
 _atom_site_fract_x
 _atom_site_fract_y
 _atom_site_fract_z
 _atom_site_occupancy
  Cr  Cr0  1  0.34369800  0.23551000  0.32485000  1
  Cr  Cr1  1  0.65630200  0.23551000  0.82485000  1
  Cr  Cr2  1  0.15630200  0.26449000  0.82485000  1
  Cr  Cr3  1  0.84369800  0.26449000  0.32485000  1
  Cr  Cr4  1  0.15630200  0.73551000  0.67515000  1
  Cr  Cr5  1  0.84369800  0.73551000  0.17515000  1
  Cr  Cr6  1  0.34369800  0.76449000  0.17515000  1
  Cr  Cr7  1  0.65630200  0.76449000  0.67515000  1
  B  B8  1  0.96638500  0.14789200  0.58070300  1
  B  B9  1  0.03361500  0.14789200  0.08070300  1
  B  B10  1  0.53257500  0.14457200  0.07430600  1
  B  B11  1  0.46742500  0.14457200  0.57430600  1
  B  B12  1  0.90937800  0.24563700  0.95023000  1
  B  B13  1  0.09062200  0.24563700  0.45023000  1
  B  B14  1  0.40937800  0.25436300  0.95023000  1
  B  B15  1  0.59062200  0.25436300  0.45023000  1
  B  B16  1  0.03257500  0.35542800  0.07430600  1
  B  B17  1  0.96742500  0.35542800  0.57430600  1
  B  B18  1  0.53361500  0.35210800  0.08070300  1
  B  B19  1  0.46638500  0.35210800  0.58070300  1
  B  B20  1  0.46638500  0.64789200  0.91929700  1
  B  B21  1  0.53361500  0.64789200  0.41929700  1
  B  B22  1  0.03257500  0.64457200  0.42569400  1
  B  B23  1  0.96742500  0.64457200  0.92569400  1
  B  B24  1  0.40937800  0.74563700  0.54977000  1
  B  B25  1  0.59062200  0.74563700  0.04977000  1
  B  B26  1  0.09062200  0.75436300  0.04977000  1
  B  B27  1  0.90937800  0.75436300  0.54977000  1
  B  B28  1  0.46742500  0.85542800  0.92569400  1
  B  B29  1  0.53257500  0.85542800  0.42569400  1
  B  B30  1  0.03361500  0.85210800  0.41929700  1
  B  B31  1  0.96638500  0.85210800  0.91929700  1
  H  H32  1  0.06422900  0.98324600  0.08686000  1
  H  H33  1  0.93577100  0.98324600  0.58686000  1
  H  H34  1  0.56266900  0.02259200  0.42253500  1
  H  H35  1  0.43733100  0.02259200  0.92253500  1
  H  H36  1  0.29654500  0.20387400  0.69454200  1
  H  H37  1  0.70345500  0.20387400  0.19454200  1
  H  H38  1  0.20345500  0.29612600  0.19454200  1
  H  H39  1  0.79654500  0.29612600  0.69454200  1
  H  H40  1  0.06266900  0.47740800  0.42253500  1
  H  H41  1  0.93733100  0.47740800  0.92253500  1
  H  H42  1  0.56422900  0.51675400  0.08686000  1
  H  H43  1  0.43577100  0.51675400  0.58686000  1
  H  H44  1  0.43577100  0.48324600  0.91314000  1
  H  H45  1  0.56422900  0.48324600  0.41314000  1
  H  H46  1  0.06266900  0.52259200  0.07746500  1
  H  H47  1  0.93733100  0.52259200  0.57746500  1
  H  H48  1  0.79654500  0.70387400  0.80545800  1
  H  H49  1  0.20345500  0.70387400  0.30545800  1
  H  H50  1  0.29654500  0.79612600  0.80545800  1
  H  H51  1  0.70345500  0.79612600  0.30545800  1
  H  H52  1  0.43733100  0.97740800  0.57746500  1
  H  H53  1  0.56266900  0.97740800  0.07746500  1
  H  H54  1  0.06422900  0.01675400  0.41314000  1
  H  H55  1  0.93577100  0.01675400  0.91314000  1
  O  O56  1  0.41770900  0.04772400  0.61297200  1
  O  O57  1  0.58229100  0.04772400  0.11297200  1
  O  O58  1  0.08631200  0.05313000  0.12160700  1
  O  O59  1  0.91368800  0.05313000  0.62160700  1
  O  O60  1  0.32848200  0.10890900  0.28940400  1
  O  O61  1  0.67151800  0.10890900  0.78940400  1
  O  O62  1  0.94537700  0.14533100  0.00256100  1
  O  O63  1  0.05462300  0.14533100  0.50256100  1
  O  O64  1  0.55013100  0.14833200  0.49394100  1
  O  O65  1  0.44986900  0.14833200  0.99394100  1
  O  O66  1  0.78131700  0.17540100  0.23862300  1
  O  O67  1  0.21868300  0.17540100  0.73862300  1
  O  O68  1  0.01628500  0.23509900  0.35354800  1
  O  O69  1  0.98371500  0.23509900  0.85354800  1
  O  O70  1  0.24617900  0.25058100  0.42540900  1
  O  O71  1  0.75382100  0.25058100  0.92540900  1
  O  O72  1  0.42766200  0.24603800  0.61945900  1
  O  O73  1  0.57233800  0.24603800  0.11945900  1
  O  O74  1  0.07233800  0.25396200  0.11945900  1
  O  O75  1  0.92766200  0.25396200  0.61945900  1
  O  O76  1  0.74617900  0.24941900  0.42540900  1
  O  O77  1  0.25382100  0.24941900  0.92540900  1
  O  O78  1  0.48371500  0.26490100  0.85354800  1
  O  O79  1  0.51628500  0.26490100  0.35354800  1
  O  O80  1  0.28131700  0.32459900  0.23862300  1
  O  O81  1  0.71868300  0.32459900  0.73862300  1
  O  O82  1  0.05013100  0.35166800  0.49394100  1
  O  O83  1  0.94986900  0.35166800  0.99394100  1
  O  O84  1  0.55462300  0.35466900  0.50256100  1
  O  O85  1  0.44537700  0.35466900  0.00256100  1
  O  O86  1  0.82848200  0.39109100  0.28940400  1
  O  O87  1  0.17151800  0.39109100  0.78940400  1
  O  O88  1  0.58631200  0.44687000  0.12160700  1
  O  O89  1  0.41368800  0.44687000  0.62160700  1
  O  O90  1  0.08229100  0.45227600  0.11297200  1
  O  O91  1  0.91770900  0.45227600  0.61297200  1
  O  O92  1  0.08229100  0.54772400  0.38702800  1
  O  O93  1  0.91770900  0.54772400  0.88702800  1
  O  O94  1  0.58631200  0.55313000  0.37839300  1
  O  O95  1  0.41368800  0.55313000  0.87839300  1
  O  O96  1  0.82848200  0.60890900  0.21059600  1
  O  O97  1  0.17151800  0.60890900  0.71059600  1
  O  O98  1  0.44537700  0.64533100  0.49743900  1
  O  O99  1  0.55462300  0.64533100  0.99743900  1
  O  O100  1  0.05013100  0.64833200  0.00605900  1
  O  O101  1  0.94986900  0.64833200  0.50605900  1
  O  O102  1  0.28131700  0.67540100  0.26137700  1
  O  O103  1  0.71868300  0.67540100  0.76137700  1
  O  O104  1  0.48371500  0.73509900  0.64645200  1
  O  O105  1  0.51628500  0.73509900  0.14645200  1
  O  O106  1  0.25382100  0.75058100  0.57459100  1
  O  O107  1  0.74617900  0.75058100  0.07459100  1
  O  O108  1  0.92766200  0.74603800  0.88054100  1
  O  O109  1  0.07233800  0.74603800  0.38054100  1
  O  O110  1  0.42766200  0.75396200  0.88054100  1
  O  O111  1  0.57233800  0.75396200  0.38054100  1
  O  O112  1  0.24617900  0.74941900  0.07459100  1
  O  O113  1  0.75382100  0.74941900  0.57459100  1
  O  O114  1  0.01628500  0.76490100  0.14645200  1
  O  O115  1  0.98371500  0.76490100  0.64645200  1
  O  O116  1  0.21868300  0.82459900  0.76137700  1
  O  O117  1  0.78131700  0.82459900  0.26137700  1
  O  O118  1  0.44986900  0.85166800  0.50605900  1
  O  O119  1  0.55013100  0.85166800  0.00605900  1
  O  O120  1  0.05462300  0.85466900  0.99743900  1
  O  O121  1  0.94537700  0.85466900  0.49743900  1
  O  O122  1  0.32848200  0.89109100  0.21059600  1
  O  O123  1  0.67151800  0.89109100  0.71059600  1
  O  O124  1  0.08631200  0.94687000  0.37839300  1
  O  O125  1  0.91368800  0.94687000  0.87839300  1
  O  O126  1  0.41770900  0.95227600  0.88702800  1
  O  O127  1  0.58229100  0.95227600  0.38702800  1
