# generated using pymatgen
data_Sr4Hf3O10
_symmetry_space_group_name_H-M   'P 1'
_cell_length_a   15.05271489
_cell_length_b   15.05271489
_cell_length_c   5.80236000
_cell_angle_alpha   90.00000000
_cell_angle_beta   90.00000000
_cell_angle_gamma   157.74401130
_symmetry_Int_Tables_number   1
_chemical_formula_structural   Sr4Hf3O10
_chemical_formula_sum   'Sr8 Hf6 O20'
_cell_volume   497.94532319
_cell_formula_units_Z   2
loop_
 _symmetry_equiv_pos_site_id
 _symmetry_equiv_pos_as_xyz
  1  'x, y, z'
loop_
 _atom_site_type_symbol
 _atom_site_label
 _atom_site_symmetry_multiplicity
 _atom_site_fract_x
 _atom_site_fract_y
 _atom_site_fract_z
 _atom_site_occupancy
  Sr  Sr0  1  0.43002800  0.56997200  0.00000000  1
  Sr  Sr1  1  0.70504200  0.29495800  0.00000000  1
  Sr  Sr2  1  0.29495800  0.70504200  0.00000000  1
  Sr  Sr3  1  0.56997200  0.43002800  0.00000000  1
  Sr  Sr4  1  0.20504200  0.79495800  0.50000000  1
  Sr  Sr5  1  0.93002800  0.06997200  0.50000000  1
  Sr  Sr6  1  0.79495800  0.20504200  0.50000000  1
  Sr  Sr7  1  0.06997200  0.93002800  0.50000000  1
  Hf  Hf8  1  0.00000000  0.00000000  0.00000000  1
  Hf  Hf9  1  0.85836200  0.14163800  0.00000000  1
  Hf  Hf10  1  0.14163800  0.85836200  0.00000000  1
  Hf  Hf11  1  0.64163800  0.35836200  0.50000000  1
  Hf  Hf12  1  0.50000000  0.50000000  0.50000000  1
  Hf  Hf13  1  0.35836200  0.64163800  0.50000000  1
  O  O14  1  0.92973500  0.07026500  0.00000000  1
  O  O15  1  0.78787200  0.21212800  0.00000000  1
  O  O16  1  0.21212800  0.78787200  0.00000000  1
  O  O17  1  0.07026500  0.92973500  0.00000000  1
  O  O18  1  0.30254300  0.30254300  0.80261300  1
  O  O19  1  0.85549100  0.57473300  0.78505600  1
  O  O20  1  0.57473300  0.85549100  0.78505600  1
  O  O21  1  0.07473300  0.35549100  0.71494400  1
  O  O22  1  0.35549100  0.07473300  0.71494400  1
  O  O23  1  0.80254300  0.80254300  0.69738700  1
  O  O24  1  0.42973500  0.57026500  0.50000000  1
  O  O25  1  0.71212800  0.28787200  0.50000000  1
  O  O26  1  0.28787200  0.71212800  0.50000000  1
  O  O27  1  0.57026500  0.42973500  0.50000000  1
  O  O28  1  0.19745700  0.19745700  0.30261300  1
  O  O29  1  0.64450900  0.92526700  0.28505600  1
  O  O30  1  0.92526700  0.64450900  0.28505600  1
  O  O31  1  0.14450900  0.42526700  0.21494400  1
  O  O32  1  0.42526700  0.14450900  0.21494400  1
  O  O33  1  0.69745700  0.69745700  0.19738700  1
