# generated using pymatgen
data_Ba2GeO4
_symmetry_space_group_name_H-M   'P 1'
_cell_length_a   6.15039300
_cell_length_b   10.55775500
_cell_length_c   23.15515100
_cell_angle_alpha   90.00000000
_cell_angle_beta   90.00000000
_cell_angle_gamma   90.00000000
_symmetry_Int_Tables_number   1
_chemical_formula_structural   Ba2GeO4
_chemical_formula_sum   'Ba24 Ge12 O48'
_cell_volume   1503.56450446
_cell_formula_units_Z   12
loop_
 _symmetry_equiv_pos_site_id
 _symmetry_equiv_pos_as_xyz
  1  'x, y, z'
loop_
 _atom_site_type_symbol
 _atom_site_label
 _atom_site_symmetry_multiplicity
 _atom_site_fract_x
 _atom_site_fract_y
 _atom_site_fract_z
 _atom_site_occupancy
  Ba  Ba0  1  0.78846700  0.29927500  0.99787100  1
  Ba  Ba1  1  0.28846700  0.70072500  0.00212900  1
  Ba  Ba2  1  0.28146200  0.07841200  0.05444400  1
  Ba  Ba3  1  0.76318500  0.57919900  0.11041700  1
  Ba  Ba4  1  0.24449400  0.80398800  0.16905000  1
  Ba  Ba5  1  0.73533200  0.20092500  0.16474600  1
  Ba  Ba6  1  0.23455700  0.42457300  0.22012700  1
  Ba  Ba7  1  0.73455700  0.92457300  0.27987300  1
  Ba  Ba8  1  0.23533200  0.70092500  0.33525400  1
  Ba  Ba9  1  0.74449400  0.30398800  0.33095000  1
  Ba  Ba10  1  0.26318500  0.07919900  0.38958300  1
  Ba  Ba11  1  0.78146200  0.57841200  0.44555600  1
  Ba  Ba12  1  0.78846700  0.20072500  0.49787100  1
  Ba  Ba13  1  0.28846700  0.79927500  0.50212900  1
  Ba  Ba14  1  0.28146200  0.42158800  0.55444400  1
  Ba  Ba15  1  0.76318500  0.92080100  0.61041700  1
  Ba  Ba16  1  0.24449400  0.69601200  0.66905000  1
  Ba  Ba17  1  0.73533200  0.29907500  0.66474600  1
  Ba  Ba18  1  0.23455700  0.07542700  0.72012700  1
  Ba  Ba19  1  0.73455700  0.57542700  0.77987300  1
  Ba  Ba20  1  0.23533200  0.79907500  0.83525400  1
  Ba  Ba21  1  0.74449400  0.19601200  0.83095000  1
  Ba  Ba22  1  0.26318500  0.42080100  0.88958300  1
  Ba  Ba23  1  0.78146200  0.92158800  0.94555600  1
  Ge  Ge24  1  0.25385700  0.41748800  0.07271900  1
  Ge  Ge25  1  0.77957000  0.91685700  0.09437400  1
  Ge  Ge26  1  0.24377500  0.08626800  0.24096900  1
  Ge  Ge27  1  0.74377500  0.58626800  0.25903100  1
  Ge  Ge28  1  0.27957000  0.41685700  0.40562600  1
  Ge  Ge29  1  0.75385700  0.91748800  0.42728100  1
  Ge  Ge30  1  0.25385700  0.08251200  0.57271900  1
  Ge  Ge31  1  0.77957000  0.58314300  0.59437400  1
  Ge  Ge32  1  0.24377500  0.41373200  0.74096900  1
  Ge  Ge33  1  0.74377500  0.91373200  0.75903100  1
  Ge  Ge34  1  0.27957000  0.08314300  0.90562600  1
  Ge  Ge35  1  0.75385700  0.58251200  0.92728100  1
  O  O36  1  0.68148800  0.55625000  0.00047600  1
  O  O37  1  0.82221500  0.06500800  0.05728900  1
  O  O38  1  0.98124500  0.80652400  0.07072600  1
  O  O39  1  0.51849800  0.86002100  0.07347100  1
  O  O40  1  0.47017300  0.30737700  0.08187400  1
  O  O41  1  0.01110000  0.35963100  0.10753400  1
  O  O42  1  0.32000700  0.56355600  0.10873000  1
  O  O43  1  0.30828900  0.06646800  0.16670300  1
  O  O44  1  0.81147700  0.93997000  0.16973000  1
  O  O45  1  0.67917400  0.43821700  0.22419500  1
  O  O46  1  0.98939800  0.63941600  0.22468500  1
  O  O47  1  0.53043400  0.69722000  0.24717500  1
  O  O48  1  0.03043400  0.19722000  0.25282500  1
  O  O49  1  0.48939800  0.13941600  0.27531500  1
  O  O50  1  0.17917400  0.93821700  0.27580500  1
  O  O51  1  0.31147700  0.43997000  0.33027000  1
  O  O52  1  0.80828900  0.56646800  0.33329700  1
  O  O53  1  0.82000700  0.06355600  0.39127000  1
  O  O54  1  0.51110000  0.85963100  0.39246600  1
  O  O55  1  0.97017300  0.80737700  0.41812600  1
  O  O56  1  0.01849800  0.36002100  0.42652900  1
  O  O57  1  0.48124500  0.30652400  0.42927400  1
  O  O58  1  0.32221500  0.56500800  0.44271100  1
  O  O59  1  0.18148800  0.05625000  0.49952400  1
  O  O60  1  0.68148800  0.94375000  0.50047600  1
  O  O61  1  0.82221500  0.43499200  0.55728900  1
  O  O62  1  0.98124500  0.69347600  0.57072600  1
  O  O63  1  0.51849800  0.63997900  0.57347100  1
  O  O64  1  0.47017300  0.19262300  0.58187400  1
  O  O65  1  0.01110000  0.14036900  0.60753400  1
  O  O66  1  0.32000700  0.93644400  0.60873000  1
  O  O67  1  0.30828900  0.43353200  0.66670300  1
  O  O68  1  0.81147700  0.56003000  0.66973000  1
  O  O69  1  0.67917400  0.06178300  0.72419500  1
  O  O70  1  0.98939800  0.86058400  0.72468500  1
  O  O71  1  0.53043400  0.80278000  0.74717500  1
  O  O72  1  0.03043400  0.30278000  0.75282500  1
  O  O73  1  0.48939800  0.36058400  0.77531500  1
  O  O74  1  0.17917400  0.56178300  0.77580500  1
  O  O75  1  0.31147700  0.06003000  0.83027000  1
  O  O76  1  0.80828900  0.93353200  0.83329700  1
  O  O77  1  0.82000700  0.43644400  0.89127000  1
  O  O78  1  0.51110000  0.64036900  0.89246600  1
  O  O79  1  0.97017300  0.69262300  0.91812600  1
  O  O80  1  0.01849800  0.13997900  0.92652900  1
  O  O81  1  0.48124500  0.19347600  0.92927400  1
  O  O82  1  0.32221500  0.93499200  0.94271100  1
  O  O83  1  0.18148800  0.44375000  0.99952400  1
