# generated using pymatgen
data_Na2Sb4O11
_symmetry_space_group_name_H-M   'P 1'
_cell_length_a   12.56519802
_cell_length_b   12.56519802
_cell_length_c   12.56519826
_cell_angle_alpha   29.13680710
_cell_angle_beta   29.13680710
_cell_angle_gamma   29.13681239
_symmetry_Int_Tables_number   1
_chemical_formula_structural   Na2Sb4O11
_chemical_formula_sum   'Na4 Sb8 O22'
_cell_volume   416.06401315
_cell_formula_units_Z   2
loop_
 _symmetry_equiv_pos_site_id
 _symmetry_equiv_pos_as_xyz
  1  'x, y, z'
loop_
 _atom_site_type_symbol
 _atom_site_label
 _atom_site_symmetry_multiplicity
 _atom_site_fract_x
 _atom_site_fract_y
 _atom_site_fract_z
 _atom_site_occupancy
  Na  Na0  1  0.83197400  0.83197400  0.83197400  1
  Na  Na1  1  0.33197400  0.33197400  0.33197400  1
  Na  Na2  1  0.66802600  0.66802600  0.66802600  1
  Na  Na3  1  0.16802600  0.16802600  0.16802600  1
  Sb  Sb4  1  0.39018100  0.10981900  0.75000000  1
  Sb  Sb5  1  0.10981900  0.75000000  0.39018100  1
  Sb  Sb6  1  0.00000000  0.00000000  0.00000000  1
  Sb  Sb7  1  0.89018100  0.25000000  0.60981900  1
  Sb  Sb8  1  0.60981900  0.89018100  0.25000000  1
  Sb  Sb9  1  0.50000000  0.50000000  0.50000000  1
  Sb  Sb10  1  0.75000000  0.39018100  0.10981900  1
  Sb  Sb11  1  0.25000000  0.60981900  0.89018100  1
  O  O12  1  0.75736600  0.45008900  0.20500400  1
  O  O13  1  0.49279500  0.75000000  0.00720500  1
  O  O14  1  0.40572300  0.40572300  0.40572300  1
  O  O15  1  0.45008900  0.20500400  0.75736600  1
  O  O16  1  0.25736600  0.70500400  0.95008900  1
  O  O17  1  0.29499600  0.04991100  0.74263400  1
  O  O18  1  0.99279500  0.50720500  0.25000000  1
  O  O19  1  0.20500400  0.75736600  0.45008900  1
  O  O20  1  0.04991100  0.74263400  0.29499600  1
  O  O21  1  0.09427700  0.09427700  0.09427700  1
  O  O22  1  0.90572300  0.90572300  0.90572300  1
  O  O23  1  0.95008900  0.25736600  0.70500400  1
  O  O24  1  0.79499600  0.24263400  0.54991100  1
  O  O25  1  0.00720500  0.49279500  0.75000000  1
  O  O26  1  0.70500400  0.95008900  0.25736600  1
  O  O27  1  0.74263400  0.29499600  0.04991100  1
  O  O28  1  0.54991100  0.79499600  0.24263400  1
  O  O29  1  0.59427700  0.59427700  0.59427700  1
  O  O30  1  0.75000000  0.00720500  0.49279500  1
  O  O31  1  0.50720500  0.25000000  0.99279500  1
  O  O32  1  0.24263400  0.54991100  0.79499600  1
  O  O33  1  0.25000000  0.99279500  0.50720500  1
