# generated using pymatgen
data_SiO2
_symmetry_space_group_name_H-M   'P 1'
_cell_length_a   4.86415390
_cell_length_b   4.86415390
_cell_length_c   4.86415390
_cell_angle_alpha   121.82653233
_cell_angle_beta   107.36001264
_cell_angle_gamma   100.03652570
_symmetry_Int_Tables_number   1
_chemical_formula_structural   SiO2
_chemical_formula_sum   'Si2 O4'
_cell_volume   85.16813648
_cell_formula_units_Z   2
loop_
 _symmetry_equiv_pos_site_id
 _symmetry_equiv_pos_as_xyz
  1  'x, y, z'
loop_
 _atom_site_type_symbol
 _atom_site_label
 _atom_site_symmetry_multiplicity
 _atom_site_fract_x
 _atom_site_fract_y
 _atom_site_fract_z
 _atom_site_occupancy
  Si  Si0  1  0.00000000  0.25000000  0.25000000  1
  Si  Si1  1  0.00000000  0.75000000  0.75000000  1
  O  O2  1  0.98533100  0.63257700  0.35275400  1
  O  O3  1  0.72017700  0.86742300  0.85275400  1
  O  O4  1  0.27982300  0.13257700  0.14724600  1
  O  O5  1  0.01466900  0.36742300  0.64724600  1
