# generated using pymatgen
data_Cr19O48
_symmetry_space_group_name_H-M   'P 1'
_cell_length_a   5.00864300
_cell_length_b   10.27922463
_cell_length_c   17.34370479
_cell_angle_alpha   89.71453907
_cell_angle_beta   89.27305435
_cell_angle_gamma   89.92576625
_symmetry_Int_Tables_number   1
_chemical_formula_structural   Cr19O48
_chemical_formula_sum   'Cr19 O48'
_cell_volume   892.85643031
_cell_formula_units_Z   1
loop_
 _symmetry_equiv_pos_site_id
 _symmetry_equiv_pos_as_xyz
  1  'x, y, z'
loop_
 _atom_site_type_symbol
 _atom_site_label
 _atom_site_symmetry_multiplicity
 _atom_site_fract_x
 _atom_site_fract_y
 _atom_site_fract_z
 _atom_site_occupancy
  Cr  Cr0  1  0.23666900  0.74897500  0.94218000  1
  Cr  Cr1  1  0.23391100  0.02736600  0.65571200  1
  Cr  Cr2  1  0.23367300  0.47173700  0.65365600  1
  Cr  Cr3  1  0.22770600  0.75556500  0.29457800  1
  Cr  Cr4  1  0.22357300  0.06675500  0.97639500  1
  Cr  Cr5  1  0.28750700  0.52597200  0.15097100  1
  Cr  Cr6  1  0.29117300  0.97521800  0.15674700  1
  Cr  Cr7  1  0.29631700  0.25040300  0.44627200  1
  Cr  Cr8  1  0.41292500  0.74339200  0.74675100  1
  Cr  Cr9  1  0.58665100  0.25043100  0.24816000  1
  Cr  Cr10  1  0.71657000  0.75019400  0.56071800  1
  Cr  Cr11  1  0.71499900  0.47528600  0.84305900  1
  Cr  Cr12  1  0.70647300  0.02326500  0.84816500  1
  Cr  Cr13  1  0.77040200  0.06359400  0.52737600  1
  Cr  Cr14  1  0.76871200  0.43590000  0.52708300  1
  Cr  Cr15  1  0.76826700  0.56492200  0.02019700  1
  Cr  Cr16  1  0.75712800  0.53085000  0.34245100  1
  Cr  Cr17  1  0.75909700  0.96976100  0.34401900  1
  Cr  Cr18  1  0.76178600  0.24561500  0.05475600  1
  O  O19  1  0.04810900  0.22581900  0.00090200  1
  O  O20  1  0.03696200  0.61600200  0.35672600  1
  O  O21  1  0.04029100  0.88643200  0.36163200  1
  O  O22  1  0.12970700  0.62782600  0.20920700  1
  O  O23  1  0.10647600  0.87709700  0.21468000  1
  O  O24  1  0.10592900  0.12375000  0.46801200  1
  O  O25  1  0.10588200  0.37688500  0.46742400  1
  O  O26  1  0.11129500  0.00259100  0.07374100  1
  O  O27  1  0.07861300  0.49594500  0.07874600  1
  O  O28  1  0.18419000  0.74883000  0.84634400  1
  O  O29  1  0.18693100  0.61977900  0.70167700  1
  O  O30  1  0.20131600  0.87983200  0.70575600  1
  O  O31  1  0.36034100  0.11441500  0.20327300  1
  O  O32  1  0.36524500  0.38792400  0.19784400  1
  O  O33  1  0.37563900  0.25104100  0.35282400  1
  O  O34  1  0.43623900  0.49383200  0.57718600  1
  O  O35  1  0.43916600  0.00591400  0.57984200  1
  O  O36  1  0.38190600  0.88842300  0.96718400  1
  O  O37  1  0.44965900  0.63179900  0.96378500  1
  O  O38  1  0.37446100  0.12546800  0.71249300  1
  O  O39  1  0.38676400  0.37792300  0.71096800  1
  O  O40  1  0.42360400  0.09964900  0.88678600  1
  O  O41  1  0.46213900  0.39237900  0.87110900  1
  O  O42  1  0.46297800  0.75065900  0.50640800  1
  O  O43  1  0.58421600  0.24979700  0.50527500  1
  O  O44  1  0.56244900  0.60102600  0.11762800  1
  O  O45  1  0.55782600  0.90091500  0.13243700  1
  O  O46  1  0.54155600  0.62545400  0.29792200  1
  O  O47  1  0.54391500  0.87550300  0.29891400  1
  O  O48  1  0.54962700  0.12919700  0.03328400  1
  O  O49  1  0.61966900  0.38432300  0.02997700  1
  O  O50  1  0.61749900  0.01166900  0.42743300  1
  O  O51  1  0.61992000  0.48915200  0.42692400  1
  O  O52  1  0.62659400  0.75207000  0.65742200  1
  O  O53  1  0.60793000  0.62502200  0.79258100  1
  O  O54  1  0.62740200  0.88616600  0.80144600  1
  O  O55  1  0.81285200  0.10697200  0.29344500  1
  O  O56  1  0.81195000  0.39423300  0.29153700  1
  O  O57  1  0.81223900  0.24438800  0.14999000  1
  O  O58  1  0.90853900  0.51348600  0.91967900  1
  O  O59  1  0.91945000  0.99640300  0.92213400  1
  O  O60  1  0.90008900  0.61589900  0.54115200  1
  O  O61  1  0.90267200  0.88328900  0.54010500  1
  O  O62  1  0.84970200  0.12187600  0.79034600  1
  O  O63  1  0.89655400  0.38885800  0.78698000  1
  O  O64  1  0.94752500  0.09906200  0.62531500  1
  O  O65  1  0.94960500  0.39712500  0.62455600  1
  O  O66  1  0.95806700  0.73110800  0.99619300  1
