# generated using pymatgen
data_Na2BiO3
_symmetry_space_group_name_H-M   'P 1'
_cell_length_a   11.40429954
_cell_length_b   10.84839429
_cell_length_c   5.97625360
_cell_angle_alpha   79.62780282
_cell_angle_beta   69.34319805
_cell_angle_gamma   31.02899913
_symmetry_Int_Tables_number   1
_chemical_formula_structural   Na2BiO3
_chemical_formula_sum   'Na8 Bi4 O12'
_cell_volume   344.97850461
_cell_formula_units_Z   4
loop_
 _symmetry_equiv_pos_site_id
 _symmetry_equiv_pos_as_xyz
  1  'x, y, z'
loop_
 _atom_site_type_symbol
 _atom_site_label
 _atom_site_symmetry_multiplicity
 _atom_site_fract_x
 _atom_site_fract_y
 _atom_site_fract_z
 _atom_site_occupancy
  Na  Na0  1  0.99481200  0.99481200  0.50518800  1
  Na  Na1  1  0.41897800  0.41897800  0.58102200  1
  Na  Na2  1  0.82907700  0.82907700  0.67092300  1
  Na  Na3  1  0.25020400  0.25020400  0.74979600  1
  Na  Na4  1  0.74481200  0.74481200  0.25518800  1
  Na  Na5  1  0.66897800  0.66897800  0.83102200  1
  Na  Na6  1  0.57907700  0.57907700  0.42092300  1
  Na  Na7  1  0.50020400  0.50020400  0.99979600  1
  Bi  Bi8  1  0.91438700  0.91438700  0.08561300  1
  Bi  Bi9  1  0.33197900  0.33197900  0.16802100  1
  Bi  Bi10  1  0.16438700  0.16438700  0.33561300  1
  Bi  Bi11  1  0.08197900  0.08197900  0.91802100  1
  O  O12  1  0.13493800  0.68908500  0.30522600  1
  O  O13  1  0.68908500  0.13493800  0.87075100  1
  O  O14  1  0.07845100  0.60403500  0.93289900  1
  O  O15  1  0.60403500  0.07845100  0.38461500  1
  O  O16  1  0.02266100  0.46049800  0.48112100  1
  O  O17  1  0.46049800  0.02266100  0.03571900  1
  O  O18  1  0.37924900  0.94477400  0.56091500  1
  O  O19  1  0.94477400  0.37924900  0.11506200  1
  O  O20  1  0.86538500  0.31710100  0.64596500  1
  O  O21  1  0.31710100  0.86538500  0.17154900  1
  O  O22  1  0.21428100  0.76887900  0.78950200  1
  O  O23  1  0.76887900  0.21428100  0.22733900  1
