# generated using pymatgen
data_Zn2InGaO5
_symmetry_space_group_name_H-M   'P 1'
_cell_length_a   3.34611200
_cell_length_b   3.34611200
_cell_length_c   22.74546900
_cell_angle_alpha   90.00000000
_cell_angle_beta   90.00000000
_cell_angle_gamma   120.00000007
_symmetry_Int_Tables_number   1
_chemical_formula_structural   Zn2InGaO5
_chemical_formula_sum   'Zn4 In2 Ga2 O10'
_cell_volume   220.54970203
_cell_formula_units_Z   2
loop_
 _symmetry_equiv_pos_site_id
 _symmetry_equiv_pos_as_xyz
  1  'x, y, z'
loop_
 _atom_site_type_symbol
 _atom_site_label
 _atom_site_symmetry_multiplicity
 _atom_site_fract_x
 _atom_site_fract_y
 _atom_site_fract_z
 _atom_site_occupancy
  Zn  Zn0  1  0.66666700  0.33333300  0.13543300  1
  Zn  Zn1  1  0.66666700  0.33333300  0.36456700  1
  Zn  Zn2  1  0.33333300  0.66666700  0.63543300  1
  Zn  Zn3  1  0.33333300  0.66666700  0.86456700  1
  In  In4  1  0.00000000  0.00000000  0.00000000  1
  In  In5  1  0.00000000  0.00000000  0.50000000  1
  Ga  Ga6  1  0.00000000  0.00000000  0.25000000  1
  Ga  Ga7  1  0.00000000  0.00000000  0.75000000  1
  O  O8  1  0.66666700  0.33333300  0.04813600  1
  O  O9  1  0.00000000  0.00000000  0.16220300  1
  O  O10  1  0.66666700  0.33333300  0.25000000  1
  O  O11  1  0.00000000  0.00000000  0.33779700  1
  O  O12  1  0.66666700  0.33333300  0.45186400  1
  O  O13  1  0.33333300  0.66666700  0.54813600  1
  O  O14  1  0.00000000  0.00000000  0.66220300  1
  O  O15  1  0.33333300  0.66666700  0.75000000  1
  O  O16  1  0.00000000  0.00000000  0.83779700  1
  O  O17  1  0.33333300  0.66666700  0.95186400  1
