# generated using pymatgen
data_Mn3VTe2(PO4)6
_symmetry_space_group_name_H-M   'P 1'
_cell_length_a   8.87232573
_cell_length_b   8.87232573
_cell_length_c   8.87232581
_cell_angle_alpha   59.88841038
_cell_angle_beta   59.88841038
_cell_angle_gamma   59.88840457
_symmetry_Int_Tables_number   1
_chemical_formula_structural   Mn3VTe2(PO4)6
_chemical_formula_sum   'Mn3 V1 Te2 P6 O24'
_cell_volume   492.60235625
_cell_formula_units_Z   1
loop_
 _symmetry_equiv_pos_site_id
 _symmetry_equiv_pos_as_xyz
  1  'x, y, z'
loop_
 _atom_site_type_symbol
 _atom_site_label
 _atom_site_symmetry_multiplicity
 _atom_site_fract_x
 _atom_site_fract_y
 _atom_site_fract_z
 _atom_site_occupancy
  Mn  Mn0  1  0.16052200  0.16052200  0.16052200  1
  Mn  Mn1  1  0.34890100  0.34890100  0.34890100  1
  Mn  Mn2  1  0.65453900  0.65453900  0.65453900  1
  V  V3  1  0.85413300  0.85413300  0.85413300  1
  Te  Te4  1  0.01754100  0.01754100  0.01754100  1
  Te  Te5  1  0.50991200  0.50991200  0.50991200  1
  P  P6  1  0.04356700  0.45866900  0.74845600  1
  P  P7  1  0.45866900  0.74845600  0.04356700  1
  P  P8  1  0.74845600  0.04356700  0.45866900  1
  P  P9  1  0.24298800  0.94302200  0.55354600  1
  P  P10  1  0.55354600  0.24298800  0.94302200  1
  P  P11  1  0.94302200  0.55354600  0.24298800  1
  O  O12  1  0.09041800  0.52893000  0.30027900  1
  O  O13  1  0.30027900  0.09041800  0.52893000  1
  O  O14  1  0.06281200  0.25546400  0.91680100  1
  O  O15  1  0.52893000  0.30027900  0.09041800  1
  O  O16  1  0.24057000  0.44016900  0.60441900  1
  O  O17  1  0.98651000  0.60793100  0.82681000  1
  O  O18  1  0.25546400  0.91680100  0.06281200  1
  O  O19  1  0.44016900  0.60441900  0.24057000  1
  O  O20  1  0.60441900  0.24057000  0.44016900  1
  O  O21  1  0.19464300  0.96884500  0.39990700  1
  O  O22  1  0.08204000  0.91458900  0.74572600  1
  O  O23  1  0.39990700  0.19464300  0.96884500  1
  O  O24  1  0.60793100  0.82681000  0.98651000  1
  O  O25  1  0.91680100  0.06281200  0.25546400  1
  O  O26  1  0.82681000  0.98651000  0.60793100  1
  O  O27  1  0.40526800  0.74312200  0.57981600  1
  O  O28  1  0.57981600  0.40526800  0.74312200  1
  O  O29  1  0.74572600  0.08204000  0.91458900  1
  O  O30  1  0.96884500  0.39990700  0.19464300  1
  O  O31  1  0.74312200  0.57981600  0.40526800  1
  O  O32  1  0.47915600  0.68458800  0.90539000  1
  O  O33  1  0.91458900  0.74572600  0.08204000  1
  O  O34  1  0.68458800  0.90539000  0.47915600  1
  O  O35  1  0.90539000  0.47915600  0.68458800  1
