# generated using pymatgen
data_Sb2S2O
_symmetry_space_group_name_H-M   'P 1'
_cell_length_a   5.95623484
_cell_length_b   5.95623484
_cell_length_c   10.36558893
_cell_angle_alpha   77.43196100
_cell_angle_beta   77.43196100
_cell_angle_gamma   39.87036111
_symmetry_Int_Tables_number   1
_chemical_formula_structural   Sb2S2O
_chemical_formula_sum   'Sb4 S4 O2'
_cell_volume   229.33683228
_cell_formula_units_Z   2
loop_
 _symmetry_equiv_pos_site_id
 _symmetry_equiv_pos_as_xyz
  1  'x, y, z'
loop_
 _atom_site_type_symbol
 _atom_site_label
 _atom_site_symmetry_multiplicity
 _atom_site_fract_x
 _atom_site_fract_y
 _atom_site_fract_z
 _atom_site_occupancy
  Sb  Sb0  1  0.29440100  0.29440100  0.86434400  1
  Sb  Sb1  1  0.70559900  0.70559900  0.13565600  1
  Sb  Sb2  1  0.61580900  0.61580900  0.61620100  1
  Sb  Sb3  1  0.38419100  0.38419100  0.38379900  1
  S  S4  1  0.84000100  0.84000100  0.58441800  1
  S  S5  1  0.15999900  0.15999900  0.41558200  1
  S  S6  1  0.09028300  0.09028300  0.79812300  1
  S  S7  1  0.90971700  0.90971700  0.20187700  1
  O  O8  1  0.74840200  0.74840200  0.93163000  1
  O  O9  1  0.25159800  0.25159800  0.06837000  1
