# generated using pymatgen
data_Yb(Mg4Al3)4
_symmetry_space_group_name_H-M   'P 1'
_cell_length_a   8.88325202
_cell_length_b   9.28563624
_cell_length_c   9.28563600
_cell_angle_alpha   110.33234041
_cell_angle_beta   108.59573062
_cell_angle_gamma   108.59573100
_symmetry_Int_Tables_number   1
_chemical_formula_structural   Yb(Mg4Al3)4
_chemical_formula_sum   'Yb1 Mg16 Al12'
_cell_volume   595.87090471
_cell_formula_units_Z   1
loop_
 _symmetry_equiv_pos_site_id
 _symmetry_equiv_pos_as_xyz
  1  'x, y, z'
loop_
 _atom_site_type_symbol
 _atom_site_label
 _atom_site_symmetry_multiplicity
 _atom_site_fract_x
 _atom_site_fract_y
 _atom_site_fract_z
 _atom_site_occupancy
  Yb  Yb0  1  0.37401700  0.00000000  0.00000000  1
  Mg  Mg1  1  0.61091400  0.32971900  0.00000000  1
  Mg  Mg2  1  0.31465500  0.60085300  0.00000000  1
  Mg  Mg3  1  0.99617800  0.34031200  0.00000000  1
  Mg  Mg4  1  0.99666100  0.00000000  0.00000000  1
  Mg  Mg5  1  0.68765200  0.68644900  0.29311500  1
  Mg  Mg6  1  0.00120200  0.60666600  0.31355000  1
  Mg  Mg7  1  0.61091300  0.00000000  0.32972000  1
  Mg  Mg8  1  0.99617800  0.00000000  0.34031200  1
  Mg  Mg9  1  0.39453800  0.70688500  0.39333500  1
  Mg  Mg10  1  0.71380100  0.39914700  0.39914700  1
  Mg  Mg11  1  0.31465500  0.00000000  0.60085300  1
  Mg  Mg12  1  0.00120300  0.31355000  0.60666600  1
  Mg  Mg13  1  0.65586500  0.65968700  0.65968700  1
  Mg  Mg14  1  0.28119300  0.67028100  0.67028100  1
  Mg  Mg15  1  0.68765200  0.29311500  0.68644900  1
  Mg  Mg16  1  0.39453800  0.39333500  0.70688500  1
  Al  Al17  1  0.63185700  0.81934200  0.00000000  1
  Al  Al18  1  0.81136300  0.63778100  0.00000000  1
  Al  Al19  1  0.36342100  0.36292000  0.17951200  1
  Al  Al20  1  0.81251200  0.18065800  0.18065800  1
  Al  Al21  1  0.18390800  0.82048800  0.18340700  1
  Al  Al22  1  0.17358100  0.36221900  0.36221900  1
  Al  Al23  1  0.36342000  0.17951200  0.36292000  1
  Al  Al24  1  0.00049900  0.81659200  0.63708000  1
  Al  Al25  1  0.81136300  0.00000000  0.63778100  1
  Al  Al26  1  0.00049900  0.63708100  0.81659200  1
  Al  Al27  1  0.63185600  0.00000000  0.81934200  1
  Al  Al28  1  0.18390800  0.18340700  0.82048700  1
