# generated using pymatgen
data_Mn12O7F17
_symmetry_space_group_name_H-M   'P 1'
_cell_length_a   4.80535300
_cell_length_b   5.80132059
_cell_length_c   15.84217235
_cell_angle_alpha   88.81013318
_cell_angle_beta   89.36009434
_cell_angle_gamma   87.03281080
_symmetry_Int_Tables_number   1
_chemical_formula_structural   Mn12O7F17
_chemical_formula_sum   'Mn12 O7 F17'
_cell_volume   440.92874913
_cell_formula_units_Z   1
loop_
 _symmetry_equiv_pos_site_id
 _symmetry_equiv_pos_as_xyz
  1  'x, y, z'
loop_
 _atom_site_type_symbol
 _atom_site_label
 _atom_site_symmetry_multiplicity
 _atom_site_fract_x
 _atom_site_fract_y
 _atom_site_fract_z
 _atom_site_occupancy
  Mn  Mn0  1  0.99134800  0.14843300  0.41756600  1
  Mn  Mn1  1  0.02212100  0.83931500  0.23745500  1
  Mn  Mn2  1  0.00994800  0.15898000  0.07378000  1
  Mn  Mn3  1  0.04894000  0.19517400  0.75716400  1
  Mn  Mn4  1  0.03094000  0.82329000  0.58347000  1
  Mn  Mn5  1  0.99302100  0.85556700  0.91726600  1
  Mn  Mn6  1  0.49174400  0.34876800  0.58649600  1
  Mn  Mn7  1  0.48460700  0.33640500  0.92426000  1
  Mn  Mn8  1  0.52527000  0.33540800  0.25967000  1
  Mn  Mn9  1  0.48765700  0.65025700  0.08280800  1
  Mn  Mn10  1  0.49849600  0.65844200  0.41745500  1
  Mn  Mn11  1  0.49873000  0.63887700  0.75065400  1
  O  O12  1  0.19944600  0.12573800  0.96769100  1
  O  O13  1  0.23152300  0.89022700  0.12690000  1
  O  O14  1  0.21880400  0.88364700  0.46821100  1
  O  O15  1  0.29318900  0.59279300  0.64360900  1
  O  O16  1  0.30444600  0.40795100  0.81215200  1
  O  O17  1  0.70235000  0.38513100  0.02793800  1
  O  O18  1  0.72088300  0.38625400  0.37071200  1
  F  F19  1  0.21985800  0.11696500  0.30675500  1
  F  F20  1  0.24148600  0.10286000  0.63965300  1
  F  F21  1  0.24293400  0.89468200  0.80632900  1
  F  F22  1  0.26847400  0.39794500  0.14986200  1
  F  F23  1  0.27282600  0.61800100  0.31187800  1
  F  F24  1  0.25115400  0.38318800  0.47867500  1
  F  F25  1  0.24696900  0.61599700  0.97801300  1
  F  F26  1  0.72147100  0.61721800  0.19465900  1
  F  F27  1  0.72335700  0.61546600  0.52498600  1
  F  F28  1  0.73042800  0.62162100  0.85840600  1
  F  F29  1  0.75321900  0.36920300  0.68527600  1
  F  F30  1  0.78828300  0.12809600  0.18414100  1
  F  F31  1  0.76057200  0.11408700  0.53185800  1
  F  F32  1  0.76055700  0.89560700  0.35194900  1
  F  F33  1  0.73654800  0.87971500  0.02549000  1
  F  F34  1  0.75808400  0.11729700  0.85416500  1
  F  F35  1  0.77031400  0.85140000  0.69265200  1
