# generated using pymatgen
data_Eu2Al2O5
_symmetry_space_group_name_H-M   'P 1'
_cell_length_a   3.77648600
_cell_length_b   3.77648600
_cell_length_c   7.58310300
_cell_angle_alpha   90.00000000
_cell_angle_beta   90.00000000
_cell_angle_gamma   90.00000000
_symmetry_Int_Tables_number   1
_chemical_formula_structural   Eu2Al2O5
_chemical_formula_sum   'Eu2 Al2 O5'
_cell_volume   108.14905104
_cell_formula_units_Z   1
loop_
 _symmetry_equiv_pos_site_id
 _symmetry_equiv_pos_as_xyz
  1  'x, y, z'
loop_
 _atom_site_type_symbol
 _atom_site_label
 _atom_site_symmetry_multiplicity
 _atom_site_fract_x
 _atom_site_fract_y
 _atom_site_fract_z
 _atom_site_occupancy
  Eu  Eu0  1  0.50000000  0.50000000  0.00000000  1
  Eu  Eu1  1  0.50000000  0.50000000  0.50000000  1
  Al  Al2  1  0.00000000  0.00000000  0.73996500  1
  Al  Al3  1  0.00000000  0.00000000  0.26003500  1
  O  O4  1  0.50000000  0.00000000  0.77422800  1
  O  O5  1  0.50000000  0.00000000  0.22577200  1
  O  O6  1  0.00000000  0.00000000  0.50000000  1
  O  O7  1  0.00000000  0.50000000  0.77422800  1
  O  O8  1  0.00000000  0.50000000  0.22577200  1
