# generated using pymatgen
data_Li4Mn2Co3Sn3O16
_symmetry_space_group_name_H-M   'P 1'
_cell_length_a   5.99158427
_cell_length_b   6.02682461
_cell_length_c   9.52580442
_cell_angle_alpha   89.45599843
_cell_angle_beta   89.21738800
_cell_angle_gamma   120.39236255
_symmetry_Int_Tables_number   1
_chemical_formula_structural   Li4Mn2Co3Sn3O16
_chemical_formula_sum   'Li4 Mn2 Co3 Sn3 O16'
_cell_volume   296.62841289
_cell_formula_units_Z   1
loop_
 _symmetry_equiv_pos_site_id
 _symmetry_equiv_pos_as_xyz
  1  'x, y, z'
loop_
 _atom_site_type_symbol
 _atom_site_label
 _atom_site_symmetry_multiplicity
 _atom_site_fract_x
 _atom_site_fract_y
 _atom_site_fract_z
 _atom_site_occupancy
  Li  Li0  1  0.35226700  0.67460200  0.88891300  1
  Li  Li1  1  0.95725300  0.98221600  0.99100100  1
  Li  Li2  1  0.96937800  0.98859500  0.50250900  1
  Li  Li3  1  0.67273500  0.33429700  0.40249100  1
  Mn  Mn4  1  0.34108300  0.66979500  0.49636600  1
  Mn  Mn5  1  0.68064100  0.34044300  0.97885800  1
  Co  Co6  1  0.65773800  0.82586700  0.21246400  1
  Co  Co7  1  0.83275400  0.66451600  0.71543000  1
  Co  Co8  1  0.83483000  0.17637000  0.71512800  1
  Sn  Sn9  1  0.16733500  0.82720500  0.21273000  1
  Sn  Sn10  1  0.16993500  0.33653300  0.21226100  1
  Sn  Sn11  1  0.33968100  0.16935900  0.71243600  1
  O  O12  1  0.15300900  0.83128500  0.59561800  1
  O  O13  1  0.03389200  0.51176000  0.34859500  1
  O  O14  1  0.35611000  0.67913500  0.09786300  1
  O  O15  1  0.97337900  0.98261900  0.31321200  1
  O  O16  1  0.97924400  0.99184100  0.80667300  1
  O  O17  1  0.15998600  0.33585200  0.59586400  1
  O  O18  1  0.49182100  0.95278800  0.34393000  1
  O  O19  1  0.49517800  0.52614700  0.33811400  1
  O  O20  1  0.32920100  0.16316300  0.08568000  1
  O  O21  1  0.66362300  0.83483300  0.61149800  1
  O  O22  1  0.53951200  0.48950900  0.84717300  1
  O  O23  1  0.54249900  0.04973800  0.84638400  1
  O  O24  1  0.69412500  0.35106600  0.61123700  1
  O  O25  1  0.82585100  0.66488900  0.09457400  1
  O  O26  1  0.96043000  0.48221500  0.83521300  1
  O  O27  1  0.82651100  0.16366100  0.09562500  1
