# generated using pymatgen
data_NaFe11O17
_symmetry_space_group_name_H-M   'P 1'
_cell_length_a   6.00646900
_cell_length_b   6.00722024
_cell_length_c   23.77253250
_cell_angle_alpha   90.01789015
_cell_angle_beta   90.17571111
_cell_angle_gamma   119.92745840
_symmetry_Int_Tables_number   1
_chemical_formula_structural   NaFe11O17
_chemical_formula_sum   'Na2 Fe22 O34'
_cell_volume   743.38338096
_cell_formula_units_Z   2
loop_
 _symmetry_equiv_pos_site_id
 _symmetry_equiv_pos_as_xyz
  1  'x, y, z'
loop_
 _atom_site_type_symbol
 _atom_site_label
 _atom_site_symmetry_multiplicity
 _atom_site_fract_x
 _atom_site_fract_y
 _atom_site_fract_z
 _atom_site_occupancy
  Na  Na0  1  0.33311100  0.66650200  0.74916800  1
  Na  Na1  1  0.66619500  0.33352900  0.25005100  1
  Fe  Fe2  1  0.66594800  0.83354600  0.60680100  1
  Fe  Fe3  1  0.66510100  0.83217300  0.89452000  1
  Fe  Fe4  1  0.33202300  0.66688800  0.17446600  1
  Fe  Fe5  1  0.33468700  0.66704600  0.02552400  1
  Fe  Fe6  1  0.00260900  0.00134400  0.00038300  1
  Fe  Fe7  1  0.00017100  0.00031300  0.50002800  1
  Fe  Fe8  1  0.33395600  0.66701900  0.32478200  1
  Fe  Fe9  1  0.33419000  0.66668400  0.47412300  1
  Fe  Fe10  1  0.16756000  0.83323800  0.60657900  1
  Fe  Fe11  1  0.16733900  0.83219600  0.89445500  1
  Fe  Fe12  1  0.82859700  0.66322800  0.10295100  1
  Fe  Fe13  1  0.83323000  0.66605100  0.39320100  1
  Fe  Fe14  1  0.16755400  0.33443500  0.60685100  1
  Fe  Fe15  1  0.16642700  0.33269700  0.89462100  1
  Fe  Fe16  1  0.83342000  0.16749300  0.39349600  1
  Fe  Fe17  1  0.83593800  0.16778100  0.10624300  1
  Fe  Fe18  1  0.66787300  0.33508800  0.67426700  1
  Fe  Fe19  1  0.66613300  0.33285300  0.82501100  1
  Fe  Fe20  1  0.66588500  0.33384700  0.52581500  1
  Fe  Fe21  1  0.66736500  0.33473500  0.97471100  1
  Fe  Fe22  1  0.33442300  0.16739200  0.39308400  1
  Fe  Fe23  1  0.33152900  0.16406700  0.10615200  1
  O  O24  1  0.69568600  0.84533800  0.05016600  1
  O  O25  1  0.50373900  0.00917700  0.35240300  1
  O  O26  1  0.49285900  0.98471200  0.64912200  1
  O  O27  1  0.50934700  0.01365600  0.14718700  1
  O  O28  1  0.69281900  0.84680100  0.45018700  1
  O  O29  1  0.49306800  0.98724000  0.85290900  1
  O  O30  1  0.15397400  0.84589400  0.45025200  1
  O  O31  1  0.33210600  0.66597200  0.25037700  1
  O  O32  1  0.99553300  0.98792800  0.14274600  1
  O  O33  1  0.99853400  0.99920300  0.35515000  1
  O  O34  1  0.00071200  0.00035300  0.64482400  1
  O  O35  1  0.99857700  0.99811500  0.85646600  1
  O  O36  1  0.33235600  0.66563800  0.55557400  1
  O  O37  1  0.33474100  0.66839100  0.94539500  1
  O  O38  1  0.16293200  0.85082500  0.04855900  1
  O  O39  1  0.84649900  0.69261900  0.54981500  1
  O  O40  1  0.84668000  0.69340900  0.95106600  1
  O  O41  1  0.98653200  0.49922000  0.14648800  1
  O  O42  1  0.99206900  0.49637500  0.35148400  1
  O  O43  1  0.00938900  0.50536800  0.64852700  1
  O  O44  1  0.01174800  0.50503400  0.85278200  1
  O  O45  1  0.15404500  0.30893900  0.04959200  1
  O  O46  1  0.15357800  0.30783600  0.45024600  1
  O  O47  1  0.49612900  0.48721600  0.14793200  1
  O  O48  1  0.50380700  0.49405600  0.35080200  1
  O  O49  1  0.49609500  0.50809300  0.64882000  1
  O  O50  1  0.66719500  0.33462900  0.44438400  1
  O  O51  1  0.49270600  0.50462300  0.85274300  1
  O  O52  1  0.66539200  0.33170300  0.74928700  1
  O  O53  1  0.67160200  0.34124000  0.05557900  1
  O  O54  1  0.84695800  0.15516000  0.95107400  1
  O  O55  1  0.84578500  0.15465000  0.54988600  1
  O  O56  1  0.30806700  0.15659800  0.95097000  1
  O  O57  1  0.30757500  0.15374500  0.54992100  1
