# generated using pymatgen
data_Al11AgO17
_symmetry_space_group_name_H-M   'P 1'
_cell_length_a   5.65470995
_cell_length_b   5.65470995
_cell_length_c   22.75298600
_cell_angle_alpha   90.00000000
_cell_angle_beta   90.00000000
_cell_angle_gamma   119.97133267
_symmetry_Int_Tables_number   1
_chemical_formula_structural   Al11AgO17
_chemical_formula_sum   'Al22 Ag2 O34'
_cell_volume   630.25323171
_cell_formula_units_Z   2
loop_
 _symmetry_equiv_pos_site_id
 _symmetry_equiv_pos_as_xyz
  1  'x, y, z'
loop_
 _atom_site_type_symbol
 _atom_site_label
 _atom_site_symmetry_multiplicity
 _atom_site_fract_x
 _atom_site_fract_y
 _atom_site_fract_z
 _atom_site_occupancy
  Al  Al0  1  0.33467600  0.16699200  0.89247300  1
  Al  Al1  1  0.33467600  0.16699200  0.60752700  1
  Al  Al2  1  0.66836000  0.33415100  0.32419300  1
  Al  Al3  1  0.66671500  0.33346100  0.47512900  1
  Al  Al4  1  0.00032700  0.00032700  0.50000000  1
  Al  Al5  1  0.00032700  0.00032700  0.00000000  1
  Al  Al6  1  0.83223000  0.16694900  0.89247700  1
  Al  Al7  1  0.66836000  0.33415100  0.17580700  1
  Al  Al8  1  0.83223000  0.16694900  0.60752300  1
  Al  Al9  1  0.66671500  0.33346100  0.02487100  1
  Al  Al10  1  0.83287000  0.66587200  0.89311800  1
  Al  Al11  1  0.83287000  0.66587200  0.60688200  1
  Al  Al12  1  0.16699200  0.33467600  0.10752700  1
  Al  Al13  1  0.16699200  0.33467600  0.39247300  1
  Al  Al14  1  0.16694900  0.83223000  0.10752300  1
  Al  Al15  1  0.33415100  0.66836000  0.67580700  1
  Al  Al16  1  0.16694900  0.83223000  0.39247700  1
  Al  Al17  1  0.33415100  0.66836000  0.82419300  1
  Al  Al18  1  0.33346100  0.66671500  0.52487100  1
  Al  Al19  1  0.33346100  0.66671500  0.97512900  1
  Al  Al20  1  0.66587200  0.83287000  0.39311800  1
  Al  Al21  1  0.66587200  0.83287000  0.10688200  1
  Ag  Ag22  1  0.70478000  0.40957000  0.75000000  1
  Ag  Ag23  1  0.40957000  0.70478000  0.25000000  1
  O  O24  1  0.31468500  0.15740200  0.44990000  1
  O  O25  1  0.31468500  0.15740200  0.05010000  1
  O  O26  1  0.50289000  0.00578400  0.85430100  1
  O  O27  1  0.50289000  0.00578400  0.64569900  1
  O  O28  1  0.66258000  0.33128100  0.25000000  1
  O  O29  1  0.84255800  0.15693800  0.04988100  1
  O  O30  1  0.50423500  0.49728800  0.85360400  1
  O  O31  1  0.50423500  0.49728800  0.64639600  1
  O  O32  1  0.99962200  0.99985100  0.35815400  1
  O  O33  1  0.99962200  0.99985100  0.14184600  1
  O  O34  1  0.99985100  0.99962200  0.85815400  1
  O  O35  1  0.99985100  0.99962200  0.64184600  1
  O  O36  1  0.66686300  0.33372400  0.94449300  1
  O  O37  1  0.66686300  0.33372400  0.55550700  1
  O  O38  1  0.84255800  0.15693800  0.45011900  1
  O  O39  1  0.15740200  0.31468500  0.94990000  1
  O  O40  1  0.15740200  0.31468500  0.55010000  1
  O  O41  1  0.99305300  0.49729300  0.64639000  1
  O  O42  1  0.99305300  0.49729300  0.85361000  1
  O  O43  1  0.00578400  0.50289000  0.14569900  1
  O  O44  1  0.00578400  0.50289000  0.35430100  1
  O  O45  1  0.84255600  0.68568900  0.45007800  1
  O  O46  1  0.84255600  0.68568900  0.04992200  1
  O  O47  1  0.33372400  0.66686300  0.05550700  1
  O  O48  1  0.33128100  0.66258000  0.75000000  1
  O  O49  1  0.49728800  0.50423500  0.14639600  1
  O  O50  1  0.49728800  0.50423500  0.35360400  1
  O  O51  1  0.15693800  0.84255800  0.54988100  1
  O  O52  1  0.15693800  0.84255800  0.95011900  1
  O  O53  1  0.33372400  0.66686300  0.44449300  1
  O  O54  1  0.49729300  0.99305300  0.35361000  1
  O  O55  1  0.49729300  0.99305300  0.14639000  1
  O  O56  1  0.68568900  0.84255600  0.54992200  1
  O  O57  1  0.68568900  0.84255600  0.95007800  1
