# generated using pymatgen
data_Pu2S3
_symmetry_space_group_name_H-M   'P 1'
_cell_length_a   7.31679527
_cell_length_b   7.31679527
_cell_length_c   7.31679510
_cell_angle_alpha   56.99766209
_cell_angle_beta   56.99766209
_cell_angle_gamma   56.99766614
_symmetry_Int_Tables_number   1
_chemical_formula_structural   Pu2S3
_chemical_formula_sum   'Pu4 S6'
_cell_volume   257.80486618
_cell_formula_units_Z   2
loop_
 _symmetry_equiv_pos_site_id
 _symmetry_equiv_pos_as_xyz
  1  'x, y, z'
loop_
 _atom_site_type_symbol
 _atom_site_label
 _atom_site_symmetry_multiplicity
 _atom_site_fract_x
 _atom_site_fract_y
 _atom_site_fract_z
 _atom_site_occupancy
  Pu  Pu0  1  0.85229600  0.85229600  0.85229600  1
  Pu  Pu1  1  0.64770400  0.64770400  0.64770400  1
  Pu  Pu2  1  0.35229600  0.35229600  0.35229600  1
  Pu  Pu3  1  0.14770400  0.14770400  0.14770400  1
  S  S4  1  0.25000000  0.54383300  0.95616700  1
  S  S5  1  0.54383300  0.95616700  0.25000000  1
  S  S6  1  0.95616700  0.25000000  0.54383300  1
  S  S7  1  0.04383300  0.75000000  0.45616700  1
  S  S8  1  0.45616700  0.04383300  0.75000000  1
  S  S9  1  0.75000000  0.45616700  0.04383300  1
