# generated using pymatgen
data_Fe13(SnO10)2
_symmetry_space_group_name_H-M   'P 1'
_cell_length_a   6.12827600
_cell_length_b   8.61606770
_cell_length_c   16.04085005
_cell_angle_alpha   105.18556533
_cell_angle_beta   100.51583628
_cell_angle_gamma   90.43795178
_symmetry_Int_Tables_number   1
_chemical_formula_structural   Fe13(SnO10)2
_chemical_formula_sum   'Fe26 Sn4 O40'
_cell_volume   802.30641861
_cell_formula_units_Z   2
loop_
 _symmetry_equiv_pos_site_id
 _symmetry_equiv_pos_as_xyz
  1  'x, y, z'
loop_
 _atom_site_type_symbol
 _atom_site_label
 _atom_site_symmetry_multiplicity
 _atom_site_fract_x
 _atom_site_fract_y
 _atom_site_fract_z
 _atom_site_occupancy
  Fe  Fe0  1  0.74566100  0.61537900  0.99848100  1
  Fe  Fe1  1  0.25433900  0.38462100  0.00151900  1
  Fe  Fe2  1  0.14984700  0.03389900  0.79949900  1
  Fe  Fe3  1  0.00000000  0.00000000  0.00000000  1
  Fe  Fe4  1  0.70081100  0.19625300  0.89537200  1
  Fe  Fe5  1  0.65448800  0.77870400  0.80049100  1
  Fe  Fe6  1  0.54184800  0.42272900  0.60082900  1
  Fe  Fe7  1  0.40407400  0.39418800  0.79928600  1
  Fe  Fe8  1  0.50000000  0.00000000  0.00000000  1
  Fe  Fe9  1  0.10417100  0.58773700  0.69507100  1
  Fe  Fe10  1  0.05849800  0.17541000  0.60267400  1
  Fe  Fe11  1  0.94150200  0.82459000  0.39732600  1
  Fe  Fe12  1  0.89206700  0.39056100  0.79760500  1
  Fe  Fe13  1  0.59367900  0.10573900  0.70169000  1
  Fe  Fe14  1  0.50000000  0.00000000  0.50000000  1
  Fe  Fe15  1  0.45815200  0.57727100  0.39917100  1
  Fe  Fe16  1  0.34551200  0.22129600  0.19950900  1
  Fe  Fe17  1  0.29919000  0.80582600  0.59949300  1
  Fe  Fe18  1  0.85015300  0.96610100  0.20050100  1
  Fe  Fe19  1  0.00000000  0.50000000  0.50000000  1
  Fe  Fe20  1  0.89582900  0.41226300  0.30492900  1
  Fe  Fe21  1  0.70081000  0.19417400  0.40050700  1
  Fe  Fe22  1  0.59592600  0.60581200  0.20071400  1
  Fe  Fe23  1  0.40632100  0.89426100  0.29831000  1
  Fe  Fe24  1  0.29918900  0.80374700  0.10462800  1
  Fe  Fe25  1  0.10793300  0.60943900  0.20239500  1
  Sn  Sn26  1  0.19973300  0.69643500  0.90129700  1
  Sn  Sn27  1  0.80165200  0.80378200  0.60130600  1
  Sn  Sn28  1  0.19834800  0.19621800  0.39869400  1
  Sn  Sn29  1  0.80026700  0.30356500  0.09870300  1
  O  O30  1  0.70663700  0.95803100  0.90619000  1
  O  O31  1  0.47994400  0.76664400  0.00325400  1
  O  O32  1  0.38585800  0.64973200  0.79919500  1
  O  O33  1  0.09559500  0.36141000  0.70224700  1
  O  O34  1  0.20755200  0.94623500  0.91093200  1
  O  O35  1  0.19899100  0.45749700  0.89166000  1
  O  O36  1  0.02607800  0.76744000  0.00529100  1
  O  O37  1  0.91465100  0.64991400  0.80044100  1
  O  O38  1  0.79544700  0.04557700  0.60220100  1
  O  O39  1  0.87039700  0.15107900  0.80132800  1
  O  O40  1  0.70475400  0.42440600  0.89431000  1
  O  O41  1  0.59158800  0.34772900  0.70125200  1
  O  O42  1  0.60263300  0.85177400  0.69669200  1
  O  O43  1  0.51303700  0.75875600  0.50475900  1
  O  O44  1  0.30695700  0.04553500  0.60112700  1
  O  O45  1  0.42934600  0.15743900  0.80594800  1
  O  O46  1  0.28396800  0.55270800  0.60040800  1
  O  O47  1  0.19312400  0.44398500  0.39639600  1
  O  O48  1  0.08983700  0.82642900  0.69452500  1
  O  O49  1  0.91016300  0.17357100  0.30547500  1
  O  O50  1  0.99464500  0.74724300  0.50318200  1
  O  O51  1  0.00535500  0.25275700  0.49681800  1
  O  O52  1  0.80687600  0.55601500  0.60360400  1
  O  O53  1  0.71603200  0.44729200  0.39959200  1
  O  O54  1  0.57065400  0.84256100  0.19405200  1
  O  O55  1  0.69304300  0.95446500  0.39887300  1
  O  O56  1  0.48696300  0.24124400  0.49524100  1
  O  O57  1  0.39736700  0.14822600  0.30330800  1
  O  O58  1  0.40841200  0.65227100  0.29874800  1
  O  O59  1  0.29524600  0.57559400  0.10569000  1
  O  O60  1  0.12960300  0.84892100  0.19867200  1
  O  O61  1  0.20455300  0.95442300  0.39779900  1
  O  O62  1  0.97392200  0.23256000  0.99470900  1
  O  O63  1  0.08534900  0.35008600  0.19955900  1
  O  O64  1  0.90440500  0.63859000  0.29775300  1
  O  O65  1  0.80100900  0.54250300  0.10834000  1
  O  O66  1  0.79244800  0.05376500  0.08906800  1
  O  O67  1  0.61414200  0.35026800  0.20080500  1
  O  O68  1  0.52005600  0.23335600  0.99674600  1
  O  O69  1  0.29336300  0.04196900  0.09381000  1
