# generated using pymatgen
data_Ca2SnS4
_symmetry_space_group_name_H-M   'P 1'
_cell_length_a   8.01446300
_cell_length_b   8.01446300
_cell_length_c   11.54443600
_cell_angle_alpha   90.00000000
_cell_angle_beta   90.00000000
_cell_angle_gamma   90.00000000
_symmetry_Int_Tables_number   1
_chemical_formula_structural   Ca2SnS4
_chemical_formula_sum   'Ca8 Sn4 S16'
_cell_volume   741.51779369
_cell_formula_units_Z   4
loop_
 _symmetry_equiv_pos_site_id
 _symmetry_equiv_pos_as_xyz
  1  'x, y, z'
loop_
 _atom_site_type_symbol
 _atom_site_label
 _atom_site_symmetry_multiplicity
 _atom_site_fract_x
 _atom_site_fract_y
 _atom_site_fract_z
 _atom_site_occupancy
  Ca  Ca0  1  0.26298400  0.00000000  0.25000000  1
  Ca  Ca1  1  0.73701600  0.00000000  0.75000000  1
  Ca  Ca2  1  0.00000000  0.26298400  0.50000000  1
  Ca  Ca3  1  0.00000000  0.73701600  0.00000000  1
  Ca  Ca4  1  0.24418500  0.24418500  0.87500000  1
  Ca  Ca5  1  0.75581500  0.75581500  0.37500000  1
  Ca  Ca6  1  0.75581500  0.24418500  0.12500000  1
  Ca  Ca7  1  0.24418500  0.75581500  0.62500000  1
  Sn  Sn8  1  0.25633700  0.50000000  0.25000000  1
  Sn  Sn9  1  0.74366300  0.50000000  0.75000000  1
  Sn  Sn10  1  0.50000000  0.25633700  0.50000000  1
  Sn  Sn11  1  0.50000000  0.74366300  0.00000000  1
  S  S12  1  0.03671600  0.26905300  0.25366200  1
  S  S13  1  0.96328400  0.73094700  0.75366200  1
  S  S14  1  0.73094700  0.03671600  0.50366200  1
  S  S15  1  0.26905300  0.96328400  0.00366200  1
  S  S16  1  0.96328400  0.26905300  0.74633800  1
  S  S17  1  0.03671600  0.73094700  0.24633800  1
  S  S18  1  0.26905300  0.03671600  0.49633800  1
  S  S19  1  0.73094700  0.96328400  0.99633800  1
  S  S20  1  0.49451200  0.27182700  0.27477300  1
  S  S21  1  0.50548800  0.72817300  0.77477300  1
  S  S22  1  0.72817300  0.49451200  0.52477300  1
  S  S23  1  0.27182700  0.50548800  0.02477300  1
  S  S24  1  0.50548800  0.27182700  0.72522700  1
  S  S25  1  0.49451200  0.72817300  0.22522700  1
  S  S26  1  0.27182700  0.49451200  0.47522700  1
  S  S27  1  0.72817300  0.50548800  0.97522700  1
