# generated using pymatgen
data_ZnAg3
_symmetry_space_group_name_H-M   'P 1'
_cell_length_a   5.11761206
_cell_length_b   5.11761206
_cell_length_c   5.11761206
_cell_angle_alpha   133.62248156
_cell_angle_beta   133.62248156
_cell_angle_gamma   67.67825445
_symmetry_Int_Tables_number   1
_chemical_formula_structural   ZnAg3
_chemical_formula_sum   'Zn1 Ag3'
_cell_volume   69.04352657
_cell_formula_units_Z   1
loop_
 _symmetry_equiv_pos_site_id
 _symmetry_equiv_pos_as_xyz
  1  'x, y, z'
loop_
 _atom_site_type_symbol
 _atom_site_label
 _atom_site_symmetry_multiplicity
 _atom_site_fract_x
 _atom_site_fract_y
 _atom_site_fract_z
 _atom_site_occupancy
  Zn  Zn0  1  0.00000000  0.00000000  0.00000000  1
  Ag  Ag1  1  0.75000000  0.25000000  0.50000000  1
  Ag  Ag2  1  0.25000000  0.75000000  0.50000000  1
  Ag  Ag3  1  0.50000000  0.50000000  0.00000000  1
