# generated using pymatgen
data_Ca4Sn5S14
_symmetry_space_group_name_H-M   'P 1'
_cell_length_a   14.20413900
_cell_length_b   15.97037200
_cell_length_c   21.88733400
_cell_angle_alpha   90.00000000
_cell_angle_beta   90.00000000
_cell_angle_gamma   90.00000000
_symmetry_Int_Tables_number   1
_chemical_formula_structural   Ca4Sn5S14
_chemical_formula_sum   'Ca32 Sn40 S112'
_cell_volume   4965.04068093
_cell_formula_units_Z   8
loop_
 _symmetry_equiv_pos_site_id
 _symmetry_equiv_pos_as_xyz
  1  'x, y, z'
loop_
 _atom_site_type_symbol
 _atom_site_label
 _atom_site_symmetry_multiplicity
 _atom_site_fract_x
 _atom_site_fract_y
 _atom_site_fract_z
 _atom_site_occupancy
  Ca  Ca0  1  0.41231700  0.71729300  0.63169000  1
  Ca  Ca1  1  0.91231700  0.28270700  0.86831000  1
  Ca  Ca2  1  0.58768300  0.78270700  0.13169000  1
  Ca  Ca3  1  0.08768300  0.21729300  0.36831000  1
  Ca  Ca4  1  0.58768300  0.28270700  0.36831000  1
  Ca  Ca5  1  0.08768300  0.71729300  0.13169000  1
  Ca  Ca6  1  0.41231700  0.21729300  0.86831000  1
  Ca  Ca7  1  0.91231700  0.78270700  0.63169000  1
  Ca  Ca8  1  0.37346900  0.79979900  0.99448700  1
  Ca  Ca9  1  0.87346900  0.20020100  0.50551300  1
  Ca  Ca10  1  0.62653100  0.70020100  0.49448700  1
  Ca  Ca11  1  0.12653100  0.29979900  0.00551300  1
  Ca  Ca12  1  0.62653100  0.20020100  0.00551300  1
  Ca  Ca13  1  0.12653100  0.79979900  0.49448700  1
  Ca  Ca14  1  0.37346900  0.29979900  0.50551300  1
  Ca  Ca15  1  0.87346900  0.70020100  0.99448700  1
  Ca  Ca16  1  0.13911300  0.70450600  0.81032600  1
  Ca  Ca17  1  0.63911300  0.29549400  0.68967400  1
  Ca  Ca18  1  0.86088700  0.79549400  0.31032600  1
  Ca  Ca19  1  0.36088700  0.20450600  0.18967400  1
  Ca  Ca20  1  0.86088700  0.29549400  0.18967400  1
  Ca  Ca21  1  0.36088700  0.70450600  0.31032600  1
  Ca  Ca22  1  0.13911300  0.20450600  0.68967400  1
  Ca  Ca23  1  0.63911300  0.79549400  0.81032600  1
  Ca  Ca24  1  0.10913600  0.87622400  0.95692300  1
  Ca  Ca25  1  0.60913600  0.12377600  0.54307700  1
  Ca  Ca26  1  0.89086400  0.62377600  0.45692300  1
  Ca  Ca27  1  0.39086400  0.37622400  0.04307700  1
  Ca  Ca28  1  0.89086400  0.12377600  0.04307700  1
  Ca  Ca29  1  0.39086400  0.87622400  0.45692300  1
  Ca  Ca30  1  0.10913600  0.37622400  0.54307700  1
  Ca  Ca31  1  0.60913600  0.62377600  0.95692300  1
  Sn  Sn32  1  0.38288700  0.59380800  0.79629400  1
  Sn  Sn33  1  0.88288700  0.40619200  0.70370600  1
  Sn  Sn34  1  0.61711300  0.90619200  0.29629400  1
  Sn  Sn35  1  0.11711300  0.09380800  0.20370600  1
  Sn  Sn36  1  0.61711300  0.40619200  0.20370600  1
  Sn  Sn37  1  0.11711300  0.59380800  0.29629400  1
  Sn  Sn38  1  0.38288700  0.09380800  0.70370600  1
  Sn  Sn39  1  0.88288700  0.90619200  0.79629400  1
  Sn  Sn40  1  0.32184800  0.92598200  0.85361500  1
  Sn  Sn41  1  0.82184800  0.07401800  0.64638500  1
  Sn  Sn42  1  0.67815200  0.57401800  0.35361500  1
  Sn  Sn43  1  0.17815200  0.42598200  0.14638500  1
  Sn  Sn44  1  0.67815200  0.07401800  0.14638500  1
  Sn  Sn45  1  0.17815200  0.92598200  0.35361500  1
  Sn  Sn46  1  0.32184800  0.42598200  0.64638500  1
  Sn  Sn47  1  0.82184800  0.57401800  0.85361500  1
  Sn  Sn48  1  0.17012200  0.92883300  0.65661900  1
  Sn  Sn49  1  0.67012200  0.07116700  0.84338100  1
  Sn  Sn50  1  0.82987800  0.57116700  0.15661900  1
  Sn  Sn51  1  0.32987800  0.42883300  0.34338100  1
  Sn  Sn52  1  0.82987800  0.07116700  0.34338100  1
  Sn  Sn53  1  0.32987800  0.92883300  0.15661900  1
  Sn  Sn54  1  0.17012200  0.42883300  0.84338100  1
  Sn  Sn55  1  0.67012200  0.57116700  0.65661900  1
  Sn  Sn56  1  0.12043000  0.56458500  0.98067300  1
  Sn  Sn57  1  0.62043000  0.43541500  0.51932700  1
  Sn  Sn58  1  0.87957000  0.93541500  0.48067300  1
  Sn  Sn59  1  0.37957000  0.06458500  0.01932700  1
  Sn  Sn60  1  0.87957000  0.43541500  0.01932700  1
  Sn  Sn61  1  0.37957000  0.56458500  0.48067300  1
  Sn  Sn62  1  0.12043000  0.06458500  0.51932700  1
  Sn  Sn63  1  0.62043000  0.93541500  0.98067300  1
  Sn  Sn64  1  0.10656200  0.61002000  0.64590900  1
  Sn  Sn65  1  0.60656200  0.38998000  0.85409100  1
  Sn  Sn66  1  0.89343800  0.88998000  0.14590900  1
  Sn  Sn67  1  0.39343800  0.11002000  0.35409100  1
  Sn  Sn68  1  0.89343800  0.38998000  0.35409100  1
  Sn  Sn69  1  0.39343800  0.61002000  0.14590900  1
  Sn  Sn70  1  0.10656200  0.11002000  0.85409100  1
  Sn  Sn71  1  0.60656200  0.88998000  0.64590900  1
  S  S72  1  0.53240200  0.57092300  0.56761300  1
  S  S73  1  0.03240200  0.42907700  0.93238700  1
  S  S74  1  0.46759800  0.92907700  0.06761300  1
  S  S75  1  0.96759800  0.07092300  0.43238700  1
  S  S76  1  0.46759800  0.42907700  0.43238700  1
  S  S77  1  0.96759800  0.57092300  0.06761300  1
  S  S78  1  0.53240200  0.07092300  0.93238700  1
  S  S79  1  0.03240200  0.92907700  0.56761300  1
  S  S80  1  0.48588600  0.74411600  0.88895500  1
  S  S81  1  0.98588600  0.25588400  0.61104500  1
  S  S82  1  0.51411400  0.75588400  0.38895500  1
  S  S83  1  0.01411400  0.24411600  0.11104500  1
  S  S84  1  0.51411400  0.25588400  0.11104500  1
  S  S85  1  0.01411400  0.74411600  0.38895500  1
  S  S86  1  0.48588600  0.24411600  0.61104500  1
  S  S87  1  0.98588600  0.75588400  0.88895500  1
  S  S88  1  0.54337200  0.53378700  0.84981300  1
  S  S89  1  0.04337200  0.46621300  0.65018700  1
  S  S90  1  0.45662800  0.96621300  0.34981300  1
  S  S91  1  0.95662800  0.03378700  0.15018700  1
  S  S92  1  0.45662800  0.46621300  0.15018700  1
  S  S93  1  0.95662800  0.53378700  0.34981300  1
  S  S94  1  0.54337200  0.03378700  0.65018700  1
  S  S95  1  0.04337200  0.96621300  0.84981300  1
  S  S96  1  0.49055500  0.81712400  0.72398900  1
  S  S97  1  0.99055500  0.18287600  0.77601100  1
  S  S98  1  0.50944500  0.68287600  0.22398900  1
  S  S99  1  0.00944500  0.31712400  0.27601200  1
  S  S100  1  0.50944500  0.18287600  0.27601200  1
  S  S101  1  0.00944500  0.81712400  0.22398900  1
  S  S102  1  0.49055500  0.31712400  0.77601100  1
  S  S103  1  0.99055500  0.68287600  0.72398900  1
  S  S104  1  0.29948200  0.74466400  0.53419900  1
  S  S105  1  0.79948200  0.25533600  0.96580100  1
  S  S106  1  0.70051800  0.75533600  0.03419900  1
  S  S107  1  0.20051800  0.24466400  0.46580100  1
  S  S108  1  0.70051800  0.25533600  0.46580100  1
  S  S109  1  0.20051800  0.74466400  0.03419900  1
  S  S110  1  0.29948200  0.24466400  0.96580100  1
  S  S111  1  0.79948200  0.75533600  0.53419900  1
  S  S112  1  0.25041700  0.79859100  0.88736900  1
  S  S113  1  0.75041700  0.20140900  0.61263100  1
  S  S114  1  0.74958300  0.70140900  0.38736900  1
  S  S115  1  0.24958400  0.29859100  0.11263100  1
  S  S116  1  0.74958300  0.20140900  0.11263100  1
  S  S117  1  0.24958400  0.79859100  0.38736900  1
  S  S118  1  0.25041700  0.29859100  0.61263100  1
  S  S119  1  0.75041700  0.70140900  0.88736900  1
  S  S120  1  0.33222800  0.94546600  0.74598500  1
  S  S121  1  0.83222800  0.05453400  0.75401500  1
  S  S122  1  0.66777200  0.55453400  0.24598500  1
  S  S123  1  0.16777200  0.44546600  0.25401500  1
  S  S124  1  0.66777200  0.05453400  0.25401500  1
  S  S125  1  0.16777200  0.94546600  0.24598500  1
  S  S126  1  0.33222800  0.44546600  0.75401500  1
  S  S127  1  0.83222800  0.55453400  0.74598500  1
  S  S128  1  0.24135700  0.57086900  0.87983600  1
  S  S129  1  0.74135700  0.42913100  0.62016400  1
  S  S130  1  0.75864300  0.92913100  0.37983600  1
  S  S131  1  0.25864300  0.07086900  0.12016400  1
  S  S132  1  0.75864300  0.42913100  0.12016400  1
  S  S133  1  0.25864300  0.57086900  0.37983600  1
  S  S134  1  0.24135700  0.07086900  0.62016400  1
  S  S135  1  0.74135700  0.92913100  0.87983600  1
  S  S136  1  0.28675600  0.86986700  0.56680100  1
  S  S137  1  0.78675600  0.13013300  0.93319900  1
  S  S138  1  0.71324400  0.63013300  0.06680100  1
  S  S139  1  0.21324400  0.36986700  0.43319900  1
  S  S140  1  0.71324400  0.13013300  0.43319900  1
  S  S141  1  0.21324400  0.86986700  0.06680100  1
  S  S142  1  0.28675600  0.36986700  0.93319900  1
  S  S143  1  0.78675600  0.63013300  0.56680100  1
  S  S144  1  0.24564700  0.66344900  0.70255000  1
  S  S145  1  0.74564700  0.33655100  0.79745000  1
  S  S146  1  0.75435300  0.83655100  0.20255000  1
  S  S147  1  0.25435300  0.16344900  0.29745000  1
  S  S148  1  0.75435300  0.33655100  0.29745000  1
  S  S149  1  0.25435300  0.66344900  0.20255000  1
  S  S150  1  0.24564700  0.16344900  0.79745000  1
  S  S151  1  0.74564700  0.83655100  0.70255000  1
  S  S152  1  0.24962400  0.51986200  0.57279500  1
  S  S153  1  0.74962400  0.48013800  0.92720500  1
  S  S154  1  0.75037600  0.98013800  0.07279500  1
  S  S155  1  0.25037600  0.01986200  0.42720500  1
  S  S156  1  0.75037600  0.48013800  0.42720500  1
  S  S157  1  0.25037600  0.51986200  0.07279500  1
  S  S158  1  0.24962400  0.01986200  0.92720500  1
  S  S159  1  0.74962400  0.98013800  0.57279500  1
  S  S160  1  0.04980000  0.80577400  0.71988400  1
  S  S161  1  0.54980000  0.19422600  0.78011600  1
  S  S162  1  0.95020000  0.69422600  0.21988400  1
  S  S163  1  0.45020000  0.30577400  0.28011600  1
  S  S164  1  0.95020000  0.19422600  0.28011600  1
  S  S165  1  0.45020000  0.80577400  0.21988400  1
  S  S166  1  0.04980000  0.30577400  0.78011600  1
  S  S167  1  0.54980000  0.69422600  0.71988400  1
  S  S168  1  0.03445900  0.67720000  0.55718600  1
  S  S169  1  0.53445900  0.32280000  0.94281400  1
  S  S170  1  0.96554100  0.82280000  0.05718600  1
  S  S171  1  0.46554100  0.17720000  0.44281400  1
  S  S172  1  0.96554100  0.32280000  0.44281400  1
  S  S173  1  0.46554100  0.67720000  0.05718600  1
  S  S174  1  0.03445900  0.17720000  0.94281400  1
  S  S175  1  0.53445900  0.82280000  0.55718600  1
  S  S176  1  0.98688000  0.62471800  0.89336100  1
  S  S177  1  0.48688000  0.37528200  0.60663900  1
  S  S178  1  0.01312000  0.87528200  0.39336100  1
  S  S179  1  0.51312000  0.12471800  0.10663900  1
  S  S180  1  0.01312000  0.37528200  0.10663900  1
  S  S181  1  0.51312000  0.62471800  0.39336100  1
  S  S182  1  0.98688000  0.12471800  0.60663900  1
  S  S183  1  0.48688000  0.87528200  0.89336100  1
