# generated using pymatgen
data_Cr3B4
_symmetry_space_group_name_H-M   'P 1'
_cell_length_a   6.84325162
_cell_length_b   6.84325162
_cell_length_c   6.84325162
_cell_angle_alpha   155.37464345
_cell_angle_beta   155.16683809
_cell_angle_gamma   35.25548041
_symmetry_Int_Tables_number   1
_chemical_formula_structural   Cr3B4
_chemical_formula_sum   'Cr3 B4'
_cell_volume   56.01667837
_cell_formula_units_Z   1
loop_
 _symmetry_equiv_pos_site_id
 _symmetry_equiv_pos_as_xyz
  1  'x, y, z'
loop_
 _atom_site_type_symbol
 _atom_site_label
 _atom_site_symmetry_multiplicity
 _atom_site_fract_x
 _atom_site_fract_y
 _atom_site_fract_z
 _atom_site_occupancy
  Cr  Cr0  1  0.18599100  0.68599100  0.50000000  1
  Cr  Cr1  1  0.81400900  0.31400900  0.50000000  1
  Cr  Cr2  1  0.50000000  0.50000000  0.00000000  1
  B  B3  1  0.93362200  0.93362200  0.00000000  1
  B  B4  1  0.06637800  0.06637800  0.00000000  1
  B  B5  1  0.36017900  0.86017900  0.50000000  1
  B  B6  1  0.63982100  0.13982100  0.50000000  1
