# generated using pymatgen
data_Ba5Ru2O11
_symmetry_space_group_name_H-M   'P 1'
_cell_length_a   6.05832181
_cell_length_b   6.05832181
_cell_length_c   18.27009757
_cell_angle_alpha   89.76551574
_cell_angle_beta   89.76551574
_cell_angle_gamma   119.81306131
_symmetry_Int_Tables_number   1
_chemical_formula_structural   Ba5Ru2O11
_chemical_formula_sum   'Ba10 Ru4 O22'
_cell_volume   581.80402312
_cell_formula_units_Z   2
loop_
 _symmetry_equiv_pos_site_id
 _symmetry_equiv_pos_as_xyz
  1  'x, y, z'
loop_
 _atom_site_type_symbol
 _atom_site_label
 _atom_site_symmetry_multiplicity
 _atom_site_fract_x
 _atom_site_fract_y
 _atom_site_fract_z
 _atom_site_occupancy
  Ba  Ba0  1  0.67090800  0.34031400  0.01663300  1
  Ba  Ba1  1  0.66624700  0.33375300  0.25000000  1
  Ba  Ba2  1  0.99864000  0.99741500  0.13945500  1
  Ba  Ba3  1  0.00258500  0.00136000  0.36054500  1
  Ba  Ba4  1  0.99741500  0.99864000  0.63945500  1
  Ba  Ba5  1  0.00136000  0.00258500  0.86054500  1
  Ba  Ba6  1  0.65968600  0.32909200  0.48336700  1
  Ba  Ba7  1  0.34031400  0.67090800  0.51663300  1
  Ba  Ba8  1  0.32909200  0.65968600  0.98336700  1
  Ba  Ba9  1  0.33375300  0.66624700  0.75000000  1
  Ru  Ru10  1  0.66642900  0.33253800  0.67317300  1
  Ru  Ru11  1  0.66746200  0.33357100  0.82682700  1
  Ru  Ru12  1  0.33253800  0.66642900  0.17317300  1
  Ru  Ru13  1  0.33357100  0.66746200  0.32682700  1
  O  O14  1  0.14268900  0.07128600  0.50073200  1
  O  O15  1  0.51102400  0.48917900  0.88083600  1
  O  O16  1  0.51082100  0.48897600  0.61916400  1
  O  O17  1  0.37237300  0.18554300  0.75051600  1
  O  O18  1  0.51264900  0.02489200  0.88461100  1
  O  O19  1  0.81445700  0.62762700  0.74948400  1
  O  O20  1  0.92871400  0.85731100  0.99926800  1
  O  O21  1  0.51193100  0.02249500  0.61929900  1
  O  O22  1  0.81494700  0.18505300  0.75000000  1
  O  O23  1  0.97510800  0.48735100  0.61538900  1
  O  O24  1  0.97750500  0.48806900  0.88070100  1
  O  O25  1  0.02249500  0.51193100  0.11929900  1
  O  O26  1  0.02489200  0.51264900  0.38461100  1
  O  O27  1  0.18505300  0.81494700  0.25000000  1
  O  O28  1  0.18554300  0.37237300  0.25051600  1
  O  O29  1  0.07128600  0.14268900  0.00073200  1
  O  O30  1  0.48735100  0.97510800  0.11538900  1
  O  O31  1  0.48806900  0.97750500  0.38070100  1
  O  O32  1  0.62762700  0.81445700  0.24948400  1
  O  O33  1  0.48917900  0.51102400  0.38083600  1
  O  O34  1  0.48897600  0.51082100  0.11916400  1
  O  O35  1  0.85731100  0.92871400  0.49926800  1
