# generated using pymatgen
data_MnOF
_symmetry_space_group_name_H-M   'P 1'
_cell_length_a   3.79168900
_cell_length_b   4.35139449
_cell_length_c   5.52984070
_cell_angle_alpha   110.99843094
_cell_angle_beta   109.36715688
_cell_angle_gamma   90.92372067
_symmetry_Int_Tables_number   1
_chemical_formula_structural   MnOF
_chemical_formula_sum   'Mn2 O2 F2'
_cell_volume   79.40958334
_cell_formula_units_Z   2
loop_
 _symmetry_equiv_pos_site_id
 _symmetry_equiv_pos_as_xyz
  1  'x, y, z'
loop_
 _atom_site_type_symbol
 _atom_site_label
 _atom_site_symmetry_multiplicity
 _atom_site_fract_x
 _atom_site_fract_y
 _atom_site_fract_z
 _atom_site_occupancy
  Mn  Mn0  1  0.86316800  0.61709200  0.23143400  1
  Mn  Mn1  1  0.13683200  0.38290800  0.76856600  1
  O  O2  1  0.33183900  0.63029500  0.16413700  1
  O  O3  1  0.66816100  0.36970500  0.83586300  1
  F  F4  1  0.94407900  0.18674200  0.35831100  1
  F  F5  1  0.05592100  0.81325800  0.64168900  1
