# generated using pymatgen
data_Yb3Hf
_symmetry_space_group_name_H-M   'P 1'
_cell_length_a   6.14860128
_cell_length_b   6.14860128
_cell_length_c   6.14860128
_cell_angle_alpha   131.63970347
_cell_angle_beta   131.63970347
_cell_angle_gamma   70.79867481
_symmetry_Int_Tables_number   1
_chemical_formula_structural   Yb3Hf
_chemical_formula_sum   'Yb3 Hf1'
_cell_volume   127.16071284
_cell_formula_units_Z   1
loop_
 _symmetry_equiv_pos_site_id
 _symmetry_equiv_pos_as_xyz
  1  'x, y, z'
loop_
 _atom_site_type_symbol
 _atom_site_label
 _atom_site_symmetry_multiplicity
 _atom_site_fract_x
 _atom_site_fract_y
 _atom_site_fract_z
 _atom_site_occupancy
  Yb  Yb0  1  0.75000000  0.25000000  0.50000000  1
  Yb  Yb1  1  0.25000000  0.75000000  0.50000000  1
  Yb  Yb2  1  0.50000000  0.50000000  0.00000000  1
  Hf  Hf3  1  0.00000000  0.00000000  0.00000000  1
