# generated using pymatgen
data_DyCoSi2
_symmetry_space_group_name_H-M   'P 1'
_cell_length_a   8.35026006
_cell_length_b   8.35026006
_cell_length_c   3.98624200
_cell_angle_alpha   90.00000000
_cell_angle_beta   90.00000000
_cell_angle_gamma   152.09143738
_symmetry_Int_Tables_number   1
_chemical_formula_structural   DyCoSi2
_chemical_formula_sum   'Dy2 Co2 Si4'
_cell_volume   130.09689753
_cell_formula_units_Z   2
loop_
 _symmetry_equiv_pos_site_id
 _symmetry_equiv_pos_as_xyz
  1  'x, y, z'
loop_
 _atom_site_type_symbol
 _atom_site_label
 _atom_site_symmetry_multiplicity
 _atom_site_fract_x
 _atom_site_fract_y
 _atom_site_fract_z
 _atom_site_occupancy
  Dy  Dy0  1  0.10726200  0.89273800  0.25000000  1
  Dy  Dy1  1  0.89273800  0.10726200  0.75000000  1
  Co  Co2  1  0.32059300  0.67940700  0.25000000  1
  Co  Co3  1  0.67940700  0.32059300  0.75000000  1
  Si  Si4  1  0.24986700  0.75013300  0.75000000  1
  Si  Si5  1  0.75013300  0.24986700  0.25000000  1
  Si  Si6  1  0.54249500  0.45750500  0.75000000  1
  Si  Si7  1  0.45750500  0.54249500  0.25000000  1
