# generated using pymatgen
data_SmLu3
_symmetry_space_group_name_H-M   'P 1'
_cell_length_a   7.12872170
_cell_length_b   7.12872170
_cell_length_c   5.57325300
_cell_angle_alpha   90.00000000
_cell_angle_beta   90.00000000
_cell_angle_gamma   119.99999720
_symmetry_Int_Tables_number   1
_chemical_formula_structural   SmLu3
_chemical_formula_sum   'Sm2 Lu6'
_cell_volume   245.28033080
_cell_formula_units_Z   2
loop_
 _symmetry_equiv_pos_site_id
 _symmetry_equiv_pos_as_xyz
  1  'x, y, z'
loop_
 _atom_site_type_symbol
 _atom_site_label
 _atom_site_symmetry_multiplicity
 _atom_site_fract_x
 _atom_site_fract_y
 _atom_site_fract_z
 _atom_site_occupancy
  Sm  Sm0  1  0.33333300  0.66666700  0.75000000  1
  Sm  Sm1  1  0.66666700  0.33333300  0.25000000  1
  Lu  Lu2  1  0.16486600  0.32973200  0.25000000  1
  Lu  Lu3  1  0.67026800  0.83513400  0.25000000  1
  Lu  Lu4  1  0.16486600  0.83513400  0.25000000  1
  Lu  Lu5  1  0.83513400  0.67026800  0.75000000  1
  Lu  Lu6  1  0.32973200  0.16486600  0.75000000  1
  Lu  Lu7  1  0.83513400  0.16486600  0.75000000  1
