# generated using pymatgen
data_Yb3Tm
_symmetry_space_group_name_H-M   'P 1'
_cell_length_a   7.49122821
_cell_length_b   7.49122821
_cell_length_c   6.06017100
_cell_angle_alpha   90.00000000
_cell_angle_beta   90.00000000
_cell_angle_gamma   120.00000189
_symmetry_Int_Tables_number   1
_chemical_formula_structural   Yb3Tm
_chemical_formula_sum   'Yb6 Tm2'
_cell_volume   294.52458831
_cell_formula_units_Z   2
loop_
 _symmetry_equiv_pos_site_id
 _symmetry_equiv_pos_as_xyz
  1  'x, y, z'
loop_
 _atom_site_type_symbol
 _atom_site_label
 _atom_site_symmetry_multiplicity
 _atom_site_fract_x
 _atom_site_fract_y
 _atom_site_fract_z
 _atom_site_occupancy
  Yb  Yb0  1  0.17078400  0.34156800  0.25000000  1
  Yb  Yb1  1  0.65843200  0.82921600  0.25000000  1
  Yb  Yb2  1  0.17078400  0.82921600  0.25000000  1
  Yb  Yb3  1  0.82921600  0.65843200  0.75000000  1
  Yb  Yb4  1  0.34156800  0.17078400  0.75000000  1
  Yb  Yb5  1  0.82921600  0.17078400  0.75000000  1
  Tm  Tm6  1  0.33333300  0.66666700  0.75000000  1
  Tm  Tm7  1  0.66666700  0.33333300  0.25000000  1
