# generated using pymatgen
data_Yb3Nb
_symmetry_space_group_name_H-M   'P 1'
_cell_length_a   7.07418532
_cell_length_b   7.07418532
_cell_length_c   5.66454100
_cell_angle_alpha   90.00000000
_cell_angle_beta   90.00000000
_cell_angle_gamma   119.99999363
_symmetry_Int_Tables_number   1
_chemical_formula_structural   Yb3Nb
_chemical_formula_sum   'Yb6 Nb2'
_cell_volume   245.49816446
_cell_formula_units_Z   2
loop_
 _symmetry_equiv_pos_site_id
 _symmetry_equiv_pos_as_xyz
  1  'x, y, z'
loop_
 _atom_site_type_symbol
 _atom_site_label
 _atom_site_symmetry_multiplicity
 _atom_site_fract_x
 _atom_site_fract_y
 _atom_site_fract_z
 _atom_site_occupancy
  Yb  Yb0  1  0.82501400  0.17498600  0.75000000  1
  Yb  Yb1  1  0.34997100  0.17498600  0.75000000  1
  Yb  Yb2  1  0.82501400  0.65002900  0.75000000  1
  Yb  Yb3  1  0.17498600  0.82501400  0.25000000  1
  Yb  Yb4  1  0.65002900  0.82501400  0.25000000  1
  Yb  Yb5  1  0.17498600  0.34997100  0.25000000  1
  Nb  Nb6  1  0.66666700  0.33333300  0.25000000  1
  Nb  Nb7  1  0.33333300  0.66666700  0.75000000  1
