# generated using pymatgen
data_K3Sr
_symmetry_space_group_name_H-M   'P 1'
_cell_length_a   8.18805488
_cell_length_b   8.18805488
_cell_length_c   8.18805488
_cell_angle_alpha   134.39410796
_cell_angle_beta   134.39410796
_cell_angle_gamma   66.47309072
_symmetry_Int_Tables_number   1
_chemical_formula_structural   K3Sr
_chemical_formula_sum   'K3 Sr1'
_cell_volume   275.87259936
_cell_formula_units_Z   1
loop_
 _symmetry_equiv_pos_site_id
 _symmetry_equiv_pos_as_xyz
  1  'x, y, z'
loop_
 _atom_site_type_symbol
 _atom_site_label
 _atom_site_symmetry_multiplicity
 _atom_site_fract_x
 _atom_site_fract_y
 _atom_site_fract_z
 _atom_site_occupancy
  K  K0  1  0.75000000  0.25000000  0.50000000  1
  K  K1  1  0.25000000  0.75000000  0.50000000  1
  K  K2  1  0.50000000  0.50000000  0.00000000  1
  Sr  Sr3  1  0.00000000  0.00000000  0.00000000  1
