# generated using pymatgen
data_Pa3Ta
_symmetry_space_group_name_H-M   'P 1'
_cell_length_a   6.25992965
_cell_length_b   6.25992965
_cell_length_c   5.56822600
_cell_angle_alpha   90.00000000
_cell_angle_beta   90.00000000
_cell_angle_gamma   119.99999628
_symmetry_Int_Tables_number   1
_chemical_formula_structural   Pa3Ta
_chemical_formula_sum   'Pa6 Ta2'
_cell_volume   188.96719075
_cell_formula_units_Z   2
loop_
 _symmetry_equiv_pos_site_id
 _symmetry_equiv_pos_as_xyz
  1  'x, y, z'
loop_
 _atom_site_type_symbol
 _atom_site_label
 _atom_site_symmetry_multiplicity
 _atom_site_fract_x
 _atom_site_fract_y
 _atom_site_fract_z
 _atom_site_occupancy
  Pa  Pa0  1  0.17284400  0.34568700  0.25000000  1
  Pa  Pa1  1  0.65431300  0.82715600  0.25000000  1
  Pa  Pa2  1  0.17284400  0.82715600  0.25000000  1
  Pa  Pa3  1  0.82715600  0.65431300  0.75000000  1
  Pa  Pa4  1  0.34568700  0.17284400  0.75000000  1
  Pa  Pa5  1  0.82715600  0.17284400  0.75000000  1
  Ta  Ta6  1  0.33333300  0.66666700  0.75000000  1
  Ta  Ta7  1  0.66666700  0.33333300  0.25000000  1
