# generated using pymatgen
data_KCoH3(CO2)3
_symmetry_space_group_name_H-M   'P 1'
_cell_length_a   7.05963982
_cell_length_b   7.05963982
_cell_length_c   6.83792585
_cell_angle_alpha   87.04168954
_cell_angle_beta   87.04168954
_cell_angle_gamma   80.24465873
_symmetry_Int_Tables_number   1
_chemical_formula_structural   KCoH3(CO2)3
_chemical_formula_sum   'K2 Co2 H6 C6 O12'
_cell_volume   335.09846535
_cell_formula_units_Z   2
loop_
 _symmetry_equiv_pos_site_id
 _symmetry_equiv_pos_as_xyz
  1  'x, y, z'
loop_
 _atom_site_type_symbol
 _atom_site_label
 _atom_site_symmetry_multiplicity
 _atom_site_fract_x
 _atom_site_fract_y
 _atom_site_fract_z
 _atom_site_occupancy
  K  K0  1  0.90023800  0.09976200  0.75000000  1
  K  K1  1  0.09976200  0.90023800  0.25000000  1
  Co  Co2  1  0.00000000  0.50000000  0.00000000  1
  Co  Co3  1  0.50000000  0.00000000  0.50000000  1
  H  H4  1  0.67782100  0.56594600  0.50747300  1
  H  H5  1  0.62340400  0.37659600  0.25000000  1
  H  H6  1  0.56594600  0.67782100  0.00747300  1
  H  H7  1  0.43405400  0.32217900  0.99252700  1
  H  H8  1  0.37659600  0.62340400  0.75000000  1
  H  H9  1  0.32217900  0.43405400  0.49252700  1
  C  C10  1  0.74526300  0.25473700  0.25000000  1
  C  C11  1  0.73747100  0.62048800  0.63660900  1
  C  C12  1  0.62048800  0.73747100  0.13660900  1
  C  C13  1  0.37951200  0.26252900  0.86339100  1
  C  C14  1  0.26252900  0.37951200  0.36339100  1
  C  C15  1  0.25473700  0.74526300  0.75000000  1
  O  O16  1  0.88151100  0.25966000  0.12212000  1
  O  O17  1  0.83341300  0.49550200  0.74835700  1
  O  O18  1  0.80112600  0.70199500  0.15886200  1
  O  O19  1  0.74034000  0.11848900  0.37788000  1
  O  O20  1  0.70199500  0.80112600  0.65886200  1
  O  O21  1  0.50449800  0.16658700  0.75164300  1
  O  O22  1  0.49550200  0.83341300  0.24835700  1
  O  O23  1  0.29800500  0.19887400  0.34113800  1
  O  O24  1  0.25966000  0.88151100  0.62212000  1
  O  O25  1  0.19887400  0.29800500  0.84113800  1
  O  O26  1  0.16658700  0.50449800  0.25164300  1
  O  O27  1  0.11848900  0.74034000  0.87788000  1
