# generated using pymatgen
data_Sm3SbO3
_symmetry_space_group_name_H-M   'P 1'
_cell_length_a   7.04149264
_cell_length_b   7.04149264
_cell_length_c   12.07458183
_cell_angle_alpha   62.69342052
_cell_angle_beta   62.69342052
_cell_angle_gamma   32.75658675
_symmetry_Int_Tables_number   1
_chemical_formula_structural   Sm3SbO3
_chemical_formula_sum   'Sm6 Sb2 O6'
_cell_volume   284.50294931
_cell_formula_units_Z   2
loop_
 _symmetry_equiv_pos_site_id
 _symmetry_equiv_pos_as_xyz
  1  'x, y, z'
loop_
 _atom_site_type_symbol
 _atom_site_label
 _atom_site_symmetry_multiplicity
 _atom_site_fract_x
 _atom_site_fract_y
 _atom_site_fract_z
 _atom_site_occupancy
  Sm  Sm0  1  0.87197400  0.87197400  0.89885700  1
  Sm  Sm1  1  0.65657200  0.65657200  0.79250000  1
  Sm  Sm2  1  0.11981400  0.11981400  0.55758200  1
  Sm  Sm3  1  0.88018600  0.88018600  0.44241800  1
  Sm  Sm4  1  0.34342800  0.34342800  0.20750000  1
  Sm  Sm5  1  0.12802600  0.12802600  0.10114300  1
  Sb  Sb6  1  0.38078900  0.38078900  0.67945400  1
  Sb  Sb7  1  0.61921100  0.61921100  0.32054600  1
  O  O8  1  0.66212000  0.66212000  0.98766200  1
  O  O9  1  0.06427500  0.06427500  0.80276100  1
  O  O10  1  0.68939600  0.68939600  0.58996700  1
  O  O11  1  0.31060400  0.31060400  0.41003300  1
  O  O12  1  0.93572500  0.93572500  0.19723900  1
  O  O13  1  0.33788000  0.33788000  0.01233800  1
