# generated using pymatgen
data_KCu3S2
_symmetry_space_group_name_H-M   'P 1'
_cell_length_a   7.55015088
_cell_length_b   7.55015088
_cell_length_c   8.29652547
_cell_angle_alpha   67.47800560
_cell_angle_beta   67.47800560
_cell_angle_gamma   29.91307247
_symmetry_Int_Tables_number   1
_chemical_formula_structural   KCu3S2
_chemical_formula_sum   'K2 Cu6 S4'
_cell_volume   216.52077017
_cell_formula_units_Z   2
loop_
 _symmetry_equiv_pos_site_id
 _symmetry_equiv_pos_as_xyz
  1  'x, y, z'
loop_
 _atom_site_type_symbol
 _atom_site_label
 _atom_site_symmetry_multiplicity
 _atom_site_fract_x
 _atom_site_fract_y
 _atom_site_fract_z
 _atom_site_occupancy
  K  K0  1  0.86485000  0.86485000  0.04429500  1
  K  K1  1  0.13515000  0.13515000  0.95570500  1
  Cu  Cu2  1  0.31044300  0.31044300  0.41767800  1
  Cu  Cu3  1  0.93602500  0.93602500  0.40912500  1
  Cu  Cu4  1  0.68955700  0.68955700  0.58232200  1
  Cu  Cu5  1  0.40610100  0.40610100  0.63972000  1
  Cu  Cu6  1  0.59389900  0.59389900  0.36028000  1
  Cu  Cu7  1  0.06397500  0.06397500  0.59087500  1
  S  S8  1  0.47813400  0.47813400  0.23831200  1
  S  S9  1  0.19287200  0.19287200  0.30892700  1
  S  S10  1  0.80712800  0.80712800  0.69107300  1
  S  S11  1  0.52186600  0.52186600  0.76168800  1
