# generated using pymatgen
data_NdB4
_symmetry_space_group_name_H-M   'P 1'
_cell_length_a   4.70894211
_cell_length_b   4.70894211
_cell_length_c   4.70894211
_cell_angle_alpha   134.88468970
_cell_angle_beta   106.41016387
_cell_angle_gamma   90.67645574
_symmetry_Int_Tables_number   1
_chemical_formula_structural   NdB4
_chemical_formula_sum   'Nd1 B4'
_cell_volume   67.45618641
_cell_formula_units_Z   1
loop_
 _symmetry_equiv_pos_site_id
 _symmetry_equiv_pos_as_xyz
  1  'x, y, z'
loop_
 _atom_site_type_symbol
 _atom_site_label
 _atom_site_symmetry_multiplicity
 _atom_site_fract_x
 _atom_site_fract_y
 _atom_site_fract_z
 _atom_site_occupancy
  Nd  Nd0  1  0.00000000  0.00000000  0.00000000  1
  B  B1  1  0.51972000  0.37174700  0.14797300  1
  B  B2  1  0.22377400  0.37174700  0.85202700  1
  B  B3  1  0.48028000  0.62825300  0.85202700  1
  B  B4  1  0.77622600  0.62825300  0.14797300  1
