# generated using pymatgen
data_TiPN3
_symmetry_space_group_name_H-M   'P 1'
_cell_length_a   6.41533078
_cell_length_b   6.41533078
_cell_length_c   4.99125427
_cell_angle_alpha   81.48670812
_cell_angle_beta   81.48670812
_cell_angle_gamma   85.56118395
_symmetry_Int_Tables_number   1
_chemical_formula_structural   TiPN3
_chemical_formula_sum   'Ti4 P4 N12'
_cell_volume   200.59698657
_cell_formula_units_Z   4
loop_
 _symmetry_equiv_pos_site_id
 _symmetry_equiv_pos_as_xyz
  1  'x, y, z'
loop_
 _atom_site_type_symbol
 _atom_site_label
 _atom_site_symmetry_multiplicity
 _atom_site_fract_x
 _atom_site_fract_y
 _atom_site_fract_z
 _atom_site_occupancy
  Ti  Ti0  1  0.71759400  0.28240600  0.75000000  1
  Ti  Ti1  1  0.89592700  0.10407300  0.25000000  1
  Ti  Ti2  1  0.28240600  0.71759400  0.25000000  1
  Ti  Ti3  1  0.10407300  0.89592700  0.75000000  1
  P  P4  1  0.21336000  0.38625200  0.79442700  1
  P  P5  1  0.38625200  0.21336000  0.29442700  1
  P  P6  1  0.78664000  0.61374800  0.20557300  1
  P  P7  1  0.61374800  0.78664000  0.70557300  1
  N  N8  1  0.28948200  0.41925500  0.09242600  1
  N  N9  1  0.02527400  0.21529300  0.86134500  1
  N  N10  1  0.97472600  0.78470700  0.13865500  1
  N  N11  1  0.41925500  0.28948200  0.59242600  1
  N  N12  1  0.61418200  0.14693100  0.13145700  1
  N  N13  1  0.38581800  0.85306900  0.86854300  1
  N  N14  1  0.85306900  0.38581800  0.36854300  1
  N  N15  1  0.71051800  0.58074500  0.90757400  1
  N  N16  1  0.78470700  0.97472600  0.63865500  1
  N  N17  1  0.14693100  0.61418200  0.63145700  1
  N  N18  1  0.21529300  0.02527400  0.36134500  1
  N  N19  1  0.58074500  0.71051800  0.40757400  1
