# generated using pymatgen
data_BaSbF7
_symmetry_space_group_name_H-M   'P 1'
_cell_length_a   10.04491200
_cell_length_b   5.73038800
_cell_length_c   10.50314813
_cell_angle_alpha   87.44612146
_cell_angle_beta   90.00000000
_cell_angle_gamma   90.00000000
_symmetry_Int_Tables_number   1
_chemical_formula_structural   BaSbF7
_chemical_formula_sum   'Ba4 Sb4 F28'
_cell_volume   603.97377736
_cell_formula_units_Z   4
loop_
 _symmetry_equiv_pos_site_id
 _symmetry_equiv_pos_as_xyz
  1  'x, y, z'
loop_
 _atom_site_type_symbol
 _atom_site_label
 _atom_site_symmetry_multiplicity
 _atom_site_fract_x
 _atom_site_fract_y
 _atom_site_fract_z
 _atom_site_occupancy
  Ba  Ba0  1  0.32910600  0.30652800  0.50717200  1
  Ba  Ba1  1  0.82910600  0.69347200  0.99282800  1
  Ba  Ba2  1  0.67089400  0.69347200  0.49282800  1
  Ba  Ba3  1  0.17089400  0.30652800  0.00717200  1
  Sb  Sb4  1  0.61292000  0.18416800  0.18668700  1
  Sb  Sb5  1  0.38708000  0.81583200  0.81331300  1
  Sb  Sb6  1  0.88708000  0.18416800  0.68668700  1
  Sb  Sb7  1  0.11292000  0.81583200  0.31331300  1
  F  F8  1  0.45129300  0.10200300  0.87628300  1
  F  F9  1  0.04734900  0.34206100  0.63685200  1
  F  F10  1  0.69201800  0.46829000  0.24162600  1
  F  F11  1  0.30798200  0.53171000  0.75837400  1
  F  F12  1  0.45423000  0.88300800  0.64272900  1
  F  F13  1  0.80617900  0.25338900  0.52252500  1
  F  F14  1  0.76708000  0.00487100  0.24046700  1
  F  F15  1  0.95423000  0.11699200  0.85727100  1
  F  F16  1  0.45265100  0.34206100  0.13685200  1
  F  F17  1  0.19201800  0.53171000  0.25837400  1
  F  F18  1  0.04870700  0.10200300  0.37628300  1
  F  F19  1  0.54870700  0.89799700  0.12371700  1
  F  F20  1  0.26708000  0.99512900  0.25953300  1
  F  F21  1  0.95689300  0.38444200  0.11075900  1
  F  F22  1  0.54577000  0.11699200  0.35727100  1
  F  F23  1  0.04577000  0.88300800  0.14272900  1
  F  F24  1  0.23292000  0.99512900  0.75953300  1
  F  F25  1  0.95129300  0.89799700  0.62371700  1
  F  F26  1  0.45689300  0.61555800  0.38924100  1
  F  F27  1  0.95265100  0.65793900  0.36314800  1
  F  F28  1  0.04310700  0.61555800  0.88924100  1
  F  F29  1  0.73292000  0.00487100  0.74046700  1
  F  F30  1  0.54310700  0.38444200  0.61075900  1
  F  F31  1  0.30617900  0.74661100  0.97747500  1
  F  F32  1  0.19382100  0.74661100  0.47747500  1
  F  F33  1  0.69382100  0.25338900  0.02252500  1
  F  F34  1  0.54734900  0.65793900  0.86314800  1
  F  F35  1  0.80798200  0.46829000  0.74162600  1
