# generated using pymatgen
data_BiP2O7
_symmetry_space_group_name_H-M   'P 1'
_cell_length_a   9.58454000
_cell_length_b   7.75944400
_cell_length_c   9.82487271
_cell_angle_alpha   66.77281060
_cell_angle_beta   90.00000000
_cell_angle_gamma   90.00000000
_symmetry_Int_Tables_number   1
_chemical_formula_structural   BiP2O7
_chemical_formula_sum   'Bi4 P8 O28'
_cell_volume   671.45959609
_cell_formula_units_Z   4
loop_
 _symmetry_equiv_pos_site_id
 _symmetry_equiv_pos_as_xyz
  1  'x, y, z'
loop_
 _atom_site_type_symbol
 _atom_site_label
 _atom_site_symmetry_multiplicity
 _atom_site_fract_x
 _atom_site_fract_y
 _atom_site_fract_z
 _atom_site_occupancy
  Bi  Bi0  1  0.06734500  0.68086700  0.18344500  1
  Bi  Bi1  1  0.43265500  0.68086700  0.68344500  1
  Bi  Bi2  1  0.56734500  0.31913300  0.31655500  1
  Bi  Bi3  1  0.93265500  0.31913300  0.81655500  1
  P  P4  1  0.71843700  0.53852200  0.53227800  1
  P  P5  1  0.23947000  0.08447200  0.23158000  1
  P  P6  1  0.73947000  0.91552800  0.26842000  1
  P  P7  1  0.26053000  0.08447200  0.73158000  1
  P  P8  1  0.78156300  0.53852200  0.03227800  1
  P  P9  1  0.76053000  0.91552800  0.76842000  1
  P  P10  1  0.21843700  0.46147800  0.96772200  1
  P  P11  1  0.28156300  0.46147800  0.46772200  1
  O  O12  1  0.13618200  0.47216100  0.39509900  1
  O  O13  1  0.19669800  0.24268200  0.07106100  1
  O  O14  1  0.27242400  0.90062000  0.71078000  1
  O  O15  1  0.11433600  0.12360500  0.77284100  1
  O  O16  1  0.86381800  0.52783900  0.60490100  1
  O  O17  1  0.80330200  0.75731800  0.92893900  1
  O  O18  1  0.22179600  0.57748000  0.06270900  1
  O  O19  1  0.90251100  0.49201800  0.14193400  1
  O  O20  1  0.61433600  0.87639500  0.72715900  1
  O  O21  1  0.72179600  0.42252000  0.43729100  1
  O  O22  1  0.36381800  0.47216100  0.89509900  1
  O  O23  1  0.86318700  0.90734000  0.65126700  1
  O  O24  1  0.63618200  0.52783900  0.10490100  1
  O  O25  1  0.72757600  0.09938000  0.28922000  1
  O  O26  1  0.40251100  0.50798200  0.35806600  1
  O  O27  1  0.77820400  0.42252000  0.93729100  1
  O  O28  1  0.88566400  0.87639500  0.22715900  1
  O  O29  1  0.22757600  0.90062000  0.21078000  1
  O  O30  1  0.13681300  0.09266000  0.34873300  1
  O  O31  1  0.59748900  0.49201800  0.64193400  1
  O  O32  1  0.30330200  0.24268200  0.57106100  1
  O  O33  1  0.27820400  0.57748000  0.56270900  1
  O  O34  1  0.09748900  0.50798200  0.85806600  1
  O  O35  1  0.38566400  0.12360500  0.27284100  1
  O  O36  1  0.69669800  0.75731800  0.42893900  1
  O  O37  1  0.63681300  0.90734000  0.15126700  1
  O  O38  1  0.77242400  0.09938000  0.78922000  1
  O  O39  1  0.36318700  0.09266000  0.84873300  1
