# generated using pymatgen
data_CaCo2(PO4)2
_symmetry_space_group_name_H-M   'P 1'
_cell_length_a   9.00429122
_cell_length_b   9.00429122
_cell_length_c   16.93220913
_cell_angle_alpha   62.46668249
_cell_angle_beta   62.46668249
_cell_angle_gamma   32.51275326
_symmetry_Int_Tables_number   1
_chemical_formula_structural   CaCo2(PO4)2
_chemical_formula_sum   'Ca4 Co8 P8 O32'
_cell_volume   646.69838550
_cell_formula_units_Z   4
loop_
 _symmetry_equiv_pos_site_id
 _symmetry_equiv_pos_as_xyz
  1  'x, y, z'
loop_
 _atom_site_type_symbol
 _atom_site_label
 _atom_site_symmetry_multiplicity
 _atom_site_fract_x
 _atom_site_fract_y
 _atom_site_fract_z
 _atom_site_occupancy
  Ca  Ca0  1  0.16756200  0.52085900  0.64027500  1
  Ca  Ca1  1  0.47914100  0.83243800  0.85972500  1
  Ca  Ca2  1  0.52085900  0.16756200  0.14027500  1
  Ca  Ca3  1  0.83243800  0.47914100  0.35972500  1
  Co  Co4  1  0.38965500  0.79480500  0.54171100  1
  Co  Co5  1  0.20519500  0.61034500  0.95828900  1
  Co  Co6  1  0.61034500  0.20519500  0.45828900  1
  Co  Co7  1  0.00000000  0.50000000  0.50000000  1
  Co  Co8  1  0.79480500  0.38965500  0.04171100  1
  Co  Co9  1  0.63394900  0.36605100  0.25000000  1
  Co  Co10  1  0.36605100  0.63394900  0.75000000  1
  Co  Co11  1  0.50000000  0.00000000  0.00000000  1
  P  P12  1  0.48245000  0.94809700  0.63203200  1
  P  P13  1  0.80638500  0.22844900  0.89079900  1
  P  P14  1  0.51755000  0.05190300  0.36796800  1
  P  P15  1  0.22844900  0.80638500  0.39079900  1
  P  P16  1  0.94809700  0.48245000  0.13203200  1
  P  P17  1  0.05190300  0.51755000  0.86796800  1
  P  P18  1  0.19361500  0.77155100  0.10920100  1
  P  P19  1  0.77155100  0.19361500  0.60920100  1
  O  O20  1  0.19535200  0.30350400  0.39589300  1
  O  O21  1  0.65090900  0.18718300  0.57045200  1
  O  O22  1  0.30350400  0.19535200  0.89589300  1
  O  O23  1  0.63303900  0.20720600  0.96048600  1
  O  O24  1  0.64562400  0.80396500  0.44891500  1
  O  O25  1  0.66466600  0.43834400  0.80615600  1
  O  O26  1  0.79279400  0.36696100  0.53951400  1
  O  O27  1  0.92959300  0.11560100  0.37124300  1
  O  O28  1  0.36696100  0.79279400  0.03951400  1
  O  O29  1  0.81281700  0.34909100  0.92954800  1
  O  O30  1  0.63181900  0.13019200  0.35474800  1
  O  O31  1  0.05034900  0.39331000  0.21404000  1
  O  O32  1  0.34909100  0.81281700  0.42954800  1
  O  O33  1  0.11560100  0.92959300  0.87124300  1
  O  O34  1  0.80464800  0.69649600  0.60410700  1
  O  O35  1  0.36818100  0.86980800  0.64525200  1
  O  O36  1  0.39331000  0.05034900  0.71404000  1
  O  O37  1  0.20720600  0.63303900  0.46048600  1
  O  O38  1  0.13019200  0.63181900  0.85474800  1
  O  O39  1  0.94965100  0.60669000  0.78596000  1
  O  O40  1  0.88439900  0.07040700  0.12875700  1
  O  O41  1  0.80396500  0.64562400  0.94891500  1
  O  O42  1  0.07040700  0.88439900  0.62875700  1
  O  O43  1  0.43834400  0.66466600  0.30615600  1
  O  O44  1  0.18718300  0.65090900  0.07045200  1
  O  O45  1  0.69649600  0.80464800  0.10410700  1
  O  O46  1  0.60669000  0.94965100  0.28596000  1
  O  O47  1  0.19603500  0.35437600  0.05108500  1
  O  O48  1  0.35437600  0.19603500  0.55108500  1
  O  O49  1  0.56165600  0.33533400  0.69384400  1
  O  O50  1  0.33533400  0.56165600  0.19384400  1
  O  O51  1  0.86980800  0.36818100  0.14525200  1
