# generated using pymatgen
data_MgV4O8
_symmetry_space_group_name_H-M   'P 1'
_cell_length_a   7.38633242
_cell_length_b   7.38633242
_cell_length_c   9.50689515
_cell_angle_alpha   50.62305483
_cell_angle_beta   50.62305483
_cell_angle_gamma   23.52393330
_symmetry_Int_Tables_number   1
_chemical_formula_structural   MgV4O8
_chemical_formula_sum   'Mg1 V4 O8'
_cell_volume   157.67044556
_cell_formula_units_Z   1
loop_
 _symmetry_equiv_pos_site_id
 _symmetry_equiv_pos_as_xyz
  1  'x, y, z'
loop_
 _atom_site_type_symbol
 _atom_site_label
 _atom_site_symmetry_multiplicity
 _atom_site_fract_x
 _atom_site_fract_y
 _atom_site_fract_z
 _atom_site_occupancy
  Mg  Mg0  1  0.67573200  0.67573200  0.79747600  1
  V  V1  1  0.37869400  0.37869400  0.43120800  1
  V  V2  1  0.86241500  0.86241500  0.80063000  1
  V  V3  1  0.16506900  0.16506900  0.16549600  1
  V  V4  1  0.65410600  0.65410600  0.50935200  1
  O  O5  1  0.14868600  0.14868600  0.38143800  1
  O  O6  1  0.54104800  0.54104800  0.25191600  1
  O  O7  1  0.46960000  0.46960000  0.71400500  1
  O  O8  1  0.86270000  0.86270000  0.59077200  1
  O  O9  1  0.83689700  0.83689700  0.35224000  1
  O  O10  1  0.22058600  0.22058600  0.89966500  1
  O  O11  1  0.17099400  0.17099400  0.65594800  1
  O  O12  1  0.79128200  0.79128200  0.04106100  1
