# generated using pymatgen
data_CaMn2O4
_symmetry_space_group_name_H-M   'P 1'
_cell_length_a   7.46855449
_cell_length_b   7.46855449
_cell_length_c   9.47940840
_cell_angle_alpha   59.64259506
_cell_angle_beta   59.64259506
_cell_angle_gamma   23.04091022
_symmetry_Int_Tables_number   1
_chemical_formula_structural   CaMn2O4
_chemical_formula_sum   'Ca2 Mn4 O8'
_cell_volume   177.29663581
_cell_formula_units_Z   2
loop_
 _symmetry_equiv_pos_site_id
 _symmetry_equiv_pos_as_xyz
  1  'x, y, z'
loop_
 _atom_site_type_symbol
 _atom_site_label
 _atom_site_symmetry_multiplicity
 _atom_site_fract_x
 _atom_site_fract_y
 _atom_site_fract_z
 _atom_site_occupancy
  Ca  Ca0  1  0.66088200  0.66088200  0.82362400  1
  Ca  Ca1  1  0.33911800  0.33911800  0.17637600  1
  Mn  Mn2  1  0.39773600  0.39773600  0.81269100  1
  Mn  Mn3  1  0.85390500  0.85390500  0.48437800  1
  Mn  Mn4  1  0.14609500  0.14609500  0.51562200  1
  Mn  Mn5  1  0.60226400  0.60226400  0.18730900  1
  O  O6  1  0.12886100  0.12886100  0.29234200  1
  O  O7  1  0.56715200  0.56715200  0.66715000  1
  O  O8  1  0.43284800  0.43284800  0.33285000  1
  O  O9  1  0.87113900  0.87113900  0.70765800  1
  O  O10  1  0.88621900  0.88621900  0.96654900  1
  O  O11  1  0.25443600  0.25443600  0.61759200  1
  O  O12  1  0.11378100  0.11378100  0.03345100  1
  O  O13  1  0.74556400  0.74556400  0.38240800  1
