# generated using pymatgen
data_CaMnIrO6
_symmetry_space_group_name_H-M   'P 1'
_cell_length_a   5.35912100
_cell_length_b   5.22785600
_cell_length_c   9.12620422
_cell_angle_alpha   55.15452355
_cell_angle_beta   90.00000000
_cell_angle_gamma   90.00000000
_symmetry_Int_Tables_number   1
_chemical_formula_structural   CaMnIrO6
_chemical_formula_sum   'Ca2 Mn2 Ir2 O12'
_cell_volume   209.84066874
_cell_formula_units_Z   2
loop_
 _symmetry_equiv_pos_site_id
 _symmetry_equiv_pos_as_xyz
  1  'x, y, z'
loop_
 _atom_site_type_symbol
 _atom_site_label
 _atom_site_symmetry_multiplicity
 _atom_site_fract_x
 _atom_site_fract_y
 _atom_site_fract_z
 _atom_site_occupancy
  Ca  Ca0  1  0.69052500  0.76619200  0.74849900  1
  Ca  Ca1  1  0.30947500  0.76619200  0.24849900  1
  Mn  Mn2  1  0.75647900  0.00222500  0.00132400  1
  Mn  Mn3  1  0.24352100  0.00222500  0.50132400  1
  Ir  Ir4  1  0.75784900  0.50086100  0.50010100  1
  Ir  Ir5  1  0.24215100  0.50086100  0.00010100  1
  O  O6  1  0.74131700  0.66214300  0.24862900  1
  O  O7  1  0.45574600  0.83945800  0.95839800  1
  O  O8  1  0.45643700  0.25466100  0.54116300  1
  O  O9  1  0.94960400  0.74899500  0.95341400  1
  O  O10  1  0.95666100  0.15337400  0.54716900  1
  O  O11  1  0.23009500  0.33704300  0.25144800  1
  O  O12  1  0.25868300  0.66214300  0.74862900  1
  O  O13  1  0.54425400  0.83945800  0.45839800  1
  O  O14  1  0.54356300  0.25466100  0.04116300  1
  O  O15  1  0.04333900  0.15337400  0.04716900  1
  O  O16  1  0.05039600  0.74899500  0.45341400  1
  O  O17  1  0.76990500  0.33704300  0.75144800  1
