# generated using pymatgen
data_CaBi3P3O13
_symmetry_space_group_name_H-M   'P 1'
_cell_length_a   7.13093900
_cell_length_b   8.47222500
_cell_length_c   11.11193413
_cell_angle_alpha   79.99474906
_cell_angle_beta   90.00000000
_cell_angle_gamma   90.00000000
_symmetry_Int_Tables_number   1
_chemical_formula_structural   CaBi3P3O13
_chemical_formula_sum   'Ca2 Bi6 P6 O26'
_cell_volume   661.11696188
_cell_formula_units_Z   2
loop_
 _symmetry_equiv_pos_site_id
 _symmetry_equiv_pos_as_xyz
  1  'x, y, z'
loop_
 _atom_site_type_symbol
 _atom_site_label
 _atom_site_symmetry_multiplicity
 _atom_site_fract_x
 _atom_site_fract_y
 _atom_site_fract_z
 _atom_site_occupancy
  Ca  Ca0  1  0.75000000  0.38166500  0.18228000  1
  Ca  Ca1  1  0.25000000  0.61833500  0.81772000  1
  Bi  Bi2  1  0.25000000  0.64276200  0.22241700  1
  Bi  Bi3  1  0.75000000  0.35723800  0.77758300  1
  Bi  Bi4  1  0.25000000  0.20266100  0.44035500  1
  Bi  Bi5  1  0.50000000  0.00000000  0.00000000  1
  Bi  Bi6  1  0.75000000  0.79733900  0.55964500  1
  Bi  Bi7  1  0.00000000  0.00000000  0.00000000  1
  P  P8  1  0.25000000  0.77639300  0.51477900  1
  P  P9  1  0.75000000  0.22360700  0.48522100  1
  P  P10  1  0.25000000  0.27208800  0.76576200  1
  P  P11  1  0.75000000  0.72791200  0.23423800  1
  P  P12  1  0.75000000  0.67774500  0.89090900  1
  P  P13  1  0.25000000  0.32225500  0.10909100  1
  O  O14  1  0.75000000  0.65035500  0.75371900  1
  O  O15  1  0.57757800  0.24484300  0.39699700  1
  O  O16  1  0.25000000  0.21818300  0.64172600  1
  O  O17  1  0.56460200  0.76862900  0.90780900  1
  O  O18  1  0.75000000  0.34939600  0.57048500  1
  O  O19  1  0.75000000  0.12596700  0.89706300  1
  O  O20  1  0.25000000  0.65060400  0.42951500  1
  O  O21  1  0.06460200  0.23137100  0.09219100  1
  O  O22  1  0.25000000  0.94542900  0.43034600  1
  O  O23  1  0.75000000  0.05457100  0.56965400  1
  O  O24  1  0.08065100  0.38093900  0.78476000  1
  O  O25  1  0.25000000  0.87403300  0.10293700  1
  O  O26  1  0.58065100  0.61906100  0.21524000  1
  O  O27  1  0.75000000  0.50583700  0.96745000  1
  O  O28  1  0.75000000  0.78181700  0.35827400  1
  O  O29  1  0.43539800  0.23137100  0.09219100  1
  O  O30  1  0.92242200  0.24484300  0.39699700  1
  O  O31  1  0.42242200  0.75515700  0.60300300  1
  O  O32  1  0.41934900  0.38093900  0.78476000  1
  O  O33  1  0.25000000  0.34964500  0.24628100  1
  O  O34  1  0.75000000  0.88526400  0.13519800  1
  O  O35  1  0.25000000  0.11473600  0.86480200  1
  O  O36  1  0.91934900  0.61906100  0.21524000  1
  O  O37  1  0.93539800  0.76862900  0.90780900  1
  O  O38  1  0.07757800  0.75515700  0.60300300  1
  O  O39  1  0.25000000  0.49416300  0.03255000  1
