# generated using pymatgen
data_CaV2O4
_symmetry_space_group_name_H-M   'P 1'
_cell_length_a   5.26843100
_cell_length_b   6.04058000
_cell_length_c   11.15073600
_cell_angle_alpha   90.00000000
_cell_angle_beta   90.00000000
_cell_angle_gamma   90.00000000
_symmetry_Int_Tables_number   1
_chemical_formula_structural   CaV2O4
_chemical_formula_sum   'Ca4 V8 O16'
_cell_volume   354.86524781
_cell_formula_units_Z   4
loop_
 _symmetry_equiv_pos_site_id
 _symmetry_equiv_pos_as_xyz
  1  'x, y, z'
loop_
 _atom_site_type_symbol
 _atom_site_label
 _atom_site_symmetry_multiplicity
 _atom_site_fract_x
 _atom_site_fract_y
 _atom_site_fract_z
 _atom_site_occupancy
  Ca  Ca0  1  0.34468400  0.00000000  0.50000000  1
  Ca  Ca1  1  0.65531600  0.50000000  0.00000000  1
  Ca  Ca2  1  0.02856300  0.00000000  0.00000000  1
  Ca  Ca3  1  0.97143700  0.50000000  0.50000000  1
  V  V4  1  0.01053400  0.50000000  0.23928300  1
  V  V5  1  0.01053400  0.50000000  0.76071700  1
  V  V6  1  0.98946600  0.00000000  0.26071700  1
  V  V7  1  0.98946600  0.00000000  0.73928300  1
  V  V8  1  0.50000000  0.25000000  0.25000000  1
  V  V9  1  0.50000000  0.75000000  0.75000000  1
  V  V10  1  0.50000000  0.75000000  0.25000000  1
  V  V11  1  0.50000000  0.25000000  0.75000000  1
  O  O12  1  0.34459400  0.50000000  0.15112400  1
  O  O13  1  0.34459400  0.50000000  0.84887600  1
  O  O14  1  0.65540600  0.00000000  0.34887600  1
  O  O15  1  0.65540600  0.00000000  0.65112400  1
  O  O16  1  0.68096100  0.50000000  0.33771400  1
  O  O17  1  0.68096100  0.50000000  0.66228600  1
  O  O18  1  0.31903900  0.00000000  0.16228600  1
  O  O19  1  0.31903900  0.00000000  0.83771400  1
  O  O20  1  0.16158800  0.25321700  0.35381100  1
  O  O21  1  0.16158800  0.74678300  0.64618900  1
  O  O22  1  0.83841200  0.75321700  0.14618900  1
  O  O23  1  0.83841200  0.24678300  0.85381100  1
  O  O24  1  0.83841200  0.24678300  0.14618900  1
  O  O25  1  0.83841200  0.75321700  0.85381100  1
  O  O26  1  0.16158800  0.74678300  0.35381100  1
  O  O27  1  0.16158800  0.25321700  0.64618900  1
