# generated using pymatgen
data_Ti2ZnO4
_symmetry_space_group_name_H-M   'P 1'
_cell_length_a   5.03588100
_cell_length_b   5.86718100
_cell_length_c   10.57480800
_cell_angle_alpha   90.00000000
_cell_angle_beta   90.00000000
_cell_angle_gamma   90.00000000
_symmetry_Int_Tables_number   1
_chemical_formula_structural   Ti2ZnO4
_chemical_formula_sum   'Ti8 Zn4 O16'
_cell_volume   312.44777486
_cell_formula_units_Z   4
loop_
 _symmetry_equiv_pos_site_id
 _symmetry_equiv_pos_as_xyz
  1  'x, y, z'
loop_
 _atom_site_type_symbol
 _atom_site_label
 _atom_site_symmetry_multiplicity
 _atom_site_fract_x
 _atom_site_fract_y
 _atom_site_fract_z
 _atom_site_occupancy
  Ti  Ti0  1  0.03017400  0.50000000  0.23871900  1
  Ti  Ti1  1  0.03017400  0.50000000  0.76128100  1
  Ti  Ti2  1  0.96982600  0.00000000  0.26128100  1
  Ti  Ti3  1  0.96982600  0.00000000  0.73871900  1
  Ti  Ti4  1  0.50000000  0.25000000  0.25000000  1
  Ti  Ti5  1  0.50000000  0.75000000  0.75000000  1
  Ti  Ti6  1  0.50000000  0.75000000  0.25000000  1
  Ti  Ti7  1  0.50000000  0.25000000  0.75000000  1
  Zn  Zn8  1  0.34445000  0.00000000  0.50000000  1
  Zn  Zn9  1  0.65555000  0.50000000  0.00000000  1
  Zn  Zn10  1  0.03569000  0.00000000  0.00000000  1
  Zn  Zn11  1  0.96431000  0.50000000  0.50000000  1
  O  O12  1  0.36241400  0.50000000  0.13438700  1
  O  O13  1  0.36241400  0.50000000  0.86561300  1
  O  O14  1  0.63758600  0.00000000  0.36561300  1
  O  O15  1  0.63758600  0.00000000  0.63438700  1
  O  O16  1  0.68527700  0.50000000  0.34969300  1
  O  O17  1  0.68527700  0.50000000  0.65030700  1
  O  O18  1  0.31472300  0.00000000  0.15030700  1
  O  O19  1  0.31472300  0.00000000  0.84969300  1
  O  O20  1  0.16088600  0.24891300  0.36501700  1
  O  O21  1  0.16088600  0.75108700  0.63498300  1
  O  O22  1  0.83911400  0.74891300  0.13498300  1
  O  O23  1  0.83911400  0.25108700  0.86501700  1
  O  O24  1  0.83911400  0.25108700  0.13498300  1
  O  O25  1  0.83911400  0.74891300  0.86501700  1
  O  O26  1  0.16088600  0.75108700  0.36501700  1
  O  O27  1  0.16088600  0.24891300  0.63498300  1
