# generated using pymatgen
data_MgCoO2
_symmetry_space_group_name_H-M   'P 1'
_cell_length_a   2.93358000
_cell_length_b   8.15719835
_cell_length_c   8.23840901
_cell_angle_alpha   85.84882714
_cell_angle_beta   80.38015897
_cell_angle_gamma   80.42411110
_symmetry_Int_Tables_number   1
_chemical_formula_structural   MgCoO2
_chemical_formula_sum   'Mg4 Co4 O8'
_cell_volume   191.46121308
_cell_formula_units_Z   4
loop_
 _symmetry_equiv_pos_site_id
 _symmetry_equiv_pos_as_xyz
  1  'x, y, z'
loop_
 _atom_site_type_symbol
 _atom_site_label
 _atom_site_symmetry_multiplicity
 _atom_site_fract_x
 _atom_site_fract_y
 _atom_site_fract_z
 _atom_site_occupancy
  Mg  Mg0  1  0.60870700  0.07071600  0.74464200  1
  Mg  Mg1  1  0.41431800  0.91304000  0.22175700  1
  Mg  Mg2  1  0.21080700  0.69967900  0.88805700  1
  Mg  Mg3  1  0.81363700  0.27611300  0.08077500  1
  Co  Co4  1  0.20252200  0.22521400  0.39442800  1
  Co  Co5  1  0.42211500  0.39040100  0.75085100  1
  Co  Co6  1  0.60411700  0.58791100  0.22446900  1
  Co  Co7  1  0.82323400  0.78492600  0.56120300  1
  O  O8  1  0.41139100  0.73691200  0.41450800  1
  O  O9  1  0.20427700  0.40713500  0.18461200  1
  O  O10  1  0.81131900  0.55336200  0.81798000  1
  O  O11  1  0.61065300  0.24868600  0.55442300  1
  O  O12  1  0.81755800  0.08870000  0.24869400  1
  O  O13  1  0.99200900  0.20658100  0.85648100  1
  O  O14  1  0.20727700  0.88721100  0.71638400  1
  O  O15  1  0.03844700  0.76274700  0.11512000  1
