# generated using pymatgen
data_CaCoP2O7
_symmetry_space_group_name_H-M   'P 1'
_cell_length_a   8.77875300
_cell_length_b   7.37834800
_cell_length_c   9.19533433
_cell_angle_alpha   63.25216060
_cell_angle_beta   90.00000000
_cell_angle_gamma   90.00000000
_symmetry_Int_Tables_number   1
_chemical_formula_structural   CaCoP2O7
_chemical_formula_sum   'Ca4 Co4 P8 O28'
_cell_volume   531.87424568
_cell_formula_units_Z   4
loop_
 _symmetry_equiv_pos_site_id
 _symmetry_equiv_pos_as_xyz
  1  'x, y, z'
loop_
 _atom_site_type_symbol
 _atom_site_label
 _atom_site_symmetry_multiplicity
 _atom_site_fract_x
 _atom_site_fract_y
 _atom_site_fract_z
 _atom_site_occupancy
  Ca  Ca0  1  0.94909900  0.72953000  0.12361000  1
  Ca  Ca1  1  0.44909900  0.27047000  0.37639000  1
  Ca  Ca2  1  0.55090100  0.72953000  0.62361000  1
  Ca  Ca3  1  0.05090100  0.27047000  0.87639000  1
  Co  Co4  1  0.06723500  0.22974300  0.38575700  1
  Co  Co5  1  0.93276500  0.77025700  0.61424300  1
  Co  Co6  1  0.56723500  0.77025700  0.11424300  1
  Co  Co7  1  0.43276500  0.22974300  0.88575700  1
  P  P8  1  0.72649800  0.04732100  0.76372100  1
  P  P9  1  0.24713200  0.52947300  0.03530800  1
  P  P10  1  0.77350200  0.04732100  0.26372100  1
  P  P11  1  0.25286800  0.52947300  0.53530800  1
  P  P12  1  0.22649800  0.95267900  0.73627900  1
  P  P13  1  0.74713200  0.47052700  0.46469200  1
  P  P14  1  0.75286800  0.47052700  0.96469200  1
  P  P15  1  0.27350200  0.95267900  0.23627900  1
  O  O16  1  0.18168800  0.74279100  0.89511200  1
  O  O17  1  0.62778300  0.06895100  0.34428000  1
  O  O18  1  0.87221700  0.06895100  0.84428000  1
  O  O19  1  0.39310200  0.56418500  0.10982600  1
  O  O20  1  0.81831200  0.25720900  0.10488800  1
  O  O21  1  0.08506100  0.98704500  0.62597600  1
  O  O22  1  0.60689800  0.43581500  0.89017400  1
  O  O23  1  0.10933300  0.46731700  0.15165500  1
  O  O24  1  0.23297800  0.38818100  0.45574300  1
  O  O25  1  0.91493900  0.01295500  0.37402400  1
  O  O26  1  0.41493900  0.98704500  0.12597600  1
  O  O27  1  0.76082900  0.89339900  0.19536000  1
  O  O28  1  0.26082900  0.10660100  0.30464000  1
  O  O29  1  0.31831200  0.74279100  0.39511200  1
  O  O30  1  0.58506100  0.01295500  0.87402400  1
  O  O31  1  0.12778300  0.93104900  0.15572000  1
  O  O32  1  0.23917100  0.10660100  0.80464000  1
  O  O33  1  0.89066700  0.53268300  0.84834500  1
  O  O34  1  0.26702200  0.38818100  0.95574300  1
  O  O35  1  0.73297800  0.61181900  0.04425700  1
  O  O36  1  0.89310200  0.43581500  0.39017400  1
  O  O37  1  0.39066700  0.46731700  0.65165500  1
  O  O38  1  0.60933300  0.53268300  0.34834500  1
  O  O39  1  0.37221700  0.93104900  0.65572000  1
  O  O40  1  0.73917100  0.89339900  0.69536000  1
  O  O41  1  0.10689800  0.56418500  0.60982600  1
  O  O42  1  0.76702200  0.61181900  0.54425700  1
  O  O43  1  0.68168800  0.25720900  0.60488800  1
