# generated using pymatgen
data_MgMo4O9
_symmetry_space_group_name_H-M   'P 1'
_cell_length_a   8.78918400
_cell_length_b   8.78918400
_cell_length_c   5.00936100
_cell_angle_alpha   90.00000000
_cell_angle_beta   90.00000000
_cell_angle_gamma   90.00000000
_symmetry_Int_Tables_number   1
_chemical_formula_structural   MgMo4O9
_chemical_formula_sum   'Mg2 Mo8 O18'
_cell_volume   386.97191189
_cell_formula_units_Z   2
loop_
 _symmetry_equiv_pos_site_id
 _symmetry_equiv_pos_as_xyz
  1  'x, y, z'
loop_
 _atom_site_type_symbol
 _atom_site_label
 _atom_site_symmetry_multiplicity
 _atom_site_fract_x
 _atom_site_fract_y
 _atom_site_fract_z
 _atom_site_occupancy
  Mg  Mg0  1  0.00000000  0.50000000  0.85692000  1
  Mg  Mg1  1  0.50000000  0.00000000  0.14308000  1
  Mo  Mo2  1  0.71084500  0.40271800  0.34062700  1
  Mo  Mo3  1  0.40271800  0.28915500  0.65937300  1
  Mo  Mo4  1  0.90271800  0.78915500  0.34062700  1
  Mo  Mo5  1  0.21084500  0.90271800  0.65937300  1
  Mo  Mo6  1  0.28915500  0.59728200  0.34062700  1
  Mo  Mo7  1  0.09728200  0.21084500  0.34062700  1
  Mo  Mo8  1  0.78915500  0.09728200  0.65937300  1
  Mo  Mo9  1  0.59728200  0.71084500  0.65937300  1
  O  O10  1  0.50000000  0.50000000  0.50000000  1
  O  O11  1  0.00000000  0.00000000  0.50000000  1
  O  O12  1  0.54604100  0.77672200  0.99066700  1
  O  O13  1  0.72327800  0.04604100  0.99066700  1
  O  O14  1  0.27672200  0.95395900  0.99066700  1
  O  O15  1  0.45395900  0.22327800  0.99066700  1
  O  O16  1  0.95395900  0.72327800  0.00933300  1
  O  O17  1  0.77672200  0.45395900  0.00933300  1
  O  O18  1  0.22327800  0.54604100  0.00933300  1
  O  O19  1  0.04604100  0.27672200  0.00933300  1
  O  O20  1  0.20209000  0.39023900  0.51928400  1
  O  O21  1  0.10976100  0.70209000  0.51928400  1
  O  O22  1  0.89023900  0.29791000  0.51928400  1
  O  O23  1  0.79791000  0.60976100  0.51928400  1
  O  O24  1  0.70209000  0.89023900  0.48071600  1
  O  O25  1  0.39023900  0.79791000  0.48071600  1
  O  O26  1  0.60976100  0.20209000  0.48071600  1
  O  O27  1  0.29791000  0.10976100  0.48071600  1
