# generated using pymatgen
data_V2ZnO4
_symmetry_space_group_name_H-M   'P 1'
_cell_length_a   7.33640304
_cell_length_b   7.33640304
_cell_length_c   9.64282657
_cell_angle_alpha   50.75859661
_cell_angle_beta   50.75859661
_cell_angle_gamma   22.97362827
_symmetry_Int_Tables_number   1
_chemical_formula_structural   V2ZnO4
_chemical_formula_sum   'V4 Zn2 O8'
_cell_volume   154.71259763
_cell_formula_units_Z   2
loop_
 _symmetry_equiv_pos_site_id
 _symmetry_equiv_pos_as_xyz
  1  'x, y, z'
loop_
 _atom_site_type_symbol
 _atom_site_label
 _atom_site_symmetry_multiplicity
 _atom_site_fract_x
 _atom_site_fract_y
 _atom_site_fract_z
 _atom_site_occupancy
  V  V0  1  0.35951400  0.35951400  0.96697000  1
  V  V1  1  0.84775500  0.84775500  0.31672200  1
  V  V2  1  0.15224500  0.15224500  0.68327800  1
  V  V3  1  0.64048600  0.64048600  0.03303000  1
  Zn  Zn4  1  0.61617000  0.61617000  0.38316000  1
  Zn  Zn5  1  0.38383000  0.38383000  0.61684000  1
  O  O6  1  0.14447200  0.14447200  0.89883300  1
  O  O7  1  0.53289400  0.53289400  0.77757800  1
  O  O8  1  0.46710600  0.46710600  0.22242200  1
  O  O9  1  0.85552800  0.85552800  0.10116700  1
  O  O10  1  0.83053900  0.83053900  0.84978300  1
  O  O11  1  0.20840600  0.20840600  0.43323900  1
  O  O12  1  0.16946100  0.16946100  0.15021700  1
  O  O13  1  0.79159400  0.79159400  0.56676100  1
