# generated using pymatgen
data_CaLa2Ti2Cr2O12
_symmetry_space_group_name_H-M   'P 1'
_cell_length_a   5.44832600
_cell_length_b   5.46771967
_cell_length_c   7.71416062
_cell_angle_alpha   89.68673643
_cell_angle_beta   89.96154860
_cell_angle_gamma   89.10392177
_symmetry_Int_Tables_number   1
_chemical_formula_structural   CaLa2Ti2Cr2O12
_chemical_formula_sum   'Ca1 La2 Ti2 Cr2 O12'
_cell_volume   229.77264448
_cell_formula_units_Z   1
loop_
 _symmetry_equiv_pos_site_id
 _symmetry_equiv_pos_as_xyz
  1  'x, y, z'
loop_
 _atom_site_type_symbol
 _atom_site_label
 _atom_site_symmetry_multiplicity
 _atom_site_fract_x
 _atom_site_fract_y
 _atom_site_fract_z
 _atom_site_occupancy
  Ca  Ca0  1  0.50309200  0.53260200  0.75079000  1
  La  La1  1  0.99292100  0.02764400  0.75125900  1
  La  La2  1  0.49517000  0.47864300  0.24883400  1
  Ti  Ti3  1  0.49540600  0.99786900  0.01081500  1
  Ti  Ti4  1  0.99897300  0.51211500  0.49259900  1
  Cr  Cr5  1  0.49414700  0.00401500  0.49707100  1
  Cr  Cr6  1  0.99925300  0.50323700  0.00242500  1
  O  O7  1  0.94687600  0.51129800  0.24770200  1
  O  O8  1  0.77354700  0.76755800  0.96016600  1
  O  O9  1  0.76750100  0.77388700  0.53980500  1
  O  O10  1  0.72209600  0.28048900  0.96506900  1
  O  O11  1  0.71869600  0.28076400  0.53407500  1
  O  O12  1  0.55072000  0.00173200  0.25120100  1
  O  O13  1  0.44012600  0.99292100  0.74763800  1
  O  O14  1  0.28539200  0.71556400  0.47985300  1
  O  O15  1  0.28520500  0.71392400  0.01946600  1
  O  O16  1  0.23222100  0.22654200  0.47419000  1
  O  O17  1  0.22725600  0.23096900  0.02506300  1
  O  O18  1  0.06137500  0.48919600  0.75218800  1
