# generated using pymatgen
data_BaCaAgF7
_symmetry_space_group_name_H-M   'P 1'
_cell_length_a   10.61786500
_cell_length_b   5.91133800
_cell_length_c   10.19248393
_cell_angle_alpha   88.10845143
_cell_angle_beta   90.00000000
_cell_angle_gamma   90.00000000
_symmetry_Int_Tables_number   1
_chemical_formula_structural   BaCaAgF7
_chemical_formula_sum   'Ba4 Ca4 Ag4 F28'
_cell_volume   639.39069744
_cell_formula_units_Z   4
loop_
 _symmetry_equiv_pos_site_id
 _symmetry_equiv_pos_as_xyz
  1  'x, y, z'
loop_
 _atom_site_type_symbol
 _atom_site_label
 _atom_site_symmetry_multiplicity
 _atom_site_fract_x
 _atom_site_fract_y
 _atom_site_fract_z
 _atom_site_occupancy
  Ba  Ba0  1  0.33209200  0.72888700  0.50330700  1
  Ba  Ba1  1  0.83209200  0.27111300  0.99669300  1
  Ba  Ba2  1  0.66790800  0.27111300  0.49669300  1
  Ba  Ba3  1  0.16790800  0.72888700  0.00330700  1
  Ca  Ca4  1  0.41023000  0.29359700  0.81874300  1
  Ca  Ca5  1  0.91023000  0.70640300  0.68125700  1
  Ca  Ca6  1  0.08977000  0.29359700  0.31874300  1
  Ca  Ca7  1  0.58977000  0.70640300  0.18125700  1
  Ag  Ag8  1  0.62145700  0.80942900  0.81008700  1
  Ag  Ag9  1  0.37854300  0.19057100  0.18991300  1
  Ag  Ag10  1  0.87854300  0.80942900  0.31008700  1
  Ag  Ag11  1  0.12145700  0.19057100  0.68991300  1
  F  F12  1  0.41657400  0.88069200  0.09876200  1
  F  F13  1  0.04578300  0.65109300  0.37753300  1
  F  F14  1  0.71399600  0.51703000  0.73618600  1
  F  F15  1  0.28600400  0.48297000  0.26381400  1
  F  F16  1  0.46839000  0.06195600  0.36245400  1
  F  F17  1  0.78979700  0.70979800  0.49040100  1
  F  F18  1  0.78221700  0.99887400  0.74266400  1
  F  F19  1  0.96839000  0.93804400  0.13754600  1
  F  F20  1  0.45421700  0.65109300  0.87753300  1
  F  F21  1  0.21399600  0.48297000  0.76381400  1
  F  F22  1  0.08342600  0.88069200  0.59876200  1
  F  F23  1  0.58342600  0.11930800  0.90123800  1
  F  F24  1  0.28221700  0.00112600  0.75733600  1
  F  F25  1  0.96541600  0.58451600  0.87696400  1
  F  F26  1  0.53161000  0.93804400  0.63754600  1
  F  F27  1  0.03161000  0.06195600  0.86245400  1
  F  F28  1  0.21778300  0.00112600  0.25733600  1
  F  F29  1  0.91657400  0.11930800  0.40123800  1
  F  F30  1  0.46541600  0.41548400  0.62303600  1
  F  F31  1  0.95421700  0.34890700  0.62246700  1
  F  F32  1  0.03458400  0.41548400  0.12303600  1
  F  F33  1  0.71778300  0.99887400  0.24266400  1
  F  F34  1  0.53458400  0.58451600  0.37696400  1
  F  F35  1  0.28979700  0.29020200  0.00959900  1
  F  F36  1  0.21020300  0.29020200  0.50959900  1
  F  F37  1  0.71020300  0.70979800  0.99040100  1
  F  F38  1  0.54578300  0.34890700  0.12246700  1
  F  F39  1  0.78600400  0.51703000  0.23618600  1
