# generated using pymatgen
data_VS2
_symmetry_space_group_name_H-M   'P 1'
_cell_length_a   7.74091235
_cell_length_b   7.74091235
_cell_length_c   7.74091238
_cell_angle_alpha   23.70788590
_cell_angle_beta   23.70788590
_cell_angle_gamma   23.70788244
_symmetry_Int_Tables_number   1
_chemical_formula_structural   VS2
_chemical_formula_sum   'V1 S2'
_cell_volume   65.86699865
_cell_formula_units_Z   1
loop_
 _symmetry_equiv_pos_site_id
 _symmetry_equiv_pos_as_xyz
  1  'x, y, z'
loop_
 _atom_site_type_symbol
 _atom_site_label
 _atom_site_symmetry_multiplicity
 _atom_site_fract_x
 _atom_site_fract_y
 _atom_site_fract_z
 _atom_site_occupancy
  V  V0  1  0.00000000  0.00000000  0.00000000  1
  S  S1  1  0.39876000  0.39876000  0.39876000  1
  S  S2  1  0.60124000  0.60124000  0.60124000  1
