# generated using pymatgen
data_CaFe2(PO4)2
_symmetry_space_group_name_H-M   'P 1'
_cell_length_a   9.10227172
_cell_length_b   9.10227172
_cell_length_c   16.95686224
_cell_angle_alpha   63.17755244
_cell_angle_beta   63.17755244
_cell_angle_gamma   32.23924192
_symmetry_Int_Tables_number   1
_chemical_formula_structural   CaFe2(PO4)2
_chemical_formula_sum   'Ca4 Fe8 P8 O32'
_cell_volume   661.63775872
_cell_formula_units_Z   4
loop_
 _symmetry_equiv_pos_site_id
 _symmetry_equiv_pos_as_xyz
  1  'x, y, z'
loop_
 _atom_site_type_symbol
 _atom_site_label
 _atom_site_symmetry_multiplicity
 _atom_site_fract_x
 _atom_site_fract_y
 _atom_site_fract_z
 _atom_site_occupancy
  Ca  Ca0  1  0.16741800  0.51927300  0.14113900  1
  Ca  Ca1  1  0.48072700  0.83258200  0.35886100  1
  Ca  Ca2  1  0.51927300  0.16741800  0.64113900  1
  Ca  Ca3  1  0.83258200  0.48072700  0.85886100  1
  Fe  Fe4  1  0.37727400  0.80650300  0.03894200  1
  Fe  Fe5  1  0.19349700  0.62272600  0.46105800  1
  Fe  Fe6  1  0.62272600  0.19349700  0.96105800  1
  Fe  Fe7  1  0.00000000  0.50000000  0.00000000  1
  Fe  Fe8  1  0.80650300  0.37727400  0.53894200  1
  Fe  Fe9  1  0.66057600  0.33942400  0.75000000  1
  Fe  Fe10  1  0.33942400  0.66057600  0.25000000  1
  Fe  Fe11  1  0.50000000  0.00000000  0.50000000  1
  P  P12  1  0.48468700  0.94725000  0.13144000  1
  P  P13  1  0.80391300  0.22650700  0.38855800  1
  P  P14  1  0.51531300  0.05275000  0.86856000  1
  P  P15  1  0.22650700  0.80391300  0.88855800  1
  P  P16  1  0.94725000  0.48468700  0.63144000  1
  P  P17  1  0.05275000  0.51531300  0.36856000  1
  P  P18  1  0.19608700  0.77349300  0.61144200  1
  P  P19  1  0.77349300  0.19608700  0.11144200  1
  O  O20  1  0.19542400  0.29890500  0.89497600  1
  O  O21  1  0.65505200  0.17980800  0.07241400  1
  O  O22  1  0.29890500  0.19542400  0.39497600  1
  O  O23  1  0.64067200  0.20004800  0.46058500  1
  O  O24  1  0.64312100  0.79822200  0.94691500  1
  O  O25  1  0.65842800  0.43292300  0.30552700  1
  O  O26  1  0.79995200  0.35932800  0.03941500  1
  O  O27  1  0.92913900  0.11188900  0.86681100  1
  O  O28  1  0.35932800  0.79995200  0.53941500  1
  O  O29  1  0.82019200  0.34494800  0.42758600  1
  O  O30  1  0.63164100  0.11777000  0.85689400  1
  O  O31  1  0.04726300  0.39337600  0.71452700  1
  O  O32  1  0.34494800  0.82019200  0.92758600  1
  O  O33  1  0.11188900  0.92913900  0.36681100  1
  O  O34  1  0.80457600  0.70109500  0.10502400  1
  O  O35  1  0.36835900  0.88223000  0.14310600  1
  O  O36  1  0.39337600  0.04726300  0.21452700  1
  O  O37  1  0.20004800  0.64067200  0.96058500  1
  O  O38  1  0.11777000  0.63164100  0.35689400  1
  O  O39  1  0.95273700  0.60662400  0.28547300  1
  O  O40  1  0.88811100  0.07086100  0.63318900  1
  O  O41  1  0.79822200  0.64312100  0.44691500  1
  O  O42  1  0.07086100  0.88811100  0.13318900  1
  O  O43  1  0.43292300  0.65842800  0.80552700  1
  O  O44  1  0.17980800  0.65505200  0.57241400  1
  O  O45  1  0.70109500  0.80457600  0.60502400  1
  O  O46  1  0.60662400  0.95273700  0.78547300  1
  O  O47  1  0.20177800  0.35687900  0.55308500  1
  O  O48  1  0.35687900  0.20177800  0.05308500  1
  O  O49  1  0.56707700  0.34157200  0.19447300  1
  O  O50  1  0.34157200  0.56707700  0.69447300  1
  O  O51  1  0.88223000  0.36835900  0.64310600  1
