# generated using pymatgen
data_Ca3(CoN2)2
_symmetry_space_group_name_H-M   'P 1'
_cell_length_a   8.56922700
_cell_length_b   8.61342100
_cell_length_c   11.72206600
_cell_angle_alpha   90.00000000
_cell_angle_beta   90.00000000
_cell_angle_gamma   90.00000000
_symmetry_Int_Tables_number   1
_chemical_formula_structural   Ca3(CoN2)2
_chemical_formula_sum   'Ca12 Co8 N16'
_cell_volume   865.20990901
_cell_formula_units_Z   4
loop_
 _symmetry_equiv_pos_site_id
 _symmetry_equiv_pos_as_xyz
  1  'x, y, z'
loop_
 _atom_site_type_symbol
 _atom_site_label
 _atom_site_symmetry_multiplicity
 _atom_site_fract_x
 _atom_site_fract_y
 _atom_site_fract_z
 _atom_site_occupancy
  Ca  Ca0  1  0.38713900  0.10682700  0.62896300  1
  Ca  Ca1  1  0.57979200  0.86759100  0.83549000  1
  Ca  Ca2  1  0.90431600  0.90252400  0.65694100  1
  Ca  Ca3  1  0.40431600  0.40252400  0.84305900  1
  Ca  Ca4  1  0.42020800  0.36759100  0.16451000  1
  Ca  Ca5  1  0.88713900  0.60682700  0.87103700  1
  Ca  Ca6  1  0.59568400  0.90252400  0.15694100  1
  Ca  Ca7  1  0.09568400  0.40252400  0.34305900  1
  Ca  Ca8  1  0.07979200  0.36759100  0.66451000  1
  Ca  Ca9  1  0.92020800  0.86759100  0.33549000  1
  Ca  Ca10  1  0.11286100  0.10682700  0.12896300  1
  Ca  Ca11  1  0.61286100  0.60682700  0.37103700  1
  Co  Co12  1  0.93442200  0.60762700  0.52128200  1
  Co  Co13  1  0.13473900  0.42314200  0.00493200  1
  Co  Co14  1  0.06557800  0.10762700  0.47871800  1
  Co  Co15  1  0.56557800  0.60762700  0.02128200  1
  Co  Co16  1  0.63473900  0.92314200  0.49506800  1
  Co  Co17  1  0.86526100  0.92314200  0.99506800  1
  Co  Co18  1  0.43442200  0.10762700  0.97871800  1
  Co  Co19  1  0.36526100  0.42314200  0.50493200  1
  N  N20  1  0.88951700  0.92540700  0.13483700  1
  N  N21  1  0.89315800  0.59152000  0.38352800  1
  N  N22  1  0.60684200  0.59152000  0.88352800  1
  N  N23  1  0.35706700  0.38419300  0.64335600  1
  N  N24  1  0.85706700  0.88419300  0.85664400  1
  N  N25  1  0.10684200  0.09152000  0.61647200  1
  N  N26  1  0.38951700  0.42540700  0.36516300  1
  N  N27  1  0.11048300  0.42540700  0.86516300  1
  N  N28  1  0.61048300  0.92540700  0.63483700  1
  N  N29  1  0.56248700  0.61483800  0.16217700  1
  N  N30  1  0.64293300  0.88419300  0.35664400  1
  N  N31  1  0.43751300  0.11483800  0.83782300  1
  N  N32  1  0.39315800  0.09152000  0.11647200  1
  N  N33  1  0.06248700  0.11483800  0.33782300  1
  N  N34  1  0.14293300  0.38419300  0.14335600  1
  N  N35  1  0.93751300  0.61483800  0.66217700  1
