# generated using pymatgen
data_CaCr2(P2O7)2
_symmetry_space_group_name_H-M   'P 1'
_cell_length_a   6.34952100
_cell_length_b   6.43396453
_cell_length_c   7.12362896
_cell_angle_alpha   96.38916883
_cell_angle_beta   89.14596424
_cell_angle_gamma   111.72681473
_symmetry_Int_Tables_number   1
_chemical_formula_structural   CaCr2(P2O7)2
_chemical_formula_sum   'Ca1 Cr2 P4 O14'
_cell_volume   268.55650793
_cell_formula_units_Z   1
loop_
 _symmetry_equiv_pos_site_id
 _symmetry_equiv_pos_as_xyz
  1  'x, y, z'
loop_
 _atom_site_type_symbol
 _atom_site_label
 _atom_site_symmetry_multiplicity
 _atom_site_fract_x
 _atom_site_fract_y
 _atom_site_fract_z
 _atom_site_occupancy
  Ca  Ca0  1  0.69442100  0.71473800  0.37877900  1
  Cr  Cr1  1  0.74150000  0.12999500  0.79970900  1
  Cr  Cr2  1  0.25432700  0.87441800  0.19875900  1
  P  P3  1  0.84947600  0.66464000  0.88055200  1
  P  P4  1  0.15406400  0.33453300  0.11460400  1
  P  P5  1  0.74748200  0.21494300  0.38315700  1
  P  P6  1  0.25774400  0.78988700  0.61660600  1
  O  O7  1  0.93854500  0.74887500  0.08892300  1
  O  O8  1  0.04769400  0.25621400  0.91746500  1
  O  O9  1  0.74339200  0.81556200  0.80399700  1
  O  O10  1  0.26631900  0.18339900  0.18208400  1
  O  O11  1  0.69429600  0.41688500  0.86887700  1
  O  O12  1  0.31615500  0.58475300  0.13940200  1
  O  O13  1  0.36878500  0.63153500  0.54156300  1
  O  O14  1  0.64486500  0.37979900  0.45544400  1
  O  O15  1  0.84611200  0.12299800  0.53906400  1
  O  O16  1  0.12637400  0.84246800  0.45226300  1
  O  O17  1  0.94996400  0.33706900  0.25268700  1
  O  O18  1  0.41228700  0.00354900  0.73787300  1
  O  O19  1  0.58784300  0.00154000  0.25684100  1
  O  O20  1  0.06153200  0.66517400  0.75603900  1
