# generated using pymatgen
data_VZnO2
_symmetry_space_group_name_H-M   'P 1'
_cell_length_a   7.63610593
_cell_length_b   7.63610593
_cell_length_c   10.88312170
_cell_angle_alpha   48.89863752
_cell_angle_beta   48.89863752
_cell_angle_gamma   23.12355654
_symmetry_Int_Tables_number   1
_chemical_formula_structural   VZnO2
_chemical_formula_sum   'V4 Zn4 O8'
_cell_volume   184.78079281
_cell_formula_units_Z   4
loop_
 _symmetry_equiv_pos_site_id
 _symmetry_equiv_pos_as_xyz
  1  'x, y, z'
loop_
 _atom_site_type_symbol
 _atom_site_label
 _atom_site_symmetry_multiplicity
 _atom_site_fract_x
 _atom_site_fract_y
 _atom_site_fract_z
 _atom_site_occupancy
  V  V0  1  0.65265800  0.64588600  0.68311300  1
  V  V1  1  0.16123700  0.14160200  0.00773900  1
  V  V2  1  0.85839800  0.83876300  0.99226100  1
  V  V3  1  0.35411400  0.34734200  0.31688700  1
  Zn  Zn4  1  0.31860100  0.36824300  0.66060200  1
  Zn  Zn5  1  0.63175700  0.68139900  0.33939800  1
  Zn  Zn6  1  0.97984400  0.03392700  0.37477600  1
  Zn  Zn7  1  0.96607300  0.02015600  0.62522400  1
  O  O8  1  0.83218900  0.82746600  0.20978800  1
  O  O9  1  0.47891800  0.46079700  0.84013200  1
  O  O10  1  0.53920300  0.52108200  0.15986800  1
  O  O11  1  0.17253400  0.16781100  0.79021200  1
  O  O12  1  0.16290900  0.15237300  0.54195500  1
  O  O13  1  0.78216100  0.76415500  0.88435300  1
  O  O14  1  0.84762700  0.83709100  0.45804500  1
  O  O15  1  0.23584500  0.21783900  0.11564700  1
