# generated using pymatgen
data_BiF5
_symmetry_space_group_name_H-M   'P 1'
_cell_length_a   5.66086254
_cell_length_b   5.67535656
_cell_length_c   8.23335562
_cell_angle_alpha   98.03781880
_cell_angle_beta   108.07694977
_cell_angle_gamma   110.55918544
_symmetry_Int_Tables_number   1
_chemical_formula_structural   BiF5
_chemical_formula_sum   'Bi2 F10'
_cell_volume   226.06008579
_cell_formula_units_Z   2
loop_
 _symmetry_equiv_pos_site_id
 _symmetry_equiv_pos_as_xyz
  1  'x, y, z'
loop_
 _atom_site_type_symbol
 _atom_site_label
 _atom_site_symmetry_multiplicity
 _atom_site_fract_x
 _atom_site_fract_y
 _atom_site_fract_z
 _atom_site_occupancy
  Bi  Bi0  1  0.99503300  0.99971900  0.99941000  1
  Bi  Bi1  1  0.50000700  0.00055200  0.49852300  1
  F  F2  1  0.34381500  0.09373500  0.24796200  1
  F  F3  1  0.64828800  0.90692500  0.75002300  1
  F  F4  1  0.60079900  0.73968100  0.37648700  1
  F  F5  1  0.86230000  0.22776800  0.12278100  1
  F  F6  1  0.75673300  0.68921100  0.05249000  1
  F  F7  1  0.13327800  0.71393600  0.44723700  1
  F  F8  1  0.23584700  0.31119700  0.94854100  1
  F  F9  1  0.86770900  0.28543200  0.54905500  1
  F  F10  1  0.12258400  0.76984000  0.87277000  1
  F  F11  1  0.40185500  0.26365300  0.62059800  1
