# generated using pymatgen
data_TeO3
_symmetry_space_group_name_H-M   'P 1'
_cell_length_a   5.10700400
_cell_length_b   5.27332600
_cell_length_c   7.37632300
_cell_angle_alpha   90.00000000
_cell_angle_beta   90.00000000
_cell_angle_gamma   90.00000000
_symmetry_Int_Tables_number   1
_chemical_formula_structural   TeO3
_chemical_formula_sum   'Te4 O12'
_cell_volume   198.65099477
_cell_formula_units_Z   4
loop_
 _symmetry_equiv_pos_site_id
 _symmetry_equiv_pos_as_xyz
  1  'x, y, z'
loop_
 _atom_site_type_symbol
 _atom_site_label
 _atom_site_symmetry_multiplicity
 _atom_site_fract_x
 _atom_site_fract_y
 _atom_site_fract_z
 _atom_site_occupancy
  Te  Te0  1  0.00000000  0.00000000  0.50000000  1
  Te  Te1  1  0.50000000  0.50000000  0.50000000  1
  Te  Te2  1  0.50000000  0.50000000  0.00000000  1
  Te  Te3  1  0.00000000  0.00000000  0.00000000  1
  O  O4  1  0.37693600  0.52147800  0.25000000  1
  O  O5  1  0.87693600  0.97852200  0.75000000  1
  O  O6  1  0.12306400  0.02147800  0.25000000  1
  O  O7  1  0.62306400  0.47852200  0.75000000  1
  O  O8  1  0.18394400  0.31014600  0.94011100  1
  O  O9  1  0.68394400  0.18985400  0.05988900  1
  O  O10  1  0.31605600  0.81014600  0.55988900  1
  O  O11  1  0.81605600  0.68985400  0.44011100  1
  O  O12  1  0.18394400  0.31014600  0.55988900  1
  O  O13  1  0.68394400  0.18985400  0.44011100  1
  O  O14  1  0.81605600  0.68985400  0.05988900  1
  O  O15  1  0.31605600  0.81014600  0.94011100  1
