# generated using pymatgen
data_Y4V6O21
_symmetry_space_group_name_H-M   'P 1'
_cell_length_a   7.16368257
_cell_length_b   7.16368257
_cell_length_c   17.43026452
_cell_angle_alpha   89.82379520
_cell_angle_beta   89.82379520
_cell_angle_gamma   59.64978283
_symmetry_Int_Tables_number   1
_chemical_formula_structural   Y4V6O21
_chemical_formula_sum   'Y8 V12 O42'
_cell_volume   771.90005344
_cell_formula_units_Z   2
loop_
 _symmetry_equiv_pos_site_id
 _symmetry_equiv_pos_as_xyz
  1  'x, y, z'
loop_
 _atom_site_type_symbol
 _atom_site_label
 _atom_site_symmetry_multiplicity
 _atom_site_fract_x
 _atom_site_fract_y
 _atom_site_fract_z
 _atom_site_occupancy
  Y  Y0  1  0.50000000  0.50000000  0.50000000  1
  Y  Y1  1  0.83394500  0.33276900  0.68256500  1
  Y  Y2  1  0.50000000  0.00000000  0.00000000  1
  Y  Y3  1  0.16605500  0.66723100  0.31743500  1
  Y  Y4  1  0.33276900  0.83394500  0.68256500  1
  Y  Y5  1  0.00000000  0.50000000  0.00000000  1
  Y  Y6  1  0.66723100  0.16605500  0.31743500  1
  Y  Y7  1  0.00000000  0.00000000  0.00000000  1
  V  V8  1  0.14861100  0.65910800  0.83249400  1
  V  V9  1  0.85138900  0.34089200  0.16750600  1
  V  V10  1  0.50000000  0.00000000  0.50000000  1
  V  V11  1  0.65910800  0.14861100  0.83249400  1
  V  V12  1  0.34089200  0.85138900  0.16750600  1
  V  V13  1  0.00000000  0.50000000  0.50000000  1
  V  V14  1  0.83059500  0.83059500  0.66315500  1
  V  V15  1  0.50000000  0.50000000  0.00000000  1
  V  V16  1  0.16940500  0.16940500  0.33684500  1
  V  V17  1  0.65382400  0.65382400  0.83429800  1
  V  V18  1  0.34617600  0.34617600  0.16570200  1
  V  V19  1  0.00000000  0.00000000  0.50000000  1
  O  O20  1  0.96200000  0.58242100  0.85926200  1
  O  O21  1  0.61923800  0.24596300  0.18640200  1
  O  O22  1  0.29421200  0.91051300  0.51932100  1
  O  O23  1  0.70798500  0.70798500  0.72989800  1
  O  O24  1  0.36599800  0.36599800  0.05885700  1
  O  O25  1  0.03916600  0.03916600  0.39409800  1
  O  O26  1  0.58242100  0.96200000  0.85926200  1
  O  O27  1  0.24596300  0.61923800  0.18640200  1
  O  O28  1  0.91051300  0.29421200  0.51932100  1
  O  O29  1  0.72033600  0.08734000  0.73133800  1
  O  O30  1  0.36955600  0.75731400  0.05713400  1
  O  O31  1  0.04681800  0.41302900  0.39522700  1
  O  O32  1  0.75403700  0.38076200  0.81359800  1
  O  O33  1  0.41757900  0.03800000  0.14073800  1
  O  O34  1  0.08948700  0.70578800  0.48067900  1
  O  O35  1  0.63400200  0.63400200  0.94114300  1
  O  O36  1  0.29201500  0.29201500  0.27010200  1
  O  O37  1  0.96083400  0.96083400  0.60590200  1
  O  O38  1  0.24268600  0.63044400  0.94286600  1
  O  O39  1  0.91266000  0.27966400  0.26866200  1
  O  O40  1  0.58697100  0.95318200  0.60477300  1
  O  O41  1  0.16459500  0.16459500  0.69185300  1
  O  O42  1  0.83283400  0.83283400  0.03363500  1
  O  O43  1  0.47296000  0.47296000  0.37919300  1
  O  O44  1  0.38686400  0.38686400  0.81954400  1
  O  O45  1  0.04451900  0.04451900  0.13823800  1
  O  O46  1  0.70648300  0.70648300  0.48308800  1
  O  O47  1  0.95548100  0.95548100  0.86176200  1
  O  O48  1  0.61313600  0.61313600  0.18045600  1
  O  O49  1  0.29351700  0.29351700  0.51691200  1
  O  O50  1  0.08734000  0.72033600  0.73133800  1
  O  O51  1  0.75731400  0.36955600  0.05713400  1
  O  O52  1  0.41302900  0.04681800  0.39522700  1
  O  O53  1  0.16716600  0.16716600  0.96636500  1
  O  O54  1  0.83540500  0.83540500  0.30814700  1
  O  O55  1  0.52704000  0.52704000  0.62080700  1
  O  O56  1  0.38076200  0.75403700  0.81359800  1
  O  O57  1  0.03800000  0.41757900  0.14073800  1
  O  O58  1  0.70578800  0.08948700  0.48067900  1
  O  O59  1  0.63044400  0.24268600  0.94286600  1
  O  O60  1  0.27966400  0.91266000  0.26866200  1
  O  O61  1  0.95318200  0.58697100  0.60477300  1
