# generated using pymatgen
data_YCr3O6
_symmetry_space_group_name_H-M   'P 1'
_cell_length_a   6.19702245
_cell_length_b   6.19702245
_cell_length_c   15.14509400
_cell_angle_alpha   90.00000000
_cell_angle_beta   90.00000000
_cell_angle_gamma   120.00000481
_symmetry_Int_Tables_number   1
_chemical_formula_structural   YCr3O6
_chemical_formula_sum   'Y4 Cr12 O24'
_cell_volume   503.69625613
_cell_formula_units_Z   4
loop_
 _symmetry_equiv_pos_site_id
 _symmetry_equiv_pos_as_xyz
  1  'x, y, z'
loop_
 _atom_site_type_symbol
 _atom_site_label
 _atom_site_symmetry_multiplicity
 _atom_site_fract_x
 _atom_site_fract_y
 _atom_site_fract_z
 _atom_site_occupancy
  Y  Y0  1  0.00000000  0.00000000  0.62914900  1
  Y  Y1  1  0.33333300  0.66666700  0.94773700  1
  Y  Y2  1  0.00000000  0.00000000  0.37085100  1
  Y  Y3  1  0.66666700  0.33333300  0.05226300  1
  Cr  Cr4  1  0.34380600  0.17190300  0.83133400  1
  Cr  Cr5  1  0.00000000  0.50000000  0.50000000  1
  Cr  Cr6  1  0.65619400  0.82809700  0.16866600  1
  Cr  Cr7  1  0.82809700  0.17190300  0.83133400  1
  Cr  Cr8  1  0.50000000  0.50000000  0.50000000  1
  Cr  Cr9  1  0.17190300  0.82809700  0.16866600  1
  Cr  Cr10  1  0.66666700  0.33333300  0.67094500  1
  Cr  Cr11  1  0.33333300  0.66666700  0.32905500  1
  Cr  Cr12  1  0.00000000  0.00000000  0.00000000  1
  Cr  Cr13  1  0.82809700  0.65619400  0.83133400  1
  Cr  Cr14  1  0.50000000  0.00000000  0.50000000  1
  Cr  Cr15  1  0.17190300  0.34380600  0.16866600  1
  O  O16  1  0.00000000  0.00000000  0.77034200  1
  O  O17  1  0.66666700  0.33333300  0.43876500  1
  O  O18  1  0.33333300  0.66666700  0.09265900  1
  O  O19  1  0.52630800  0.05261600  0.75991800  1
  O  O20  1  0.18916600  0.37833100  0.42079800  1
  O  O21  1  0.85918800  0.71837600  0.08646800  1
  O  O22  1  0.94738400  0.47369200  0.75991800  1
  O  O23  1  0.62166900  0.81083400  0.42079800  1
  O  O24  1  0.28162400  0.14081200  0.08646800  1
  O  O25  1  0.52630800  0.47369200  0.75991800  1
  O  O26  1  0.18916600  0.81083400  0.42079800  1
  O  O27  1  0.85918800  0.14081200  0.08646800  1
  O  O28  1  0.81083400  0.62166900  0.57920200  1
  O  O29  1  0.47369200  0.94738400  0.24008200  1
  O  O30  1  0.14081200  0.28162400  0.91353200  1
  O  O31  1  0.33333300  0.66666700  0.56123500  1
  O  O32  1  0.00000000  0.00000000  0.22965800  1
  O  O33  1  0.66666700  0.33333300  0.90734100  1
  O  O34  1  0.37833100  0.18916600  0.57920200  1
  O  O35  1  0.05261600  0.52630800  0.24008200  1
  O  O36  1  0.71837600  0.85918800  0.91353200  1
  O  O37  1  0.81083400  0.18916600  0.57920200  1
  O  O38  1  0.47369200  0.52630800  0.24008200  1
  O  O39  1  0.14081200  0.85918800  0.91353200  1
