# generated using pymatgen
data_Y(CuO2)3
_symmetry_space_group_name_H-M   'P 1'
_cell_length_a   8.91836835
_cell_length_b   8.91836835
_cell_length_c   11.73784743
_cell_angle_alpha   89.30289135
_cell_angle_beta   89.30289135
_cell_angle_gamma   22.90445086
_symmetry_Int_Tables_number   1
_chemical_formula_structural   Y(CuO2)3
_chemical_formula_sum   'Y2 Cu6 O12'
_cell_volume   363.32361499
_cell_formula_units_Z   2
loop_
 _symmetry_equiv_pos_site_id
 _symmetry_equiv_pos_as_xyz
  1  'x, y, z'
loop_
 _atom_site_type_symbol
 _atom_site_label
 _atom_site_symmetry_multiplicity
 _atom_site_fract_x
 _atom_site_fract_y
 _atom_site_fract_z
 _atom_site_occupancy
  Y  Y0  1  0.99362900  0.99362900  0.00301500  1
  Y  Y1  1  0.67697900  0.67697900  0.50054200  1
  Cu  Cu2  1  0.88809500  0.88809500  0.74161200  1
  Cu  Cu3  1  0.22517600  0.22517600  0.75830700  1
  Cu  Cu4  1  0.55572300  0.55572300  0.75237100  1
  Cu  Cu5  1  0.44333900  0.44333900  0.25883600  1
  Cu  Cu6  1  0.78510200  0.78510200  0.24359000  1
  Cu  Cu7  1  0.11716900  0.11716900  0.25059400  1
  O  O8  1  0.44230800  0.44230800  0.40277700  1
  O  O9  1  0.77523200  0.77523200  0.38831400  1
  O  O10  1  0.12937700  0.12937700  0.39615100  1
  O  O11  1  0.90040900  0.90040900  0.88450600  1
  O  O12  1  0.22561200  0.22561200  0.90236400  1
  O  O13  1  0.54374300  0.54374300  0.89780600  1
  O  O14  1  0.45973700  0.45973700  0.11136000  1
  O  O15  1  0.78406900  0.78406900  0.10049500  1
  O  O16  1  0.10362600  0.10362600  0.10806400  1
  O  O17  1  0.89134400  0.89134400  0.59843400  1
  O  O18  1  0.20861000  0.20861000  0.61189400  1
  O  O19  1  0.56647500  0.56647500  0.60883100  1
