# generated using pymatgen
data_SrCaSn(PO4)2
_symmetry_space_group_name_H-M   'P 1'
_cell_length_a   5.71834058
_cell_length_b   6.92596440
_cell_length_c   10.37044343
_cell_angle_alpha   108.58880846
_cell_angle_beta   100.53043238
_cell_angle_gamma   96.70861946
_symmetry_Int_Tables_number   1
_chemical_formula_structural   SrCaSn(PO4)2
_chemical_formula_sum   'Sr2 Ca2 Sn2 P4 O16'
_cell_volume   375.92232654
_cell_formula_units_Z   2
loop_
 _symmetry_equiv_pos_site_id
 _symmetry_equiv_pos_as_xyz
  1  'x, y, z'
loop_
 _atom_site_type_symbol
 _atom_site_label
 _atom_site_symmetry_multiplicity
 _atom_site_fract_x
 _atom_site_fract_y
 _atom_site_fract_z
 _atom_site_occupancy
  Sr  Sr0  1  0.26383700  0.78868300  0.04525200  1
  Sr  Sr1  1  0.73616300  0.21131700  0.95474800  1
  Ca  Ca2  1  0.03486100  0.42177900  0.66636900  1
  Ca  Ca3  1  0.96513900  0.57822100  0.33363100  1
  Sn  Sn4  1  0.63416400  0.83625300  0.59127200  1
  Sn  Sn5  1  0.36583600  0.16374700  0.40872800  1
  P  P6  1  0.35676300  0.39829300  0.20341100  1
  P  P7  1  0.64323700  0.60170700  0.79658900  1
  P  P8  1  0.81673100  0.02631000  0.27417900  1
  P  P9  1  0.18326900  0.97369000  0.72582100  1
  O  O10  1  0.86187700  0.54645800  0.88254700  1
  O  O11  1  0.59697500  0.45260500  0.16382700  1
  O  O12  1  0.69315400  0.83546200  0.81090000  1
  O  O13  1  0.97765600  0.10262100  0.70214800  1
  O  O14  1  0.40302500  0.54739500  0.83617300  1
  O  O15  1  0.08849300  0.74665500  0.61455700  1
  O  O16  1  0.91150700  0.25334500  0.38544300  1
  O  O17  1  0.23912800  0.98089100  0.87723700  1
  O  O18  1  0.30684600  0.16453800  0.18910000  1
  O  O19  1  0.76087200  0.01910900  0.12276300  1
  O  O20  1  0.13812300  0.45354200  0.11745300  1
  O  O21  1  0.36565700  0.51639400  0.36093600  1
  O  O22  1  0.63434300  0.48360600  0.63906400  1
  O  O23  1  0.58500300  0.92507600  0.30579800  1
  O  O24  1  0.02234400  0.89737900  0.29785200  1
  O  O25  1  0.41499700  0.07492400  0.69420200  1
