# generated using pymatgen
data_CaCr2(Si2O5)4
_symmetry_space_group_name_H-M   'P 1'
_cell_length_a   7.40597300
_cell_length_b   7.40597300
_cell_length_c   15.46169600
_cell_angle_alpha   90.00000000
_cell_angle_beta   90.00000000
_cell_angle_gamma   90.00000000
_symmetry_Int_Tables_number   1
_chemical_formula_structural   CaCr2(Si2O5)4
_chemical_formula_sum   'Ca2 Cr4 Si16 O40'
_cell_volume   848.04984469
_cell_formula_units_Z   2
loop_
 _symmetry_equiv_pos_site_id
 _symmetry_equiv_pos_as_xyz
  1  'x, y, z'
loop_
 _atom_site_type_symbol
 _atom_site_label
 _atom_site_symmetry_multiplicity
 _atom_site_fract_x
 _atom_site_fract_y
 _atom_site_fract_z
 _atom_site_occupancy
  Ca  Ca0  1  0.50000000  0.50000000  0.00000000  1
  Ca  Ca1  1  0.00000000  0.00000000  0.50000000  1
  Cr  Cr2  1  0.00000000  0.50000000  0.08258000  1
  Cr  Cr3  1  0.50000000  0.00000000  0.41742000  1
  Cr  Cr4  1  0.50000000  0.00000000  0.91742000  1
  Cr  Cr5  1  0.00000000  0.50000000  0.58258000  1
  Si  Si6  1  0.67317100  0.75186000  0.64947900  1
  Si  Si7  1  0.32682900  0.24814000  0.64947900  1
  Si  Si8  1  0.75491000  0.67305100  0.85242300  1
  Si  Si9  1  0.25491000  0.82694900  0.64757700  1
  Si  Si10  1  0.74509000  0.17305100  0.64757700  1
  Si  Si11  1  0.82682900  0.25186000  0.85052100  1
  Si  Si12  1  0.17317100  0.74814000  0.85052100  1
  Si  Si13  1  0.24509000  0.32694900  0.85242300  1
  Si  Si14  1  0.82694900  0.74509000  0.35242300  1
  Si  Si15  1  0.17305100  0.25491000  0.35242300  1
  Si  Si16  1  0.74814000  0.82682900  0.14947900  1
  Si  Si17  1  0.24814000  0.67317100  0.35052100  1
  Si  Si18  1  0.75186000  0.32682900  0.35052100  1
  Si  Si19  1  0.67305100  0.24509000  0.14757700  1
  Si  Si20  1  0.32694900  0.75491000  0.14757700  1
  Si  Si21  1  0.25186000  0.17317100  0.14947900  1
  O  O22  1  0.77160300  0.60525900  0.58899200  1
  O  O23  1  0.22839700  0.39474100  0.58899200  1
  O  O24  1  0.60721500  0.75643600  0.91922200  1
  O  O25  1  0.10721500  0.74356400  0.58077800  1
  O  O26  1  0.89278500  0.25643600  0.58077800  1
  O  O27  1  0.72839700  0.10525900  0.91100800  1
  O  O28  1  0.27160300  0.89474100  0.91100800  1
  O  O29  1  0.39278500  0.24356400  0.91922200  1
  O  O30  1  0.74356400  0.89278500  0.41922200  1
  O  O31  1  0.25643600  0.10721500  0.41922200  1
  O  O32  1  0.89474100  0.72839700  0.08899200  1
  O  O33  1  0.39474100  0.77160300  0.41100800  1
  O  O34  1  0.60525900  0.22839700  0.41100800  1
  O  O35  1  0.75643600  0.39278500  0.08077800  1
  O  O36  1  0.24356400  0.60721500  0.08077800  1
  O  O37  1  0.75603300  0.54187400  0.37073000  1
  O  O38  1  0.10525900  0.27160300  0.08899200  1
  O  O39  1  0.24354600  0.04582200  0.62606700  1
  O  O40  1  0.95812600  0.74396700  0.87073000  1
  O  O41  1  0.45812600  0.75603300  0.62927000  1
  O  O42  1  0.54187400  0.24396700  0.62927000  1
  O  O43  1  0.74354600  0.45417800  0.87393300  1
  O  O44  1  0.25645400  0.54582200  0.87393300  1
  O  O45  1  0.04187400  0.25603300  0.87073000  1
  O  O46  1  0.21093100  0.20283400  0.25210000  1
  O  O47  1  0.28906900  0.70283400  0.24790000  1
  O  O48  1  0.71093100  0.29716600  0.24790000  1
  O  O49  1  0.78906900  0.79716600  0.25210000  1
  O  O50  1  0.29716600  0.28906900  0.75210000  1
  O  O51  1  0.20283400  0.78906900  0.74790000  1
  O  O52  1  0.79716600  0.21093100  0.74790000  1
  O  O53  1  0.70283400  0.71093100  0.75210000  1
  O  O54  1  0.45417800  0.25645400  0.12606700  1
  O  O55  1  0.25603300  0.95812600  0.12927000  1
  O  O56  1  0.74396700  0.04187400  0.12927000  1
  O  O57  1  0.95417800  0.24354600  0.37393300  1
  O  O58  1  0.04582200  0.75645400  0.37393300  1
  O  O59  1  0.54582200  0.74354600  0.12606700  1
  O  O60  1  0.24396700  0.45812600  0.37073000  1
  O  O61  1  0.75645400  0.95417800  0.62606700  1
