# generated using pymatgen
data_Ca(BiO2)4
_symmetry_space_group_name_H-M   'P 1'
_cell_length_a   8.52658938
_cell_length_b   8.52658938
_cell_length_c   10.57844219
_cell_angle_alpha   54.57676542
_cell_angle_beta   54.57676542
_cell_angle_gamma   23.58141251
_symmetry_Int_Tables_number   1
_chemical_formula_structural   Ca(BiO2)4
_chemical_formula_sum   'Ca1 Bi4 O8'
_cell_volume   247.94120486
_cell_formula_units_Z   1
loop_
 _symmetry_equiv_pos_site_id
 _symmetry_equiv_pos_as_xyz
  1  'x, y, z'
loop_
 _atom_site_type_symbol
 _atom_site_label
 _atom_site_symmetry_multiplicity
 _atom_site_fract_x
 _atom_site_fract_y
 _atom_site_fract_z
 _atom_site_occupancy
  Ca  Ca0  1  0.33030300  0.33030300  0.20227800  1
  Bi  Bi1  1  0.64289000  0.64289000  0.55927000  1
  Bi  Bi2  1  0.13066600  0.13066600  0.20354200  1
  Bi  Bi3  1  0.85098200  0.85098200  0.84980500  1
  Bi  Bi4  1  0.35478600  0.35478600  0.50379900  1
  O  O5  1  0.87408500  0.87408500  0.62568800  1
  O  O6  1  0.45261200  0.45261200  0.78573800  1
  O  O7  1  0.52810000  0.52810000  0.27245800  1
  O  O8  1  0.16000400  0.16000400  0.38647500  1
  O  O9  1  0.18988900  0.18988900  0.64396400  1
  O  O10  1  0.79826100  0.79826100  0.09045000  1
  O  O11  1  0.81829700  0.81829700  0.36781600  1
  O  O12  1  0.24904800  0.24904800  0.91751000  1
