# generated using pymatgen
data_Ti5ZnO7
_symmetry_space_group_name_H-M   'P 1'
_cell_length_a   5.14114734
_cell_length_b   5.14114734
_cell_length_c   17.88586700
_cell_angle_alpha   90.00000000
_cell_angle_beta   90.00000000
_cell_angle_gamma   146.41252718
_symmetry_Int_Tables_number   1
_chemical_formula_structural   Ti5ZnO7
_chemical_formula_sum   'Ti10 Zn2 O14'
_cell_volume   261.52888865
_cell_formula_units_Z   2
loop_
 _symmetry_equiv_pos_site_id
 _symmetry_equiv_pos_as_xyz
  1  'x, y, z'
loop_
 _atom_site_type_symbol
 _atom_site_label
 _atom_site_symmetry_multiplicity
 _atom_site_fract_x
 _atom_site_fract_y
 _atom_site_fract_z
 _atom_site_occupancy
  Ti  Ti0  1  0.70883200  0.29116800  0.57089900  1
  Ti  Ti1  1  0.53778100  0.46221900  0.14922500  1
  Ti  Ti2  1  0.00000000  0.00000000  0.50000000  1
  Ti  Ti3  1  0.00000000  0.00000000  0.00000000  1
  Ti  Ti4  1  0.46221900  0.53778100  0.85077500  1
  Ti  Ti5  1  0.29116800  0.70883200  0.42910100  1
  Ti  Ti6  1  0.29116800  0.70883200  0.07089900  1
  Ti  Ti7  1  0.70883200  0.29116800  0.92910100  1
  Ti  Ti8  1  0.46221900  0.53778100  0.64922500  1
  Ti  Ti9  1  0.53778100  0.46221900  0.35077500  1
  Zn  Zn10  1  0.20956100  0.79043900  0.75000000  1
  Zn  Zn11  1  0.79043900  0.20956100  0.25000000  1
  O  O12  1  0.35718200  0.64281800  0.95585300  1
  O  O13  1  0.64281800  0.35718200  0.04414700  1
  O  O14  1  0.64281800  0.35718200  0.45585300  1
  O  O15  1  0.35718200  0.64281800  0.54414700  1
  O  O16  1  0.81801200  0.18198800  0.82743200  1
  O  O17  1  0.18198800  0.81801200  0.17256800  1
  O  O18  1  0.18198800  0.81801200  0.32743200  1
  O  O19  1  0.81801200  0.18198800  0.67256800  1
  O  O20  1  0.08991700  0.91008300  0.88584500  1
  O  O21  1  0.91008300  0.08991700  0.11415500  1
  O  O22  1  0.91008300  0.08991700  0.38584500  1
  O  O23  1  0.08991700  0.91008300  0.61415500  1
  O  O24  1  0.55471000  0.44529000  0.75000000  1
  O  O25  1  0.44529000  0.55471000  0.25000000  1
