# generated using pymatgen
data_V2ZnN2
_symmetry_space_group_name_H-M   'P 1'
_cell_length_a   3.74165500
_cell_length_b   3.74165500
_cell_length_c   4.88110100
_cell_angle_alpha   90.00000000
_cell_angle_beta   90.00000000
_cell_angle_gamma   90.00000000
_symmetry_Int_Tables_number   1
_chemical_formula_structural   V2ZnN2
_chemical_formula_sum   'V2 Zn1 N2'
_cell_volume   68.33532682
_cell_formula_units_Z   1
loop_
 _symmetry_equiv_pos_site_id
 _symmetry_equiv_pos_as_xyz
  1  'x, y, z'
loop_
 _atom_site_type_symbol
 _atom_site_label
 _atom_site_symmetry_multiplicity
 _atom_site_fract_x
 _atom_site_fract_y
 _atom_site_fract_z
 _atom_site_occupancy
  V  V0  1  0.00000000  0.00000000  0.71987100  1
  V  V1  1  0.00000000  0.00000000  0.28012900  1
  Zn  Zn2  1  0.50000000  0.50000000  0.00000000  1
  N  N3  1  0.00000000  0.50000000  0.26011400  1
  N  N4  1  0.50000000  0.00000000  0.73988600  1
