# generated using pymatgen
data_Zn(WN)2
_symmetry_space_group_name_H-M   'P 1'
_cell_length_a   3.26149200
_cell_length_b   3.26149200
_cell_length_c   7.14246700
_cell_angle_alpha   90.00000000
_cell_angle_beta   90.00000000
_cell_angle_gamma   90.00000000
_symmetry_Int_Tables_number   1
_chemical_formula_structural   Zn(WN)2
_chemical_formula_sum   'Zn1 W2 N2'
_cell_volume   75.97677896
_cell_formula_units_Z   1
loop_
 _symmetry_equiv_pos_site_id
 _symmetry_equiv_pos_as_xyz
  1  'x, y, z'
loop_
 _atom_site_type_symbol
 _atom_site_label
 _atom_site_symmetry_multiplicity
 _atom_site_fract_x
 _atom_site_fract_y
 _atom_site_fract_z
 _atom_site_occupancy
  Zn  Zn0  1  0.00000000  0.00000000  0.00000000  1
  W  W1  1  0.50000000  0.50000000  0.67845900  1
  W  W2  1  0.50000000  0.50000000  0.32154100  1
  N  N3  1  0.50000000  0.00000000  0.17782600  1
  N  N4  1  0.00000000  0.50000000  0.82217400  1
