# generated using pymatgen
data_Yb2TeO6
_symmetry_space_group_name_H-M   'P 1'
_cell_length_a   8.87949185
_cell_length_b   8.87949185
_cell_length_c   5.39146943
_cell_angle_alpha   88.60347897
_cell_angle_beta   88.60347897
_cell_angle_gamma   59.01402749
_symmetry_Int_Tables_number   1
_chemical_formula_structural   Yb2TeO6
_chemical_formula_sum   'Yb6 Te3 O18'
_cell_volume   364.28600096
_cell_formula_units_Z   3
loop_
 _symmetry_equiv_pos_site_id
 _symmetry_equiv_pos_as_xyz
  1  'x, y, z'
loop_
 _atom_site_type_symbol
 _atom_site_label
 _atom_site_symmetry_multiplicity
 _atom_site_fract_x
 _atom_site_fract_y
 _atom_site_fract_z
 _atom_site_occupancy
  Yb  Yb0  1  0.60002300  0.39997700  0.00000000  1
  Yb  Yb1  1  0.39407300  0.98712500  0.99217500  1
  Yb  Yb2  1  0.01287500  0.60592700  0.00782500  1
  Yb  Yb3  1  0.27273200  0.72726800  0.50000000  1
  Yb  Yb4  1  0.74783200  0.98977800  0.49385500  1
  Yb  Yb5  1  0.01022200  0.25216800  0.50614500  1
  Te  Te6  1  0.99907500  0.00092500  0.00000000  1
  Te  Te7  1  0.66895600  0.65727600  0.36305300  1
  Te  Te8  1  0.34272400  0.33104400  0.63694700  1
  O  O9  1  0.46815600  0.70889500  0.18384900  1
  O  O10  1  0.72480900  0.80827900  0.18331400  1
  O  O11  1  0.82446900  0.45073700  0.19596800  1
  O  O12  1  0.29110500  0.53184400  0.81615100  1
  O  O13  1  0.19172100  0.27519100  0.81668600  1
  O  O14  1  0.54926300  0.17553100  0.80403200  1
  O  O15  1  0.91762100  0.57332600  0.59081500  1
  O  O16  1  0.59890600  0.59377100  0.65876000  1
  O  O17  1  0.49527200  0.93177800  0.56702300  1
  O  O18  1  0.42667400  0.08237900  0.40918500  1
  O  O19  1  0.40622900  0.40109400  0.34124000  1
  O  O20  1  0.06822200  0.50472800  0.43297700  1
  O  O21  1  0.19298200  0.94506100  0.77017300  1
  O  O22  1  0.94439200  0.85975700  0.79014200  1
  O  O23  1  0.85532100  0.19893000  0.77934200  1
  O  O24  1  0.05493900  0.80701800  0.22982700  1
  O  O25  1  0.14024300  0.05560800  0.20985800  1
  O  O26  1  0.80107000  0.14467900  0.22065800  1
