# generated using pymatgen
data_Mg(CoS2)2
_symmetry_space_group_name_H-M   'P 1'
_cell_length_a   6.86338174
_cell_length_b   6.86338174
_cell_length_c   6.86338174
_cell_angle_alpha   120.29492047
_cell_angle_beta   118.71082086
_cell_angle_gamma   90.86862444
_symmetry_Int_Tables_number   1
_chemical_formula_structural   Mg(CoS2)2
_chemical_formula_sum   'Mg2 Co4 S8'
_cell_volume   230.24739576
_cell_formula_units_Z   2
loop_
 _symmetry_equiv_pos_site_id
 _symmetry_equiv_pos_as_xyz
  1  'x, y, z'
loop_
 _atom_site_type_symbol
 _atom_site_label
 _atom_site_symmetry_multiplicity
 _atom_site_fract_x
 _atom_site_fract_y
 _atom_site_fract_z
 _atom_site_occupancy
  Mg  Mg0  1  0.50000000  0.50000000  0.00000000  1
  Mg  Mg1  1  0.00000000  0.50000000  0.50000000  1
  Co  Co2  1  0.00000000  0.00000000  0.50000000  1
  Co  Co3  1  0.50000000  0.00000000  0.50000000  1
  Co  Co4  1  0.00000000  0.50000000  0.00000000  1
  Co  Co5  1  0.00000000  0.00000000  0.00000000  1
  S  S6  1  0.20454800  0.23842200  0.96612500  1
  S  S7  1  0.76611800  0.79663800  0.53052100  1
  S  S8  1  0.77229700  0.23842200  0.53387500  1
  S  S9  1  0.23388200  0.76440300  0.03052100  1
  S  S10  1  0.22770300  0.76157800  0.46612500  1
  S  S11  1  0.23388200  0.20336200  0.46947900  1
  S  S12  1  0.76611800  0.23559700  0.96947900  1
  S  S13  1  0.79545200  0.76157800  0.03387500  1
