# generated using pymatgen
data_Y(FeO2)3
_symmetry_space_group_name_H-M   'P 1'
_cell_length_a   6.27112786
_cell_length_b   6.27112786
_cell_length_c   15.12826800
_cell_angle_alpha   90.00000000
_cell_angle_beta   90.00000000
_cell_angle_gamma   119.99999855
_symmetry_Int_Tables_number   1
_chemical_formula_structural   Y(FeO2)3
_chemical_formula_sum   'Y4 Fe12 O24'
_cell_volume   515.24188337
_cell_formula_units_Z   4
loop_
 _symmetry_equiv_pos_site_id
 _symmetry_equiv_pos_as_xyz
  1  'x, y, z'
loop_
 _atom_site_type_symbol
 _atom_site_label
 _atom_site_symmetry_multiplicity
 _atom_site_fract_x
 _atom_site_fract_y
 _atom_site_fract_z
 _atom_site_occupancy
  Y  Y0  1  0.33333300  0.66666700  0.44001100  1
  Y  Y1  1  0.00000000  0.00000000  0.13051800  1
  Y  Y2  1  0.66666700  0.33333300  0.55998900  1
  Y  Y3  1  0.00000000  0.00000000  0.86948200  1
  Fe  Fe4  1  0.17161200  0.82838800  0.66677100  1
  Fe  Fe5  1  0.82838800  0.17161200  0.33322900  1
  Fe  Fe6  1  0.50000000  0.50000000  0.00000000  1
  Fe  Fe7  1  0.17161200  0.34322400  0.66677100  1
  Fe  Fe8  1  0.82838800  0.65677600  0.33322900  1
  Fe  Fe9  1  0.50000000  0.00000000  0.00000000  1
  Fe  Fe10  1  0.00000000  0.00000000  0.50000000  1
  Fe  Fe11  1  0.66666700  0.33333300  0.17358300  1
  Fe  Fe12  1  0.33333300  0.66666700  0.82641700  1
  Fe  Fe13  1  0.65677600  0.82838800  0.66677100  1
  Fe  Fe14  1  0.34322400  0.17161200  0.33322900  1
  Fe  Fe15  1  0.00000000  0.50000000  0.00000000  1
  O  O16  1  0.33333300  0.66666700  0.58499200  1
  O  O17  1  0.00000000  0.00000000  0.27062700  1
  O  O18  1  0.66666700  0.33333300  0.93957100  1
  O  O19  1  0.28489600  0.14244800  0.58659200  1
  O  O20  1  0.95754700  0.47877300  0.26386100  1
  O  O21  1  0.62829200  0.81414600  0.91842400  1
  O  O22  1  0.85755200  0.14244800  0.58659200  1
  O  O23  1  0.52122700  0.47877300  0.26386100  1
  O  O24  1  0.18585400  0.81414600  0.91842400  1
  O  O25  1  0.85755200  0.71510400  0.58659200  1
  O  O26  1  0.52122700  0.04245300  0.26386100  1
  O  O27  1  0.18585400  0.37170800  0.91842400  1
  O  O28  1  0.71510400  0.85755200  0.41340800  1
  O  O29  1  0.37170800  0.18585400  0.08157600  1
  O  O30  1  0.04245300  0.52122700  0.73613900  1
  O  O31  1  0.66666700  0.33333300  0.41500800  1
  O  O32  1  0.33333300  0.66666700  0.06042900  1
  O  O33  1  0.00000000  0.00000000  0.72937300  1
  O  O34  1  0.14244800  0.85755200  0.41340800  1
  O  O35  1  0.81414600  0.18585400  0.08157600  1
  O  O36  1  0.47877300  0.52122700  0.73613900  1
  O  O37  1  0.14244800  0.28489600  0.41340800  1
  O  O38  1  0.81414600  0.62829200  0.08157600  1
  O  O39  1  0.47877300  0.95754700  0.73613900  1
