# generated using pymatgen
data_SbO2
_symmetry_space_group_name_H-M   'P 1'
_cell_length_a   3.23120100
_cell_length_b   8.18365754
_cell_length_c   8.45202018
_cell_angle_alpha   85.58585841
_cell_angle_beta   81.62094538
_cell_angle_gamma   81.19685931
_symmetry_Int_Tables_number   1
_chemical_formula_structural   SbO2
_chemical_formula_sum   'Sb4 O8'
_cell_volume   218.16493745
_cell_formula_units_Z   4
loop_
 _symmetry_equiv_pos_site_id
 _symmetry_equiv_pos_as_xyz
  1  'x, y, z'
loop_
 _atom_site_type_symbol
 _atom_site_label
 _atom_site_symmetry_multiplicity
 _atom_site_fract_x
 _atom_site_fract_y
 _atom_site_fract_z
 _atom_site_occupancy
  Sb  Sb0  1  0.68762800  0.18185500  0.48289000  1
  Sb  Sb1  1  0.21533700  0.43563100  0.16360100  1
  Sb  Sb2  1  0.78466300  0.56436900  0.83639900  1
  Sb  Sb3  1  0.31237200  0.81814500  0.51711000  1
  O  O4  1  0.75240400  0.77647200  0.71903800  1
  O  O5  1  0.36514000  0.47290000  0.72732900  1
  O  O6  1  0.63486000  0.52710000  0.27267100  1
  O  O7  1  0.24759600  0.22352800  0.28096200  1
  O  O8  1  0.19265700  0.05196200  0.60655500  1
  O  O9  1  0.79971600  0.36717600  0.00832300  1
  O  O10  1  0.80734300  0.94803800  0.39344500  1
  O  O11  1  0.20028400  0.63282400  0.99167700  1
