# generated using pymatgen
data_CaTi(PO3)4
_symmetry_space_group_name_H-M   'P 1'
_cell_length_a   7.62170405
_cell_length_b   7.62170405
_cell_length_c   10.42724787
_cell_angle_alpha   66.39500617
_cell_angle_beta   66.39500617
_cell_angle_gamma   70.33097091
_symmetry_Int_Tables_number   1
_chemical_formula_structural   CaTi(PO3)4
_chemical_formula_sum   'Ca2 Ti2 P8 O24'
_cell_volume   497.26912124
_cell_formula_units_Z   2
loop_
 _symmetry_equiv_pos_site_id
 _symmetry_equiv_pos_as_xyz
  1  'x, y, z'
loop_
 _atom_site_type_symbol
 _atom_site_label
 _atom_site_symmetry_multiplicity
 _atom_site_fract_x
 _atom_site_fract_y
 _atom_site_fract_z
 _atom_site_occupancy
  Ca  Ca0  1  0.95320900  0.04679100  0.75000000  1
  Ca  Ca1  1  0.04679100  0.95320900  0.25000000  1
  Ti  Ti2  1  0.50000000  0.00000000  0.00000000  1
  Ti  Ti3  1  0.00000000  0.50000000  0.50000000  1
  P  P4  1  0.31973800  0.30158000  0.69550400  1
  P  P5  1  0.69842000  0.68026200  0.80449600  1
  P  P6  1  0.68026200  0.69842000  0.30449600  1
  P  P7  1  0.30158000  0.31973800  0.19550400  1
  P  P8  1  0.72016200  0.26873700  0.47697600  1
  P  P9  1  0.73126300  0.27983800  0.02302400  1
  P  P10  1  0.27983800  0.73126300  0.52302400  1
  P  P11  1  0.26873700  0.72016200  0.97697600  1
  O  O12  1  0.32256100  0.52890800  0.65397600  1
  O  O13  1  0.47109200  0.67743900  0.84602400  1
  O  O14  1  0.67743900  0.47109200  0.34602400  1
  O  O15  1  0.52890800  0.32256100  0.15397600  1
  O  O16  1  0.50403900  0.22733000  0.56885500  1
  O  O17  1  0.77267000  0.49596100  0.93114500  1
  O  O18  1  0.49596100  0.77267000  0.43114500  1
  O  O19  1  0.22733000  0.50403900  0.06885500  1
  O  O20  1  0.35069100  0.19597300  0.84198100  1
  O  O21  1  0.80402700  0.64930900  0.65801900  1
  O  O22  1  0.64930900  0.80402700  0.15801900  1
  O  O23  1  0.19597300  0.35069100  0.34198100  1
  O  O24  1  0.13959400  0.28960400  0.67349200  1
  O  O25  1  0.71039600  0.86040600  0.82650800  1
  O  O26  1  0.86040600  0.71039600  0.32650800  1
  O  O27  1  0.28960400  0.13959400  0.17349200  1
  O  O28  1  0.80255800  0.30718400  0.57238900  1
  O  O29  1  0.69281600  0.19744200  0.92761100  1
  O  O30  1  0.19744200  0.69281600  0.42761100  1
  O  O31  1  0.30718400  0.80255800  0.07238900  1
  O  O32  1  0.83371600  0.10683300  0.41326200  1
  O  O33  1  0.89316700  0.16628400  0.08673800  1
  O  O34  1  0.16628400  0.89316700  0.58673800  1
  O  O35  1  0.10683300  0.83371600  0.91326200  1
