# generated using pymatgen
data_Y2MgMn2S2O5
_symmetry_space_group_name_H-M   'P 1'
_cell_length_a   11.60201140
_cell_length_b   11.60201140
_cell_length_c   11.60201140
_cell_angle_alpha   160.33109292
_cell_angle_beta   160.29152633
_cell_angle_gamma   27.98456661
_symmetry_Int_Tables_number   1
_chemical_formula_structural   Y2MgMn2S2O5
_chemical_formula_sum   'Y2 Mg1 Mn2 S2 O5'
_cell_volume   177.18572223
_cell_formula_units_Z   1
loop_
 _symmetry_equiv_pos_site_id
 _symmetry_equiv_pos_as_xyz
  1  'x, y, z'
loop_
 _atom_site_type_symbol
 _atom_site_label
 _atom_site_symmetry_multiplicity
 _atom_site_fract_x
 _atom_site_fract_y
 _atom_site_fract_z
 _atom_site_occupancy
  Y  Y0  1  0.33675300  0.83675300  0.50000000  1
  Y  Y1  1  0.66324700  0.16324700  0.50000000  1
  Mg  Mg2  1  0.00000000  0.00000000  0.00000000  1
  Mn  Mn3  1  0.09178200  0.59178200  0.50000000  1
  Mn  Mn4  1  0.90821800  0.40821800  0.50000000  1
  S  S5  1  0.20517700  0.70517700  0.50000000  1
  S  S6  1  0.79482300  0.29482300  0.50000000  1
  O  O7  1  0.60543700  0.60543700  0.00000000  1
  O  O8  1  0.39456300  0.39456300  0.00000000  1
  O  O9  1  0.09218800  0.09218800  0.00000000  1
  O  O10  1  0.90781200  0.90781200  0.00000000  1
  O  O11  1  0.00000000  0.50000000  0.50000000  1
