# generated using pymatgen
data_Sr2V2GaO7
_symmetry_space_group_name_H-M   'P 1'
_cell_length_a   11.80875361
_cell_length_b   11.80875361
_cell_length_c   11.80875361
_cell_angle_alpha   153.40783410
_cell_angle_beta   152.99409979
_cell_angle_gamma   38.26311319
_symmetry_Int_Tables_number   1
_chemical_formula_structural   Sr2V2GaO7
_chemical_formula_sum   'Sr4 V4 Ga2 O14'
_cell_volume   334.17357725
_cell_formula_units_Z   2
loop_
 _symmetry_equiv_pos_site_id
 _symmetry_equiv_pos_as_xyz
  1  'x, y, z'
loop_
 _atom_site_type_symbol
 _atom_site_label
 _atom_site_symmetry_multiplicity
 _atom_site_fract_x
 _atom_site_fract_y
 _atom_site_fract_z
 _atom_site_occupancy
  Sr  Sr0  1  0.36595300  0.85533700  0.51594200  1
  Sr  Sr1  1  0.63404700  0.14998800  0.48938400  1
  Sr  Sr2  1  0.83939500  0.35533700  0.48938400  1
  Sr  Sr3  1  0.16060500  0.64998800  0.51594200  1
  V  V4  1  0.56957600  0.57480800  0.00645900  1
  V  V5  1  0.93165000  0.93688300  0.00645900  1
  V  V6  1  0.06835000  0.07480800  0.00523300  1
  V  V7  1  0.43042400  0.43688300  0.00523300  1
  Ga  Ga8  1  0.82726600  0.70369300  0.03095800  1
  Ga  Ga9  1  0.17273400  0.20369300  0.87642700  1
  O  O10  1  0.66864500  0.67131600  0.47845900  1
  O  O11  1  0.86305600  0.35558700  0.71864300  1
  O  O12  1  0.69285700  0.17131600  0.00267100  1
  O  O13  1  0.20628500  0.19083300  0.05162400  1
  O  O14  1  0.83730200  0.84235700  0.53142300  1
  O  O15  1  0.81093400  0.34235700  0.00505500  1
  O  O16  1  0.13694400  0.85558700  0.49253100  1
  O  O17  1  0.30714300  0.30981400  0.47845900  1
  O  O18  1  0.33135500  0.80981400  0.00267100  1
  O  O19  1  0.63920900  0.69083300  0.98454800  1
  O  O20  1  0.79371500  0.84533900  0.98454800  1
  O  O21  1  0.36079100  0.34533900  0.05162400  1
  O  O22  1  0.16269800  0.69412100  0.00505500  1
  O  O23  1  0.18906600  0.19412100  0.53142300  1
