# generated using pymatgen
data_Zn3Ag2(GeO4)3
_symmetry_space_group_name_H-M   'P 1'
_cell_length_a   10.68763510
_cell_length_b   10.68763510
_cell_length_c   10.68763510
_cell_angle_alpha   109.47122063
_cell_angle_beta   109.47122063
_cell_angle_gamma   109.47122063
_symmetry_Int_Tables_number   1
_chemical_formula_structural   Zn3Ag2(GeO4)3
_chemical_formula_sum   'Zn12 Ag8 Ge12 O48'
_cell_volume   939.77299602
_cell_formula_units_Z   4
loop_
 _symmetry_equiv_pos_site_id
 _symmetry_equiv_pos_as_xyz
  1  'x, y, z'
loop_
 _atom_site_type_symbol
 _atom_site_label
 _atom_site_symmetry_multiplicity
 _atom_site_fract_x
 _atom_site_fract_y
 _atom_site_fract_z
 _atom_site_occupancy
  Zn  Zn0  1  0.25000000  0.87500000  0.62500000  1
  Zn  Zn1  1  0.75000000  0.62500000  0.87500000  1
  Zn  Zn2  1  0.62500000  0.87500000  0.75000000  1
  Zn  Zn3  1  0.87500000  0.62500000  0.25000000  1
  Zn  Zn4  1  0.62500000  0.25000000  0.87500000  1
  Zn  Zn5  1  0.87500000  0.75000000  0.62500000  1
  Zn  Zn6  1  0.75000000  0.12500000  0.37500000  1
  Zn  Zn7  1  0.25000000  0.37500000  0.12500000  1
  Zn  Zn8  1  0.37500000  0.12500000  0.25000000  1
  Zn  Zn9  1  0.12500000  0.37500000  0.75000000  1
  Zn  Zn10  1  0.37500000  0.75000000  0.12500000  1
  Zn  Zn11  1  0.12500000  0.25000000  0.37500000  1
  Ag  Ag12  1  0.50000000  0.50000000  0.50000000  1
  Ag  Ag13  1  0.50000000  0.00000000  0.50000000  1
  Ag  Ag14  1  0.00000000  0.50000000  0.50000000  1
  Ag  Ag15  1  0.50000000  0.50000000  0.00000000  1
  Ag  Ag16  1  0.00000000  0.00000000  0.50000000  1
  Ag  Ag17  1  0.00000000  0.50000000  0.00000000  1
  Ag  Ag18  1  0.50000000  0.00000000  0.00000000  1
  Ag  Ag19  1  0.00000000  0.00000000  0.00000000  1
  Ge  Ge20  1  0.12500000  0.75000000  0.87500000  1
  Ge  Ge21  1  0.87500000  0.25000000  0.12500000  1
  Ge  Ge22  1  0.62500000  0.37500000  0.25000000  1
  Ge  Ge23  1  0.75000000  0.87500000  0.12500000  1
  Ge  Ge24  1  0.87500000  0.12500000  0.75000000  1
  Ge  Ge25  1  0.25000000  0.62500000  0.37500000  1
  Ge  Ge26  1  0.75000000  0.37500000  0.62500000  1
  Ge  Ge27  1  0.25000000  0.12500000  0.87500000  1
  Ge  Ge28  1  0.12500000  0.87500000  0.25000000  1
  Ge  Ge29  1  0.37500000  0.62500000  0.75000000  1
  Ge  Ge30  1  0.62500000  0.75000000  0.37500000  1
  Ge  Ge31  1  0.37500000  0.25000000  0.62500000  1
  O  O32  1  0.40938100  0.81014000  0.77440000  1
  O  O33  1  0.86501800  0.40075900  0.09061900  1
  O  O34  1  0.09924100  0.96426000  0.68986000  1
  O  O35  1  0.53574000  0.63498200  0.72560000  1
  O  O36  1  0.68986000  0.09061900  0.72560000  1
  O  O37  1  0.63498200  0.72560000  0.53574000  1
  O  O38  1  0.63498200  0.40938100  0.09924100  1
  O  O39  1  0.72560000  0.53574000  0.63498200  1
  O  O40  1  0.81014000  0.53574000  0.40075900  1
  O  O41  1  0.96426000  0.77440000  0.86501800  1
  O  O42  1  0.77440000  0.86501800  0.96426000  1
  O  O43  1  0.72560000  0.68986000  0.09061900  1
  O  O44  1  0.40938100  0.09924100  0.63498200  1
  O  O45  1  0.40075900  0.81014000  0.53574000  1
  O  O46  1  0.09061900  0.72560000  0.68986000  1
  O  O47  1  0.09924100  0.63498200  0.40938100  1
  O  O48  1  0.53574000  0.40075900  0.81014000  1
  O  O49  1  0.09061900  0.86501800  0.40075900  1
  O  O50  1  0.96426000  0.68986000  0.09924100  1
  O  O51  1  0.18986000  0.46426000  0.59924100  1
  O  O52  1  0.68986000  0.09924100  0.96426000  1
  O  O53  1  0.77440000  0.40938100  0.81014000  1
  O  O54  1  0.40075900  0.09061900  0.86501800  1
  O  O55  1  0.86501800  0.96426000  0.77440000  1
  O  O56  1  0.59061900  0.18986000  0.22560000  1
  O  O57  1  0.13498200  0.59924100  0.90938100  1
  O  O58  1  0.90075900  0.03574000  0.31014000  1
  O  O59  1  0.46426000  0.36501800  0.27440000  1
  O  O60  1  0.31014000  0.90938100  0.27440000  1
  O  O61  1  0.36501800  0.27440000  0.46426000  1
  O  O62  1  0.36501800  0.59061900  0.90075900  1
  O  O63  1  0.27440000  0.46426000  0.36501800  1
  O  O64  1  0.13498200  0.03574000  0.22560000  1
  O  O65  1  0.59924100  0.90938100  0.13498200  1
  O  O66  1  0.22560000  0.59061900  0.18986000  1
  O  O67  1  0.18986000  0.22560000  0.59061900  1
  O  O68  1  0.31014000  0.90075900  0.03574000  1
  O  O69  1  0.03574000  0.31014000  0.90075900  1
  O  O70  1  0.90938100  0.13498200  0.59924100  1
  O  O71  1  0.46426000  0.59924100  0.18986000  1
  O  O72  1  0.90075900  0.36501800  0.59061900  1
  O  O73  1  0.90938100  0.27440000  0.31014000  1
  O  O74  1  0.59924100  0.18986000  0.46426000  1
  O  O75  1  0.59061900  0.90075900  0.36501800  1
  O  O76  1  0.27440000  0.31014000  0.90938100  1
  O  O77  1  0.22560000  0.13498200  0.03574000  1
  O  O78  1  0.03574000  0.22560000  0.13498200  1
  O  O79  1  0.81014000  0.77440000  0.40938100  1
