# generated using pymatgen
data_Ca(MoO2)2
_symmetry_space_group_name_H-M   'P 1'
_cell_length_a   3.24102000
_cell_length_b   9.59430500
_cell_length_c   11.40425000
_cell_angle_alpha   90.00000000
_cell_angle_beta   90.00000000
_cell_angle_gamma   90.00000000
_symmetry_Int_Tables_number   1
_chemical_formula_structural   Ca(MoO2)2
_chemical_formula_sum   'Ca4 Mo8 O16'
_cell_volume   354.61896723
_cell_formula_units_Z   4
loop_
 _symmetry_equiv_pos_site_id
 _symmetry_equiv_pos_as_xyz
  1  'x, y, z'
loop_
 _atom_site_type_symbol
 _atom_site_label
 _atom_site_symmetry_multiplicity
 _atom_site_fract_x
 _atom_site_fract_y
 _atom_site_fract_z
 _atom_site_occupancy
  Ca  Ca0  1  0.25000000  0.73916200  0.84374400  1
  Ca  Ca1  1  0.75000000  0.26083800  0.15625600  1
  Ca  Ca2  1  0.25000000  0.23916200  0.65625600  1
  Ca  Ca3  1  0.75000000  0.76083800  0.34374400  1
  Mo  Mo4  1  0.75000000  0.91148600  0.60148000  1
  Mo  Mo5  1  0.25000000  0.58851400  0.10148000  1
  Mo  Mo6  1  0.75000000  0.41148600  0.89852000  1
  Mo  Mo7  1  0.25000000  0.08851400  0.39852000  1
  Mo  Mo8  1  0.25000000  0.05887200  0.88341600  1
  Mo  Mo9  1  0.75000000  0.94112800  0.11658400  1
  Mo  Mo10  1  0.25000000  0.55887200  0.61658400  1
  Mo  Mo11  1  0.75000000  0.44112800  0.38341600  1
  O  O12  1  0.75000000  0.41326100  0.57485900  1
  O  O13  1  0.25000000  0.58673900  0.42514100  1
  O  O14  1  0.75000000  0.91326100  0.92514100  1
  O  O15  1  0.25000000  0.08673900  0.07485900  1
  O  O16  1  0.75000000  0.53324000  0.21349300  1
  O  O17  1  0.25000000  0.46676000  0.78650700  1
  O  O18  1  0.75000000  0.03324000  0.28650700  1
  O  O19  1  0.25000000  0.96676000  0.71349300  1
  O  O20  1  0.75000000  0.12180300  0.52905400  1
  O  O21  1  0.25000000  0.87819700  0.47094600  1
  O  O22  1  0.75000000  0.62180300  0.97094600  1
  O  O23  1  0.25000000  0.37819700  0.02905400  1
  O  O24  1  0.25000000  0.30067600  0.32528800  1
  O  O25  1  0.75000000  0.69932400  0.67471200  1
  O  O26  1  0.75000000  0.19932400  0.82528800  1
  O  O27  1  0.25000000  0.80067600  0.17471200  1
