# generated using pymatgen
data_Ti(SiO3)2
_symmetry_space_group_name_H-M   'P 1'
_cell_length_a   5.09226100
_cell_length_b   10.89166300
_cell_length_c   18.67681000
_cell_angle_alpha   90.00000000
_cell_angle_beta   90.00000000
_cell_angle_gamma   90.00000000
_symmetry_Int_Tables_number   1
_chemical_formula_structural   Ti(SiO3)2
_chemical_formula_sum   'Ti8 Si16 O48'
_cell_volume   1035.87547507
_cell_formula_units_Z   8
loop_
 _symmetry_equiv_pos_site_id
 _symmetry_equiv_pos_as_xyz
  1  'x, y, z'
loop_
 _atom_site_type_symbol
 _atom_site_label
 _atom_site_symmetry_multiplicity
 _atom_site_fract_x
 _atom_site_fract_y
 _atom_site_fract_z
 _atom_site_occupancy
  Ti  Ti0  1  0.44049800  0.54311300  0.37362900  1
  Ti  Ti1  1  0.55950200  0.45688700  0.62637100  1
  Ti  Ti2  1  0.94049800  0.45688700  0.12637100  1
  Ti  Ti3  1  0.05950200  0.54311300  0.87362900  1
  Ti  Ti4  1  0.44049800  0.04311300  0.12637100  1
  Ti  Ti5  1  0.55950200  0.95688700  0.87362900  1
  Ti  Ti6  1  0.94049800  0.95688700  0.37362900  1
  Ti  Ti7  1  0.05950200  0.04311300  0.62637100  1
  Si  Si8  1  0.62446400  0.16993600  0.27656500  1
  Si  Si9  1  0.76380000  0.32806900  0.97377800  1
  Si  Si10  1  0.73620000  0.32806900  0.47377800  1
  Si  Si11  1  0.87553600  0.66993600  0.72343500  1
  Si  Si12  1  0.12446400  0.83006400  0.22343500  1
  Si  Si13  1  0.37553600  0.33006400  0.77656500  1
  Si  Si14  1  0.26380000  0.17193100  0.97377800  1
  Si  Si15  1  0.76380000  0.82806900  0.52622200  1
  Si  Si16  1  0.73620000  0.82806900  0.02622200  1
  Si  Si17  1  0.87553600  0.16993600  0.77656500  1
  Si  Si18  1  0.37553600  0.83006400  0.72343500  1
  Si  Si19  1  0.62446400  0.66993600  0.22343500  1
  Si  Si20  1  0.23620000  0.67193100  0.02622200  1
  Si  Si21  1  0.12446400  0.33006400  0.27656500  1
  Si  Si22  1  0.23620000  0.17193100  0.47377800  1
  Si  Si23  1  0.26380000  0.67193100  0.52622200  1
  O  O24  1  0.79731700  0.04896200  0.82390600  1
  O  O25  1  0.33678900  0.55235200  0.57509800  1
  O  O26  1  0.20268300  0.95103800  0.17609400  1
  O  O27  1  0.77956400  0.86138100  0.44088700  1
  O  O28  1  0.27956400  0.63861900  0.44088700  1
  O  O29  1  0.96574100  0.71580500  0.54498400  1
  O  O30  1  0.87285100  0.13431900  0.69117600  1
  O  O31  1  0.12714900  0.36568100  0.19117600  1
  O  O32  1  0.77956400  0.36138100  0.05911300  1
  O  O33  1  0.87285100  0.63431900  0.80882400  1
  O  O34  1  0.29731700  0.95103800  0.67609400  1
  O  O35  1  0.72043600  0.86138100  0.94088700  1
  O  O36  1  0.66321100  0.44764800  0.42490200  1
  O  O37  1  0.37285100  0.36568100  0.69117600  1
  O  O38  1  0.70268300  0.54896200  0.17609400  1
  O  O39  1  0.33678900  0.05235200  0.92490200  1
  O  O40  1  0.29731700  0.45103800  0.82390600  1
  O  O41  1  0.17032100  0.21893300  0.79535200  1
  O  O42  1  0.32967900  0.21893300  0.29535200  1
  O  O43  1  0.53425900  0.21580500  0.45501600  1
  O  O44  1  0.72043600  0.36138100  0.55911300  1
  O  O45  1  0.62714900  0.13431900  0.19117600  1
  O  O46  1  0.83678900  0.94764800  0.57509800  1
  O  O47  1  0.17032100  0.71893300  0.70464800  1
  O  O48  1  0.22043600  0.63861900  0.94088700  1
  O  O49  1  0.62714900  0.63431900  0.30882400  1
  O  O50  1  0.66321100  0.94764800  0.07509800  1
  O  O51  1  0.27956400  0.13861900  0.05911300  1
  O  O52  1  0.16321100  0.05235200  0.42490200  1
  O  O53  1  0.67032100  0.28106700  0.79535200  1
  O  O54  1  0.20268300  0.45103800  0.32390600  1
  O  O55  1  0.82967900  0.28106700  0.29535200  1
  O  O56  1  0.82967900  0.78106700  0.20464800  1
  O  O57  1  0.83678900  0.44764800  0.92490200  1
  O  O58  1  0.22043600  0.13861900  0.55911300  1
  O  O59  1  0.16321100  0.55235200  0.07509800  1
  O  O60  1  0.32967900  0.71893300  0.20464800  1
  O  O61  1  0.03425900  0.28419500  0.45501600  1
  O  O62  1  0.46574100  0.28419500  0.95501600  1
  O  O63  1  0.67032100  0.78106700  0.70464800  1
  O  O64  1  0.46574100  0.78419500  0.54498400  1
  O  O65  1  0.53425900  0.71580500  0.04498400  1
  O  O66  1  0.03425900  0.78419500  0.04498400  1
  O  O67  1  0.37285100  0.86568100  0.80882400  1
  O  O68  1  0.70268300  0.04896200  0.32390600  1
  O  O69  1  0.96574100  0.21580500  0.95501600  1
  O  O70  1  0.12714900  0.86568100  0.30882400  1
  O  O71  1  0.79731700  0.54896200  0.67609400  1
