# generated using pymatgen
data_CaSnO2
_symmetry_space_group_name_H-M   'P 1'
_cell_length_a   3.35891400
_cell_length_b   9.07968611
_cell_length_c   9.21377216
_cell_angle_alpha   97.44089650
_cell_angle_beta   98.38566997
_cell_angle_gamma   100.43041090
_symmetry_Int_Tables_number   1
_chemical_formula_structural   CaSnO2
_chemical_formula_sum   'Ca4 Sn4 O8'
_cell_volume   269.86978267
_cell_formula_units_Z   4
loop_
 _symmetry_equiv_pos_site_id
 _symmetry_equiv_pos_as_xyz
  1  'x, y, z'
loop_
 _atom_site_type_symbol
 _atom_site_label
 _atom_site_symmetry_multiplicity
 _atom_site_fract_x
 _atom_site_fract_y
 _atom_site_fract_z
 _atom_site_occupancy
  Ca  Ca0  1  0.97685900  0.26136700  0.07731400  1
  Ca  Ca1  1  0.15338000  0.80903100  0.89942000  1
  Ca  Ca2  1  0.90843700  0.08742800  0.68125400  1
  Ca  Ca3  1  0.01244500  0.97783100  0.30132200  1
  Sn  Sn4  1  0.40631900  0.63558000  0.17037300  1
  Sn  Sn5  1  0.59730900  0.31925200  0.42817000  1
  Sn  Sn6  1  0.42452700  0.68236600  0.55352100  1
  Sn  Sn7  1  0.50348600  0.43209100  0.79056700  1
  O  O8  1  0.12933300  0.54195800  0.92962100  1
  O  O9  1  0.45906300  0.79957700  0.35983300  1
  O  O10  1  0.36659800  0.11932500  0.52389700  1
  O  O11  1  0.84011000  0.50072400  0.19868700  1
  O  O12  1  0.73319900  0.80670500  0.07851900  1
  O  O13  1  0.50743600  0.15484100  0.21847800  1
  O  O14  1  0.40689000  0.23121200  0.88611000  1
  O  O15  1  0.60633500  0.86632900  0.74224800  1
