# generated using pymatgen
data_MgCr2O4
_symmetry_space_group_name_H-M   'P 1'
_cell_length_a   2.92613700
_cell_length_b   9.66996400
_cell_length_c   9.81785800
_cell_angle_alpha   90.00000000
_cell_angle_beta   90.00000000
_cell_angle_gamma   90.00000000
_symmetry_Int_Tables_number   1
_chemical_formula_structural   MgCr2O4
_chemical_formula_sum   'Mg4 Cr8 O16'
_cell_volume   277.80257013
_cell_formula_units_Z   4
loop_
 _symmetry_equiv_pos_site_id
 _symmetry_equiv_pos_as_xyz
  1  'x, y, z'
loop_
 _atom_site_type_symbol
 _atom_site_label
 _atom_site_symmetry_multiplicity
 _atom_site_fract_x
 _atom_site_fract_y
 _atom_site_fract_z
 _atom_site_occupancy
  Mg  Mg0  1  0.21174900  0.35858700  0.75000000  1
  Mg  Mg1  1  0.21174900  0.14141300  0.25000000  1
  Mg  Mg2  1  0.78825100  0.85858700  0.75000000  1
  Mg  Mg3  1  0.78825100  0.64141300  0.25000000  1
  Cr  Cr4  1  0.74027800  0.11655500  0.92840200  1
  Cr  Cr5  1  0.74027800  0.38344500  0.42840200  1
  Cr  Cr6  1  0.25972200  0.88344500  0.42840200  1
  Cr  Cr7  1  0.74027800  0.38344500  0.07159800  1
  Cr  Cr8  1  0.25972200  0.88344500  0.07159800  1
  Cr  Cr9  1  0.74027800  0.11655500  0.57159800  1
  Cr  Cr10  1  0.25972200  0.61655500  0.57159800  1
  Cr  Cr11  1  0.25972200  0.61655500  0.92840200  1
  O  O12  1  0.24314000  0.97997400  0.61356500  1
  O  O13  1  0.75686000  0.02002600  0.38643500  1
  O  O14  1  0.23827400  0.25000000  0.50000000  1
  O  O15  1  0.75686000  0.47997400  0.61356500  1
  O  O16  1  0.75686000  0.47997400  0.88643500  1
  O  O17  1  0.71782100  0.28671100  0.25000000  1
  O  O18  1  0.24314000  0.52002600  0.38643500  1
  O  O19  1  0.28217900  0.78671100  0.25000000  1
  O  O20  1  0.23827400  0.25000000  0.00000000  1
  O  O21  1  0.76172600  0.75000000  0.50000000  1
  O  O22  1  0.24314000  0.97997400  0.88643500  1
  O  O23  1  0.28217900  0.71328900  0.75000000  1
  O  O24  1  0.71782100  0.21328900  0.75000000  1
  O  O25  1  0.76172600  0.75000000  0.00000000  1
  O  O26  1  0.24314000  0.52002600  0.11356500  1
  O  O27  1  0.75686000  0.02002600  0.11356500  1
