# generated using pymatgen
data_Zn(SbO2)2
_symmetry_space_group_name_H-M   'P 1'
_cell_length_a   5.65942559
_cell_length_b   5.65942559
_cell_length_c   11.11763100
_cell_angle_alpha   90.00000000
_cell_angle_beta   90.00000000
_cell_angle_gamma   147.10210481
_symmetry_Int_Tables_number   1
_chemical_formula_structural   Zn(SbO2)2
_chemical_formula_sum   'Zn2 Sb4 O8'
_cell_volume   193.40675317
_cell_formula_units_Z   2
loop_
 _symmetry_equiv_pos_site_id
 _symmetry_equiv_pos_as_xyz
  1  'x, y, z'
loop_
 _atom_site_type_symbol
 _atom_site_label
 _atom_site_symmetry_multiplicity
 _atom_site_fract_x
 _atom_site_fract_y
 _atom_site_fract_z
 _atom_site_occupancy
  Zn  Zn0  1  0.61551000  0.38449000  0.75000000  1
  Zn  Zn1  1  0.38449000  0.61551000  0.25000000  1
  Sb  Sb2  1  0.13122700  0.86877300  0.08114300  1
  Sb  Sb3  1  0.86877300  0.13122700  0.91885700  1
  Sb  Sb4  1  0.13122700  0.86877300  0.41885700  1
  Sb  Sb5  1  0.86877300  0.13122700  0.58114300  1
  O  O6  1  0.77867300  0.22132700  0.37460500  1
  O  O7  1  0.22132700  0.77867300  0.62539500  1
  O  O8  1  0.22132700  0.77867300  0.87460500  1
  O  O9  1  0.77867300  0.22132700  0.12539500  1
  O  O10  1  0.01249800  0.98750200  0.25000000  1
  O  O11  1  0.98750200  0.01249800  0.75000000  1
  O  O12  1  0.50000000  0.50000000  0.00000000  1
  O  O13  1  0.50000000  0.50000000  0.50000000  1
