# generated using pymatgen
data_Ca4Co5(TeO6)3
_symmetry_space_group_name_H-M   'P 1'
_cell_length_a   9.21722767
_cell_length_b   9.21722767
_cell_length_c   10.65840276
_cell_angle_alpha   85.58216278
_cell_angle_beta   85.58216278
_cell_angle_gamma   60.80075803
_symmetry_Int_Tables_number   1
_chemical_formula_structural   Ca4Co5(TeO6)3
_chemical_formula_sum   'Ca8 Co10 Te6 O36'
_cell_volume   787.28601497
_cell_formula_units_Z   2
loop_
 _symmetry_equiv_pos_site_id
 _symmetry_equiv_pos_as_xyz
  1  'x, y, z'
loop_
 _atom_site_type_symbol
 _atom_site_label
 _atom_site_symmetry_multiplicity
 _atom_site_fract_x
 _atom_site_fract_y
 _atom_site_fract_z
 _atom_site_occupancy
  Ca  Ca0  1  0.32738800  0.06297600  0.09577200  1
  Ca  Ca1  1  0.35671500  0.67550700  0.95203600  1
  Ca  Ca2  1  0.93702400  0.67261200  0.40422800  1
  Ca  Ca3  1  0.32449300  0.64328500  0.54796400  1
  Ca  Ca4  1  0.67550700  0.35671500  0.45203600  1
  Ca  Ca5  1  0.06297600  0.32738800  0.59577200  1
  Ca  Ca6  1  0.67261200  0.93702400  0.90422800  1
  Ca  Ca7  1  0.64328500  0.32449300  0.04796400  1
  Co  Co8  1  0.31107800  0.97803700  0.72553100  1
  Co  Co9  1  0.97803700  0.31107800  0.22553100  1
  Co  Co10  1  0.10655200  0.54920800  0.06466200  1
  Co  Co11  1  0.54920800  0.10655200  0.56466200  1
  Co  Co12  1  0.45079200  0.89344800  0.43533800  1
  Co  Co13  1  0.82766700  0.17233300  0.75000000  1
  Co  Co14  1  0.17233300  0.82766700  0.25000000  1
  Co  Co15  1  0.89344800  0.45079200  0.93533800  1
  Co  Co16  1  0.68892200  0.02196300  0.27446900  1
  Co  Co17  1  0.02196300  0.68892200  0.77446900  1
  Te  Te18  1  0.67950400  0.65176200  0.69276500  1
  Te  Te19  1  0.00000000  0.00000000  0.00000000  1
  Te  Te20  1  0.00000000  0.00000000  0.50000000  1
  Te  Te21  1  0.65176200  0.67950400  0.19276500  1
  Te  Te22  1  0.32049600  0.34823800  0.30723500  1
  Te  Te23  1  0.34823800  0.32049600  0.80723500  1
  O  O24  1  0.87812200  0.59432200  0.59191600  1
  O  O25  1  0.22879200  0.93987800  0.55616300  1
  O  O26  1  0.43204700  0.77571100  0.29133400  1
  O  O27  1  0.91570500  0.95102900  0.16223900  1
  O  O28  1  0.06012200  0.77120800  0.94383700  1
  O  O29  1  0.04897100  0.08429500  0.33776100  1
  O  O30  1  0.57999800  0.58535700  0.07458100  1
  O  O31  1  0.89736200  0.21643200  0.57391000  1
  O  O32  1  0.10263800  0.78356800  0.42609000  1
  O  O33  1  0.19767300  0.30345000  0.18228500  1
  O  O34  1  0.47339200  0.75751700  0.79783600  1
  O  O35  1  0.80232700  0.69655000  0.81771500  1
  O  O36  1  0.77120800  0.06012200  0.44383700  1
  O  O37  1  0.56399200  0.88050000  0.60401900  1
  O  O38  1  0.24248300  0.52660800  0.70216400  1
  O  O39  1  0.42000200  0.41464300  0.92541900  1
  O  O40  1  0.52660800  0.24248300  0.20216400  1
  O  O41  1  0.11950000  0.43600800  0.89598100  1
  O  O42  1  0.22428900  0.56795300  0.20866600  1
  O  O43  1  0.75751700  0.47339200  0.29783600  1
  O  O44  1  0.59432200  0.87812200  0.09191600  1
  O  O45  1  0.43600800  0.11950000  0.39598100  1
  O  O46  1  0.78356800  0.10263800  0.92609000  1
  O  O47  1  0.58535700  0.57999800  0.57458100  1
  O  O48  1  0.56795300  0.22428900  0.70866600  1
  O  O49  1  0.95102900  0.91570500  0.66223900  1
  O  O50  1  0.30345000  0.19767300  0.68228500  1
  O  O51  1  0.41464300  0.42000200  0.42541900  1
  O  O52  1  0.93987800  0.22879200  0.05616300  1
  O  O53  1  0.88050000  0.56399200  0.10401900  1
  O  O54  1  0.12187800  0.40567800  0.40808400  1
  O  O55  1  0.08429500  0.04897100  0.83776100  1
  O  O56  1  0.21643200  0.89736200  0.07391000  1
  O  O57  1  0.69655000  0.80232700  0.31771500  1
  O  O58  1  0.77571100  0.43204700  0.79133400  1
  O  O59  1  0.40567800  0.12187800  0.90808400  1
