# generated using pymatgen
data_Zn2IrWO6
_symmetry_space_group_name_H-M   'P 1'
_cell_length_a   5.30602100
_cell_length_b   5.31559100
_cell_length_c   9.31315788
_cell_angle_alpha   56.33096938
_cell_angle_beta   90.00000000
_cell_angle_gamma   90.00000000
_symmetry_Int_Tables_number   1
_chemical_formula_structural   Zn2IrWO6
_chemical_formula_sum   'Zn4 Ir2 W2 O12'
_cell_volume   218.61166305
_cell_formula_units_Z   2
loop_
 _symmetry_equiv_pos_site_id
 _symmetry_equiv_pos_as_xyz
  1  'x, y, z'
loop_
 _atom_site_type_symbol
 _atom_site_label
 _atom_site_symmetry_multiplicity
 _atom_site_fract_x
 _atom_site_fract_y
 _atom_site_fract_z
 _atom_site_occupancy
  Zn  Zn0  1  0.97930600  0.73181200  0.25200900  1
  Zn  Zn1  1  0.47930600  0.26818800  0.24799100  1
  Zn  Zn2  1  0.52069400  0.73181200  0.75200900  1
  Zn  Zn3  1  0.02069400  0.26818800  0.74799100  1
  Ir  Ir4  1  0.50000000  0.50000000  0.50000000  1
  Ir  Ir5  1  0.00000000  0.50000000  0.00000000  1
  W  W6  1  0.50000000  0.00000000  0.00000000  1
  W  W7  1  0.00000000  0.00000000  0.50000000  1
  O  O8  1  0.39931100  0.36249600  0.75253300  1
  O  O9  1  0.17661500  0.09527200  0.07402300  1
  O  O10  1  0.16839400  0.73524500  0.44310900  1
  O  O11  1  0.66839400  0.26475500  0.05689100  1
  O  O12  1  0.67661500  0.90472800  0.42597700  1
  O  O13  1  0.89931100  0.63750400  0.74746700  1
  O  O14  1  0.10068900  0.36249600  0.25253300  1
  O  O15  1  0.32338500  0.09527200  0.57402300  1
  O  O16  1  0.33160600  0.73524500  0.94310900  1
  O  O17  1  0.82338500  0.90472800  0.92597700  1
  O  O18  1  0.83160600  0.26475500  0.55689100  1
  O  O19  1  0.60068900  0.63750400  0.24746700  1
