# generated using pymatgen
data_Ca3Si4(SnO7)2
_symmetry_space_group_name_H-M   'P 1'
_cell_length_a   9.85382702
_cell_length_b   9.85382702
_cell_length_c   10.71663359
_cell_angle_alpha   57.30333791
_cell_angle_beta   57.30333791
_cell_angle_gamma   46.29670870
_symmetry_Int_Tables_number   1
_chemical_formula_structural   Ca3Si4(SnO7)2
_chemical_formula_sum   'Ca6 Si8 Sn4 O28'
_cell_volume   608.74537795
_cell_formula_units_Z   2
loop_
 _symmetry_equiv_pos_site_id
 _symmetry_equiv_pos_as_xyz
  1  'x, y, z'
loop_
 _atom_site_type_symbol
 _atom_site_label
 _atom_site_symmetry_multiplicity
 _atom_site_fract_x
 _atom_site_fract_y
 _atom_site_fract_z
 _atom_site_occupancy
  Ca  Ca0  1  0.24074300  0.17323600  0.53730100  1
  Ca  Ca1  1  0.82676400  0.75925700  0.96269900  1
  Ca  Ca2  1  0.17323600  0.24074300  0.03730100  1
  Ca  Ca3  1  0.68458800  0.31541200  0.25000000  1
  Ca  Ca4  1  0.75925700  0.82676400  0.46269900  1
  Ca  Ca5  1  0.31541200  0.68458800  0.75000000  1
  Si  Si6  1  0.08176800  0.53803300  0.66786000  1
  Si  Si7  1  0.53803300  0.08176800  0.16786000  1
  Si  Si8  1  0.25568000  0.49334600  0.14225100  1
  Si  Si9  1  0.49334600  0.25568000  0.64225100  1
  Si  Si10  1  0.46196700  0.91823200  0.83214000  1
  Si  Si11  1  0.74432000  0.50665400  0.85774900  1
  Si  Si12  1  0.50665400  0.74432000  0.35774900  1
  Si  Si13  1  0.91823200  0.46196700  0.33214000  1
  Sn  Sn14  1  0.23058100  0.76941900  0.25000000  1
  Sn  Sn15  1  0.76941900  0.23058100  0.75000000  1
  Sn  Sn16  1  0.00000000  0.00000000  0.00000000  1
  Sn  Sn17  1  0.00000000  0.00000000  0.50000000  1
  O  O18  1  0.30890200  0.85289300  0.48999100  1
  O  O19  1  0.93528800  0.92952800  0.72649200  1
  O  O20  1  0.58416600  0.53732300  0.82394700  1
  O  O21  1  0.92952800  0.93528800  0.22649200  1
  O  O22  1  0.96657100  0.25675200  0.47145800  1
  O  O23  1  0.48764300  0.08179700  0.81245800  1
  O  O24  1  0.53732300  0.58416600  0.32394700  1
  O  O25  1  0.74324800  0.03342900  0.02854200  1
  O  O26  1  0.51235700  0.91820300  0.18754200  1
  O  O27  1  0.70352800  0.64693200  0.40479800  1
  O  O28  1  0.06471200  0.07047200  0.27350800  1
  O  O29  1  0.03342900  0.74324800  0.52854200  1
  O  O30  1  0.91820300  0.51235700  0.68754200  1
  O  O31  1  0.85289300  0.30890200  0.98999100  1
  O  O32  1  0.64693200  0.70352800  0.90479800  1
  O  O33  1  0.25675200  0.96657100  0.97145800  1
  O  O34  1  0.48043500  0.93384300  0.66671300  1
  O  O35  1  0.29647200  0.35306800  0.59520200  1
  O  O36  1  0.06615700  0.51956500  0.83328700  1
  O  O37  1  0.35306800  0.29647200  0.09520200  1
  O  O38  1  0.08179700  0.48764300  0.31245800  1
  O  O39  1  0.07047200  0.06471200  0.77350800  1
  O  O40  1  0.93384300  0.48043500  0.16671300  1
  O  O41  1  0.41583400  0.46267700  0.17605300  1
  O  O42  1  0.51956500  0.06615700  0.33328700  1
  O  O43  1  0.46267700  0.41583400  0.67605300  1
  O  O44  1  0.14710700  0.69109800  0.01000900  1
  O  O45  1  0.69109800  0.14710700  0.51000900  1
