# generated using pymatgen
data_Zn(SbO2)2
_symmetry_space_group_name_H-M   'P 1'
_cell_length_a   3.64387400
_cell_length_b   10.04507400
_cell_length_c   11.18447700
_cell_angle_alpha   90.00000000
_cell_angle_beta   90.00000000
_cell_angle_gamma   90.00000000
_symmetry_Int_Tables_number   1
_chemical_formula_structural   Zn(SbO2)2
_chemical_formula_sum   'Zn4 Sb8 O16'
_cell_volume   409.38523242
_cell_formula_units_Z   4
loop_
 _symmetry_equiv_pos_site_id
 _symmetry_equiv_pos_as_xyz
  1  'x, y, z'
loop_
 _atom_site_type_symbol
 _atom_site_label
 _atom_site_symmetry_multiplicity
 _atom_site_fract_x
 _atom_site_fract_y
 _atom_site_fract_z
 _atom_site_occupancy
  Zn  Zn0  1  0.34524000  0.85756200  0.75000000  1
  Zn  Zn1  1  0.34524000  0.64243800  0.25000000  1
  Zn  Zn2  1  0.65476000  0.35756200  0.75000000  1
  Zn  Zn3  1  0.65476000  0.14243800  0.25000000  1
  Sb  Sb4  1  0.08541900  0.62574600  0.90497500  1
  Sb  Sb5  1  0.08541900  0.87425400  0.40497500  1
  Sb  Sb6  1  0.91458100  0.37425400  0.40497500  1
  Sb  Sb7  1  0.08541900  0.87425400  0.09502500  1
  Sb  Sb8  1  0.91458100  0.37425400  0.09502500  1
  Sb  Sb9  1  0.08541900  0.62574600  0.59502500  1
  Sb  Sb10  1  0.91458100  0.12574600  0.59502500  1
  Sb  Sb11  1  0.91458100  0.12574600  0.90497500  1
  O  O12  1  0.76595400  0.46333300  0.59988600  1
  O  O13  1  0.23404600  0.53666700  0.40011400  1
  O  O14  1  0.76406400  0.75000000  0.50000000  1
  O  O15  1  0.23404600  0.96333300  0.59988600  1
  O  O16  1  0.23404600  0.96333300  0.90011400  1
  O  O17  1  0.83247400  0.75927200  0.25000000  1
  O  O18  1  0.76595400  0.03666700  0.40011400  1
  O  O19  1  0.16752600  0.25927200  0.25000000  1
  O  O20  1  0.76406400  0.75000000  0.00000000  1
  O  O21  1  0.23593600  0.25000000  0.50000000  1
  O  O22  1  0.76595400  0.46333300  0.90011400  1
  O  O23  1  0.16752600  0.24072800  0.75000000  1
  O  O24  1  0.83247400  0.74072800  0.75000000  1
  O  O25  1  0.23593600  0.25000000  0.00000000  1
  O  O26  1  0.76595400  0.03666700  0.09988600  1
  O  O27  1  0.23404600  0.53666700  0.09988600  1
