# generated using pymatgen
data_TaAl(WO4)2
_symmetry_space_group_name_H-M   'P 1'
_cell_length_a   5.62500100
_cell_length_b   5.19758100
_cell_length_c   10.67463464
_cell_angle_alpha   61.00123086
_cell_angle_beta   90.00000000
_cell_angle_gamma   90.00000000
_symmetry_Int_Tables_number   1
_chemical_formula_structural   TaAl(WO4)2
_chemical_formula_sum   'Ta2 Al2 W4 O16'
_cell_volume   272.96145213
_cell_formula_units_Z   2
loop_
 _symmetry_equiv_pos_site_id
 _symmetry_equiv_pos_as_xyz
  1  'x, y, z'
loop_
 _atom_site_type_symbol
 _atom_site_label
 _atom_site_symmetry_multiplicity
 _atom_site_fract_x
 _atom_site_fract_y
 _atom_site_fract_z
 _atom_site_occupancy
  Ta  Ta0  1  0.35725100  0.50000000  0.75000000  1
  Ta  Ta1  1  0.64274900  0.50000000  0.25000000  1
  Al  Al2  1  0.66943000  0.00000000  0.75000000  1
  Al  Al3  1  0.33057000  0.00000000  0.25000000  1
  W  W4  1  0.16138300  0.25292900  0.50207000  1
  W  W5  1  0.16138300  0.74707100  0.99793000  1
  W  W6  1  0.83861700  0.74707100  0.49793000  1
  W  W7  1  0.83861700  0.25292900  0.00207000  1
  O  O8  1  0.40289800  0.72019600  0.85984900  1
  O  O9  1  0.40289800  0.27980400  0.64015100  1
  O  O10  1  0.59710200  0.27980400  0.14015100  1
  O  O11  1  0.59710200  0.72019600  0.35984900  1
  O  O12  1  0.87345300  0.21748100  0.38399300  1
  O  O13  1  0.87345300  0.78251900  0.11600700  1
  O  O14  1  0.12654700  0.78251900  0.61600700  1
  O  O15  1  0.12654700  0.21748100  0.88399300  1
  O  O16  1  0.62568300  0.21128700  0.85692300  1
  O  O17  1  0.62568300  0.78871300  0.64307700  1
  O  O18  1  0.37431700  0.78871300  0.14307700  1
  O  O19  1  0.37431700  0.21128700  0.35692300  1
  O  O20  1  0.88557900  0.71678800  0.88107800  1
  O  O21  1  0.11442100  0.28321200  0.11892200  1
  O  O22  1  0.88557900  0.28321200  0.61892200  1
  O  O23  1  0.11442100  0.71678800  0.38107800  1
