# generated using pymatgen
data_Zn2Sn2O5
_symmetry_space_group_name_H-M   'P 1'
_cell_length_a   3.30615200
_cell_length_b   6.35679200
_cell_length_c   12.05558000
_cell_angle_alpha   90.00000000
_cell_angle_beta   90.00000000
_cell_angle_gamma   90.00000000
_symmetry_Int_Tables_number   1
_chemical_formula_structural   Zn2Sn2O5
_chemical_formula_sum   'Zn4 Sn4 O10'
_cell_volume   253.36634523
_cell_formula_units_Z   2
loop_
 _symmetry_equiv_pos_site_id
 _symmetry_equiv_pos_as_xyz
  1  'x, y, z'
loop_
 _atom_site_type_symbol
 _atom_site_label
 _atom_site_symmetry_multiplicity
 _atom_site_fract_x
 _atom_site_fract_y
 _atom_site_fract_z
 _atom_site_occupancy
  Zn  Zn0  1  0.50000000  0.32394400  0.84268100  1
  Zn  Zn1  1  0.50000000  0.66874600  0.65484800  1
  Zn  Zn2  1  0.50000000  0.82394400  0.15731900  1
  Zn  Zn3  1  0.50000000  0.16874600  0.34515200  1
  Sn  Sn4  1  0.00000000  0.34255700  0.10366000  1
  Sn  Sn5  1  0.00000000  0.65115500  0.39713700  1
  Sn  Sn6  1  0.00000000  0.15115500  0.60286300  1
  Sn  Sn7  1  0.00000000  0.84255700  0.89634000  1
  O  O8  1  0.00000000  0.50795800  0.24609100  1
  O  O9  1  0.00000000  0.25369700  0.43063700  1
  O  O10  1  0.00000000  0.75369700  0.56936300  1
  O  O11  1  0.00000000  0.25248100  0.93412900  1
  O  O12  1  0.50000000  0.34390700  0.66625500  1
  O  O13  1  0.50000000  0.65544100  0.83382400  1
  O  O14  1  0.00000000  0.75248100  0.06587100  1
  O  O15  1  0.50000000  0.15544100  0.16617600  1
  O  O16  1  0.00000000  0.00795800  0.75390900  1
  O  O17  1  0.50000000  0.84390700  0.33374500  1
