# generated using pymatgen
data_BaZn(AgO2)4
_symmetry_space_group_name_H-M   'P 1'
_cell_length_a   5.77420816
_cell_length_b   5.77420816
_cell_length_c   7.15919000
_cell_angle_alpha   90.00000000
_cell_angle_beta   90.00000000
_cell_angle_gamma   120.00000184
_symmetry_Int_Tables_number   1
_chemical_formula_structural   BaZn(AgO2)4
_chemical_formula_sum   'Ba1 Zn1 Ag4 O8'
_cell_volume   206.71851877
_cell_formula_units_Z   1
loop_
 _symmetry_equiv_pos_site_id
 _symmetry_equiv_pos_as_xyz
  1  'x, y, z'
loop_
 _atom_site_type_symbol
 _atom_site_label
 _atom_site_symmetry_multiplicity
 _atom_site_fract_x
 _atom_site_fract_y
 _atom_site_fract_z
 _atom_site_occupancy
  Ba  Ba0  1  0.00000000  0.00000000  0.00000000  1
  Zn  Zn1  1  0.00000000  0.00000000  0.50000000  1
  Ag  Ag2  1  0.33333300  0.66666700  0.70879700  1
  Ag  Ag3  1  0.66666700  0.33333300  0.70879700  1
  Ag  Ag4  1  0.33333300  0.66666700  0.29120300  1
  Ag  Ag5  1  0.66666700  0.33333300  0.29120300  1
  O  O6  1  0.27931900  0.27931900  0.67890000  1
  O  O7  1  0.72068100  0.00000000  0.67890000  1
  O  O8  1  0.00000000  0.72068100  0.67890000  1
  O  O9  1  0.72068100  0.72068100  0.32110000  1
  O  O10  1  0.00000000  0.27931900  0.32110000  1
  O  O11  1  0.27931900  0.00000000  0.32110000  1
  O  O12  1  0.33333300  0.66666700  0.00000000  1
  O  O13  1  0.66666700  0.33333300  0.00000000  1
