# generated using pymatgen
data_Ca2SbWO6
_symmetry_space_group_name_H-M   'P 1'
_cell_length_a   5.65817700
_cell_length_b   5.94629319
_cell_length_c   6.09835116
_cell_angle_alpha   72.95355081
_cell_angle_beta   66.05933652
_cell_angle_gamma   64.61601022
_symmetry_Int_Tables_number   1
_chemical_formula_structural   Ca2SbWO6
_chemical_formula_sum   'Ca2 Sb1 W1 O6'
_cell_volume   167.64849999
_cell_formula_units_Z   1
loop_
 _symmetry_equiv_pos_site_id
 _symmetry_equiv_pos_as_xyz
  1  'x, y, z'
loop_
 _atom_site_type_symbol
 _atom_site_label
 _atom_site_symmetry_multiplicity
 _atom_site_fract_x
 _atom_site_fract_y
 _atom_site_fract_z
 _atom_site_occupancy
  Ca  Ca0  1  0.75778500  0.91457700  0.65492800  1
  Ca  Ca1  1  0.25035800  0.35093400  0.07779700  1
  Sb  Sb2  1  0.52985100  0.53626900  0.43382500  1
  W  W3  1  0.99696500  0.95663500  0.04098600  1
  O  O4  1  0.86212000  0.21417500  0.29097200  1
  O  O5  1  0.08151700  0.70421700  0.84073900  1
  O  O6  1  0.29052500  0.06894700  0.85162800  1
  O  O7  1  0.70611300  0.17124100  0.91267200  1
  O  O8  1  0.29242300  0.66004600  0.22520900  1
  O  O9  1  0.73495900  0.77519800  0.33055400  1
