# generated using pymatgen
data_Ca2YWO5
_symmetry_space_group_name_H-M   'P 1'
_cell_length_a   8.73908683
_cell_length_b   8.73908683
_cell_length_c   5.83579783
_cell_angle_alpha   70.99511615
_cell_angle_beta   70.99511615
_cell_angle_gamma   40.01649790
_symmetry_Int_Tables_number   1
_chemical_formula_structural   Ca2YWO5
_chemical_formula_sum   'Ca4 Y2 W2 O10'
_cell_volume   268.82116697
_cell_formula_units_Z   2
loop_
 _symmetry_equiv_pos_site_id
 _symmetry_equiv_pos_as_xyz
  1  'x, y, z'
loop_
 _atom_site_type_symbol
 _atom_site_label
 _atom_site_symmetry_multiplicity
 _atom_site_fract_x
 _atom_site_fract_y
 _atom_site_fract_z
 _atom_site_occupancy
  Ca  Ca0  1  0.58521000  0.12699200  0.91246100  1
  Ca  Ca1  1  0.87077400  0.41389100  0.63323700  1
  Ca  Ca2  1  0.41389100  0.87077400  0.13323700  1
  Ca  Ca3  1  0.12699200  0.58521000  0.41246100  1
  Y  Y4  1  0.20131400  0.79790400  0.80323300  1
  Y  Y5  1  0.79790400  0.20131400  0.30323300  1
  W  W6  1  0.49805200  0.99972100  0.48338200  1
  W  W7  1  0.99972100  0.49805200  0.98338200  1
  O  O8  1  0.14354000  0.85432900  0.17998900  1
  O  O9  1  0.85432900  0.14354000  0.67998900  1
  O  O10  1  0.52294200  0.24556200  0.29919400  1
  O  O11  1  0.47595600  0.75136800  0.56669200  1
  O  O12  1  0.24556200  0.52294200  0.79919400  1
  O  O13  1  0.75136800  0.47595600  0.06669200  1
  O  O14  1  0.19030800  0.22934300  0.28979300  1
  O  O15  1  0.79202200  0.78223900  0.19859500  1
  O  O16  1  0.78223900  0.79202200  0.69859500  1
  O  O17  1  0.22934300  0.19030800  0.78979300  1
