# generated using pymatgen
data_MgNiO2
_symmetry_space_group_name_H-M   'P 1'
_cell_length_a   2.93392000
_cell_length_b   8.14376622
_cell_length_c   8.14838668
_cell_angle_alpha   86.89436068
_cell_angle_beta   79.66726339
_cell_angle_gamma   79.83578150
_symmetry_Int_Tables_number   1
_chemical_formula_structural   MgNiO2
_chemical_formula_sum   'Mg4 Ni4 O8'
_cell_volume   188.47640730
_cell_formula_units_Z   4
loop_
 _symmetry_equiv_pos_site_id
 _symmetry_equiv_pos_as_xyz
  1  'x, y, z'
loop_
 _atom_site_type_symbol
 _atom_site_label
 _atom_site_symmetry_multiplicity
 _atom_site_fract_x
 _atom_site_fract_y
 _atom_site_fract_z
 _atom_site_occupancy
  Mg  Mg0  1  0.57297800  0.59337100  0.25371900  1
  Mg  Mg1  1  0.42702200  0.40662900  0.74628100  1
  Mg  Mg2  1  0.19522700  0.22910200  0.39062300  1
  Mg  Mg3  1  0.80477300  0.77089800  0.60937700  1
  Ni  Ni4  1  0.18101700  0.72487100  0.91423900  1
  Ni  Ni5  1  0.41152500  0.91261400  0.26403900  1
  Ni  Ni6  1  0.58847500  0.08738600  0.73596100  1
  Ni  Ni7  1  0.81898300  0.27512900  0.08576100  1
  O  O8  1  0.42496000  0.23289400  0.93243000  1
  O  O9  1  0.19948300  0.90216800  0.71394000  1
  O  O10  1  0.80051700  0.09783200  0.28606000  1
  O  O11  1  0.57504000  0.76710600  0.06757000  1
  O  O12  1  0.82977100  0.58191600  0.77003300  1
  O  O13  1  0.94179800  0.74547900  0.37028500  1
  O  O14  1  0.17022900  0.41808400  0.22996700  1
  O  O15  1  0.05820200  0.25452100  0.62971500  1
