# generated using pymatgen
data_P2WO7
_symmetry_space_group_name_H-M   'P 1'
_cell_length_a   6.50312500
_cell_length_b   6.54442655
_cell_length_c   7.14616692
_cell_angle_alpha   87.32957709
_cell_angle_beta   65.71585396
_cell_angle_gamma   83.88332716
_symmetry_Int_Tables_number   1
_chemical_formula_structural   P2WO7
_chemical_formula_sum   'P4 W2 O14'
_cell_volume   275.64501409
_cell_formula_units_Z   2
loop_
 _symmetry_equiv_pos_site_id
 _symmetry_equiv_pos_as_xyz
  1  'x, y, z'
loop_
 _atom_site_type_symbol
 _atom_site_label
 _atom_site_symmetry_multiplicity
 _atom_site_fract_x
 _atom_site_fract_y
 _atom_site_fract_z
 _atom_site_occupancy
  P  P0  1  0.33953500  0.38708100  0.35326300  1
  P  P1  1  0.66046500  0.61291900  0.64673700  1
  P  P2  1  0.23709000  0.13538000  0.74824800  1
  P  P3  1  0.76291000  0.86462000  0.25175200  1
  W  W4  1  0.09010500  0.65112500  0.78919700  1
  W  W5  1  0.90989500  0.34887500  0.21080300  1
  O  O6  1  0.40691400  0.61168800  0.78488500  1
  O  O7  1  0.57245800  0.90924400  0.19261000  1
  O  O8  1  0.42754200  0.09075600  0.80739000  1
  O  O9  1  0.91273300  0.04117700  0.23035000  1
  O  O10  1  0.30701400  0.20114300  0.51090200  1
  O  O11  1  0.21787600  0.35008000  0.21654800  1
  O  O12  1  0.06484000  0.33068200  0.87095400  1
  O  O13  1  0.59308600  0.38831200  0.21511500  1
  O  O14  1  0.69298600  0.79885700  0.48909800  1
  O  O15  1  0.23822500  0.58460600  0.47770000  1
  O  O16  1  0.08726700  0.95882300  0.76965000  1
  O  O17  1  0.93516000  0.66931800  0.12904600  1
  O  O18  1  0.78212400  0.64992000  0.78345200  1
  O  O19  1  0.76177500  0.41539400  0.52230000  1
