# generated using pymatgen
data_Zn2CuWO6
_symmetry_space_group_name_H-M   'P 1'
_cell_length_a   5.12147800
_cell_length_b   5.04858200
_cell_length_c   9.85707346
_cell_angle_alpha   60.04846626
_cell_angle_beta   90.00000000
_cell_angle_gamma   90.00000000
_symmetry_Int_Tables_number   1
_chemical_formula_structural   Zn2CuWO6
_chemical_formula_sum   'Zn4 Cu2 W2 O12'
_cell_volume   220.82856172
_cell_formula_units_Z   2
loop_
 _symmetry_equiv_pos_site_id
 _symmetry_equiv_pos_as_xyz
  1  'x, y, z'
loop_
 _atom_site_type_symbol
 _atom_site_label
 _atom_site_symmetry_multiplicity
 _atom_site_fract_x
 _atom_site_fract_y
 _atom_site_fract_z
 _atom_site_occupancy
  Zn  Zn0  1  0.47483700  0.24112900  0.76337500  1
  Zn  Zn1  1  0.97483700  0.75887100  0.73662500  1
  Zn  Zn2  1  0.52516300  0.75887100  0.23662500  1
  Zn  Zn3  1  0.02516300  0.24112900  0.26337500  1
  Cu  Cu4  1  0.50000000  0.00000000  0.50000000  1
  Cu  Cu5  1  0.00000000  0.00000000  0.00000000  1
  W  W6  1  0.50000000  0.50000000  0.00000000  1
  W  W7  1  0.00000000  0.50000000  0.50000000  1
  O  O8  1  0.19506200  0.42242100  0.90001200  1
  O  O9  1  0.69506200  0.57757900  0.59998800  1
  O  O10  1  0.80493800  0.57757900  0.09998800  1
  O  O11  1  0.30493800  0.42242100  0.40001200  1
  O  O12  1  0.31299100  0.77422000  0.04796700  1
  O  O13  1  0.81299100  0.22578000  0.45203300  1
  O  O14  1  0.68700900  0.22578000  0.95203300  1
  O  O15  1  0.18700900  0.77422000  0.54796700  1
  O  O16  1  0.11362100  0.16409700  0.70170900  1
  O  O17  1  0.61362100  0.83590300  0.79829100  1
  O  O18  1  0.38637900  0.16409700  0.20170900  1
  O  O19  1  0.88637900  0.83590300  0.29829100  1
