# generated using pymatgen
data_YSb(WO4)2
_symmetry_space_group_name_H-M   'P 1'
_cell_length_a   5.65853800
_cell_length_b   5.41056600
_cell_length_c   11.10283652
_cell_angle_alpha   69.24553816
_cell_angle_beta   90.00000000
_cell_angle_gamma   90.00000000
_symmetry_Int_Tables_number   1
_chemical_formula_structural   YSb(WO4)2
_chemical_formula_sum   'Y2 Sb2 W4 O16'
_cell_volume   317.86482809
_cell_formula_units_Z   2
loop_
 _symmetry_equiv_pos_site_id
 _symmetry_equiv_pos_as_xyz
  1  'x, y, z'
loop_
 _atom_site_type_symbol
 _atom_site_label
 _atom_site_symmetry_multiplicity
 _atom_site_fract_x
 _atom_site_fract_y
 _atom_site_fract_z
 _atom_site_occupancy
  Y  Y0  1  0.73907500  0.00000000  0.25000000  1
  Y  Y1  1  0.26092500  0.00000000  0.75000000  1
  Sb  Sb2  1  0.33405100  0.50000000  0.25000000  1
  Sb  Sb3  1  0.66594900  0.50000000  0.75000000  1
  W  W4  1  0.17289400  0.25126000  0.00276400  1
  W  W5  1  0.17289400  0.74874000  0.49723600  1
  W  W6  1  0.82710600  0.74874000  0.99723600  1
  W  W7  1  0.82710600  0.25126000  0.50276400  1
  O  O8  1  0.40222200  0.74811500  0.37003900  1
  O  O9  1  0.40222200  0.25188500  0.12996100  1
  O  O10  1  0.59777800  0.25188500  0.62996100  1
  O  O11  1  0.59777800  0.74811500  0.87003900  1
  O  O12  1  0.93485200  0.11128800  0.88576500  1
  O  O13  1  0.93485200  0.88871200  0.61423500  1
  O  O14  1  0.06514800  0.88871200  0.11423500  1
  O  O15  1  0.06514800  0.11128800  0.38576500  1
  O  O16  1  0.60423900  0.25469800  0.36362100  1
  O  O17  1  0.60423900  0.74530200  0.13637900  1
  O  O18  1  0.39576100  0.74530200  0.63637900  1
  O  O19  1  0.39576100  0.25469800  0.86362100  1
  O  O20  1  0.89874300  0.63183100  0.40091400  1
  O  O21  1  0.10125700  0.36816900  0.59908600  1
  O  O22  1  0.89874300  0.36816900  0.09908600  1
  O  O23  1  0.10125700  0.63183100  0.90091400  1
