# generated using pymatgen
data_Zn3Cr2(GeO4)3
_symmetry_space_group_name_H-M   'P 1'
_cell_length_a   10.48057362
_cell_length_b   10.48057362
_cell_length_c   10.48057362
_cell_angle_alpha   109.47122063
_cell_angle_beta   109.47122063
_cell_angle_gamma   109.47122063
_symmetry_Int_Tables_number   1
_chemical_formula_structural   Zn3Cr2(GeO4)3
_chemical_formula_sum   'Zn12 Cr8 Ge12 O48'
_cell_volume   886.20310645
_cell_formula_units_Z   4
loop_
 _symmetry_equiv_pos_site_id
 _symmetry_equiv_pos_as_xyz
  1  'x, y, z'
loop_
 _atom_site_type_symbol
 _atom_site_label
 _atom_site_symmetry_multiplicity
 _atom_site_fract_x
 _atom_site_fract_y
 _atom_site_fract_z
 _atom_site_occupancy
  Zn  Zn0  1  0.25000000  0.87500000  0.62500000  1
  Zn  Zn1  1  0.75000000  0.62500000  0.87500000  1
  Zn  Zn2  1  0.62500000  0.87500000  0.75000000  1
  Zn  Zn3  1  0.87500000  0.62500000  0.25000000  1
  Zn  Zn4  1  0.62500000  0.25000000  0.87500000  1
  Zn  Zn5  1  0.87500000  0.75000000  0.62500000  1
  Zn  Zn6  1  0.75000000  0.12500000  0.37500000  1
  Zn  Zn7  1  0.25000000  0.37500000  0.12500000  1
  Zn  Zn8  1  0.37500000  0.12500000  0.25000000  1
  Zn  Zn9  1  0.12500000  0.37500000  0.75000000  1
  Zn  Zn10  1  0.37500000  0.75000000  0.12500000  1
  Zn  Zn11  1  0.12500000  0.25000000  0.37500000  1
  Cr  Cr12  1  0.50000000  0.50000000  0.50000000  1
  Cr  Cr13  1  0.50000000  0.00000000  0.50000000  1
  Cr  Cr14  1  0.00000000  0.50000000  0.50000000  1
  Cr  Cr15  1  0.50000000  0.50000000  0.00000000  1
  Cr  Cr16  1  0.00000000  0.00000000  0.50000000  1
  Cr  Cr17  1  0.00000000  0.50000000  0.00000000  1
  Cr  Cr18  1  0.50000000  0.00000000  0.00000000  1
  Cr  Cr19  1  0.00000000  0.00000000  0.00000000  1
  Ge  Ge20  1  0.12500000  0.75000000  0.87500000  1
  Ge  Ge21  1  0.87500000  0.25000000  0.12500000  1
  Ge  Ge22  1  0.62500000  0.37500000  0.25000000  1
  Ge  Ge23  1  0.75000000  0.87500000  0.12500000  1
  Ge  Ge24  1  0.87500000  0.12500000  0.75000000  1
  Ge  Ge25  1  0.25000000  0.62500000  0.37500000  1
  Ge  Ge26  1  0.75000000  0.37500000  0.62500000  1
  Ge  Ge27  1  0.25000000  0.12500000  0.87500000  1
  Ge  Ge28  1  0.12500000  0.87500000  0.25000000  1
  Ge  Ge29  1  0.37500000  0.62500000  0.75000000  1
  Ge  Ge30  1  0.62500000  0.75000000  0.37500000  1
  Ge  Ge31  1  0.37500000  0.25000000  0.62500000  1
  O  O32  1  0.41956300  0.81846600  0.79271000  1
  O  O33  1  0.87314700  0.39890400  0.08043700  1
  O  O34  1  0.10109600  0.97424400  0.68153400  1
  O  O35  1  0.52575600  0.62685300  0.70729000  1
  O  O36  1  0.68153400  0.08043700  0.70729000  1
  O  O37  1  0.62685300  0.70729000  0.52575600  1
  O  O38  1  0.62685300  0.41956300  0.10109600  1
  O  O39  1  0.70729000  0.52575600  0.62685300  1
  O  O40  1  0.81846600  0.52575600  0.39890400  1
  O  O41  1  0.97424400  0.79271000  0.87314700  1
  O  O42  1  0.79271000  0.87314700  0.97424400  1
  O  O43  1  0.70729000  0.68153400  0.08043700  1
  O  O44  1  0.41956300  0.10109600  0.62685300  1
  O  O45  1  0.39890400  0.81846600  0.52575600  1
  O  O46  1  0.08043700  0.70729000  0.68153400  1
  O  O47  1  0.10109600  0.62685300  0.41956300  1
  O  O48  1  0.52575600  0.39890400  0.81846600  1
  O  O49  1  0.08043700  0.87314700  0.39890400  1
  O  O50  1  0.97424400  0.68153400  0.10109600  1
  O  O51  1  0.18153400  0.47424400  0.60109600  1
  O  O52  1  0.68153400  0.10109600  0.97424400  1
  O  O53  1  0.79271000  0.41956300  0.81846600  1
  O  O54  1  0.39890400  0.08043700  0.87314700  1
  O  O55  1  0.87314700  0.97424400  0.79271000  1
  O  O56  1  0.58043700  0.18153400  0.20729000  1
  O  O57  1  0.12685300  0.60109600  0.91956300  1
  O  O58  1  0.89890400  0.02575600  0.31846600  1
  O  O59  1  0.47424400  0.37314700  0.29271000  1
  O  O60  1  0.31846600  0.91956300  0.29271000  1
  O  O61  1  0.37314700  0.29271000  0.47424400  1
  O  O62  1  0.37314700  0.58043700  0.89890400  1
  O  O63  1  0.29271000  0.47424400  0.37314700  1
  O  O64  1  0.12685300  0.02575600  0.20729000  1
  O  O65  1  0.60109600  0.91956300  0.12685300  1
  O  O66  1  0.20729000  0.58043700  0.18153400  1
  O  O67  1  0.18153400  0.20729000  0.58043700  1
  O  O68  1  0.31846600  0.89890400  0.02575600  1
  O  O69  1  0.02575600  0.31846600  0.89890400  1
  O  O70  1  0.91956300  0.12685300  0.60109600  1
  O  O71  1  0.47424400  0.60109600  0.18153400  1
  O  O72  1  0.89890400  0.37314700  0.58043700  1
  O  O73  1  0.91956300  0.29271000  0.31846600  1
  O  O74  1  0.60109600  0.18153400  0.47424400  1
  O  O75  1  0.58043700  0.89890400  0.37314700  1
  O  O76  1  0.29271000  0.31846600  0.91956300  1
  O  O77  1  0.20729000  0.12685300  0.02575600  1
  O  O78  1  0.02575600  0.20729000  0.12685300  1
  O  O79  1  0.81846600  0.79271000  0.41956300  1
