# generated using pymatgen
data_Zn(SnO2)2
_symmetry_space_group_name_H-M   'P 1'
_cell_length_a   5.57568840
_cell_length_b   5.57568840
_cell_length_c   11.01140200
_cell_angle_alpha   90.00000000
_cell_angle_beta   90.00000000
_cell_angle_gamma   146.55984574
_symmetry_Int_Tables_number   1
_chemical_formula_structural   Zn(SnO2)2
_chemical_formula_sum   'Zn2 Sn4 O8'
_cell_volume   188.64399133
_cell_formula_units_Z   2
loop_
 _symmetry_equiv_pos_site_id
 _symmetry_equiv_pos_as_xyz
  1  'x, y, z'
loop_
 _atom_site_type_symbol
 _atom_site_label
 _atom_site_symmetry_multiplicity
 _atom_site_fract_x
 _atom_site_fract_y
 _atom_site_fract_z
 _atom_site_occupancy
  Zn  Zn0  1  0.60091200  0.39908800  0.75000000  1
  Zn  Zn1  1  0.39908800  0.60091200  0.25000000  1
  Sn  Sn2  1  0.13249800  0.86750200  0.07660600  1
  Sn  Sn3  1  0.86750200  0.13249800  0.92339400  1
  Sn  Sn4  1  0.13249800  0.86750200  0.42339400  1
  Sn  Sn5  1  0.86750200  0.13249800  0.57660600  1
  O  O6  1  0.77209700  0.22790300  0.38494300  1
  O  O7  1  0.22790300  0.77209700  0.61505700  1
  O  O8  1  0.22790300  0.77209700  0.88494300  1
  O  O9  1  0.77209700  0.22790300  0.11505700  1
  O  O10  1  0.01921000  0.98079000  0.25000000  1
  O  O11  1  0.98079000  0.01921000  0.75000000  1
  O  O12  1  0.50000000  0.50000000  0.00000000  1
  O  O13  1  0.50000000  0.50000000  0.50000000  1
