# generated using pymatgen
data_Mg2TeWO6
_symmetry_space_group_name_H-M   'P 1'
_cell_length_a   5.31206600
_cell_length_b   5.09139400
_cell_length_c   10.32314691
_cell_angle_alpha   65.23250107
_cell_angle_beta   90.00000000
_cell_angle_gamma   90.00000000
_symmetry_Int_Tables_number   1
_chemical_formula_structural   Mg2TeWO6
_chemical_formula_sum   'Mg4 Te2 W2 O12'
_cell_volume   253.51603121
_cell_formula_units_Z   2
loop_
 _symmetry_equiv_pos_site_id
 _symmetry_equiv_pos_as_xyz
  1  'x, y, z'
loop_
 _atom_site_type_symbol
 _atom_site_label
 _atom_site_symmetry_multiplicity
 _atom_site_fract_x
 _atom_site_fract_y
 _atom_site_fract_z
 _atom_site_occupancy
  Mg  Mg0  1  0.47481000  0.22827800  0.75167500  1
  Mg  Mg1  1  0.97481000  0.77172200  0.74832500  1
  Mg  Mg2  1  0.52519000  0.77172200  0.24832500  1
  Mg  Mg3  1  0.02519000  0.22827800  0.25167500  1
  Te  Te4  1  0.50000000  0.00000000  0.50000000  1
  Te  Te5  1  0.00000000  0.00000000  0.00000000  1
  W  W6  1  0.50000000  0.50000000  0.00000000  1
  W  W7  1  0.00000000  0.50000000  0.50000000  1
  O  O8  1  0.19841500  0.45522900  0.89449500  1
  O  O9  1  0.69841500  0.54477100  0.60550500  1
  O  O10  1  0.80158500  0.54477100  0.10550500  1
  O  O11  1  0.30158500  0.45522900  0.39449500  1
  O  O12  1  0.33873500  0.75176900  0.07358900  1
  O  O13  1  0.83873500  0.24823100  0.42641100  1
  O  O14  1  0.66126500  0.24823100  0.92641100  1
  O  O15  1  0.16126500  0.75176900  0.57358900  1
  O  O16  1  0.12372400  0.18085400  0.66860200  1
  O  O17  1  0.62372400  0.81914600  0.83139800  1
  O  O18  1  0.37627600  0.18085400  0.16860200  1
  O  O19  1  0.87627600  0.81914600  0.33139800  1
