# generated using pymatgen
data_Mg(SbO2)2
_symmetry_space_group_name_H-M   'P 1'
_cell_length_a   6.04922000
_cell_length_b   6.06045661
_cell_length_c   20.47634569
_cell_angle_alpha   89.70964204
_cell_angle_beta   94.19740856
_cell_angle_gamma   110.95969724
_symmetry_Int_Tables_number   1
_chemical_formula_structural   Mg(SbO2)2
_chemical_formula_sum   'Mg6 Sb12 O24'
_cell_volume   698.95302113
_cell_formula_units_Z   6
loop_
 _symmetry_equiv_pos_site_id
 _symmetry_equiv_pos_as_xyz
  1  'x, y, z'
loop_
 _atom_site_type_symbol
 _atom_site_label
 _atom_site_symmetry_multiplicity
 _atom_site_fract_x
 _atom_site_fract_y
 _atom_site_fract_z
 _atom_site_occupancy
  Mg  Mg0  1  0.87737000  0.14711100  0.94103800  1
  Mg  Mg1  1  0.52757000  0.45161300  0.59089600  1
  Mg  Mg2  1  0.50629200  0.53075000  0.01829800  1
  Mg  Mg3  1  0.24277700  0.81377700  0.31206900  1
  Mg  Mg4  1  0.78553800  0.18361800  0.71546200  1
  Mg  Mg5  1  0.41367300  0.44148200  0.35614700  1
  Sb  Sb6  1  0.79670900  0.61452900  0.82910000  1
  Sb  Sb7  1  0.29903600  0.70628900  0.90392400  1
  Sb  Sb8  1  0.44646700  0.90720700  0.45935400  1
  Sb  Sb9  1  0.32956200  0.15271700  0.81597200  1
  Sb  Sb10  1  0.12250200  0.80449200  0.68515200  1
  Sb  Sb11  1  0.90061900  0.07469200  0.56899000  1
  Sb  Sb12  1  0.25641700  0.21484800  0.20837300  1
  Sb  Sb13  1  0.95834300  0.48761900  0.46092200  1
  Sb  Sb14  1  0.60169500  0.80239400  0.17528600  1
  Sb  Sb15  1  0.87675600  0.20775600  0.32315200  1
  Sb  Sb16  1  0.83038800  0.31828900  0.09929600  1
  Sb  Sb17  1  0.14783600  0.90477600  0.06174200  1
  O  O18  1  0.72242200  0.28811800  0.86659200  1
  O  O19  1  0.45634200  0.49422200  0.79164800  1
  O  O20  1  0.63105100  0.79490100  0.93792100  1
  O  O21  1  0.21642400  0.40863800  0.95143000  1
  O  O22  1  0.46184200  0.01817200  0.74685600  1
  O  O23  1  0.36337600  0.61176800  0.51100300  1
  O  O24  1  0.92183400  0.52917600  0.74580900  1
  O  O25  1  0.21802000  0.91489800  0.96929200  1
  O  O26  1  0.22382500  0.19064800  0.61051100  1
  O  O27  1  0.10645100  0.79738000  0.41735900  1
  O  O28  1  0.02517300  0.02780700  0.74052500  1
  O  O29  1  0.79364200  0.77276900  0.62020300  1
  O  O30  1  0.10289500  0.30578900  0.40659200  1
  O  O31  1  0.22133400  0.13009800  0.30359600  1
  O  O32  1  0.51127400  0.79004900  0.37491500  1
  O  O33  1  0.74195400  0.24894200  0.61854100  1
  O  O34  1  0.90388400  0.10417500  0.03887000  1
  O  O35  1  0.08843200  0.48924500  0.27999100  1
  O  O36  1  0.70559300  0.37561000  0.38160700  1
  O  O37  1  0.39633600  0.94297000  0.21998700  1
  O  O38  1  0.85716500  0.57203000  0.03559600  1
  O  O39  1  0.53504300  0.51217600  0.23165500  1
  O  O40  1  0.48216500  0.23709400  0.07923100  1
  O  O41  1  0.39397400  0.67936600  0.09509800  1
