# generated using pymatgen
data_TiZnNiP2O9
_symmetry_space_group_name_H-M   'P 1'
_cell_length_a   6.27203400
_cell_length_b   7.34325300
_cell_length_c   14.35996600
_cell_angle_alpha   90.00000000
_cell_angle_beta   90.00000000
_cell_angle_gamma   90.00000000
_symmetry_Int_Tables_number   1
_chemical_formula_structural   TiZnNiP2O9
_chemical_formula_sum   'Ti4 Zn4 Ni4 P8 O36'
_cell_volume   661.37885657
_cell_formula_units_Z   4
loop_
 _symmetry_equiv_pos_site_id
 _symmetry_equiv_pos_as_xyz
  1  'x, y, z'
loop_
 _atom_site_type_symbol
 _atom_site_label
 _atom_site_symmetry_multiplicity
 _atom_site_fract_x
 _atom_site_fract_y
 _atom_site_fract_z
 _atom_site_occupancy
  Ti  Ti0  1  0.75000000  0.34762200  0.88512300  1
  Ti  Ti1  1  0.25000000  0.65237800  0.11487700  1
  Ti  Ti2  1  0.25000000  0.84762200  0.61487700  1
  Ti  Ti3  1  0.75000000  0.15237800  0.38512300  1
  Zn  Zn4  1  0.75000000  0.88400600  0.78329700  1
  Zn  Zn5  1  0.75000000  0.61599400  0.28329700  1
  Zn  Zn6  1  0.25000000  0.11599400  0.21670300  1
  Zn  Zn7  1  0.25000000  0.38400600  0.71670300  1
  Ni  Ni8  1  0.50000000  0.00000000  0.00000000  1
  Ni  Ni9  1  0.50000000  0.50000000  0.50000000  1
  Ni  Ni10  1  0.00000000  0.50000000  0.50000000  1
  Ni  Ni11  1  0.00000000  0.00000000  0.00000000  1
  P  P12  1  0.25000000  0.35624300  0.93043800  1
  P  P13  1  0.75000000  0.64375700  0.06956200  1
  P  P14  1  0.75000000  0.85624300  0.56956200  1
  P  P15  1  0.25000000  0.14375700  0.43043800  1
  P  P16  1  0.75000000  0.39003300  0.69852800  1
  P  P17  1  0.25000000  0.60996700  0.30147200  1
  P  P18  1  0.25000000  0.89003300  0.80147200  1
  P  P19  1  0.75000000  0.10996700  0.19852800  1
  O  O20  1  0.03809900  0.61076700  0.35954800  1
  O  O21  1  0.53809900  0.38923300  0.64045200  1
  O  O22  1  0.96190100  0.11076700  0.14045200  1
  O  O23  1  0.46190100  0.88923300  0.85954800  1
  O  O24  1  0.96190100  0.38923300  0.64045200  1
  O  O25  1  0.46190100  0.61076700  0.35954800  1
  O  O26  1  0.03809900  0.88923300  0.85954800  1
  O  O27  1  0.53809900  0.11076700  0.14045200  1
  O  O28  1  0.25000000  0.33297600  0.47541900  1
  O  O29  1  0.75000000  0.66702400  0.52458100  1
  O  O30  1  0.75000000  0.83297600  0.02458100  1
  O  O31  1  0.25000000  0.16702400  0.97541900  1
  O  O32  1  0.75000000  0.14355200  0.94750300  1
  O  O33  1  0.25000000  0.85644800  0.05249700  1
  O  O34  1  0.25000000  0.64355200  0.55249700  1
  O  O35  1  0.75000000  0.35644800  0.44750300  1
  O  O36  1  0.75000000  0.21370100  0.76155200  1
  O  O37  1  0.25000000  0.78629900  0.23844800  1
  O  O38  1  0.25000000  0.71370100  0.73844800  1
  O  O39  1  0.75000000  0.28629900  0.26155200  1
  O  O40  1  0.44025600  0.12107800  0.36260800  1
  O  O41  1  0.94025600  0.87892200  0.63739200  1
  O  O42  1  0.55974400  0.62107800  0.13739200  1
  O  O43  1  0.05974400  0.37892200  0.86260800  1
  O  O44  1  0.55974400  0.87892200  0.63739200  1
  O  O45  1  0.05974400  0.12107800  0.36260800  1
  O  O46  1  0.44025600  0.37892200  0.86260800  1
  O  O47  1  0.94025600  0.62107800  0.13739200  1
  O  O48  1  0.75000000  0.94992400  0.26961400  1
  O  O49  1  0.25000000  0.05007600  0.73038600  1
  O  O50  1  0.25000000  0.44992400  0.23038600  1
  O  O51  1  0.75000000  0.55007600  0.76961400  1
  O  O52  1  0.75000000  0.99969000  0.49309000  1
  O  O53  1  0.25000000  0.00031000  0.50691000  1
  O  O54  1  0.25000000  0.49969000  0.00691000  1
  O  O55  1  0.75000000  0.50031000  0.99309000  1
