# generated using pymatgen
data_ZnCu2(PO4)2
_symmetry_space_group_name_H-M   'P 1'
_cell_length_a   9.15617950
_cell_length_b   9.15617950
_cell_length_c   15.83417237
_cell_angle_alpha   60.52442037
_cell_angle_beta   60.52442037
_cell_angle_gamma   32.20457554
_symmetry_Int_Tables_number   1
_chemical_formula_structural   ZnCu2(PO4)2
_chemical_formula_sum   'Zn4 Cu8 P8 O32'
_cell_volume   607.64163295
_cell_formula_units_Z   4
loop_
 _symmetry_equiv_pos_site_id
 _symmetry_equiv_pos_as_xyz
  1  'x, y, z'
loop_
 _atom_site_type_symbol
 _atom_site_label
 _atom_site_symmetry_multiplicity
 _atom_site_fract_x
 _atom_site_fract_y
 _atom_site_fract_z
 _atom_site_occupancy
  Zn  Zn0  1  0.16424700  0.56586100  0.12376700  1
  Zn  Zn1  1  0.43413900  0.83575300  0.37623300  1
  Zn  Zn2  1  0.56586100  0.16424700  0.62376700  1
  Zn  Zn3  1  0.83575300  0.43413900  0.87623300  1
  Cu  Cu4  1  0.36471700  0.83718400  0.03171000  1
  Cu  Cu5  1  0.16281600  0.63528300  0.46829000  1
  Cu  Cu6  1  0.63528300  0.16281600  0.96829000  1
  Cu  Cu7  1  0.00000000  0.50000000  0.00000000  1
  Cu  Cu8  1  0.83718400  0.36471700  0.53171000  1
  Cu  Cu9  1  0.64634000  0.35366000  0.75000000  1
  Cu  Cu10  1  0.35366000  0.64634000  0.25000000  1
  Cu  Cu11  1  0.50000000  0.00000000  0.50000000  1
  P  P12  1  0.49288400  0.92568100  0.14053600  1
  P  P13  1  0.81032300  0.22398900  0.39321100  1
  P  P14  1  0.50711600  0.07431900  0.85946400  1
  P  P15  1  0.22398900  0.81032300  0.89321100  1
  P  P16  1  0.92568100  0.49288400  0.64053600  1
  P  P17  1  0.07431900  0.50711600  0.35946400  1
  P  P18  1  0.18967700  0.77601100  0.60678900  1
  P  P19  1  0.77601100  0.18967700  0.10678900  1
  O  O20  1  0.18770200  0.31803100  0.89334300  1
  O  O21  1  0.61121400  0.21121200  0.08188800  1
  O  O22  1  0.31803100  0.18770200  0.39334300  1
  O  O23  1  0.65224800  0.18985800  0.47644700  1
  O  O24  1  0.63962200  0.81176300  0.94213700  1
  O  O25  1  0.69562200  0.39042900  0.29818700  1
  O  O26  1  0.81014200  0.34775200  0.02355300  1
  O  O27  1  0.91832500  0.12500400  0.88370500  1
  O  O28  1  0.34775200  0.81014200  0.52355300  1
  O  O29  1  0.78878800  0.38878600  0.41811200  1
  O  O30  1  0.63313600  0.13159600  0.85482100  1
  O  O31  1  0.98551400  0.41853800  0.73761300  1
  O  O32  1  0.38878600  0.78878800  0.91811200  1
  O  O33  1  0.12500400  0.91832500  0.38370500  1
  O  O34  1  0.81229800  0.68196900  0.10665700  1
  O  O35  1  0.36686400  0.86840400  0.14517900  1
  O  O36  1  0.41853800  0.98551400  0.23761300  1
  O  O37  1  0.18985800  0.65224800  0.97644700  1
  O  O38  1  0.13159600  0.63313600  0.35482100  1
  O  O39  1  0.01448600  0.58146200  0.26238700  1
  O  O40  1  0.87499600  0.08167500  0.61629500  1
  O  O41  1  0.81176300  0.63962200  0.44213700  1
  O  O42  1  0.08167500  0.87499600  0.11629500  1
  O  O43  1  0.39042900  0.69562200  0.79818700  1
  O  O44  1  0.21121200  0.61121400  0.58188800  1
  O  O45  1  0.68196900  0.81229800  0.60665700  1
  O  O46  1  0.58146200  0.01448600  0.76238700  1
  O  O47  1  0.18823700  0.36037800  0.55786300  1
  O  O48  1  0.36037800  0.18823700  0.05786300  1
  O  O49  1  0.60957100  0.30437800  0.20181300  1
  O  O50  1  0.30437800  0.60957100  0.70181300  1
  O  O51  1  0.86840400  0.36686400  0.64517900  1
