# generated using pymatgen
data_CaFe(GeO3)2
_symmetry_space_group_name_H-M   'P 1'
_cell_length_a   9.26354200
_cell_length_b   5.36368600
_cell_length_c   10.41717738
_cell_angle_alpha   75.27763210
_cell_angle_beta   90.00000000
_cell_angle_gamma   90.00000000
_symmetry_Int_Tables_number   1
_chemical_formula_structural   CaFe(GeO3)2
_chemical_formula_sum   'Ca4 Fe4 Ge8 O24'
_cell_volume   500.60210783
_cell_formula_units_Z   4
loop_
 _symmetry_equiv_pos_site_id
 _symmetry_equiv_pos_as_xyz
  1  'x, y, z'
loop_
 _atom_site_type_symbol
 _atom_site_label
 _atom_site_symmetry_multiplicity
 _atom_site_fract_x
 _atom_site_fract_y
 _atom_site_fract_z
 _atom_site_occupancy
  Ca  Ca0  1  0.45276100  0.52925200  0.27350100  1
  Ca  Ca1  1  0.95276100  0.97074800  0.72649900  1
  Ca  Ca2  1  0.54723900  0.47074800  0.72649900  1
  Ca  Ca3  1  0.04723900  0.02925200  0.27350100  1
  Fe  Fe4  1  0.66091000  0.03115000  0.23591700  1
  Fe  Fe5  1  0.16091000  0.46885000  0.76408300  1
  Fe  Fe6  1  0.33909000  0.96885000  0.76408300  1
  Fe  Fe7  1  0.83909000  0.53115000  0.23591700  1
  Ge  Ge8  1  0.34621600  0.16962500  0.04414700  1
  Ge  Ge9  1  0.84621600  0.33037500  0.95585300  1
  Ge  Ge10  1  0.65378400  0.83037500  0.95585300  1
  Ge  Ge11  1  0.15378400  0.66962500  0.04414700  1
  Ge  Ge12  1  0.35116000  0.90315600  0.48457300  1
  Ge  Ge13  1  0.85116000  0.59684400  0.51542700  1
  Ge  Ge14  1  0.64884000  0.09684400  0.51542700  1
  Ge  Ge15  1  0.14884000  0.40315600  0.48457300  1
  O  O16  1  0.24629900  0.68660400  0.39505000  1
  O  O17  1  0.74629900  0.81339600  0.60495000  1
  O  O18  1  0.75370100  0.31339600  0.60495000  1
  O  O19  1  0.25370100  0.18660400  0.39505000  1
  O  O20  1  0.30842500  0.82613000  0.09993900  1
  O  O21  1  0.80842500  0.67387000  0.90006100  1
  O  O22  1  0.69157500  0.17387000  0.90006100  1
  O  O23  1  0.19157500  0.32613000  0.09993900  1
  O  O24  1  0.97684200  0.34774400  0.41850600  1
  O  O25  1  0.47684200  0.15225600  0.58149400  1
  O  O26  1  0.02315800  0.65225600  0.58149400  1
  O  O27  1  0.52315800  0.84774400  0.41850600  1
  O  O28  1  0.01252600  0.73497400  0.13931300  1
  O  O29  1  0.51252600  0.76502600  0.86068700  1
  O  O30  1  0.98747400  0.26502600  0.86068700  1
  O  O31  1  0.48747400  0.23497400  0.13931300  1
  O  O32  1  0.35161000  0.25806700  0.87007500  1
  O  O33  1  0.85161000  0.24193300  0.12992500  1
  O  O34  1  0.64839000  0.74193300  0.12992500  1
  O  O35  1  0.14839000  0.75806700  0.87007500  1
  O  O36  1  0.32764400  0.70180400  0.64799100  1
  O  O37  1  0.82764400  0.79819600  0.35200900  1
  O  O38  1  0.67235600  0.29819600  0.35200900  1
  O  O39  1  0.17235600  0.20180400  0.64799100  1
