# generated using pymatgen
data_ZnFeBiO5
_symmetry_space_group_name_H-M   'P 1'
_cell_length_a   10.49931700
_cell_length_b   5.34908500
_cell_length_c   8.52656900
_cell_angle_alpha   71.10196895
_cell_angle_beta   90.00000000
_cell_angle_gamma   90.00000000
_symmetry_Int_Tables_number   1
_chemical_formula_structural   ZnFeBiO5
_chemical_formula_sum   'Zn4 Fe4 Bi4 O20'
_cell_volume   453.05433416
_cell_formula_units_Z   4
loop_
 _symmetry_equiv_pos_site_id
 _symmetry_equiv_pos_as_xyz
  1  'x, y, z'
loop_
 _atom_site_type_symbol
 _atom_site_label
 _atom_site_symmetry_multiplicity
 _atom_site_fract_x
 _atom_site_fract_y
 _atom_site_fract_z
 _atom_site_occupancy
  Zn  Zn0  1  0.09946900  0.52774700  0.83727400  1
  Zn  Zn1  1  0.90053100  0.47225300  0.16272600  1
  Zn  Zn2  1  0.59946900  0.47225300  0.66272600  1
  Zn  Zn3  1  0.40053100  0.52774700  0.33727400  1
  Fe  Fe4  1  0.38755800  0.13483700  0.05846800  1
  Fe  Fe5  1  0.61244200  0.86516300  0.94153200  1
  Fe  Fe6  1  0.88755800  0.86516300  0.44153200  1
  Fe  Fe7  1  0.11244200  0.13483700  0.55846800  1
  Bi  Bi8  1  0.89670400  0.03601500  0.84268700  1
  Bi  Bi9  1  0.10329600  0.96398500  0.15731300  1
  Bi  Bi10  1  0.60329600  0.03601500  0.34268700  1
  Bi  Bi11  1  0.39670400  0.96398500  0.65731300  1
  O  O12  1  0.95332100  0.86908700  0.65387700  1
  O  O13  1  0.02856700  0.32437800  0.69048600  1
  O  O14  1  0.79082600  0.18247500  0.30449800  1
  O  O15  1  0.45647300  0.76189000  0.48384600  1
  O  O16  1  0.71904300  0.71629400  0.49677000  1
  O  O17  1  0.78095700  0.71629400  0.99677000  1
  O  O18  1  0.47143300  0.32437800  0.19048600  1
  O  O19  1  0.52856700  0.67562200  0.80951400  1
  O  O20  1  0.54352700  0.23811000  0.51615400  1
  O  O21  1  0.45332100  0.13091300  0.84612300  1
  O  O22  1  0.28095700  0.28370600  0.50323000  1
  O  O23  1  0.04667900  0.13091300  0.34612300  1
  O  O24  1  0.54667900  0.86908700  0.15387700  1
  O  O25  1  0.21904300  0.28370600  0.00323000  1
  O  O26  1  0.95647300  0.23811000  0.01615400  1
  O  O27  1  0.04352700  0.76189000  0.98384600  1
  O  O28  1  0.20917400  0.81752500  0.69550200  1
  O  O29  1  0.97143300  0.67562200  0.30951400  1
  O  O30  1  0.29082600  0.81752500  0.19550200  1
  O  O31  1  0.70917400  0.18247500  0.80449800  1
