# generated using pymatgen
data_TiVZn(PO4)3
_symmetry_space_group_name_H-M   'P 1'
_cell_length_a   8.56588313
_cell_length_b   8.56588313
_cell_length_c   8.56588263
_cell_angle_alpha   60.46239031
_cell_angle_beta   60.46239031
_cell_angle_gamma   60.46238708
_symmetry_Int_Tables_number   1
_chemical_formula_structural   TiVZn(PO4)3
_chemical_formula_sum   'Ti2 V2 Zn2 P6 O24'
_cell_volume   449.07338638
_cell_formula_units_Z   2
loop_
 _symmetry_equiv_pos_site_id
 _symmetry_equiv_pos_as_xyz
  1  'x, y, z'
loop_
 _atom_site_type_symbol
 _atom_site_label
 _atom_site_symmetry_multiplicity
 _atom_site_fract_x
 _atom_site_fract_y
 _atom_site_fract_z
 _atom_site_occupancy
  Ti  Ti0  1  0.14460000  0.14460000  0.14460000  1
  Ti  Ti1  1  0.64460000  0.64460000  0.64460000  1
  V  V2  1  0.35713100  0.35713100  0.35713100  1
  V  V3  1  0.85713100  0.85713100  0.85713100  1
  Zn  Zn4  1  0.99848700  0.99848700  0.99848700  1
  Zn  Zn5  1  0.49848700  0.49848700  0.49848700  1
  P  P6  1  0.45600100  0.04488700  0.75131800  1
  P  P7  1  0.75131800  0.45600100  0.04488700  1
  P  P8  1  0.04488700  0.75131800  0.45600100  1
  P  P9  1  0.95600100  0.25131800  0.54488700  1
  P  P10  1  0.25131800  0.54488700  0.95600100  1
  P  P11  1  0.54488700  0.95600100  0.25131800  1
  O  O12  1  0.50579000  0.11189700  0.31432000  1
  O  O13  1  0.11189700  0.31432000  0.50579000  1
  O  O14  1  0.25936000  0.05420100  0.91465600  1
  O  O15  1  0.31432000  0.50579000  0.11189700  1
  O  O16  1  0.61189700  0.00579000  0.81432000  1
  O  O17  1  0.43737000  0.23995100  0.59058100  1
  O  O18  1  0.91465600  0.25936000  0.05420100  1
  O  O19  1  0.59058100  0.43737000  0.23995100  1
  O  O20  1  0.00158800  0.18746200  0.38039900  1
  O  O21  1  0.23995100  0.59058100  0.43737000  1
  O  O22  1  0.93737000  0.09058100  0.73995100  1
  O  O23  1  0.18746200  0.38039900  0.00158800  1
  O  O24  1  0.81432000  0.61189700  0.00579000  1
  O  O25  1  0.05420100  0.91465600  0.25936000  1
  O  O26  1  0.75936000  0.41465600  0.55420100  1
  O  O27  1  0.00579000  0.81432000  0.61189700  1
  O  O28  1  0.41465600  0.55420100  0.75936000  1
  O  O29  1  0.09058100  0.73995100  0.93737000  1
  O  O30  1  0.55420100  0.75936000  0.41465600  1
  O  O31  1  0.38039900  0.00158800  0.18746200  1
  O  O32  1  0.68746200  0.50158800  0.88039900  1
  O  O33  1  0.73995100  0.93737000  0.09058100  1
  O  O34  1  0.88039900  0.68746200  0.50158800  1
  O  O35  1  0.50158800  0.88039900  0.68746200  1
