# generated using pymatgen
data_Mg(WO2)2
_symmetry_space_group_name_H-M   'P 1'
_cell_length_a   5.58234400
_cell_length_b   6.48983700
_cell_length_c   10.48221800
_cell_angle_alpha   90.00000000
_cell_angle_beta   90.00000000
_cell_angle_gamma   90.00000000
_symmetry_Int_Tables_number   1
_chemical_formula_structural   Mg(WO2)2
_chemical_formula_sum   'Mg4 W8 O16'
_cell_volume   379.75506246
_cell_formula_units_Z   4
loop_
 _symmetry_equiv_pos_site_id
 _symmetry_equiv_pos_as_xyz
  1  'x, y, z'
loop_
 _atom_site_type_symbol
 _atom_site_label
 _atom_site_symmetry_multiplicity
 _atom_site_fract_x
 _atom_site_fract_y
 _atom_site_fract_z
 _atom_site_occupancy
  Mg  Mg0  1  0.35560800  0.00000000  0.50000000  1
  Mg  Mg1  1  0.64439200  0.50000000  0.00000000  1
  Mg  Mg2  1  0.04733100  0.00000000  0.00000000  1
  Mg  Mg3  1  0.95266900  0.50000000  0.50000000  1
  W  W4  1  0.01901100  0.50000000  0.22840500  1
  W  W5  1  0.01901100  0.50000000  0.77159500  1
  W  W6  1  0.98098900  0.00000000  0.27159500  1
  W  W7  1  0.98098900  0.00000000  0.72840500  1
  W  W8  1  0.50000000  0.25000000  0.25000000  1
  W  W9  1  0.50000000  0.75000000  0.75000000  1
  W  W10  1  0.50000000  0.75000000  0.25000000  1
  W  W11  1  0.50000000  0.25000000  0.75000000  1
  O  O12  1  0.37405900  0.50000000  0.13419300  1
  O  O13  1  0.37405900  0.50000000  0.86580700  1
  O  O14  1  0.62594100  0.00000000  0.36580700  1
  O  O15  1  0.62594100  0.00000000  0.63419300  1
  O  O16  1  0.70490700  0.50000000  0.34706200  1
  O  O17  1  0.70490700  0.50000000  0.65293800  1
  O  O18  1  0.29509300  0.00000000  0.15293800  1
  O  O19  1  0.29509300  0.00000000  0.84706200  1
  O  O20  1  0.16440500  0.25526100  0.36300000  1
  O  O21  1  0.16440500  0.74473900  0.63700000  1
  O  O22  1  0.83559500  0.75526100  0.13700000  1
  O  O23  1  0.83559500  0.24473900  0.86300000  1
  O  O24  1  0.83559500  0.24473900  0.13700000  1
  O  O25  1  0.83559500  0.75526100  0.86300000  1
  O  O26  1  0.16440500  0.74473900  0.36300000  1
  O  O27  1  0.16440500  0.25526100  0.63700000  1
