# generated using pymatgen
data_Ca2Ni3O8
_symmetry_space_group_name_H-M   'P 1'
_cell_length_a   5.82906306
_cell_length_b   5.82906306
_cell_length_c   10.39934900
_cell_angle_alpha   90.00000000
_cell_angle_beta   90.00000000
_cell_angle_gamma   120.00001207
_symmetry_Int_Tables_number   1
_chemical_formula_structural   Ca2Ni3O8
_chemical_formula_sum   'Ca4 Ni6 O16'
_cell_volume   306.00902837
_cell_formula_units_Z   2
loop_
 _symmetry_equiv_pos_site_id
 _symmetry_equiv_pos_as_xyz
  1  'x, y, z'
loop_
 _atom_site_type_symbol
 _atom_site_label
 _atom_site_symmetry_multiplicity
 _atom_site_fract_x
 _atom_site_fract_y
 _atom_site_fract_z
 _atom_site_occupancy
  Ca  Ca0  1  0.66666700  0.33333300  0.02755200  1
  Ca  Ca1  1  0.33333300  0.66666700  0.52755200  1
  Ca  Ca2  1  0.66666700  0.33333300  0.43389200  1
  Ca  Ca3  1  0.33333300  0.66666700  0.93389200  1
  Ni  Ni4  1  0.67016500  0.83508200  0.24651200  1
  Ni  Ni5  1  0.83508200  0.16491800  0.74651200  1
  Ni  Ni6  1  0.16491800  0.32983500  0.24651200  1
  Ni  Ni7  1  0.83508200  0.67016500  0.74651200  1
  Ni  Ni8  1  0.32983500  0.16491800  0.74651200  1
  Ni  Ni9  1  0.16491800  0.83508200  0.24651200  1
  O  O10  1  0.84813700  0.15186300  0.15514300  1
  O  O11  1  0.69627400  0.84813700  0.65514300  1
  O  O12  1  0.15186300  0.30372600  0.65514300  1
  O  O13  1  0.84813700  0.69627400  0.15514300  1
  O  O14  1  0.30372600  0.15186300  0.15514300  1
  O  O15  1  0.15186300  0.84813700  0.65514300  1
  O  O16  1  0.52177900  0.47822100  0.84487000  1
  O  O17  1  0.04355900  0.52177900  0.34487000  1
  O  O18  1  0.47822100  0.95644100  0.34487000  1
  O  O19  1  0.52177900  0.04355900  0.84487000  1
  O  O20  1  0.00000000  0.00000000  0.33828200  1
  O  O21  1  0.00000000  0.00000000  0.83828200  1
  O  O22  1  0.33333300  0.66666700  0.15420300  1
  O  O23  1  0.95644100  0.47822100  0.84487000  1
  O  O24  1  0.47822100  0.52177900  0.34487000  1
  O  O25  1  0.66666700  0.33333300  0.65420300  1
