# generated using pymatgen
data_HoMoC2
_symmetry_space_group_name_H-M   'P 1'
_cell_length_a   3.37889100
_cell_length_b   5.69114600
_cell_length_c   10.77516400
_cell_angle_alpha   90.00000000
_cell_angle_beta   90.00000000
_cell_angle_gamma   90.00000000
_symmetry_Int_Tables_number   1
_chemical_formula_structural   HoMoC2
_chemical_formula_sum   'Ho4 Mo4 C8'
_cell_volume   207.20383922
_cell_formula_units_Z   4
loop_
 _symmetry_equiv_pos_site_id
 _symmetry_equiv_pos_as_xyz
  1  'x, y, z'
loop_
 _atom_site_type_symbol
 _atom_site_label
 _atom_site_symmetry_multiplicity
 _atom_site_fract_x
 _atom_site_fract_y
 _atom_site_fract_z
 _atom_site_occupancy
  Ho  Ho0  1  0.25000000  0.08526500  0.86264800  1
  Ho  Ho1  1  0.25000000  0.58526500  0.63735200  1
  Ho  Ho2  1  0.75000000  0.91473500  0.13735200  1
  Ho  Ho3  1  0.75000000  0.41473500  0.36264800  1
  Mo  Mo4  1  0.25000000  0.40217800  0.10942700  1
  Mo  Mo5  1  0.25000000  0.90217800  0.39057300  1
  Mo  Mo6  1  0.75000000  0.59782200  0.89057300  1
  Mo  Mo7  1  0.75000000  0.09782200  0.60942700  1
  C  C8  1  0.25000000  0.15918600  0.24704000  1
  C  C9  1  0.25000000  0.65918600  0.25296000  1
  C  C10  1  0.75000000  0.84081400  0.75296000  1
  C  C11  1  0.75000000  0.34081400  0.74704000  1
  C  C12  1  0.25000000  0.72553300  0.98531400  1
  C  C13  1  0.25000000  0.22553300  0.51468600  1
  C  C14  1  0.75000000  0.27446700  0.01468600  1
  C  C15  1  0.75000000  0.77446700  0.48531400  1
