# generated using pymatgen
data_B4Os
_symmetry_space_group_name_H-M   'P 1'
_cell_length_a   5.34239767
_cell_length_b   5.34239767
_cell_length_c   6.45108400
_cell_angle_alpha   90.00000000
_cell_angle_beta   90.00000000
_cell_angle_gamma   119.99999587
_symmetry_Int_Tables_number   1
_chemical_formula_structural   B4Os
_chemical_formula_sum   'B16 Os4'
_cell_volume   159.45412940
_cell_formula_units_Z   4
loop_
 _symmetry_equiv_pos_site_id
 _symmetry_equiv_pos_as_xyz
  1  'x, y, z'
loop_
 _atom_site_type_symbol
 _atom_site_label
 _atom_site_symmetry_multiplicity
 _atom_site_fract_x
 _atom_site_fract_y
 _atom_site_fract_z
 _atom_site_occupancy
  B  B0  1  0.33463700  0.33463700  0.50000000  1
  B  B1  1  0.66536300  0.00000000  0.50000000  1
  B  B2  1  0.00000000  0.66536300  0.50000000  1
  B  B3  1  0.66536300  0.66536300  0.50000000  1
  B  B4  1  0.00000000  0.33463700  0.50000000  1
  B  B5  1  0.33463700  0.00000000  0.50000000  1
  B  B6  1  0.66536300  0.66536300  0.00000000  1
  B  B7  1  0.33463700  0.00000000  0.00000000  1
  B  B8  1  0.00000000  0.33463700  0.00000000  1
  B  B9  1  0.33463700  0.33463700  0.00000000  1
  B  B10  1  0.00000000  0.66536300  0.00000000  1
  B  B11  1  0.66536300  0.00000000  0.00000000  1
  B  B12  1  0.33333300  0.66666700  0.88370600  1
  B  B13  1  0.66666700  0.33333300  0.11629400  1
  B  B14  1  0.66666700  0.33333300  0.38370600  1
  B  B15  1  0.33333300  0.66666700  0.61629400  1
  Os  Os16  1  0.33333300  0.66666700  0.25000000  1
  Os  Os17  1  0.66666700  0.33333300  0.75000000  1
  Os  Os18  1  0.00000000  0.00000000  0.25000000  1
  Os  Os19  1  0.00000000  0.00000000  0.75000000  1
