# generated using pymatgen
data_CaW2O7
_symmetry_space_group_name_H-M   'P 1'
_cell_length_a   7.11770500
_cell_length_b   6.84438500
_cell_length_c   8.72556088
_cell_angle_alpha   73.59126958
_cell_angle_beta   90.00000000
_cell_angle_gamma   90.00000000
_symmetry_Int_Tables_number   1
_chemical_formula_structural   CaW2O7
_chemical_formula_sum   'Ca2 W4 O14'
_cell_volume   407.76416541
_cell_formula_units_Z   2
loop_
 _symmetry_equiv_pos_site_id
 _symmetry_equiv_pos_as_xyz
  1  'x, y, z'
loop_
 _atom_site_type_symbol
 _atom_site_label
 _atom_site_symmetry_multiplicity
 _atom_site_fract_x
 _atom_site_fract_y
 _atom_site_fract_z
 _atom_site_occupancy
  Ca  Ca0  1  0.12848900  0.12114600  0.35991600  1
  Ca  Ca1  1  0.62848900  0.87885400  0.64008400  1
  W  W2  1  0.15126800  0.89272600  0.79195300  1
  W  W3  1  0.65126800  0.10727400  0.20804700  1
  W  W4  1  0.67927600  0.32906900  0.79563300  1
  W  W5  1  0.17927600  0.67093100  0.20436700  1
  O  O6  1  0.35279300  0.61905400  0.35233600  1
  O  O7  1  0.85279300  0.38094600  0.64766400  1
  O  O8  1  0.78227600  0.05308200  0.39767500  1
  O  O9  1  0.28227600  0.94691800  0.60232500  1
  O  O10  1  0.02869500  0.45072600  0.24971400  1
  O  O11  1  0.52869500  0.54927400  0.75028600  1
  O  O12  1  0.42412200  0.19866000  0.24583700  1
  O  O13  1  0.92412200  0.80134000  0.75416300  1
  O  O14  1  0.05720800  0.89813500  0.21688700  1
  O  O15  1  0.55720800  0.10186500  0.78311300  1
  O  O16  1  0.26199200  0.71862100  0.98384100  1
  O  O17  1  0.76199200  0.28137900  0.01615900  1
  O  O18  1  0.10882300  0.12277600  0.83321000  1
  O  O19  1  0.60882300  0.87722400  0.16679000  1
