# generated using pymatgen
data_As4W3O16
_symmetry_space_group_name_H-M   'P 1'
_cell_length_a   4.98840800
_cell_length_b   8.53944300
_cell_length_c   15.86376135
_cell_angle_alpha   81.48248248
_cell_angle_beta   90.00000000
_cell_angle_gamma   90.00000000
_symmetry_Int_Tables_number   1
_chemical_formula_structural   As4W3O16
_chemical_formula_sum   'As8 W6 O32'
_cell_volume   668.31478898
_cell_formula_units_Z   2
loop_
 _symmetry_equiv_pos_site_id
 _symmetry_equiv_pos_as_xyz
  1  'x, y, z'
loop_
 _atom_site_type_symbol
 _atom_site_label
 _atom_site_symmetry_multiplicity
 _atom_site_fract_x
 _atom_site_fract_y
 _atom_site_fract_z
 _atom_site_occupancy
  As  As0  1  0.01289300  0.17214600  0.33181800  1
  As  As1  1  0.48132700  0.38274200  0.39480000  1
  As  As2  1  0.98132700  0.61725800  0.10520000  1
  As  As3  1  0.01867300  0.38274200  0.89480000  1
  As  As4  1  0.98710700  0.82785400  0.66818200  1
  As  As5  1  0.51867300  0.61725800  0.60520000  1
  As  As6  1  0.48710700  0.17214600  0.83181800  1
  As  As7  1  0.51289300  0.82785400  0.16818200  1
  W  W8  1  0.45387400  0.21905400  0.61421600  1
  W  W9  1  0.54612600  0.78094600  0.38578400  1
  W  W10  1  0.95387400  0.78094600  0.88578400  1
  W  W11  1  0.04612600  0.21905400  0.11421600  1
  W  W12  1  0.00000000  0.50000000  0.50000000  1
  W  W13  1  0.50000000  0.50000000  0.00000000  1
  O  O14  1  0.39034200  0.77000700  0.27405900  1
  O  O15  1  0.78659900  0.69771300  0.01091300  1
  O  O16  1  0.25548300  0.36341000  0.31426500  1
  O  O17  1  0.35485500  0.12968400  0.15032400  1
  O  O18  1  0.74451700  0.63659000  0.68573500  1
  O  O19  1  0.10965800  0.77000700  0.77405900  1
  O  O20  1  0.75548300  0.63659000  0.18573500  1
  O  O21  1  0.74905900  0.52331200  0.89149000  1
  O  O22  1  0.78284200  0.22469700  0.89213300  1
  O  O23  1  0.60965800  0.22999300  0.72594100  1
  O  O24  1  0.14514500  0.12968400  0.65032400  1
  O  O25  1  0.25094100  0.47668800  0.10851000  1
  O  O26  1  0.29025400  0.58561900  0.42186900  1
  O  O27  1  0.21715800  0.77530300  0.10786700  1
  O  O28  1  0.63793000  0.06852800  0.57857500  1
  O  O29  1  0.13793000  0.93147200  0.92142500  1
  O  O30  1  0.79025400  0.41438100  0.07813100  1
  O  O31  1  0.24451700  0.36341000  0.81426500  1
  O  O32  1  0.28284200  0.77530300  0.60786700  1
  O  O33  1  0.24905900  0.47668800  0.60851000  1
  O  O34  1  0.86207000  0.06852800  0.07857500  1
  O  O35  1  0.36207000  0.93147200  0.42142500  1
  O  O36  1  0.21340100  0.30228700  0.98908700  1
  O  O37  1  0.28659900  0.30228700  0.48908700  1
  O  O38  1  0.70974600  0.41438100  0.57813100  1
  O  O39  1  0.89034200  0.22999300  0.22594100  1
  O  O40  1  0.64514500  0.87031600  0.84967600  1
  O  O41  1  0.71715800  0.22469700  0.39213300  1
  O  O42  1  0.71340100  0.69771300  0.51091300  1
  O  O43  1  0.75094100  0.52331200  0.39149000  1
  O  O44  1  0.20974600  0.58561900  0.92186900  1
  O  O45  1  0.85485500  0.87031600  0.34967600  1
