# generated using pymatgen
data_W2O3
_symmetry_space_group_name_H-M   'P 1'
_cell_length_a   5.24728764
_cell_length_b   5.24728764
_cell_length_c   15.79830200
_cell_angle_alpha   90.00000000
_cell_angle_beta   90.00000000
_cell_angle_gamma   141.83333376
_symmetry_Int_Tables_number   1
_chemical_formula_structural   W2O3
_chemical_formula_sum   'W8 O12'
_cell_volume   268.80309098
_cell_formula_units_Z   4
loop_
 _symmetry_equiv_pos_site_id
 _symmetry_equiv_pos_as_xyz
  1  'x, y, z'
loop_
 _atom_site_type_symbol
 _atom_site_label
 _atom_site_symmetry_multiplicity
 _atom_site_fract_x
 _atom_site_fract_y
 _atom_site_fract_z
 _atom_site_occupancy
  W  W0  1  0.66353300  0.33646700  0.03472400  1
  W  W1  1  0.33646700  0.66353300  0.96527600  1
  W  W2  1  0.66353300  0.33646700  0.46527600  1
  W  W3  1  0.33646700  0.66353300  0.53472400  1
  W  W4  1  0.09593300  0.90406700  0.63151600  1
  W  W5  1  0.90406700  0.09593300  0.36848400  1
  W  W6  1  0.90406700  0.09593300  0.13151600  1
  W  W7  1  0.09593300  0.90406700  0.86848400  1
  O  O8  1  0.00000000  0.00000000  0.50000000  1
  O  O9  1  0.00000000  0.00000000  0.00000000  1
  O  O10  1  0.47196100  0.52803900  0.86487300  1
  O  O11  1  0.52803900  0.47196100  0.13512700  1
  O  O12  1  0.52803900  0.47196100  0.36487300  1
  O  O13  1  0.47196100  0.52803900  0.63512700  1
  O  O14  1  0.73977300  0.26022700  0.90053400  1
  O  O15  1  0.26022700  0.73977300  0.09946600  1
  O  O16  1  0.26022700  0.73977300  0.40053400  1
  O  O17  1  0.73977300  0.26022700  0.59946600  1
  O  O18  1  0.15510500  0.84489500  0.75000000  1
  O  O19  1  0.84489500  0.15510500  0.25000000  1
