# generated using pymatgen
data_ReP3
_symmetry_space_group_name_H-M   'P 1'
_cell_length_a   3.14860100
_cell_length_b   5.16081100
_cell_length_c   15.46980900
_cell_angle_alpha   90.00000000
_cell_angle_beta   90.00000000
_cell_angle_gamma   90.00000000
_symmetry_Int_Tables_number   1
_chemical_formula_structural   ReP3
_chemical_formula_sum   'Re4 P12'
_cell_volume   251.37410381
_cell_formula_units_Z   4
loop_
 _symmetry_equiv_pos_site_id
 _symmetry_equiv_pos_as_xyz
  1  'x, y, z'
loop_
 _atom_site_type_symbol
 _atom_site_label
 _atom_site_symmetry_multiplicity
 _atom_site_fract_x
 _atom_site_fract_y
 _atom_site_fract_z
 _atom_site_occupancy
  Re  Re0  1  0.25000000  0.35012700  0.65052000  1
  Re  Re1  1  0.25000000  0.14987300  0.15052000  1
  Re  Re2  1  0.75000000  0.64987300  0.34948000  1
  Re  Re3  1  0.75000000  0.85012700  0.84948000  1
  P  P4  1  0.25000000  0.14635200  0.51300100  1
  P  P5  1  0.25000000  0.35364800  0.01300100  1
  P  P6  1  0.75000000  0.85364800  0.48699900  1
  P  P7  1  0.75000000  0.64635200  0.98699900  1
  P  P8  1  0.25000000  0.17931400  0.88181000  1
  P  P9  1  0.25000000  0.32068600  0.38181000  1
  P  P10  1  0.75000000  0.82068600  0.11819000  1
  P  P11  1  0.75000000  0.67931400  0.61819000  1
  P  P12  1  0.25000000  0.52283900  0.79273700  1
  P  P13  1  0.25000000  0.97716100  0.29273700  1
  P  P14  1  0.75000000  0.47716100  0.20726300  1
  P  P15  1  0.75000000  0.02283900  0.70726300  1
