# generated using pymatgen
data_Ti2ZnCoO7
_symmetry_space_group_name_H-M   'P 1'
_cell_length_a   14.20539800
_cell_length_b   6.63847500
_cell_length_c   11.84286047
_cell_angle_alpha   74.51757034
_cell_angle_beta   90.00000000
_cell_angle_gamma   90.00000000
_symmetry_Int_Tables_number   1
_chemical_formula_structural   Ti2ZnCoO7
_chemical_formula_sum   'Ti16 Zn8 Co8 O56'
_cell_volume   1076.28124204
_cell_formula_units_Z   8
loop_
 _symmetry_equiv_pos_site_id
 _symmetry_equiv_pos_as_xyz
  1  'x, y, z'
loop_
 _atom_site_type_symbol
 _atom_site_label
 _atom_site_symmetry_multiplicity
 _atom_site_fract_x
 _atom_site_fract_y
 _atom_site_fract_z
 _atom_site_occupancy
  Ti  Ti0  1  0.88540100  0.15431800  0.99031300  1
  Ti  Ti1  1  0.01264000  0.57036300  0.68398500  1
  Ti  Ti2  1  0.48736000  0.57036300  0.18398500  1
  Ti  Ti3  1  0.98736000  0.42963700  0.31601500  1
  Ti  Ti4  1  0.71170900  0.48729100  0.80327900  1
  Ti  Ti5  1  0.21170900  0.51270900  0.69672100  1
  Ti  Ti6  1  0.28829100  0.51270900  0.19672100  1
  Ti  Ti7  1  0.78829100  0.48729100  0.30327900  1
  Ti  Ti8  1  0.51264000  0.42963700  0.81601500  1
  Ti  Ti9  1  0.14769000  0.12722200  0.47382200  1
  Ti  Ti10  1  0.64769000  0.87277800  0.02617800  1
  Ti  Ti11  1  0.85231000  0.87277800  0.52617800  1
  Ti  Ti12  1  0.38540100  0.84568200  0.50968700  1
  Ti  Ti13  1  0.61459900  0.15431800  0.49031300  1
  Ti  Ti14  1  0.11459900  0.84568200  0.00968700  1
  Ti  Ti15  1  0.35231000  0.12722200  0.97382200  1
  Zn  Zn16  1  0.51493700  0.95987800  0.76390800  1
  Zn  Zn17  1  0.89023300  0.69080100  0.92150500  1
  Zn  Zn18  1  0.39023300  0.30919900  0.57849500  1
  Zn  Zn19  1  0.10976700  0.30919900  0.07849500  1
  Zn  Zn20  1  0.60976700  0.69080100  0.42150500  1
  Zn  Zn21  1  0.98506300  0.95987800  0.26390800  1
  Zn  Zn22  1  0.48506300  0.04012200  0.23609200  1
  Zn  Zn23  1  0.01493700  0.04012200  0.73609200  1
  Co  Co24  1  0.66795500  0.36135200  0.08402300  1
  Co  Co25  1  0.16795500  0.63864800  0.41597700  1
  Co  Co26  1  0.33204500  0.63864800  0.91597700  1
  Co  Co27  1  0.83204500  0.36135200  0.58402300  1
  Co  Co28  1  0.76565600  0.00876100  0.25524400  1
  Co  Co29  1  0.26565600  0.99123900  0.24475600  1
  Co  Co30  1  0.23434400  0.99123900  0.74475600  1
  Co  Co31  1  0.73434400  0.00876100  0.75524400  1
  O  O32  1  0.00607400  0.22127500  0.98581800  1
  O  O33  1  0.50607400  0.77872500  0.51418200  1
  O  O34  1  0.99392600  0.77872500  0.01418200  1
  O  O35  1  0.49392600  0.22127500  0.48581800  1
  O  O36  1  0.83567300  0.98603800  0.89583500  1
  O  O37  1  0.33567300  0.01396200  0.60416500  1
  O  O38  1  0.16432700  0.01396200  0.10416500  1
  O  O39  1  0.66432700  0.98603800  0.39583500  1
  O  O40  1  0.86877100  0.01613600  0.15284200  1
  O  O41  1  0.36877100  0.98386400  0.34715800  1
  O  O42  1  0.13122900  0.98386400  0.84715800  1
  O  O43  1  0.63122900  0.01613600  0.65284200  1
  O  O44  1  0.28996100  0.37402700  0.92478700  1
  O  O45  1  0.78996100  0.62597300  0.57521300  1
  O  O46  1  0.71003900  0.62597300  0.07521300  1
  O  O47  1  0.21003900  0.37402700  0.42478700  1
  O  O48  1  0.36069900  0.01803500  0.13589900  1
  O  O49  1  0.86069900  0.98196500  0.36410100  1
  O  O50  1  0.63930100  0.98196500  0.86410100  1
  O  O51  1  0.13930100  0.01803500  0.63589900  1
  O  O52  1  0.31516500  0.93028800  0.89021800  1
  O  O53  1  0.45151100  0.67623300  0.81875700  1
  O  O54  1  0.81516500  0.06971200  0.60978200  1
  O  O55  1  0.18483500  0.93028800  0.39021800  1
  O  O56  1  0.46648600  0.25392400  0.72949400  1
  O  O57  1  0.96648600  0.74607600  0.77050600  1
  O  O58  1  0.53351400  0.74607600  0.27050600  1
  O  O59  1  0.03351400  0.25392400  0.22949400  1
  O  O60  1  0.46997700  0.21094200  0.95304000  1
  O  O61  1  0.96997700  0.78905800  0.54696000  1
  O  O62  1  0.53002300  0.78905800  0.04696000  1
  O  O63  1  0.03002300  0.21094200  0.45304000  1
  O  O64  1  0.89083100  0.54969600  0.21096700  1
  O  O65  1  0.39083100  0.45030400  0.28903300  1
  O  O66  1  0.10916900  0.45030400  0.78903300  1
  O  O67  1  0.60916900  0.54969600  0.71096700  1
  O  O68  1  0.74643700  0.28065700  0.23349500  1
  O  O69  1  0.24643700  0.71934300  0.26650500  1
  O  O70  1  0.25356300  0.71934300  0.76650500  1
  O  O71  1  0.75356300  0.28065700  0.73349500  1
  O  O72  1  0.67787000  0.40786500  0.44258800  1
  O  O73  1  0.17787000  0.59213500  0.05741200  1
  O  O74  1  0.32213000  0.59213500  0.55741200  1
  O  O75  1  0.82213000  0.40786500  0.94258800  1
  O  O76  1  0.73416200  0.74912800  0.28252900  1
  O  O77  1  0.23416200  0.25087200  0.21747100  1
  O  O78  1  0.26583800  0.25087200  0.71747100  1
  O  O79  1  0.76583800  0.74912800  0.78252900  1
  O  O80  1  0.87504600  0.40919600  0.42394700  1
  O  O81  1  0.37504600  0.59080400  0.07605300  1
  O  O82  1  0.12495400  0.59080400  0.57605300  1
  O  O83  1  0.62495400  0.40919600  0.92394700  1
  O  O84  1  0.04848900  0.67623300  0.31875700  1
  O  O85  1  0.54848900  0.32376700  0.18124300  1
  O  O86  1  0.95151100  0.32376700  0.68124300  1
  O  O87  1  0.68483500  0.06971200  0.10978200  1
