# generated using pymatgen
data_ZnCoSb2O7
_symmetry_space_group_name_H-M   'P 1'
_cell_length_a   14.70815300
_cell_length_b   6.60166100
_cell_length_c   13.11295514
_cell_angle_alpha   74.65849001
_cell_angle_beta   90.00000000
_cell_angle_gamma   90.00000000
_symmetry_Int_Tables_number   1
_chemical_formula_structural   ZnCoSb2O7
_chemical_formula_sum   'Zn8 Co8 Sb16 O56'
_cell_volume   1227.87404892
_cell_formula_units_Z   8
loop_
 _symmetry_equiv_pos_site_id
 _symmetry_equiv_pos_as_xyz
  1  'x, y, z'
loop_
 _atom_site_type_symbol
 _atom_site_label
 _atom_site_symmetry_multiplicity
 _atom_site_fract_x
 _atom_site_fract_y
 _atom_site_fract_z
 _atom_site_occupancy
  Zn  Zn0  1  0.52522500  0.94088700  0.77986800  1
  Zn  Zn1  1  0.89357100  0.68611700  0.89706100  1
  Zn  Zn2  1  0.39357100  0.31388300  0.60293900  1
  Zn  Zn3  1  0.10642900  0.31388300  0.10293900  1
  Zn  Zn4  1  0.60642900  0.68611700  0.39706100  1
  Zn  Zn5  1  0.97477500  0.94088700  0.27986800  1
  Zn  Zn6  1  0.47477500  0.05911300  0.22013200  1
  Zn  Zn7  1  0.02522500  0.05911300  0.72013200  1
  Co  Co8  1  0.65460800  0.32719200  0.10111000  1
  Co  Co9  1  0.15460800  0.67280800  0.39889000  1
  Co  Co10  1  0.34539200  0.67280800  0.89889000  1
  Co  Co11  1  0.84539200  0.32719200  0.60111000  1
  Co  Co12  1  0.77052700  0.98119800  0.24830300  1
  Co  Co13  1  0.27052700  0.01880200  0.25169700  1
  Co  Co14  1  0.22947300  0.01880200  0.75169700  1
  Co  Co15  1  0.72947300  0.98119800  0.74830300  1
  Sb  Sb16  1  0.89585100  0.07789900  0.01119900  1
  Sb  Sb17  1  0.02650300  0.60692900  0.66909100  1
  Sb  Sb18  1  0.47349700  0.60692900  0.16909100  1
  Sb  Sb19  1  0.97349700  0.39307100  0.33090900  1
  Sb  Sb20  1  0.73671900  0.42752900  0.82298600  1
  Sb  Sb21  1  0.23671900  0.57247100  0.67701400  1
  Sb  Sb22  1  0.26328100  0.57247100  0.17701400  1
  Sb  Sb23  1  0.76328100  0.42752900  0.32298600  1
  Sb  Sb24  1  0.52650300  0.39307100  0.83090900  1
  Sb  Sb25  1  0.16820600  0.14074200  0.48596200  1
  Sb  Sb26  1  0.66820600  0.85925800  0.01403800  1
  Sb  Sb27  1  0.83179400  0.85925800  0.51403800  1
  Sb  Sb28  1  0.39585100  0.92210100  0.48880100  1
  Sb  Sb29  1  0.60414900  0.07789900  0.51119900  1
  Sb  Sb30  1  0.10414900  0.92210100  0.98880100  1
  Sb  Sb31  1  0.33179400  0.14074200  0.98596200  1
  O  O32  1  0.02801600  0.17383600  0.01212000  1
  O  O33  1  0.52801600  0.82616400  0.48788000  1
  O  O34  1  0.97198400  0.82616400  0.98788000  1
  O  O35  1  0.47198400  0.17383600  0.51212000  1
  O  O36  1  0.80233800  0.93406300  0.95148800  1
  O  O37  1  0.30233800  0.06593700  0.54851200  1
  O  O38  1  0.19766200  0.06593700  0.04851200  1
  O  O39  1  0.69766200  0.93406300  0.45148800  1
  O  O40  1  0.88058400  0.00272000  0.16035900  1
  O  O41  1  0.38058400  0.99728000  0.33964100  1
  O  O42  1  0.11941600  0.99728000  0.83964100  1
  O  O43  1  0.61941600  0.00272000  0.66035900  1
  O  O44  1  0.28301900  0.41296400  0.92779500  1
  O  O45  1  0.78301900  0.58703600  0.57220500  1
  O  O46  1  0.71698100  0.58703600  0.07220500  1
  O  O47  1  0.21698100  0.41296400  0.42779500  1
  O  O48  1  0.36606000  0.02061900  0.13396400  1
  O  O49  1  0.86606000  0.97938100  0.36603600  1
  O  O50  1  0.63394000  0.97938100  0.86603600  1
  O  O51  1  0.13394000  0.02061900  0.63396400  1
  O  O52  1  0.31434400  0.96275000  0.89249400  1
  O  O53  1  0.46994200  0.66275600  0.82534400  1
  O  O54  1  0.81434400  0.03725000  0.60750600  1
  O  O55  1  0.18565600  0.96275000  0.39249400  1
  O  O56  1  0.47599300  0.23474400  0.73583600  1
  O  O57  1  0.97599300  0.76525600  0.76416400  1
  O  O58  1  0.52400700  0.76525600  0.26416400  1
  O  O59  1  0.02400700  0.23474400  0.23583600  1
  O  O60  1  0.46287000  0.22445100  0.95566800  1
  O  O61  1  0.96287000  0.77554900  0.54433200  1
  O  O62  1  0.53713000  0.77554900  0.04433200  1
  O  O63  1  0.03713000  0.22445100  0.45566800  1
  O  O64  1  0.87252800  0.50154400  0.22983300  1
  O  O65  1  0.37252800  0.49845600  0.27016700  1
  O  O66  1  0.12747200  0.49845600  0.77016700  1
  O  O67  1  0.62747200  0.50154400  0.72983300  1
  O  O68  1  0.70708500  0.24163400  0.25225100  1
  O  O69  1  0.20708500  0.75836600  0.24774900  1
  O  O70  1  0.29291500  0.75836600  0.74774900  1
  O  O71  1  0.79291500  0.24163400  0.75225100  1
  O  O72  1  0.65039700  0.36430300  0.43780100  1
  O  O73  1  0.15039700  0.63569700  0.06219900  1
  O  O74  1  0.34960300  0.63569700  0.56219900  1
  O  O75  1  0.84960300  0.36430300  0.93780100  1
  O  O76  1  0.71287000  0.70166700  0.30102800  1
  O  O77  1  0.21287000  0.29833300  0.19897200  1
  O  O78  1  0.28713000  0.29833300  0.69897200  1
  O  O79  1  0.78713000  0.70166700  0.80102800  1
  O  O80  1  0.86251000  0.36600800  0.43209100  1
  O  O81  1  0.36251000  0.63399200  0.06790900  1
  O  O82  1  0.13749000  0.63399200  0.56790900  1
  O  O83  1  0.63749000  0.36600800  0.93209100  1
  O  O84  1  0.03005800  0.66275600  0.32534400  1
  O  O85  1  0.53005800  0.33724400  0.17465600  1
  O  O86  1  0.96994200  0.33724400  0.67465600  1
  O  O87  1  0.68565600  0.03725000  0.10750600  1
