# generated using pymatgen
data_ZnCr2O4
_symmetry_space_group_name_H-M   'P 1'
_cell_length_a   5.98626455
_cell_length_b   5.98626455
_cell_length_c   5.98626455
_cell_angle_alpha   119.42436071
_cell_angle_beta   117.13581448
_cell_angle_gamma   93.01656088
_symmetry_Int_Tables_number   1
_chemical_formula_structural   ZnCr2O4
_chemical_formula_sum   'Zn2 Cr4 O8'
_cell_volume   155.32619385
_cell_formula_units_Z   2
loop_
 _symmetry_equiv_pos_site_id
 _symmetry_equiv_pos_as_xyz
  1  'x, y, z'
loop_
 _atom_site_type_symbol
 _atom_site_label
 _atom_site_symmetry_multiplicity
 _atom_site_fract_x
 _atom_site_fract_y
 _atom_site_fract_z
 _atom_site_occupancy
  Zn  Zn0  1  0.00000000  0.50000000  0.50000000  1
  Zn  Zn1  1  0.50000000  0.50000000  0.00000000  1
  Cr  Cr2  1  0.12410200  0.87410200  0.25000000  1
  Cr  Cr3  1  0.87589800  0.12589800  0.75000000  1
  Cr  Cr4  1  0.50000000  0.00000000  0.00000000  1
  Cr  Cr5  1  0.50000000  0.50000000  0.50000000  1
  O  O6  1  0.74623000  0.25898000  0.01275000  1
  O  O7  1  0.71154500  0.24195800  0.46958700  1
  O  O8  1  0.74623000  0.73348000  0.48725000  1
  O  O9  1  0.27237100  0.24195800  0.03041300  1
  O  O10  1  0.72762900  0.75804200  0.96958700  1
  O  O11  1  0.28845500  0.75804200  0.53041300  1
  O  O12  1  0.25377000  0.26652000  0.51275000  1
  O  O13  1  0.25377000  0.74102000  0.98725000  1
