# generated using pymatgen
data_Mg(Fe2O3)2
_symmetry_space_group_name_H-M   'P 1'
_cell_length_a   5.27662472
_cell_length_b   5.27662472
_cell_length_c   15.34268800
_cell_angle_alpha   90.00000000
_cell_angle_beta   90.00000000
_cell_angle_gamma   147.31149618
_symmetry_Int_Tables_number   1
_chemical_formula_structural   Mg(Fe2O3)2
_chemical_formula_sum   'Mg2 Fe8 O12'
_cell_volume   230.70929874
_cell_formula_units_Z   2
loop_
 _symmetry_equiv_pos_site_id
 _symmetry_equiv_pos_as_xyz
  1  'x, y, z'
loop_
 _atom_site_type_symbol
 _atom_site_label
 _atom_site_symmetry_multiplicity
 _atom_site_fract_x
 _atom_site_fract_y
 _atom_site_fract_z
 _atom_site_occupancy
  Mg  Mg0  1  0.34821000  0.65179000  0.75000000  1
  Mg  Mg1  1  0.65179000  0.34821000  0.25000000  1
  Fe  Fe2  1  0.13455000  0.86545000  0.04634600  1
  Fe  Fe3  1  0.60034300  0.39965700  0.63768600  1
  Fe  Fe4  1  0.86545000  0.13455000  0.95365400  1
  Fe  Fe5  1  0.39965700  0.60034300  0.36231400  1
  Fe  Fe6  1  0.13455000  0.86545000  0.45365400  1
  Fe  Fe7  1  0.86545000  0.13455000  0.54634600  1
  Fe  Fe8  1  0.39965700  0.60034300  0.13768600  1
  Fe  Fe9  1  0.60034300  0.39965700  0.86231400  1
  O  O10  1  0.50000000  0.50000000  0.50000000  1
  O  O11  1  0.50000000  0.50000000  0.00000000  1
  O  O12  1  0.96361200  0.03638800  0.83562600  1
  O  O13  1  0.03638800  0.96361200  0.16437400  1
  O  O14  1  0.03638800  0.96361200  0.33562600  1
  O  O15  1  0.96361200  0.03638800  0.66437400  1
  O  O16  1  0.21335900  0.78664100  0.91597000  1
  O  O17  1  0.78664100  0.21335900  0.08403000  1
  O  O18  1  0.78664100  0.21335900  0.41597000  1
  O  O19  1  0.21335900  0.78664100  0.58403000  1
  O  O20  1  0.70183800  0.29816200  0.75000000  1
  O  O21  1  0.29816200  0.70183800  0.25000000  1
