# generated using pymatgen
data_Fe(Si2O5)2
_symmetry_space_group_name_H-M   'P 1'
_cell_length_a   7.35647300
_cell_length_b   7.35647300
_cell_length_c   15.67873300
_cell_angle_alpha   90.00000000
_cell_angle_beta   90.00000000
_cell_angle_gamma   90.00000000
_symmetry_Int_Tables_number   1
_chemical_formula_structural   Fe(Si2O5)2
_chemical_formula_sum   'Fe4 Si16 O40'
_cell_volume   848.49689048
_cell_formula_units_Z   4
loop_
 _symmetry_equiv_pos_site_id
 _symmetry_equiv_pos_as_xyz
  1  'x, y, z'
loop_
 _atom_site_type_symbol
 _atom_site_label
 _atom_site_symmetry_multiplicity
 _atom_site_fract_x
 _atom_site_fract_y
 _atom_site_fract_z
 _atom_site_occupancy
  Fe  Fe0  1  0.50000000  0.00000000  0.58801800  1
  Fe  Fe1  1  0.00000000  0.50000000  0.91198200  1
  Fe  Fe2  1  0.00000000  0.50000000  0.41198200  1
  Fe  Fe3  1  0.50000000  0.00000000  0.08801800  1
  Si  Si4  1  0.17717200  0.25618100  0.64951400  1
  Si  Si5  1  0.82282800  0.74381900  0.64951400  1
  Si  Si6  1  0.25618100  0.17717200  0.85048600  1
  Si  Si7  1  0.75618100  0.32282800  0.64951400  1
  Si  Si8  1  0.24381900  0.67717200  0.64951400  1
  Si  Si9  1  0.32282800  0.75618100  0.85048600  1
  Si  Si10  1  0.67717200  0.24381900  0.85048600  1
  Si  Si11  1  0.74381900  0.82282800  0.85048600  1
  Si  Si12  1  0.32282800  0.24381900  0.35048600  1
  Si  Si13  1  0.67717200  0.75618100  0.35048600  1
  Si  Si14  1  0.24381900  0.32282800  0.14951400  1
  Si  Si15  1  0.74381900  0.17717200  0.35048600  1
  Si  Si16  1  0.25618100  0.82282800  0.35048600  1
  Si  Si17  1  0.17717200  0.74381900  0.14951400  1
  Si  Si18  1  0.82282800  0.25618100  0.14951400  1
  Si  Si19  1  0.75618100  0.67717200  0.14951400  1
  O  O20  1  0.27423200  0.10108400  0.59087000  1
  O  O21  1  0.72576800  0.89891600  0.59087000  1
  O  O22  1  0.10108400  0.27423200  0.90913000  1
  O  O23  1  0.60108400  0.22576800  0.59087000  1
  O  O24  1  0.39891600  0.77423200  0.59087000  1
  O  O25  1  0.22576800  0.60108400  0.90913000  1
  O  O26  1  0.77423200  0.39891600  0.90913000  1
  O  O27  1  0.89891600  0.72576800  0.90913000  1
  O  O28  1  0.22576800  0.39891600  0.40913000  1
  O  O29  1  0.77423200  0.60108400  0.40913000  1
  O  O30  1  0.39891600  0.22576800  0.09087000  1
  O  O31  1  0.89891600  0.27423200  0.40913000  1
  O  O32  1  0.10108400  0.72576800  0.40913000  1
  O  O33  1  0.27423200  0.89891600  0.09087000  1
  O  O34  1  0.72576800  0.10108400  0.09087000  1
  O  O35  1  0.24838900  0.03972200  0.37105100  1
  O  O36  1  0.60108400  0.77423200  0.09087000  1
  O  O37  1  0.74838900  0.53972200  0.62894900  1
  O  O38  1  0.46027800  0.25161100  0.87105100  1
  O  O39  1  0.96027800  0.24838900  0.62894900  1
  O  O40  1  0.03972200  0.75161100  0.62894900  1
  O  O41  1  0.24838900  0.96027800  0.87105100  1
  O  O42  1  0.75161100  0.03972200  0.87105100  1
  O  O43  1  0.53972200  0.74838900  0.87105100  1
  O  O44  1  0.71020200  0.71020200  0.25000000  1
  O  O45  1  0.78979800  0.21020200  0.25000000  1
  O  O46  1  0.21020200  0.78979800  0.25000000  1
  O  O47  1  0.28979800  0.28979800  0.25000000  1
  O  O48  1  0.78979800  0.78979800  0.75000000  1
  O  O49  1  0.71020200  0.28979800  0.75000000  1
  O  O50  1  0.28979800  0.71020200  0.75000000  1
  O  O51  1  0.21020200  0.21020200  0.75000000  1
  O  O52  1  0.96027800  0.75161100  0.12894900  1
  O  O53  1  0.74838900  0.46027800  0.12894900  1
  O  O54  1  0.25161100  0.53972200  0.12894900  1
  O  O55  1  0.46027800  0.74838900  0.37105100  1
  O  O56  1  0.53972200  0.25161100  0.37105100  1
  O  O57  1  0.03972200  0.24838900  0.12894900  1
  O  O58  1  0.75161100  0.96027800  0.37105100  1
  O  O59  1  0.25161100  0.46027800  0.62894900  1
