# generated using pymatgen
data_MgTi(Si2O5)2
_symmetry_space_group_name_H-M   'P 1'
_cell_length_a   7.33754600
_cell_length_b   7.33754600
_cell_length_c   15.02054500
_cell_angle_alpha   90.00000000
_cell_angle_beta   90.00000000
_cell_angle_gamma   90.00000000
_symmetry_Int_Tables_number   1
_chemical_formula_structural   MgTi(Si2O5)2
_chemical_formula_sum   'Mg4 Ti4 Si16 O40'
_cell_volume   808.69985373
_cell_formula_units_Z   4
loop_
 _symmetry_equiv_pos_site_id
 _symmetry_equiv_pos_as_xyz
  1  'x, y, z'
loop_
 _atom_site_type_symbol
 _atom_site_label
 _atom_site_symmetry_multiplicity
 _atom_site_fract_x
 _atom_site_fract_y
 _atom_site_fract_z
 _atom_site_occupancy
  Mg  Mg0  1  0.50000000  0.50000000  0.50000000  1
  Mg  Mg1  1  0.00000000  0.00000000  0.50000000  1
  Mg  Mg2  1  0.00000000  0.00000000  0.00000000  1
  Mg  Mg3  1  0.50000000  0.50000000  0.00000000  1
  Ti  Ti4  1  0.50000000  0.00000000  0.57029500  1
  Ti  Ti5  1  0.00000000  0.50000000  0.92970500  1
  Ti  Ti6  1  0.00000000  0.50000000  0.42970500  1
  Ti  Ti7  1  0.50000000  0.00000000  0.07029500  1
  Si  Si8  1  0.15931900  0.24033800  0.64595700  1
  Si  Si9  1  0.84068100  0.75966200  0.64595700  1
  Si  Si10  1  0.24033800  0.15931900  0.85404300  1
  Si  Si11  1  0.74033800  0.34068100  0.64595700  1
  Si  Si12  1  0.25966200  0.65931900  0.64595700  1
  Si  Si13  1  0.34068100  0.74033800  0.85404300  1
  Si  Si14  1  0.65931900  0.25966200  0.85404300  1
  Si  Si15  1  0.75966200  0.84068100  0.85404300  1
  Si  Si16  1  0.34068100  0.25966200  0.35404300  1
  Si  Si17  1  0.65931900  0.74033800  0.35404300  1
  Si  Si18  1  0.25966200  0.34068100  0.14595700  1
  Si  Si19  1  0.75966200  0.15931900  0.35404300  1
  Si  Si20  1  0.24033800  0.84068100  0.35404300  1
  Si  Si21  1  0.15931900  0.75966200  0.14595700  1
  Si  Si22  1  0.84068100  0.24033800  0.14595700  1
  Si  Si23  1  0.74033800  0.65931900  0.14595700  1
  O  O24  1  0.22959900  0.08820900  0.57534400  1
  O  O25  1  0.77040100  0.91179100  0.57534400  1
  O  O26  1  0.08820900  0.22959900  0.92465600  1
  O  O27  1  0.58820900  0.27040100  0.57534400  1
  O  O28  1  0.41179100  0.72959900  0.57534400  1
  O  O29  1  0.27040100  0.58820900  0.92465600  1
  O  O30  1  0.72959900  0.41179100  0.92465600  1
  O  O31  1  0.91179100  0.77040100  0.92465600  1
  O  O32  1  0.27040100  0.41179100  0.42465600  1
  O  O33  1  0.72959900  0.58820900  0.42465600  1
  O  O34  1  0.41179100  0.27040100  0.07534400  1
  O  O35  1  0.91179100  0.22959900  0.42465600  1
  O  O36  1  0.08820900  0.77040100  0.42465600  1
  O  O37  1  0.22959900  0.91179100  0.07534400  1
  O  O38  1  0.77040100  0.08820900  0.07534400  1
  O  O39  1  0.25020400  0.06049700  0.37364200  1
  O  O40  1  0.58820900  0.72959900  0.07534400  1
  O  O41  1  0.75020400  0.56049700  0.62635800  1
  O  O42  1  0.43950300  0.24979600  0.87364200  1
  O  O43  1  0.93950300  0.25020400  0.62635800  1
  O  O44  1  0.06049700  0.74979600  0.62635800  1
  O  O45  1  0.25020400  0.93950300  0.87364200  1
  O  O46  1  0.74979600  0.06049700  0.87364200  1
  O  O47  1  0.56049700  0.75020400  0.87364200  1
  O  O48  1  0.69045400  0.69045400  0.25000000  1
  O  O49  1  0.80954600  0.19045400  0.25000000  1
  O  O50  1  0.19045400  0.80954600  0.25000000  1
  O  O51  1  0.30954600  0.30954600  0.25000000  1
  O  O52  1  0.80954600  0.80954600  0.75000000  1
  O  O53  1  0.69045400  0.30954600  0.75000000  1
  O  O54  1  0.30954600  0.69045400  0.75000000  1
  O  O55  1  0.19045400  0.19045400  0.75000000  1
  O  O56  1  0.93950300  0.74979600  0.12635800  1
  O  O57  1  0.75020400  0.43950300  0.12635800  1
  O  O58  1  0.24979600  0.56049700  0.12635800  1
  O  O59  1  0.43950300  0.75020400  0.37364200  1
  O  O60  1  0.56049700  0.24979600  0.37364200  1
  O  O61  1  0.06049700  0.25020400  0.12635800  1
  O  O62  1  0.74979600  0.93950300  0.37364200  1
  O  O63  1  0.24979600  0.43950300  0.62635800  1
