# generated using pymatgen
data_CaFe2CoO7
_symmetry_space_group_name_H-M   'P 1'
_cell_length_a   7.27592384
_cell_length_b   10.68434375
_cell_length_c   14.03030600
_cell_angle_alpha   90.00000000
_cell_angle_beta   90.00000000
_cell_angle_gamma   107.82550180
_symmetry_Int_Tables_number   1
_chemical_formula_structural   CaFe2CoO7
_chemical_formula_sum   'Ca8 Fe16 Co8 O56'
_cell_volume   1038.33382769
_cell_formula_units_Z   8
loop_
 _symmetry_equiv_pos_site_id
 _symmetry_equiv_pos_as_xyz
  1  'x, y, z'
loop_
 _atom_site_type_symbol
 _atom_site_label
 _atom_site_symmetry_multiplicity
 _atom_site_fract_x
 _atom_site_fract_y
 _atom_site_fract_z
 _atom_site_occupancy
  Ca  Ca0  1  0.08041700  0.76891300  0.50387700  1
  Ca  Ca1  1  0.32176300  0.96177900  0.87623500  1
  Ca  Ca2  1  0.67823700  0.53822100  0.37623500  1
  Ca  Ca3  1  0.67823700  0.03822100  0.12376500  1
  Ca  Ca4  1  0.32176300  0.46177900  0.62376500  1
  Ca  Ca5  1  0.08041700  0.26891300  0.99612300  1
  Ca  Ca6  1  0.91958300  0.23108700  0.49612300  1
  Ca  Ca7  1  0.91958300  0.73108700  0.00387700  1
  Fe  Fe8  1  0.82547800  0.96774500  0.86637500  1
  Fe  Fe9  1  0.41123500  0.68061100  0.01270300  1
  Fe  Fe10  1  0.41123500  0.18061100  0.48729700  1
  Fe  Fe11  1  0.58876500  0.31938900  0.98729700  1
  Fe  Fe12  1  0.47149800  0.77261400  0.71527200  1
  Fe  Fe13  1  0.52850200  0.72738600  0.21527200  1
  Fe  Fe14  1  0.52850200  0.22738600  0.28472800  1
  Fe  Fe15  1  0.47149800  0.27261400  0.78472800  1
  Fe  Fe16  1  0.58876500  0.81938900  0.51270300  1
  Fe  Fe17  1  0.85871000  0.43344400  0.15759600  1
  Fe  Fe18  1  0.14129000  0.06655600  0.65759600  1
  Fe  Fe19  1  0.14129000  0.56655600  0.84240400  1
  Fe  Fe20  1  0.17452200  0.53225500  0.36637500  1
  Fe  Fe21  1  0.82547800  0.46774500  0.63362500  1
  Fe  Fe22  1  0.17452200  0.03225500  0.13362500  1
  Fe  Fe23  1  0.85871000  0.93344400  0.34240400  1
  Co  Co24  1  0.62020600  0.07407800  0.68164300  1
  Co  Co25  1  0.37979400  0.42592200  0.18164300  1
  Co  Co26  1  0.37979400  0.92592200  0.31835700  1
  Co  Co27  1  0.62020600  0.57407800  0.81835700  1
  Co  Co28  1  0.97641500  0.25131700  0.75497100  1
  Co  Co29  1  0.02358500  0.24868300  0.25497100  1
  Co  Co30  1  0.02358500  0.74868300  0.24502900  1
  Co  Co31  1  0.97641500  0.75131700  0.74502900  1
  O  O32  1  0.78948200  0.94220100  0.99282400  1
  O  O33  1  0.21051800  0.55779900  0.49282400  1
  O  O34  1  0.21051800  0.05779900  0.00717600  1
  O  O35  1  0.78948200  0.44220100  0.50717600  1
  O  O36  1  0.99267100  0.86814100  0.84848700  1
  O  O37  1  0.00732900  0.63185900  0.34848700  1
  O  O38  1  0.00732900  0.13185900  0.15151300  1
  O  O39  1  0.99267100  0.36814100  0.65151300  1
  O  O40  1  0.98672700  0.13862200  0.85469600  1
  O  O41  1  0.01327300  0.36137800  0.35469600  1
  O  O42  1  0.01327300  0.86137800  0.14530400  1
  O  O43  1  0.98672700  0.63862200  0.64530400  1
  O  O44  1  0.62179200  0.91888200  0.27285700  1
  O  O45  1  0.37820800  0.58111800  0.77285700  1
  O  O46  1  0.37820800  0.08111800  0.72714300  1
  O  O47  1  0.62179200  0.41888200  0.22714300  1
  O  O48  1  0.96629600  0.12308300  0.34265700  1
  O  O49  1  0.03370400  0.37691700  0.84265700  1
  O  O50  1  0.03370400  0.87691700  0.65734300  1
  O  O51  1  0.96629600  0.62308300  0.15734300  1
  O  O52  1  0.10235300  0.89209500  0.33832600  1
  O  O53  1  0.38605000  0.82919700  0.42346400  1
  O  O54  1  0.89764700  0.60790500  0.83832600  1
  O  O55  1  0.10235300  0.39209500  0.16167400  1
  O  O56  1  0.72297100  0.70732200  0.48384600  1
  O  O57  1  0.27702900  0.79267800  0.98384600  1
  O  O58  1  0.27702900  0.29267800  0.51615400  1
  O  O59  1  0.72297100  0.20732200  0.01615400  1
  O  O60  1  0.79234700  0.95420400  0.47077300  1
  O  O61  1  0.20765200  0.54579600  0.97077300  1
  O  O62  1  0.20765200  0.04579600  0.52922700  1
  O  O63  1  0.79234700  0.45420400  0.02922700  1
  O  O64  1  0.41707300  0.18721500  0.90969100  1
  O  O65  1  0.58292700  0.31278500  0.40969100  1
  O  O66  1  0.58292700  0.81278500  0.09030900  1
  O  O67  1  0.41707300  0.68721500  0.59030900  1
  O  O68  1  0.71117700  0.21547000  0.76362200  1
  O  O69  1  0.28882300  0.28453000  0.26362200  1
  O  O70  1  0.28882300  0.78453000  0.23637800  1
  O  O71  1  0.71117700  0.71547000  0.73637800  1
  O  O72  1  0.60160000  0.44340900  0.70957300  1
  O  O73  1  0.39840000  0.05659100  0.20957300  1
  O  O74  1  0.39840000  0.55659100  0.29042700  1
  O  O75  1  0.60160000  0.94340900  0.79042700  1
  O  O76  1  0.22322300  0.25671000  0.71879600  1
  O  O77  1  0.77677700  0.24329000  0.21879600  1
  O  O78  1  0.77677700  0.74329000  0.28120400  1
  O  O79  1  0.22322300  0.75671000  0.78120400  1
  O  O80  1  0.52604500  0.41516500  0.88024900  1
  O  O81  1  0.47395500  0.08483500  0.38024900  1
  O  O82  1  0.47395500  0.58483500  0.11975100  1
  O  O83  1  0.52604500  0.91516500  0.61975100  1
  O  O84  1  0.38605000  0.32919700  0.07653600  1
  O  O85  1  0.61395000  0.17080300  0.57653600  1
  O  O86  1  0.61395000  0.67080300  0.92346400  1
  O  O87  1  0.89764700  0.10790500  0.66167400  1
