# generated using pymatgen
data_Co(GeO3)2
_symmetry_space_group_name_H-M   'P 1'
_cell_length_a   6.67167504
_cell_length_b   6.67167504
_cell_length_c   5.55286459
_cell_angle_alpha   77.01375399
_cell_angle_beta   77.01375399
_cell_angle_gamma   83.37240365
_symmetry_Int_Tables_number   1
_chemical_formula_structural   Co(GeO3)2
_chemical_formula_sum   'Co2 Ge4 O12'
_cell_volume   234.13448961
_cell_formula_units_Z   2
loop_
 _symmetry_equiv_pos_site_id
 _symmetry_equiv_pos_as_xyz
  1  'x, y, z'
loop_
 _atom_site_type_symbol
 _atom_site_label
 _atom_site_symmetry_multiplicity
 _atom_site_fract_x
 _atom_site_fract_y
 _atom_site_fract_z
 _atom_site_occupancy
  Co  Co0  1  0.10359500  0.89640500  0.75000000  1
  Co  Co1  1  0.89640500  0.10359500  0.25000000  1
  Ge  Ge2  1  0.20331700  0.37932100  0.77184400  1
  Ge  Ge3  1  0.62067900  0.79668300  0.72815600  1
  Ge  Ge4  1  0.79668300  0.62067900  0.22815600  1
  Ge  Ge5  1  0.37932000  0.20331700  0.27184400  1
  O  O6  1  0.38792200  0.34188300  0.50312200  1
  O  O7  1  0.65811700  0.61207800  0.99687800  1
  O  O8  1  0.61207800  0.65811700  0.49687800  1
  O  O9  1  0.34188300  0.38792200  0.00312200  1
  O  O10  1  0.63460900  0.08610600  0.20511300  1
  O  O11  1  0.91389400  0.36539100  0.29488700  1
  O  O12  1  0.36539100  0.91389400  0.79488700  1
  O  O13  1  0.08610600  0.63460900  0.70511300  1
  O  O14  1  0.02871300  0.18007800  0.87830900  1
  O  O15  1  0.81992200  0.97128700  0.62169100  1
  O  O16  1  0.97128700  0.81992200  0.12169100  1
  O  O17  1  0.18007800  0.02871300  0.37830900  1
