# generated using pymatgen
data_SbPO4
_symmetry_space_group_name_H-M   'P 1'
_cell_length_a   9.65348732
_cell_length_b   9.65348732
_cell_length_c   18.14519416
_cell_angle_alpha   62.03242708
_cell_angle_beta   62.03242708
_cell_angle_gamma   32.33351285
_symmetry_Int_Tables_number   1
_chemical_formula_structural   SbPO4
_chemical_formula_sum   'Sb8 P8 O32'
_cell_volume   789.25566689
_cell_formula_units_Z   8
loop_
 _symmetry_equiv_pos_site_id
 _symmetry_equiv_pos_as_xyz
  1  'x, y, z'
loop_
 _atom_site_type_symbol
 _atom_site_label
 _atom_site_symmetry_multiplicity
 _atom_site_fract_x
 _atom_site_fract_y
 _atom_site_fract_z
 _atom_site_occupancy
  Sb  Sb0  1  0.36626100  0.84831000  0.99777100  1
  Sb  Sb1  1  0.15169000  0.63373900  0.50222900  1
  Sb  Sb2  1  0.63373900  0.15169000  0.00222900  1
  Sb  Sb3  1  0.00000000  0.50000000  0.00000000  1
  Sb  Sb4  1  0.84831000  0.36626100  0.49777100  1
  Sb  Sb5  1  0.72485800  0.27514200  0.75000000  1
  Sb  Sb6  1  0.27514200  0.72485800  0.25000000  1
  Sb  Sb7  1  0.50000000  0.00000000  0.50000000  1
  P  P8  1  0.47514100  0.93112700  0.13874800  1
  P  P9  1  0.71861800  0.29252800  0.38617600  1
  P  P10  1  0.52485900  0.06887300  0.86125200  1
  P  P11  1  0.29252800  0.71861800  0.88617600  1
  P  P12  1  0.93112700  0.47514100  0.63874800  1
  P  P13  1  0.06887300  0.52485900  0.36125200  1
  P  P14  1  0.28138200  0.70747200  0.61382400  1
  P  P15  1  0.70747200  0.28138200  0.11382400  1
  O  O16  1  0.22505900  0.27604700  0.89987000  1
  O  O17  1  0.54803400  0.32336700  0.08205300  1
  O  O18  1  0.27604700  0.22505900  0.39987000  1
  O  O19  1  0.53986800  0.28809100  0.45645300  1
  O  O20  1  0.65095700  0.80673100  0.93076200  1
  O  O21  1  0.60400500  0.45289100  0.30265200  1
  O  O22  1  0.71190900  0.46013200  0.04354700  1
  O  O23  1  0.01127000  0.99841400  0.87876600  1
  O  O24  1  0.46013200  0.71190900  0.54354700  1
  O  O25  1  0.67663300  0.45196600  0.41794700  1
  O  O26  1  0.61964500  0.12596300  0.87760000  1
  O  O27  1  0.96205100  0.39790900  0.72748500  1
  O  O28  1  0.45196600  0.67663300  0.91794700  1
  O  O29  1  0.99841400  0.01127000  0.37876600  1
  O  O30  1  0.77494100  0.72395300  0.10013000  1
  O  O31  1  0.38035500  0.87403700  0.12240000  1
  O  O32  1  0.39790900  0.96205100  0.22748500  1
  O  O33  1  0.28809100  0.53986800  0.95645300  1
  O  O34  1  0.12596300  0.61964500  0.37760000  1
  O  O35  1  0.03794900  0.60209100  0.27251500  1
  O  O36  1  0.00158600  0.98873000  0.62123400  1
  O  O37  1  0.80673100  0.65095700  0.43076200  1
  O  O38  1  0.98873000  0.00158600  0.12123400  1
  O  O39  1  0.45289100  0.60400500  0.80265200  1
  O  O40  1  0.32336700  0.54803400  0.58205300  1
  O  O41  1  0.72395300  0.77494100  0.60013000  1
  O  O42  1  0.60209100  0.03794900  0.77251500  1
  O  O43  1  0.19326900  0.34904300  0.56923800  1
  O  O44  1  0.34904300  0.19326900  0.06923800  1
  O  O45  1  0.54710900  0.39599500  0.19734800  1
  O  O46  1  0.39599500  0.54710900  0.69734800  1
  O  O47  1  0.87403700  0.38035500  0.62240000  1
