# generated using pymatgen
data_Ti3ZnO7
_symmetry_space_group_name_H-M   'P 1'
_cell_length_a   5.54077400
_cell_length_b   10.15839100
_cell_length_c   10.44084300
_cell_angle_alpha   90.00000000
_cell_angle_beta   90.00000000
_cell_angle_gamma   90.00000000
_symmetry_Int_Tables_number   1
_chemical_formula_structural   Ti3ZnO7
_chemical_formula_sum   'Ti12 Zn4 O28'
_cell_volume   587.66648934
_cell_formula_units_Z   4
loop_
 _symmetry_equiv_pos_site_id
 _symmetry_equiv_pos_as_xyz
  1  'x, y, z'
loop_
 _atom_site_type_symbol
 _atom_site_label
 _atom_site_symmetry_multiplicity
 _atom_site_fract_x
 _atom_site_fract_y
 _atom_site_fract_z
 _atom_site_occupancy
  Ti  Ti0  1  0.73636800  0.69381800  0.96597400  1
  Ti  Ti1  1  0.23636800  0.80618200  0.03402600  1
  Ti  Ti2  1  0.26363200  0.30618200  0.46597400  1
  Ti  Ti3  1  0.76363200  0.19381800  0.53402600  1
  Ti  Ti4  1  0.72712700  0.77455800  0.25000000  1
  Ti  Ti5  1  0.22712700  0.72544200  0.75000000  1
  Ti  Ti6  1  0.27287300  0.22544200  0.75000000  1
  Ti  Ti7  1  0.77287300  0.27455800  0.25000000  1
  Ti  Ti8  1  0.23636800  0.80618200  0.46597400  1
  Ti  Ti9  1  0.73636800  0.69381800  0.53402600  1
  Ti  Ti10  1  0.76363200  0.19381800  0.96597400  1
  Ti  Ti11  1  0.26363200  0.30618200  0.03402600  1
  Zn  Zn12  1  0.39833600  0.04194300  0.25000000  1
  Zn  Zn13  1  0.89833600  0.45805700  0.75000000  1
  Zn  Zn14  1  0.60166400  0.95805700  0.75000000  1
  Zn  Zn15  1  0.10166400  0.54194300  0.25000000  1
  O  O16  1  0.02747400  0.28879600  0.87843800  1
  O  O17  1  0.52747400  0.21120400  0.12156200  1
  O  O18  1  0.97252600  0.71120400  0.37843800  1
  O  O19  1  0.47252600  0.78879600  0.62156200  1
  O  O20  1  0.97252600  0.71120400  0.12156200  1
  O  O21  1  0.47252600  0.78879600  0.87843800  1
  O  O22  1  0.02747400  0.28879600  0.62156200  1
  O  O23  1  0.52747400  0.21120400  0.37843800  1
  O  O24  1  0.49277500  0.27824400  0.88599300  1
  O  O25  1  0.99277500  0.22175600  0.11400700  1
  O  O26  1  0.50722500  0.72175600  0.38599300  1
  O  O27  1  0.00722500  0.77824400  0.61400700  1
  O  O28  1  0.50722500  0.72175600  0.11400700  1
  O  O29  1  0.00722500  0.77824400  0.88599300  1
  O  O30  1  0.49277500  0.27824400  0.61400700  1
  O  O31  1  0.99277500  0.22175600  0.38599300  1
  O  O32  1  0.79192600  0.44234100  0.25000000  1
  O  O33  1  0.29192600  0.05765900  0.75000000  1
  O  O34  1  0.20807400  0.55765900  0.75000000  1
  O  O35  1  0.70807400  0.94234100  0.25000000  1
  O  O36  1  0.75907300  0.04005800  0.59880600  1
  O  O37  1  0.25907300  0.45994200  0.40119400  1
  O  O38  1  0.24092700  0.95994200  0.09880600  1
  O  O39  1  0.74092700  0.54005800  0.90119400  1
  O  O40  1  0.24092700  0.95994200  0.40119400  1
  O  O41  1  0.74092700  0.54005800  0.59880600  1
  O  O42  1  0.75907300  0.04005800  0.90119400  1
  O  O43  1  0.25907300  0.45994200  0.09880600  1
