# generated using pymatgen
data_MgTiFe(PO4)3
_symmetry_space_group_name_H-M   'P 1'
_cell_length_a   8.50781763
_cell_length_b   8.50781763
_cell_length_c   8.50781773
_cell_angle_alpha   60.88490314
_cell_angle_beta   60.88490314
_cell_angle_gamma   60.88490709
_symmetry_Int_Tables_number   1
_chemical_formula_structural   MgTiFe(PO4)3
_chemical_formula_sum   'Mg2 Ti2 Fe2 P6 O24'
_cell_volume   444.13753994
_cell_formula_units_Z   2
loop_
 _symmetry_equiv_pos_site_id
 _symmetry_equiv_pos_as_xyz
  1  'x, y, z'
loop_
 _atom_site_type_symbol
 _atom_site_label
 _atom_site_symmetry_multiplicity
 _atom_site_fract_x
 _atom_site_fract_y
 _atom_site_fract_z
 _atom_site_occupancy
  Mg  Mg0  1  0.00201900  0.00201900  0.00201900  1
  Mg  Mg1  1  0.50201900  0.50201900  0.50201900  1
  Ti  Ti2  1  0.85553800  0.85553800  0.85553800  1
  Ti  Ti3  1  0.35553800  0.35553800  0.35553800  1
  Fe  Fe4  1  0.64462000  0.64462000  0.64462000  1
  Fe  Fe5  1  0.14462000  0.14462000  0.14462000  1
  P  P6  1  0.95397600  0.54462000  0.24913000  1
  P  P7  1  0.54462000  0.24913000  0.95397600  1
  P  P8  1  0.24913000  0.95397600  0.54462000  1
  P  P9  1  0.74913000  0.04462000  0.45397600  1
  P  P10  1  0.45397600  0.74913000  0.04462000  1
  P  P11  1  0.04462000  0.45397600  0.74913000  1
  O  O12  1  0.88934400  0.49663200  0.68059200  1
  O  O13  1  0.68059200  0.88934400  0.49663200  1
  O  O14  1  0.94611700  0.74170600  0.08799900  1
  O  O15  1  0.49663200  0.68059200  0.88934400  1
  O  O16  1  0.99663200  0.38934400  0.18059200  1
  O  O17  1  0.75878400  0.55995700  0.40847100  1
  O  O18  1  0.74170600  0.08799900  0.94611700  1
  O  O19  1  0.55995700  0.40847100  0.75878400  1
  O  O20  1  0.81431400  0.99620700  0.61997700  1
  O  O21  1  0.40847100  0.75878400  0.55995700  1
  O  O22  1  0.90847100  0.05995700  0.25878400  1
  O  O23  1  0.61997700  0.81431400  0.99620700  1
  O  O24  1  0.38934400  0.18059200  0.99663200  1
  O  O25  1  0.08799900  0.94611700  0.74170600  1
  O  O26  1  0.58799900  0.24170600  0.44611700  1
  O  O27  1  0.18059200  0.99663200  0.38934400  1
  O  O28  1  0.44611700  0.58799900  0.24170600  1
  O  O29  1  0.25878400  0.90847100  0.05995700  1
  O  O30  1  0.24170600  0.44611700  0.58799900  1
  O  O31  1  0.99620700  0.61997700  0.81431400  1
  O  O32  1  0.49620700  0.31431400  0.11997700  1
  O  O33  1  0.05995700  0.25878400  0.90847100  1
  O  O34  1  0.31431400  0.11997700  0.49620700  1
  O  O35  1  0.11997700  0.49620700  0.31431400  1
