# generated using pymatgen
data_Zn2W3O8
_symmetry_space_group_name_H-M   'P 1'
_cell_length_a   6.35385762
_cell_length_b   6.35385762
_cell_length_c   9.36110600
_cell_angle_alpha   90.00000000
_cell_angle_beta   90.00000000
_cell_angle_gamma   119.99999603
_symmetry_Int_Tables_number   1
_chemical_formula_structural   Zn2W3O8
_chemical_formula_sum   'Zn4 W6 O16'
_cell_volume   327.29002508
_cell_formula_units_Z   2
loop_
 _symmetry_equiv_pos_site_id
 _symmetry_equiv_pos_as_xyz
  1  'x, y, z'
loop_
 _atom_site_type_symbol
 _atom_site_label
 _atom_site_symmetry_multiplicity
 _atom_site_fract_x
 _atom_site_fract_y
 _atom_site_fract_z
 _atom_site_occupancy
  Zn  Zn0  1  0.66666700  0.33333300  0.04057200  1
  Zn  Zn1  1  0.33333300  0.66666700  0.54057200  1
  Zn  Zn2  1  0.66666700  0.33333300  0.40173900  1
  Zn  Zn3  1  0.33333300  0.66666700  0.90173900  1
  W  W4  1  0.67052500  0.83526300  0.24511800  1
  W  W5  1  0.83526300  0.16473700  0.74511800  1
  W  W6  1  0.16473700  0.32947500  0.24511800  1
  W  W7  1  0.83526300  0.67052500  0.74511800  1
  W  W8  1  0.32947500  0.16473700  0.74511800  1
  W  W9  1  0.16473700  0.83526300  0.24511800  1
  O  O10  1  0.83309000  0.16691000  0.14175500  1
  O  O11  1  0.66617900  0.83309000  0.64175500  1
  O  O12  1  0.16691000  0.33382100  0.64175500  1
  O  O13  1  0.83309000  0.66617900  0.14175500  1
  O  O14  1  0.33382100  0.16691000  0.14175500  1
  O  O15  1  0.16691000  0.83309000  0.64175500  1
  O  O16  1  0.51347500  0.48652500  0.86855800  1
  O  O17  1  0.02694900  0.51347500  0.36855800  1
  O  O18  1  0.48652500  0.97305100  0.36855800  1
  O  O19  1  0.51347500  0.02694900  0.86855800  1
  O  O20  1  0.00000000  0.00000000  0.35345500  1
  O  O21  1  0.00000000  0.00000000  0.85345500  1
  O  O22  1  0.33333300  0.66666700  0.13144200  1
  O  O23  1  0.97305100  0.48652500  0.86855800  1
  O  O24  1  0.48652500  0.51347500  0.36855800  1
  O  O25  1  0.66666700  0.33333300  0.63144200  1
