# generated using pymatgen
data_MgSb2(PO5)2
_symmetry_space_group_name_H-M   'P 1'
_cell_length_a   10.22053141
_cell_length_b   8.97374491
_cell_length_c   7.40976517
_cell_angle_alpha   76.53175330
_cell_angle_beta   58.63462640
_cell_angle_gamma   44.83362030
_symmetry_Int_Tables_number   1
_chemical_formula_structural   MgSb2(PO5)2
_chemical_formula_sum   'Mg2 Sb4 P4 O20'
_cell_volume   398.52114243
_cell_formula_units_Z   2
loop_
 _symmetry_equiv_pos_site_id
 _symmetry_equiv_pos_as_xyz
  1  'x, y, z'
loop_
 _atom_site_type_symbol
 _atom_site_label
 _atom_site_symmetry_multiplicity
 _atom_site_fract_x
 _atom_site_fract_y
 _atom_site_fract_z
 _atom_site_occupancy
  Mg  Mg0  1  0.53516800  0.96483200  0.96483200  1
  Mg  Mg1  1  0.28516800  0.71483200  0.71483200  1
  Sb  Sb2  1  0.89947100  0.38678700  0.34236200  1
  Sb  Sb3  1  0.37138000  0.34236200  0.38678700  1
  Sb  Sb4  1  0.86321300  0.35052900  0.87862000  1
  Sb  Sb5  1  0.90763800  0.87862000  0.35052900  1
  P  P6  1  0.02763100  0.59829000  0.93898200  1
  P  P7  1  0.65171000  0.22236900  0.81490200  1
  P  P8  1  0.43509800  0.93898200  0.59829000  1
  P  P9  1  0.31101800  0.81490200  0.22236900  1
  O  O10  1  0.60382600  0.71051500  0.45057100  1
  O  O11  1  0.66323700  0.16004900  0.32688600  1
  O  O12  1  0.29642600  0.73466700  0.43072400  1
  O  O13  1  0.79942900  0.01491100  0.64617400  1
  O  O14  1  0.22629000  0.98550600  0.74959800  1
  O  O15  1  0.38604000  0.10132000  0.44311300  1
  O  O16  1  0.08995100  0.58676300  0.40017100  1
  O  O17  1  0.84982900  0.32688600  0.16004900  1
  O  O18  1  0.92311400  0.40017100  0.58676300  1
  O  O19  1  0.26449400  0.02371000  0.21139400  1
  O  O20  1  0.23508900  0.45057100  0.71051500  1
  O  O21  1  0.50040200  0.21139400  0.02371000  1
  O  O22  1  0.03860600  0.74959800  0.98550600  1
  O  O23  1  0.14868000  0.86396000  0.18047300  1
  O  O24  1  0.06952700  0.44311300  0.10132000  1
  O  O25  1  0.80688700  0.18047300  0.86396000  1
  O  O26  1  0.81927600  0.71181700  0.95357400  1
  O  O27  1  0.53818300  0.43072400  0.73466700  1
  O  O28  1  0.53948500  0.64617400  0.01491100  1
  O  O29  1  0.51533300  0.95357400  0.71181700  1
