# generated using pymatgen
data_YTe(WO4)2
_symmetry_space_group_name_H-M   'P 1'
_cell_length_a   5.13829200
_cell_length_b   6.59951937
_cell_length_c   11.00033094
_cell_angle_alpha   104.90630347
_cell_angle_beta   95.13725593
_cell_angle_gamma   90.74865386
_symmetry_Int_Tables_number   1
_chemical_formula_structural   YTe(WO4)2
_chemical_formula_sum   'Y2 Te2 W4 O16'
_cell_volume   358.77034748
_cell_formula_units_Z   2
loop_
 _symmetry_equiv_pos_site_id
 _symmetry_equiv_pos_as_xyz
  1  'x, y, z'
loop_
 _atom_site_type_symbol
 _atom_site_label
 _atom_site_symmetry_multiplicity
 _atom_site_fract_x
 _atom_site_fract_y
 _atom_site_fract_z
 _atom_site_occupancy
  Y  Y0  1  0.78290600  0.72992600  0.72523100  1
  Y  Y1  1  0.21709400  0.27007400  0.27476900  1
  Te  Te2  1  0.28803100  0.35516100  0.75072700  1
  Te  Te3  1  0.71196900  0.64483900  0.24927300  1
  W  W4  1  0.75605800  0.14839100  0.50611400  1
  W  W5  1  0.75211200  0.14999800  0.99798100  1
  W  W6  1  0.24394200  0.85160900  0.49388600  1
  W  W7  1  0.24788800  0.85000200  0.00201900  1
  O  O8  1  0.60728600  0.30546000  0.89944300  1
  O  O9  1  0.93626700  0.39893700  0.63453300  1
  O  O10  1  0.39271400  0.69454000  0.10055700  1
  O  O11  1  0.06373300  0.60106300  0.36546700  1
  O  O12  1  0.55056300  0.87176900  0.39164500  1
  O  O13  1  0.99090900  0.97596600  0.11051200  1
  O  O14  1  0.44943700  0.12823100  0.60835500  1
  O  O15  1  0.00909100  0.02403400  0.88948800  1
  O  O16  1  0.07770700  0.63231300  0.87469800  1
  O  O17  1  0.40862800  0.71256800  0.60109600  1
  O  O18  1  0.92229300  0.36768700  0.12530200  1
  O  O19  1  0.59137200  0.28743200  0.39890400  1
  O  O20  1  0.54352700  0.87204800  0.89943800  1
  O  O21  1  0.45647300  0.12795200  0.10056200  1
  O  O22  1  0.92008500  0.92509300  0.59154100  1
  O  O23  1  0.07991500  0.07490700  0.40845900  1
