# generated using pymatgen
data_MgMnAs2O7
_symmetry_space_group_name_H-M   'P 1'
_cell_length_a   8.78608700
_cell_length_b   7.41144000
_cell_length_c   9.77448213
_cell_angle_alpha   65.51327380
_cell_angle_beta   90.00000000
_cell_angle_gamma   90.00000000
_symmetry_Int_Tables_number   1
_chemical_formula_structural   MgMnAs2O7
_chemical_formula_sum   'Mg4 Mn4 As8 O28'
_cell_volume   579.24274112
_cell_formula_units_Z   4
loop_
 _symmetry_equiv_pos_site_id
 _symmetry_equiv_pos_as_xyz
  1  'x, y, z'
loop_
 _atom_site_type_symbol
 _atom_site_label
 _atom_site_symmetry_multiplicity
 _atom_site_fract_x
 _atom_site_fract_y
 _atom_site_fract_z
 _atom_site_occupancy
  Mg  Mg0  1  0.07693100  0.72458400  0.89571000  1
  Mg  Mg1  1  0.57693100  0.27541600  0.60429000  1
  Mg  Mg2  1  0.92306900  0.27541600  0.10429000  1
  Mg  Mg3  1  0.42306900  0.72458400  0.39571000  1
  Mn  Mn4  1  0.94718800  0.18974800  0.67636700  1
  Mn  Mn5  1  0.44718800  0.81025200  0.82363300  1
  Mn  Mn6  1  0.05281200  0.81025200  0.32363300  1
  Mn  Mn7  1  0.55281200  0.18974800  0.17636700  1
  As  As8  1  0.77815900  0.56409500  0.74914600  1
  As  As9  1  0.27815900  0.43590500  0.75085400  1
  As  As10  1  0.22184100  0.43590500  0.25085400  1
  As  As11  1  0.72184100  0.56409500  0.24914600  1
  As  As12  1  0.72727100  0.98025900  0.95720500  1
  As  As13  1  0.22727100  0.01974100  0.54279500  1
  As  As14  1  0.27272900  0.01974100  0.04279500  1
  As  As15  1  0.77272900  0.98025900  0.45720500  1
  O  O16  1  0.73674700  0.13919500  0.04313200  1
  O  O17  1  0.23674700  0.86080500  0.45686800  1
  O  O18  1  0.26325300  0.86080500  0.95686800  1
  O  O19  1  0.76325300  0.13919500  0.54313200  1
  O  O20  1  0.60789800  0.64286100  0.77790600  1
  O  O21  1  0.10789800  0.35713900  0.72209400  1
  O  O22  1  0.39210200  0.35713900  0.22209400  1
  O  O23  1  0.89210200  0.64286100  0.27790600  1
  O  O24  1  0.90931500  0.52771500  0.88785700  1
  O  O25  1  0.40931500  0.47228500  0.61214300  1
  O  O26  1  0.09068500  0.47228500  0.11214300  1
  O  O27  1  0.59068500  0.52771500  0.38785700  1
  O  O28  1  0.85891300  0.75298500  0.58169400  1
  O  O29  1  0.35891300  0.24701500  0.91830600  1
  O  O30  1  0.14108700  0.24701500  0.41830600  1
  O  O31  1  0.64108700  0.75298500  0.08169400  1
  O  O32  1  0.91095100  0.04032400  0.32236400  1
  O  O33  1  0.41095100  0.95967600  0.17763600  1
  O  O34  1  0.08904900  0.95967600  0.67763600  1
  O  O35  1  0.58904900  0.04032400  0.82236400  1
  O  O36  1  0.73396600  0.37087500  0.19670500  1
  O  O37  1  0.23396600  0.62912500  0.30329500  1
  O  O38  1  0.26603400  0.62912500  0.80329500  1
  O  O39  1  0.76603400  0.37087500  0.69670500  1
  O  O40  1  0.60054900  0.94148900  0.39376200  1
  O  O41  1  0.10054900  0.05851100  0.10623800  1
  O  O42  1  0.39945100  0.05851100  0.60623800  1
  O  O43  1  0.89945100  0.94148900  0.89376200  1
