# generated using pymatgen
data_CaGe2WO6
_symmetry_space_group_name_H-M   'P 1'
_cell_length_a   8.34771405
_cell_length_b   8.34771405
_cell_length_c   5.37490699
_cell_angle_alpha   81.88371339
_cell_angle_beta   81.88371339
_cell_angle_gamma   62.64910271
_symmetry_Int_Tables_number   1
_chemical_formula_structural   CaGe2WO6
_chemical_formula_sum   'Ca2 Ge4 W2 O12'
_cell_volume   328.10096162
_cell_formula_units_Z   2
loop_
 _symmetry_equiv_pos_site_id
 _symmetry_equiv_pos_as_xyz
  1  'x, y, z'
loop_
 _atom_site_type_symbol
 _atom_site_label
 _atom_site_symmetry_multiplicity
 _atom_site_fract_x
 _atom_site_fract_y
 _atom_site_fract_z
 _atom_site_occupancy
  Ca  Ca0  1  0.65278500  0.34721500  0.25000000  1
  Ca  Ca1  1  0.34721500  0.65278500  0.75000000  1
  Ge  Ge2  1  0.57861700  0.78828800  0.21457800  1
  Ge  Ge3  1  0.21171200  0.42138300  0.28542200  1
  Ge  Ge4  1  0.42138300  0.21171200  0.78542200  1
  Ge  Ge5  1  0.78828800  0.57861700  0.71457800  1
  W  W6  1  0.09146600  0.90853400  0.25000000  1
  W  W7  1  0.90853400  0.09146600  0.75000000  1
  O  O8  1  0.63741700  0.58526800  0.47366100  1
  O  O9  1  0.41473200  0.36258300  0.02633900  1
  O  O10  1  0.36258300  0.41473200  0.52633900  1
  O  O11  1  0.58526800  0.63741700  0.97366100  1
  O  O12  1  0.85342600  0.32169800  0.83377400  1
  O  O13  1  0.67830200  0.14657400  0.66622600  1
  O  O14  1  0.14657400  0.67830200  0.16622600  1
  O  O15  1  0.32169800  0.85342600  0.33377400  1
  O  O16  1  0.84780800  0.01943800  0.10198100  1
  O  O17  1  0.98056200  0.15219200  0.39801900  1
  O  O18  1  0.15219200  0.98056200  0.89801900  1
  O  O19  1  0.01943800  0.84780800  0.60198100  1
