# generated using pymatgen
data_CaMnAs2O7
_symmetry_space_group_name_H-M   'P 1'
_cell_length_a   9.23375100
_cell_length_b   7.60946900
_cell_length_c   9.63397116
_cell_angle_alpha   68.32999521
_cell_angle_beta   90.00000000
_cell_angle_gamma   90.00000000
_symmetry_Int_Tables_number   1
_chemical_formula_structural   CaMnAs2O7
_chemical_formula_sum   'Ca4 Mn4 As8 O28'
_cell_volume   629.08009901
_cell_formula_units_Z   4
loop_
 _symmetry_equiv_pos_site_id
 _symmetry_equiv_pos_as_xyz
  1  'x, y, z'
loop_
 _atom_site_type_symbol
 _atom_site_label
 _atom_site_symmetry_multiplicity
 _atom_site_fract_x
 _atom_site_fract_y
 _atom_site_fract_z
 _atom_site_occupancy
  Ca  Ca0  1  0.06681000  0.74084100  0.92959000  1
  Ca  Ca1  1  0.56681000  0.25915900  0.57041000  1
  Ca  Ca2  1  0.93319000  0.25915900  0.07041000  1
  Ca  Ca3  1  0.43319000  0.74084100  0.42959000  1
  Mn  Mn4  1  0.94505500  0.19990700  0.68957200  1
  Mn  Mn5  1  0.44505500  0.80009300  0.81042800  1
  Mn  Mn6  1  0.05494500  0.80009300  0.31042800  1
  Mn  Mn7  1  0.55494500  0.19990700  0.18957200  1
  As  As8  1  0.76445000  0.58015200  0.73313600  1
  As  As9  1  0.26445000  0.41984800  0.76686400  1
  As  As10  1  0.23555000  0.41984800  0.26686400  1
  As  As11  1  0.73555000  0.58015200  0.23313600  1
  As  As12  1  0.70764000  0.98256000  0.95357300  1
  As  As13  1  0.20764000  0.01744000  0.54642700  1
  As  As14  1  0.29236000  0.01744000  0.04642700  1
  As  As15  1  0.79236000  0.98256000  0.45357300  1
  O  O16  1  0.69647300  0.14316800  0.03766400  1
  O  O17  1  0.19647300  0.85683200  0.46233600  1
  O  O18  1  0.30352700  0.85683200  0.96233600  1
  O  O19  1  0.80352700  0.14316800  0.53766400  1
  O  O20  1  0.59078400  0.65513000  0.72618400  1
  O  O21  1  0.09078400  0.34487000  0.77381600  1
  O  O22  1  0.40921600  0.34487000  0.27381600  1
  O  O23  1  0.90921600  0.65513000  0.22618400  1
  O  O24  1  0.86773100  0.56448700  0.88363900  1
  O  O25  1  0.36773100  0.43551300  0.61636100  1
  O  O26  1  0.13226900  0.43551300  0.11636100  1
  O  O27  1  0.63226900  0.56448700  0.38363900  1
  O  O28  1  0.85516000  0.75543300  0.57518800  1
  O  O29  1  0.35516000  0.24456700  0.92481200  1
  O  O30  1  0.14484000  0.24456700  0.42481200  1
  O  O31  1  0.64484000  0.75543300  0.07518800  1
  O  O32  1  0.90811200  0.01660400  0.30897000  1
  O  O33  1  0.40811200  0.98339600  0.19103000  1
  O  O34  1  0.09188800  0.98339600  0.69103000  1
  O  O35  1  0.59188800  0.01660400  0.80897000  1
  O  O36  1  0.73160900  0.37804800  0.19561800  1
  O  O37  1  0.23160900  0.62195200  0.30438200  1
  O  O38  1  0.26839100  0.62195200  0.80438200  1
  O  O39  1  0.76839100  0.37804800  0.69561800  1
  O  O40  1  0.61536200  0.98202000  0.40364000  1
  O  O41  1  0.11536200  0.01798000  0.09636000  1
  O  O42  1  0.38463800  0.01798000  0.59636000  1
  O  O43  1  0.88463800  0.98202000  0.90364000  1
