# generated using pymatgen
data_HoMg(SnO3)2
_symmetry_space_group_name_H-M   'P 1'
_cell_length_a   5.49797700
_cell_length_b   5.75116400
_cell_length_c   8.11175700
_cell_angle_alpha   90.00000000
_cell_angle_beta   90.00000000
_cell_angle_gamma   90.00000000
_symmetry_Int_Tables_number   1
_chemical_formula_structural   HoMg(SnO3)2
_chemical_formula_sum   'Ho2 Mg2 Sn4 O12'
_cell_volume   256.49186951
_cell_formula_units_Z   2
loop_
 _symmetry_equiv_pos_site_id
 _symmetry_equiv_pos_as_xyz
  1  'x, y, z'
loop_
 _atom_site_type_symbol
 _atom_site_label
 _atom_site_symmetry_multiplicity
 _atom_site_fract_x
 _atom_site_fract_y
 _atom_site_fract_z
 _atom_site_occupancy
  Ho  Ho0  1  0.01839400  0.68346400  0.00000000  1
  Ho  Ho1  1  0.51839400  0.31653600  0.50000000  1
  Mg  Mg2  1  0.50134600  0.22452700  0.00000000  1
  Mg  Mg3  1  0.00134600  0.77547300  0.50000000  1
  Sn  Sn4  1  0.00237300  0.23963900  0.74956700  1
  Sn  Sn5  1  0.00237300  0.23963900  0.25043300  1
  Sn  Sn6  1  0.50237300  0.76036100  0.24956700  1
  Sn  Sn7  1  0.50237300  0.76036100  0.75043300  1
  O  O8  1  0.13719100  0.16137300  0.50000000  1
  O  O9  1  0.17317400  0.92806800  0.81780200  1
  O  O10  1  0.17317400  0.92806800  0.18219800  1
  O  O11  1  0.31544400  0.43612800  0.82615000  1
  O  O12  1  0.31544400  0.43612800  0.17385000  1
  O  O13  1  0.35679200  0.68108400  0.50000000  1
  O  O14  1  0.63719100  0.83862700  0.00000000  1
  O  O15  1  0.67317400  0.07193200  0.31780200  1
  O  O16  1  0.67317400  0.07193200  0.68219800  1
  O  O17  1  0.81544400  0.56387200  0.67385000  1
  O  O18  1  0.81544400  0.56387200  0.32615000  1
  O  O19  1  0.85679200  0.31891600  0.00000000  1
