# generated using pymatgen
data_ZnAg2P2O9
_symmetry_space_group_name_H-M   'P 1'
_cell_length_a   6.47710300
_cell_length_b   7.17558000
_cell_length_c   15.79103400
_cell_angle_alpha   90.00000000
_cell_angle_beta   90.00000000
_cell_angle_gamma   90.00000000
_symmetry_Int_Tables_number   1
_chemical_formula_structural   ZnAg2P2O9
_chemical_formula_sum   'Zn4 Ag8 P8 O36'
_cell_volume   733.91942525
_cell_formula_units_Z   4
loop_
 _symmetry_equiv_pos_site_id
 _symmetry_equiv_pos_as_xyz
  1  'x, y, z'
loop_
 _atom_site_type_symbol
 _atom_site_label
 _atom_site_symmetry_multiplicity
 _atom_site_fract_x
 _atom_site_fract_y
 _atom_site_fract_z
 _atom_site_occupancy
  Zn  Zn0  1  0.75000000  0.40759900  0.77526800  1
  Zn  Zn1  1  0.75000000  0.09240100  0.27526800  1
  Zn  Zn2  1  0.25000000  0.90759900  0.72473200  1
  Zn  Zn3  1  0.25000000  0.59240100  0.22473200  1
  Ag  Ag4  1  0.75000000  0.86820800  0.88216700  1
  Ag  Ag5  1  0.25000000  0.13179200  0.11783300  1
  Ag  Ag6  1  0.25000000  0.36820800  0.61783300  1
  Ag  Ag7  1  0.75000000  0.63179200  0.38216700  1
  Ag  Ag8  1  0.50000000  0.50000000  0.00000000  1
  Ag  Ag9  1  0.50000000  0.00000000  0.50000000  1
  Ag  Ag10  1  0.00000000  0.00000000  0.50000000  1
  Ag  Ag11  1  0.00000000  0.50000000  0.00000000  1
  P  P12  1  0.25000000  0.87912100  0.92220500  1
  P  P13  1  0.75000000  0.12087900  0.07779500  1
  P  P14  1  0.75000000  0.37912100  0.57779500  1
  P  P15  1  0.25000000  0.62087900  0.42220500  1
  P  P16  1  0.75000000  0.88268900  0.70703700  1
  P  P17  1  0.75000000  0.61731100  0.20703700  1
  P  P18  1  0.25000000  0.38268900  0.79296300  1
  P  P19  1  0.25000000  0.11731100  0.29296300  1
  O  O20  1  0.04439700  0.11256100  0.34281200  1
  O  O21  1  0.54439700  0.88743900  0.65718800  1
  O  O22  1  0.95560300  0.61256100  0.15718800  1
  O  O23  1  0.45560300  0.38743900  0.84281200  1
  O  O24  1  0.95560300  0.88743900  0.65718800  1
  O  O25  1  0.45560300  0.11256100  0.34281200  1
  O  O26  1  0.04439700  0.38743900  0.84281200  1
  O  O27  1  0.54439700  0.61256100  0.15718800  1
  O  O28  1  0.25000000  0.80491300  0.47621400  1
  O  O29  1  0.75000000  0.19508700  0.52378600  1
  O  O30  1  0.75000000  0.30491300  0.02378600  1
  O  O31  1  0.25000000  0.69508700  0.97621400  1
  O  O32  1  0.75000000  0.61703800  0.94370300  1
  O  O33  1  0.25000000  0.38296200  0.05629700  1
  O  O34  1  0.25000000  0.11703800  0.55629700  1
  O  O35  1  0.75000000  0.88296200  0.44370300  1
  O  O36  1  0.75000000  0.69998500  0.76290000  1
  O  O37  1  0.25000000  0.30001500  0.23710000  1
  O  O38  1  0.25000000  0.19998500  0.73710000  1
  O  O39  1  0.75000000  0.80001500  0.26290000  1
  O  O40  1  0.42749100  0.62563900  0.35507500  1
  O  O41  1  0.92749100  0.37436100  0.64492500  1
  O  O42  1  0.57250900  0.12563900  0.14492500  1
  O  O43  1  0.07250900  0.87436100  0.85507500  1
  O  O44  1  0.57250900  0.37436100  0.64492500  1
  O  O45  1  0.07250900  0.62563900  0.35507500  1
  O  O46  1  0.42749100  0.87436100  0.85507500  1
  O  O47  1  0.92749100  0.12563900  0.14492500  1
  O  O48  1  0.75000000  0.95455600  0.01853400  1
  O  O49  1  0.25000000  0.54968900  0.72714100  1
  O  O50  1  0.25000000  0.95031100  0.22714100  1
  O  O51  1  0.75000000  0.04968900  0.77285900  1
  O  O52  1  0.75000000  0.54544400  0.51853400  1
  O  O53  1  0.25000000  0.45455600  0.48146600  1
  O  O54  1  0.25000000  0.04544400  0.98146600  1
  O  O55  1  0.75000000  0.45031100  0.27285900  1
