# generated using pymatgen
data_BiO2
_symmetry_space_group_name_H-M   'P 1'
_cell_length_a   7.19961431
_cell_length_b   7.19961431
_cell_length_c   15.25134177
_cell_angle_alpha   87.77906003
_cell_angle_beta   87.77906003
_cell_angle_gamma   57.83700483
_symmetry_Int_Tables_number   1
_chemical_formula_structural   BiO2
_chemical_formula_sum   'Bi12 O24'
_cell_volume   668.56937753
_cell_formula_units_Z   12
loop_
 _symmetry_equiv_pos_site_id
 _symmetry_equiv_pos_as_xyz
  1  'x, y, z'
loop_
 _atom_site_type_symbol
 _atom_site_label
 _atom_site_symmetry_multiplicity
 _atom_site_fract_x
 _atom_site_fract_y
 _atom_site_fract_z
 _atom_site_occupancy
  Bi  Bi0  1  0.33877200  0.84199100  0.21179800  1
  Bi  Bi1  1  0.34773000  0.34773000  0.16761900  1
  Bi  Bi2  1  0.00860300  0.49580400  0.47328600  1
  Bi  Bi3  1  0.84199100  0.33877200  0.21179800  1
  Bi  Bi4  1  0.02257700  0.02257700  0.45277400  1
  Bi  Bi5  1  0.82411500  0.82411500  0.64911100  1
  Bi  Bi6  1  0.83872700  0.83872700  0.23477400  1
  Bi  Bi7  1  0.65833500  0.15348100  0.83518000  1
  Bi  Bi8  1  0.49580400  0.00860300  0.47328600  1
  Bi  Bi9  1  0.65878900  0.65878900  0.83069400  1
  Bi  Bi10  1  0.15348100  0.65833500  0.83518000  1
  Bi  Bi11  1  0.15127500  0.15127500  0.96171800  1
  O  O12  1  0.72623500  0.17013400  0.14476100  1
  O  O13  1  0.49605400  0.49605400  0.26174100  1
  O  O14  1  0.67087000  0.67087000  0.15100600  1
  O  O15  1  0.17013400  0.72623500  0.14476100  1
  O  O16  1  0.36500200  0.85866900  0.40652200  1
  O  O17  1  0.46095600  0.03546200  0.25306400  1
  O  O18  1  0.16552900  0.16552900  0.54125100  1
  O  O19  1  0.02335100  0.02335100  0.28836400  1
  O  O20  1  0.14893100  0.14893100  0.12521800  1
  O  O21  1  0.33094200  0.33094200  0.41421600  1
  O  O22  1  0.85866900  0.36500200  0.40652200  1
  O  O23  1  0.03546200  0.46095600  0.25306400  1
  O  O24  1  0.95708100  0.55049600  0.74516300  1
  O  O25  1  0.10135700  0.66136000  0.56046200  1
  O  O26  1  0.69402800  0.69402800  0.55889000  1
  O  O27  1  0.79789300  0.79789300  0.90579500  1
  O  O28  1  0.81563300  0.81563300  0.39548700  1
  O  O29  1  0.95257500  0.95257500  0.73575200  1
  O  O30  1  0.55049600  0.95708100  0.74516300  1
  O  O31  1  0.66136000  0.10135700  0.56046200  1
  O  O32  1  0.83171200  0.33621700  0.89707000  1
  O  O33  1  0.31237000  0.31237000  0.91068700  1
  O  O34  1  0.50668300  0.50668300  0.77108300  1
  O  O35  1  0.33621700  0.83171200  0.89707000  1
