# generated using pymatgen
data_Yb2Se3
_symmetry_space_group_name_H-M   'P 1'
_cell_length_a   15.26020250
_cell_length_b   14.62856191
_cell_length_c   7.02965418
_cell_angle_alpha   81.46126874
_cell_angle_beta   71.43861317
_cell_angle_gamma   27.10011808
_symmetry_Int_Tables_number   1
_chemical_formula_structural   Yb2Se3
_chemical_formula_sum   'Yb8 Se12'
_cell_volume   643.77759003
_cell_formula_units_Z   4
loop_
 _symmetry_equiv_pos_site_id
 _symmetry_equiv_pos_as_xyz
  1  'x, y, z'
loop_
 _atom_site_type_symbol
 _atom_site_label
 _atom_site_symmetry_multiplicity
 _atom_site_fract_x
 _atom_site_fract_y
 _atom_site_fract_z
 _atom_site_occupancy
  Yb  Yb0  1  0.34640500  0.34640500  0.15359500  1
  Yb  Yb1  1  0.15359500  0.15359500  0.34640500  1
  Yb  Yb2  1  0.90359500  0.90359500  0.09640500  1
  Yb  Yb3  1  0.09640500  0.09640500  0.90359500  1
  Yb  Yb4  1  0.99494400  0.99494400  0.50505600  1
  Yb  Yb5  1  0.50505600  0.50505600  0.99494400  1
  Yb  Yb6  1  0.25505600  0.25505600  0.74494400  1
  Yb  Yb7  1  0.74494400  0.74494400  0.25505600  1
  Se  Se8  1  0.09745700  0.40254300  0.40254300  1
  Se  Se9  1  0.40254300  0.09745700  0.09745700  1
  Se  Se10  1  0.15254300  0.84745700  0.84745700  1
  Se  Se11  1  0.84745700  0.15254300  0.15254300  1
  Se  Se12  1  0.65624300  0.19114500  0.84111000  1
  Se  Se13  1  0.84111000  0.31150300  0.65624300  1
  Se  Se14  1  0.31150300  0.84111000  0.19114500  1
  Se  Se15  1  0.19114500  0.65624300  0.31150300  1
  Se  Se16  1  0.59375700  0.05885500  0.40889000  1
  Se  Se17  1  0.40889000  0.93849700  0.59375700  1
  Se  Se18  1  0.93849700  0.40889000  0.05885500  1
  Se  Se19  1  0.05885500  0.59375700  0.93849700  1
