# generated using pymatgen
data_Rb2V(OF2)2
_symmetry_space_group_name_H-M   'P 1'
_cell_length_a   6.11951858
_cell_length_b   6.11951858
_cell_length_c   9.29606200
_cell_angle_alpha   90.00000000
_cell_angle_beta   90.00000000
_cell_angle_gamma   88.47219637
_symmetry_Int_Tables_number   1
_chemical_formula_structural   Rb2V(OF2)2
_chemical_formula_sum   'Rb4 V2 O4 F8'
_cell_volume   347.99989294
_cell_formula_units_Z   2
loop_
 _symmetry_equiv_pos_site_id
 _symmetry_equiv_pos_as_xyz
  1  'x, y, z'
loop_
 _atom_site_type_symbol
 _atom_site_label
 _atom_site_symmetry_multiplicity
 _atom_site_fract_x
 _atom_site_fract_y
 _atom_site_fract_z
 _atom_site_occupancy
  Rb  Rb0  1  0.75224000  0.24776000  0.50000000  1
  Rb  Rb1  1  0.75224000  0.24776000  0.00000000  1
  Rb  Rb2  1  0.24776000  0.75224000  0.50000000  1
  Rb  Rb3  1  0.24776000  0.75224000  0.00000000  1
  V  V4  1  0.25364900  0.25364900  0.25000000  1
  V  V5  1  0.74635100  0.74635100  0.75000000  1
  O  O6  1  0.06247600  0.06247600  0.25000000  1
  O  O7  1  0.93752400  0.93752400  0.75000000  1
  O  O8  1  0.47959000  0.47959000  0.25000000  1
  O  O9  1  0.52041000  0.52041000  0.75000000  1
  F  F10  1  0.26267300  0.26267300  0.45437700  1
  F  F11  1  0.73732700  0.73732700  0.54562300  1
  F  F12  1  0.26267300  0.26267300  0.04562300  1
  F  F13  1  0.73732700  0.73732700  0.95437700  1
  F  F14  1  0.07426700  0.50533800  0.25000000  1
  F  F15  1  0.49466200  0.92573300  0.75000000  1
  F  F16  1  0.92573300  0.49466200  0.75000000  1
  F  F17  1  0.50533800  0.07426700  0.25000000  1
