# generated using pymatgen
data_Te4MoW3Se4
_symmetry_space_group_name_H-M   'P 1'
_cell_length_a   3.43786661
_cell_length_b   3.43786661
_cell_length_c   39.15755000
_cell_angle_alpha   90.00000000
_cell_angle_beta   90.00000000
_cell_angle_gamma   120.00001182
_symmetry_Int_Tables_number   1
_chemical_formula_structural   Te4MoW3Se4
_chemical_formula_sum   'Te4 Mo1 W3 Se4'
_cell_volume   400.79669909
_cell_formula_units_Z   1
loop_
 _symmetry_equiv_pos_site_id
 _symmetry_equiv_pos_as_xyz
  1  'x, y, z'
loop_
 _atom_site_type_symbol
 _atom_site_label
 _atom_site_symmetry_multiplicity
 _atom_site_fract_x
 _atom_site_fract_y
 _atom_site_fract_z
 _atom_site_occupancy
  Te  Te0  1  0.33333300  0.66666700  0.32915000  1
  Te  Te1  1  0.33333300  0.66666700  0.70525900  1
  Te  Te2  1  0.33333300  0.66666700  0.23444600  1
  Te  Te3  1  0.33333300  0.66666700  0.60980200  1
  Mo  Mo4  1  0.66666700  0.33333300  0.28179500  1
  W  W5  1  0.33333300  0.66666700  0.09391300  1
  W  W6  1  0.33333300  0.66666700  0.46966300  1
  W  W7  1  0.66666700  0.33333300  0.65753900  1
  Se  Se8  1  0.66666700  0.33333300  0.05196100  1
  Se  Se9  1  0.66666700  0.33333300  0.42769400  1
  Se  Se10  1  0.66666700  0.33333300  0.13589500  1
  Se  Se11  1  0.66666700  0.33333300  0.51163100  1
