# generated using pymatgen
data_Nb2S4Cl9O5
_symmetry_space_group_name_H-M   'P 1'
_cell_length_a   7.63868200
_cell_length_b   7.58204300
_cell_length_c   10.23031309
_cell_angle_alpha   111.75061744
_cell_angle_beta   111.92149168
_cell_angle_gamma   90.00000000
_symmetry_Int_Tables_number   1
_chemical_formula_structural   Nb2S4Cl9O5
_chemical_formula_sum   'Nb2 S4 Cl9 O5'
_cell_volume   503.90988562
_cell_formula_units_Z   1
loop_
 _symmetry_equiv_pos_site_id
 _symmetry_equiv_pos_as_xyz
  1  'x, y, z'
loop_
 _atom_site_type_symbol
 _atom_site_label
 _atom_site_symmetry_multiplicity
 _atom_site_fract_x
 _atom_site_fract_y
 _atom_site_fract_z
 _atom_site_occupancy
  Nb  Nb0  1  0.11852400  0.11852400  0.23704700  1
  Nb  Nb1  1  0.88147600  0.88147600  0.76295300  1
  S  S2  1  0.82364200  0.13174900  0.00000000  1
  S  S3  1  0.17635800  0.13174900  0.00000000  1
  S  S4  1  0.17635800  0.86825100  0.00000000  1
  S  S5  1  0.82364200  0.86825100  0.00000000  1
  Cl  Cl6  1  0.89354900  0.17508400  0.35016800  1
  Cl  Cl7  1  0.10645100  0.82491600  0.64983200  1
  Cl  Cl8  1  0.45661900  0.17508400  0.35016800  1
  Cl  Cl9  1  0.54338100  0.82491600  0.64983200  1
  Cl  Cl10  1  0.16229600  0.45595900  0.32459200  1
  Cl  Cl11  1  0.83770400  0.13136700  0.67540800  1
  Cl  Cl12  1  0.16229600  0.86863300  0.32459200  1
  Cl  Cl13  1  0.83770400  0.54404100  0.67540800  1
  Cl  Cl14  1  0.50000000  0.50000000  0.00000000  1
  O  O15  1  0.38297300  0.58262500  0.76594500  1
  O  O16  1  0.61702700  0.81667900  0.23405500  1
  O  O17  1  0.38297300  0.18332100  0.76594500  1
  O  O18  1  0.61702700  0.41737500  0.23405500  1
  O  O19  1  0.00000000  0.50000000  0.00000000  1
