# generated using pymatgen
data_Gd2(SO4)3
_symmetry_space_group_name_H-M   'P 1'
_cell_length_a   6.51719836
_cell_length_b   7.08757064
_cell_length_c   6.98216709
_cell_angle_alpha   111.08280627
_cell_angle_beta   90.56267030
_cell_angle_gamma   105.90664453
_symmetry_Int_Tables_number   1
_chemical_formula_structural   Gd2(SO4)3
_chemical_formula_sum   'Gd2 S3 O12'
_cell_volume   287.28309789
_cell_formula_units_Z   1
loop_
 _symmetry_equiv_pos_site_id
 _symmetry_equiv_pos_as_xyz
  1  'x, y, z'
loop_
 _atom_site_type_symbol
 _atom_site_label
 _atom_site_symmetry_multiplicity
 _atom_site_fract_x
 _atom_site_fract_y
 _atom_site_fract_z
 _atom_site_occupancy
  Gd  Gd0  1  0.69478900  0.33811600  0.40420700  1
  Gd  Gd1  1  0.38076400  0.20450900  0.85096500  1
  S  S2  1  0.19621000  0.24258400  0.36552700  1
  S  S3  1  0.90497500  0.38036000  0.92129200  1
  S  S4  1  0.42230900  0.80931500  0.08908200  1
  O  O5  1  0.06269800  0.39570200  0.42566300  1
  O  O6  1  0.36454700  0.31223100  0.56099700  1
  O  O7  1  0.36301900  0.31844700  0.22769400  1
  O  O8  1  0.03006400  0.22117000  0.86560600  1
  O  O9  1  0.73900800  0.31263300  0.72487800  1
  O  O10  1  0.73860700  0.31407500  0.06408100  1
  O  O11  1  0.48607100  0.61301000  0.00116900  1
  O  O12  1  0.35309300  0.88288500  0.93100800  1
  O  O13  1  0.60131000  0.98187800  0.24576000  1
  O  O14  1  0.27804700  0.93299400  0.56007600  1
  O  O15  1  0.77618800  0.77148500  0.64124600  1
  O  O16  1  0.86179900  0.77070600  0.48145000  1
