# generated using pymatgen
data_Bi2O3
_symmetry_space_group_name_H-M   'P 1'
_cell_length_a   7.77275004
_cell_length_b   7.77275004
_cell_length_c   6.01299600
_cell_angle_alpha   90.00000000
_cell_angle_beta   90.00000000
_cell_angle_gamma   120.00000032
_symmetry_Int_Tables_number   1
_chemical_formula_structural   Bi2O3
_chemical_formula_sum   'Bi8 O12'
_cell_volume   314.60885944
_cell_formula_units_Z   4
loop_
 _symmetry_equiv_pos_site_id
 _symmetry_equiv_pos_as_xyz
  1  'x, y, z'
loop_
 _atom_site_type_symbol
 _atom_site_label
 _atom_site_symmetry_multiplicity
 _atom_site_fract_x
 _atom_site_fract_y
 _atom_site_fract_z
 _atom_site_occupancy
  Bi  Bi0  1  0.17513000  0.35025900  0.22880800  1
  Bi  Bi1  1  0.17513000  0.82487000  0.22880800  1
  Bi  Bi2  1  0.64974100  0.82487000  0.22880800  1
  Bi  Bi3  1  0.82487000  0.64974100  0.72880800  1
  Bi  Bi4  1  0.82487000  0.17513000  0.72880800  1
  Bi  Bi5  1  0.35025900  0.17513000  0.72880800  1
  Bi  Bi6  1  0.66666700  0.33333300  0.22316200  1
  Bi  Bi7  1  0.33333300  0.66666700  0.72316200  1
  O  O8  1  0.46160300  0.53839700  0.50313000  1
  O  O9  1  0.07679400  0.53839700  0.50313000  1
  O  O10  1  0.46160300  0.92320600  0.50313000  1
  O  O11  1  0.53839700  0.46160300  0.00313000  1
  O  O12  1  0.92320600  0.46160300  0.00313000  1
  O  O13  1  0.53839700  0.07679400  0.00313000  1
  O  O14  1  0.87144900  0.74289700  0.34001700  1
  O  O15  1  0.87144900  0.12855100  0.34001700  1
  O  O16  1  0.25710300  0.12855100  0.34001700  1
  O  O17  1  0.12855100  0.25710300  0.84001700  1
  O  O18  1  0.12855100  0.87144900  0.84001700  1
  O  O19  1  0.74289700  0.87144900  0.84001700  1
