# generated using pymatgen
data_W2Se3S
_symmetry_space_group_name_H-M   'P 1'
_cell_length_a   3.28615277
_cell_length_b   3.28615277
_cell_length_c   37.44742800
_cell_angle_alpha   90.00000000
_cell_angle_beta   90.00000000
_cell_angle_gamma   120.00001547
_symmetry_Int_Tables_number   1
_chemical_formula_structural   W2Se3S
_chemical_formula_sum   'W4 Se6 S2'
_cell_volume   350.20960817
_cell_formula_units_Z   2
loop_
 _symmetry_equiv_pos_site_id
 _symmetry_equiv_pos_as_xyz
  1  'x, y, z'
loop_
 _atom_site_type_symbol
 _atom_site_label
 _atom_site_symmetry_multiplicity
 _atom_site_fract_x
 _atom_site_fract_y
 _atom_site_fract_z
 _atom_site_occupancy
  W  W0  1  0.33333300  0.66666700  0.09392600  1
  W  W1  1  0.33333300  0.66666700  0.46965000  1
  W  W2  1  0.66666700  0.33333300  0.28179500  1
  W  W3  1  0.66666700  0.33333300  0.65754900  1
  Se  Se4  1  0.33333300  0.66666700  0.70285500  1
  Se  Se5  1  0.66666700  0.33333300  0.04860900  1
  Se  Se6  1  0.66666700  0.33333300  0.42434900  1
  Se  Se7  1  0.66666700  0.33333300  0.13923700  1
  Se  Se8  1  0.66666700  0.33333300  0.51495700  1
  Se  Se9  1  0.33333300  0.66666700  0.61223100  1
  S  S10  1  0.33333300  0.66666700  0.32294200  1
  S  S11  1  0.33333300  0.66666700  0.24064700  1
