# generated using pymatgen
data_Fe2O2F5
_symmetry_space_group_name_H-M   'P 1'
_cell_length_a   7.40497846
_cell_length_b   7.40497846
_cell_length_c   7.40497846
_cell_angle_alpha   128.01582058
_cell_angle_beta   119.48805891
_cell_angle_gamma   83.79297796
_symmetry_Int_Tables_number   1
_chemical_formula_structural   Fe2O2F5
_chemical_formula_sum   'Fe4 O4 F10'
_cell_volume   266.95763830
_cell_formula_units_Z   2
loop_
 _symmetry_equiv_pos_site_id
 _symmetry_equiv_pos_as_xyz
  1  'x, y, z'
loop_
 _atom_site_type_symbol
 _atom_site_label
 _atom_site_symmetry_multiplicity
 _atom_site_fract_x
 _atom_site_fract_y
 _atom_site_fract_z
 _atom_site_occupancy
  Fe  Fe0  1  0.50000000  0.50000000  0.00000000  1
  Fe  Fe1  1  0.00000000  0.00000000  0.00000000  1
  Fe  Fe2  1  0.50000000  0.50000000  0.50000000  1
  Fe  Fe3  1  0.00000000  0.50000000  0.00000000  1
  O  O4  1  0.55125700  0.84373100  0.29247400  1
  O  O5  1  0.44874300  0.15626900  0.70752600  1
  O  O6  1  0.05125700  0.75878300  0.70752600  1
  O  O7  1  0.94874300  0.24121700  0.29247400  1
  F  F8  1  0.43714600  0.57372700  0.76265900  1
  F  F9  1  0.18893200  0.42627300  0.86341900  1
  F  F10  1  0.93714600  0.17448700  0.86341900  1
  F  F11  1  0.68893200  0.82551300  0.76265900  1
  F  F12  1  0.56285400  0.42627300  0.23734100  1
  F  F13  1  0.81106800  0.57372700  0.13658100  1
  F  F14  1  0.06285400  0.82551300  0.13658100  1
  F  F15  1  0.31106800  0.17448700  0.23734100  1
  F  F16  1  0.75000000  0.40439600  0.65439600  1
  F  F17  1  0.25000000  0.59560400  0.34560400  1
