# generated using pymatgen
data_CaSe2O7
_symmetry_space_group_name_H-M   'P 1'
_cell_length_a   7.24496800
_cell_length_b   7.26885504
_cell_length_c   7.29288975
_cell_angle_alpha   80.86312698
_cell_angle_beta   71.97690878
_cell_angle_gamma   85.06720878
_symmetry_Int_Tables_number   1
_chemical_formula_structural   CaSe2O7
_chemical_formula_sum   'Ca2 Se4 O14'
_cell_volume   360.30557857
_cell_formula_units_Z   2
loop_
 _symmetry_equiv_pos_site_id
 _symmetry_equiv_pos_as_xyz
  1  'x, y, z'
loop_
 _atom_site_type_symbol
 _atom_site_label
 _atom_site_symmetry_multiplicity
 _atom_site_fract_x
 _atom_site_fract_y
 _atom_site_fract_z
 _atom_site_occupancy
  Ca  Ca0  1  0.72938300  0.84760800  0.38108900  1
  Ca  Ca1  1  0.27061700  0.15239200  0.61891100  1
  Se  Se2  1  0.65513700  0.37043200  0.25919900  1
  Se  Se3  1  0.34486300  0.62956800  0.74080100  1
  Se  Se4  1  0.84658800  0.87223500  0.86301500  1
  Se  Se5  1  0.15341200  0.12776500  0.13698500  1
  O  O6  1  0.99027500  0.28956200  0.08754900  1
  O  O7  1  0.00972500  0.71043800  0.91245100  1
  O  O8  1  0.61646300  0.16722800  0.41380600  1
  O  O9  1  0.38353700  0.83277200  0.58619400  1
  O  O10  1  0.73473200  0.52231900  0.36771100  1
  O  O11  1  0.26526800  0.47768100  0.63228900  1
  O  O12  1  0.94634800  0.07135300  0.74064300  1
  O  O13  1  0.05365200  0.92864700  0.25935700  1
  O  O14  1  0.68004300  0.90398000  0.07183800  1
  O  O15  1  0.31995700  0.09602000  0.92816200  1
  O  O16  1  0.73894100  0.80571200  0.70742100  1
  O  O17  1  0.26105900  0.19428800  0.29257900  1
  O  O18  1  0.41625600  0.46160200  0.29028800  1
  O  O19  1  0.58374400  0.53839800  0.70971200  1
