# generated using pymatgen
data_Cu5(AsO6)2
_symmetry_space_group_name_H-M   'P 1'
_cell_length_a   6.14152555
_cell_length_b   6.12144458
_cell_length_c   7.08032691
_cell_angle_alpha   97.80482334
_cell_angle_beta   109.87725840
_cell_angle_gamma   106.75067125
_symmetry_Int_Tables_number   1
_chemical_formula_structural   Cu5(AsO6)2
_chemical_formula_sum   'Cu5 As2 O12'
_cell_volume   231.48546726
_cell_formula_units_Z   1
loop_
 _symmetry_equiv_pos_site_id
 _symmetry_equiv_pos_as_xyz
  1  'x, y, z'
loop_
 _atom_site_type_symbol
 _atom_site_label
 _atom_site_symmetry_multiplicity
 _atom_site_fract_x
 _atom_site_fract_y
 _atom_site_fract_z
 _atom_site_occupancy
  Cu  Cu0  1  0.00000000  0.00000000  0.00000000  1
  Cu  Cu1  1  0.00019100  0.67407700  0.65880500  1
  Cu  Cu2  1  0.99980900  0.32592300  0.34119500  1
  Cu  Cu3  1  0.49534300  0.66977000  0.67984000  1
  Cu  Cu4  1  0.50465700  0.33023000  0.32016000  1
  As  As5  1  0.54178800  0.81904800  0.19089100  1
  As  As6  1  0.45821200  0.18095200  0.80910900  1
  O  O7  1  0.17736400  0.30539200  0.17480800  1
  O  O8  1  0.82263600  0.69460800  0.82519200  1
  O  O9  1  0.15365300  0.00906600  0.78036100  1
  O  O10  1  0.84634700  0.99093400  0.21963900  1
  O  O11  1  0.39114400  0.99639000  0.26323700  1
  O  O12  1  0.60885600  0.00361000  0.73676300  1
  O  O13  1  0.17846900  0.64424400  0.49605000  1
  O  O14  1  0.82153100  0.35575600  0.50395000  1
  O  O15  1  0.60843400  0.66425300  0.38199400  1
  O  O16  1  0.39156600  0.33574700  0.61800600  1
  O  O17  1  0.63691300  0.34174800  0.05628800  1
  O  O18  1  0.36308700  0.65825200  0.94371200  1
