# generated using pymatgen
data_La3MnS5
_symmetry_space_group_name_H-M   'P 1'
_cell_length_a   8.15741421
_cell_length_b   8.15741421
_cell_length_c   6.94216000
_cell_angle_alpha   90.00000000
_cell_angle_beta   90.00000000
_cell_angle_gamma   120.00000173
_symmetry_Int_Tables_number   1
_chemical_formula_structural   La3MnS5
_chemical_formula_sum   'La6 Mn2 S10'
_cell_volume   400.06473758
_cell_formula_units_Z   2
loop_
 _symmetry_equiv_pos_site_id
 _symmetry_equiv_pos_as_xyz
  1  'x, y, z'
loop_
 _atom_site_type_symbol
 _atom_site_label
 _atom_site_symmetry_multiplicity
 _atom_site_fract_x
 _atom_site_fract_y
 _atom_site_fract_z
 _atom_site_occupancy
  La  La0  1  0.60174600  0.60174600  0.75000000  1
  La  La1  1  0.39825400  0.00000000  0.75000000  1
  La  La2  1  0.00000000  0.39825400  0.75000000  1
  La  La3  1  0.39825400  0.39825400  0.25000000  1
  La  La4  1  0.60174600  0.00000000  0.25000000  1
  La  La5  1  0.00000000  0.60174600  0.25000000  1
  Mn  Mn6  1  0.00000000  0.00000000  0.00000000  1
  Mn  Mn7  1  0.00000000  0.00000000  0.50000000  1
  S  S8  1  0.24039300  0.24039300  0.75000000  1
  S  S9  1  0.75960700  0.00000000  0.75000000  1
  S  S10  1  0.00000000  0.75960700  0.75000000  1
  S  S11  1  0.75960700  0.75960700  0.25000000  1
  S  S12  1  0.24039300  0.00000000  0.25000000  1
  S  S13  1  0.00000000  0.24039300  0.25000000  1
  S  S14  1  0.66666700  0.33333300  0.00000000  1
  S  S15  1  0.33333300  0.66666700  0.00000000  1
  S  S16  1  0.33333300  0.66666700  0.50000000  1
  S  S17  1  0.66666700  0.33333300  0.50000000  1
