# generated using pymatgen
data_Ca2HoTaO6
_symmetry_space_group_name_H-M   'P 1'
_cell_length_a   5.64517474
_cell_length_b   5.81149500
_cell_length_c   8.11318376
_cell_angle_alpha   90.00000000
_cell_angle_beta   89.60315931
_cell_angle_gamma   90.00000000
_symmetry_Int_Tables_number   1
_chemical_formula_structural   Ca2HoTaO6
_chemical_formula_sum   'Ca4 Ho2 Ta2 O12'
_cell_volume   266.16206259
_cell_formula_units_Z   2
loop_
 _symmetry_equiv_pos_site_id
 _symmetry_equiv_pos_as_xyz
  1  'x, y, z'
loop_
 _atom_site_type_symbol
 _atom_site_label
 _atom_site_symmetry_multiplicity
 _atom_site_fract_x
 _atom_site_fract_y
 _atom_site_fract_z
 _atom_site_occupancy
  Ca  Ca0  1  0.48966600  0.05125000  0.24561600  1
  Ca  Ca1  1  0.98966600  0.44875000  0.74561600  1
  Ca  Ca2  1  0.51033400  0.94875000  0.75438400  1
  Ca  Ca3  1  0.01033400  0.55125000  0.25438400  1
  Ho  Ho4  1  0.50000000  0.50000000  0.50000000  1
  Ho  Ho5  1  0.00000000  0.00000000  0.00000000  1
  Ta  Ta6  1  0.50000000  0.50000000  0.00000000  1
  Ta  Ta7  1  0.00000000  0.00000000  0.50000000  1
  O  O8  1  0.39207100  0.53971300  0.76532900  1
  O  O9  1  0.89207100  0.96028700  0.26532900  1
  O  O10  1  0.60792900  0.46028700  0.23467100  1
  O  O11  1  0.10792900  0.03971300  0.73467100  1
  O  O12  1  0.17431300  0.29286400  0.44503100  1
  O  O13  1  0.67431300  0.20713600  0.94503100  1
  O  O14  1  0.82568700  0.70713600  0.55496900  1
  O  O15  1  0.32568700  0.79286400  0.05496900  1
  O  O16  1  0.28978700  0.81759700  0.44175500  1
  O  O17  1  0.78978700  0.68240300  0.94175500  1
  O  O18  1  0.71021300  0.18240300  0.55824500  1
  O  O19  1  0.21021300  0.31759700  0.05824500  1
