# generated using pymatgen
data_PbO2
_symmetry_space_group_name_H-M   'P 1'
_cell_length_a   5.86798080
_cell_length_b   7.35161075
_cell_length_c   7.46990711
_cell_angle_alpha   104.33459856
_cell_angle_beta   90.40377239
_cell_angle_gamma   90.57055170
_symmetry_Int_Tables_number   1
_chemical_formula_structural   PbO2
_chemical_formula_sum   'Pb6 O12'
_cell_volume   312.18197007
_cell_formula_units_Z   6
loop_
 _symmetry_equiv_pos_site_id
 _symmetry_equiv_pos_as_xyz
  1  'x, y, z'
loop_
 _atom_site_type_symbol
 _atom_site_label
 _atom_site_symmetry_multiplicity
 _atom_site_fract_x
 _atom_site_fract_y
 _atom_site_fract_z
 _atom_site_occupancy
  Pb  Pb0  1  0.25299500  0.93261000  0.64227400  1
  Pb  Pb1  1  0.74700500  0.06739000  0.35772500  1
  Pb  Pb2  1  0.25199200  0.39933200  0.57944500  1
  Pb  Pb3  1  0.74800800  0.60066800  0.42055500  1
  Pb  Pb4  1  0.23925300  0.71912400  0.12410400  1
  Pb  Pb5  1  0.76074700  0.28087600  0.87589600  1
  O  O6  1  0.46675300  0.39333800  0.16057000  1
  O  O7  1  0.53324700  0.60666200  0.83943000  1
  O  O8  1  0.07901500  0.43034600  0.17560900  1
  O  O9  1  0.92098500  0.56965400  0.82439100  1
  O  O10  1  0.23918600  0.20523000  0.98213600  1
  O  O11  1  0.76081400  0.79477000  0.01786400  1
  O  O12  1  0.25372100  0.19918300  0.26222000  1
  O  O13  1  0.74627900  0.80081700  0.73778000  1
  O  O14  1  0.00294300  0.17964700  0.62234600  1
  O  O15  1  0.99705700  0.82035300  0.37765400  1
  O  O16  1  0.50482500  0.18541500  0.62539900  1
  O  O17  1  0.49517500  0.81458500  0.37460100  1
