# generated using pymatgen
data_Cs2FeCl5O
_symmetry_space_group_name_H-M   'P 1'
_cell_length_a   9.57208477
_cell_length_b   9.57208477
_cell_length_c   8.79011200
_cell_angle_alpha   90.00000000
_cell_angle_beta   90.00000000
_cell_angle_gamma   135.99400983
_symmetry_Int_Tables_number   1
_chemical_formula_structural   Cs2FeCl5O
_chemical_formula_sum   'Cs4 Fe2 Cl10 O2'
_cell_volume   559.53307969
_cell_formula_units_Z   2
loop_
 _symmetry_equiv_pos_site_id
 _symmetry_equiv_pos_as_xyz
  1  'x, y, z'
loop_
 _atom_site_type_symbol
 _atom_site_label
 _atom_site_symmetry_multiplicity
 _atom_site_fract_x
 _atom_site_fract_y
 _atom_site_fract_z
 _atom_site_occupancy
  Cs  Cs0  1  0.53050200  0.46949800  0.75000000  1
  Cs  Cs1  1  0.46949800  0.53050200  0.25000000  1
  Cs  Cs2  1  0.23510900  0.76489100  0.75000000  1
  Cs  Cs3  1  0.76489100  0.23510900  0.25000000  1
  Fe  Fe4  1  0.88251400  0.11748600  0.75000000  1
  Fe  Fe5  1  0.11748600  0.88251400  0.25000000  1
  Cl  Cl6  1  0.75329200  0.24670800  0.75000000  1
  Cl  Cl7  1  0.24670800  0.75329200  0.25000000  1
  Cl  Cl8  1  0.64883300  0.87859300  0.55695600  1
  Cl  Cl9  1  0.87859300  0.64883300  0.44304400  1
  Cl  Cl10  1  0.64883300  0.87859300  0.94304400  1
  Cl  Cl11  1  0.87859300  0.64883300  0.05695600  1
  Cl  Cl12  1  0.35116700  0.12140700  0.44304400  1
  Cl  Cl13  1  0.12140700  0.35116700  0.55695600  1
  Cl  Cl14  1  0.35116700  0.12140700  0.05695600  1
  Cl  Cl15  1  0.12140700  0.35116700  0.94304400  1
  O  O16  1  0.98321500  0.01678500  0.75000000  1
  O  O17  1  0.01678500  0.98321500  0.25000000  1
