# generated using pymatgen
data_La3Ir
_symmetry_space_group_name_H-M   'P 1'
_cell_length_a   6.66673800
_cell_length_b   7.45171000
_cell_length_c   10.07042500
_cell_angle_alpha   90.00000000
_cell_angle_beta   90.00000000
_cell_angle_gamma   90.00000000
_symmetry_Int_Tables_number   1
_chemical_formula_structural   La3Ir
_chemical_formula_sum   'La12 Ir4'
_cell_volume   500.28459750
_cell_formula_units_Z   4
loop_
 _symmetry_equiv_pos_site_id
 _symmetry_equiv_pos_as_xyz
  1  'x, y, z'
loop_
 _atom_site_type_symbol
 _atom_site_label
 _atom_site_symmetry_multiplicity
 _atom_site_fract_x
 _atom_site_fract_y
 _atom_site_fract_z
 _atom_site_occupancy
  La  La0  1  0.32967500  0.67401600  0.06711300  1
  La  La1  1  0.17032500  0.17401600  0.43288700  1
  La  La2  1  0.67032500  0.32598400  0.56711300  1
  La  La3  1  0.82967500  0.82598400  0.93288700  1
  La  La4  1  0.67032500  0.32598400  0.93288700  1
  La  La5  1  0.82967500  0.82598400  0.56711300  1
  La  La6  1  0.32967500  0.67401600  0.43288700  1
  La  La7  1  0.17032500  0.17401600  0.06711300  1
  La  La8  1  0.85889200  0.53809200  0.25000000  1
  La  La9  1  0.64110800  0.03809200  0.25000000  1
  La  La10  1  0.14110800  0.46190800  0.75000000  1
  La  La11  1  0.35889200  0.96190800  0.75000000  1
  Ir  Ir12  1  0.06346800  0.88093700  0.25000000  1
  Ir  Ir13  1  0.43653200  0.38093700  0.25000000  1
  Ir  Ir14  1  0.93653200  0.11906300  0.75000000  1
  Ir  Ir15  1  0.56346800  0.61906300  0.75000000  1
