# generated using pymatgen
data_Ca2InOsO6
_symmetry_space_group_name_H-M   'P 1'
_cell_length_a   5.54342800
_cell_length_b   5.75755000
_cell_length_c   9.64876458
_cell_angle_alpha   90.00000000
_cell_angle_beta   124.49387250
_cell_angle_gamma   90.00000000
_symmetry_Int_Tables_number   1
_chemical_formula_structural   Ca2InOsO6
_chemical_formula_sum   'Ca4 In2 Os2 O12'
_cell_volume   253.81277195
_cell_formula_units_Z   2
loop_
 _symmetry_equiv_pos_site_id
 _symmetry_equiv_pos_as_xyz
  1  'x, y, z'
loop_
 _atom_site_type_symbol
 _atom_site_label
 _atom_site_symmetry_multiplicity
 _atom_site_fract_x
 _atom_site_fract_y
 _atom_site_fract_z
 _atom_site_occupancy
  Ca  Ca0  1  0.23183200  0.44157200  0.74876600  1
  Ca  Ca1  1  0.23183200  0.05842800  0.24876600  1
  Ca  Ca2  1  0.76816800  0.55842800  0.25123400  1
  Ca  Ca3  1  0.76816800  0.94157200  0.75123400  1
  In  In4  1  0.50000000  0.50000000  0.50000000  1
  In  In5  1  0.50000000  0.00000000  0.00000000  1
  Os  Os6  1  0.00000000  0.50000000  0.00000000  1
  Os  Os7  1  0.00000000  0.00000000  0.50000000  1
  O  O8  1  0.76702900  0.18975200  0.55705900  1
  O  O9  1  0.76702900  0.31024800  0.05705900  1
  O  O10  1  0.23297100  0.81024800  0.44294100  1
  O  O11  1  0.23297100  0.68975200  0.94294100  1
  O  O12  1  0.87702200  0.71213100  0.55912500  1
  O  O13  1  0.87702200  0.78786900  0.05912500  1
  O  O14  1  0.12297800  0.28786900  0.44087500  1
  O  O15  1  0.12297800  0.21213100  0.94087500  1
  O  O16  1  0.34686500  0.04026400  0.73652700  1
  O  O17  1  0.34686500  0.45973600  0.23652700  1
  O  O18  1  0.65313500  0.95973600  0.26347300  1
  O  O19  1  0.65313500  0.54026400  0.76347300  1
