# generated using pymatgen
data_TeW2SeS2
_symmetry_space_group_name_H-M   'P 1'
_cell_length_a   3.30660618
_cell_length_b   3.30660618
_cell_length_c   37.68015600
_cell_angle_alpha   90.00000000
_cell_angle_beta   90.00000000
_cell_angle_gamma   120.00000353
_symmetry_Int_Tables_number   1
_chemical_formula_structural   TeW2SeS2
_chemical_formula_sum   'Te2 W4 Se2 S4'
_cell_volume   356.78636886
_cell_formula_units_Z   2
loop_
 _symmetry_equiv_pos_site_id
 _symmetry_equiv_pos_as_xyz
  1  'x, y, z'
loop_
 _atom_site_type_symbol
 _atom_site_label
 _atom_site_symmetry_multiplicity
 _atom_site_fract_x
 _atom_site_fract_y
 _atom_site_fract_z
 _atom_site_occupancy
  Te  Te0  1  0.33333300  0.66666700  0.33280100  1
  Te  Te1  1  0.33333300  0.66666700  0.23079800  1
  W  W2  1  0.33333300  0.66666700  0.09390200  1
  W  W3  1  0.33333300  0.66666700  0.46968100  1
  W  W4  1  0.66666700  0.33333300  0.28179200  1
  W  W5  1  0.66666700  0.33333300  0.65753100  1
  Se  Se6  1  0.33333300  0.66666700  0.70229100  1
  Se  Se7  1  0.33333300  0.66666700  0.61277000  1
  S  S8  1  0.66666700  0.33333300  0.05320900  1
  S  S9  1  0.66666700  0.33333300  0.42898800  1
  S  S10  1  0.66666700  0.33333300  0.13460300  1
  S  S11  1  0.66666700  0.33333300  0.51038100  1
