# generated using pymatgen
data_K2CoP2(H3O4)2
_symmetry_space_group_name_H-M   'P 1'
_cell_length_a   5.36635308
_cell_length_b   6.95464740
_cell_length_c   13.80908309
_cell_angle_alpha   85.22461936
_cell_angle_beta   78.79720741
_cell_angle_gamma   67.28579546
_symmetry_Int_Tables_number   1
_chemical_formula_structural   K2CoP2(H3O4)2
_chemical_formula_sum   'K4 Co2 P4 H12 O16'
_cell_volume   466.32151239
_cell_formula_units_Z   2
loop_
 _symmetry_equiv_pos_site_id
 _symmetry_equiv_pos_as_xyz
  1  'x, y, z'
loop_
 _atom_site_type_symbol
 _atom_site_label
 _atom_site_symmetry_multiplicity
 _atom_site_fract_x
 _atom_site_fract_y
 _atom_site_fract_z
 _atom_site_occupancy
  K  K0  1  0.16520700  0.31203400  0.35736200  1
  K  K1  1  0.16518200  0.81202600  0.85741900  1
  K  K2  1  0.83482600  0.18797900  0.14264000  1
  K  K3  1  0.83482000  0.68792400  0.64258900  1
  Co  Co4  1  0.49999800  0.24999900  0.75000000  1
  Co  Co5  1  0.49999900  0.75000100  0.25000000  1
  P  P6  1  0.14551500  0.57871300  0.13048500  1
  P  P7  1  0.14550200  0.07872500  0.63045900  1
  P  P8  1  0.85447800  0.92128100  0.36950400  1
  P  P9  1  0.85449700  0.42128000  0.86954900  1
  H  H10  1  0.26257000  0.41546500  0.05975400  1
  H  H11  1  0.26252000  0.91540500  0.55979600  1
  H  H12  1  0.73742700  0.08453300  0.44024400  1
  H  H13  1  0.73747700  0.58459500  0.94020700  1
  H  H14  1  0.67762800  0.86592300  0.07789200  1
  H  H15  1  0.67774600  0.36588900  0.57787100  1
  H  H16  1  0.37814300  0.86579200  0.07791100  1
  H  H17  1  0.37825900  0.36575800  0.57787000  1
  H  H18  1  0.32237400  0.63407400  0.42210900  1
  H  H19  1  0.32224600  0.13411600  0.92213100  1
  H  H20  1  0.62186000  0.63420700  0.42209200  1
  H  H21  1  0.62174200  0.13425000  0.92213300  1
  O  O22  1  0.07343300  0.78321800  0.06991400  1
  O  O23  1  0.07343900  0.28332200  0.56987800  1
  O  O24  1  0.92658500  0.71678400  0.43008600  1
  O  O25  1  0.92655900  0.21667600  0.93012100  1
  O  O26  1  0.48228200  0.92486500  0.11002000  1
  O  O27  1  0.48237200  0.42489000  0.60994600  1
  O  O28  1  0.51772600  0.57512200  0.38998600  1
  O  O29  1  0.51761600  0.07514200  0.89004900  1
  O  O30  1  0.37034200  0.54190900  0.19226700  1
  O  O31  1  0.37017400  0.04181700  0.69228500  1
  O  O32  1  0.89576100  0.54192500  0.19226600  1
  O  O33  1  0.89590200  0.04191400  0.69229400  1
  O  O34  1  0.62969600  0.95809900  0.30770000  1
  O  O35  1  0.62978800  0.45817400  0.80774100  1
  O  O36  1  0.10421500  0.95808000  0.30771500  1
  O  O37  1  0.10409400  0.45809600  0.80771400  1
