# generated using pymatgen
data_TeW2Se2S
_symmetry_space_group_name_H-M   'P 1'
_cell_length_a   3.34299560
_cell_length_b   3.34299560
_cell_length_c   38.19164900
_cell_angle_alpha   90.00000000
_cell_angle_beta   90.00000000
_cell_angle_gamma   119.99999210
_symmetry_Int_Tables_number   1
_chemical_formula_structural   TeW2Se2S
_chemical_formula_sum   'Te2 W4 Se4 S2'
_cell_volume   369.63295716
_cell_formula_units_Z   2
loop_
 _symmetry_equiv_pos_site_id
 _symmetry_equiv_pos_as_xyz
  1  'x, y, z'
loop_
 _atom_site_type_symbol
 _atom_site_label
 _atom_site_symmetry_multiplicity
 _atom_site_fract_x
 _atom_site_fract_y
 _atom_site_fract_z
 _atom_site_occupancy
  Te  Te0  1  0.33333300  0.66666700  0.41967200  1
  Te  Te1  1  0.33333300  0.66666700  0.51958500  1
  W  W2  1  0.00000000  0.00000000  0.09390700  1
  W  W3  1  0.00000000  0.00000000  0.46962400  1
  W  W4  1  0.33333300  0.66666700  0.28176600  1
  W  W5  1  0.33333300  0.66666700  0.65761700  1
  Se  Se6  1  0.00000000  0.00000000  0.70151000  1
  Se  Se7  1  0.33333300  0.66666700  0.04998900  1
  Se  Se8  1  0.33333300  0.66666700  0.13782800  1
  Se  Se9  1  0.00000000  0.00000000  0.61368300  1
  S  S10  1  0.00000000  0.00000000  0.32162700  1
  S  S11  1  0.00000000  0.00000000  0.24194100  1
