# generated using pymatgen
data_BaReH7
_symmetry_space_group_name_H-M   'P 1'
_cell_length_a   3.56963339
_cell_length_b   5.13751067
_cell_length_c   9.79473300
_cell_angle_alpha   90.00000000
_cell_angle_beta   90.00000000
_cell_angle_gamma   89.59843578
_symmetry_Int_Tables_number   1
_chemical_formula_structural   BaReH7
_chemical_formula_sum   'Ba2 Re2 H14'
_cell_volume   179.62148672
_cell_formula_units_Z   2
loop_
 _symmetry_equiv_pos_site_id
 _symmetry_equiv_pos_as_xyz
  1  'x, y, z'
loop_
 _atom_site_type_symbol
 _atom_site_label
 _atom_site_symmetry_multiplicity
 _atom_site_fract_x
 _atom_site_fract_y
 _atom_site_fract_z
 _atom_site_occupancy
  Ba  Ba0  1  0.00000000  0.00000000  0.00000000  1
  Ba  Ba1  1  0.00000000  0.00000000  0.50000000  1
  Re  Re2  1  0.44796400  0.51858000  0.25000000  1
  Re  Re3  1  0.55203600  0.48142000  0.75000000  1
  H  H4  1  0.43295600  0.84960500  0.25000000  1
  H  H5  1  0.56704400  0.15039500  0.75000000  1
  H  H6  1  0.50785500  0.63349900  0.41147000  1
  H  H7  1  0.49214500  0.36650100  0.91147000  1
  H  H8  1  0.49214500  0.36650100  0.58853000  1
  H  H9  1  0.50785500  0.63349900  0.08853000  1
  H  H10  1  0.03901400  0.51752500  0.34003200  1
  H  H11  1  0.96098600  0.48247500  0.84003200  1
  H  H12  1  0.96098600  0.48247500  0.65996800  1
  H  H13  1  0.03901400  0.51752500  0.15996800  1
  H  H14  1  0.49414400  0.24988800  0.35465000  1
  H  H15  1  0.50585600  0.75011200  0.85465000  1
  H  H16  1  0.50585600  0.75011200  0.64535000  1
  H  H17  1  0.49414400  0.24988800  0.14535000  1
