# generated using pymatgen
data_TiGeRu
_symmetry_space_group_name_H-M   'P 1'
_cell_length_a   7.54183200
_cell_length_b   7.54183200
_cell_length_c   7.54183200
_cell_angle_alpha   127.96558803
_cell_angle_beta   122.60604433
_cell_angle_gamma   81.13842760
_symmetry_Int_Tables_number   1
_chemical_formula_structural   TiGeRu
_chemical_formula_sum   'Ti6 Ge6 Ru6'
_cell_volume   274.53534331
_cell_formula_units_Z   6
loop_
 _symmetry_equiv_pos_site_id
 _symmetry_equiv_pos_as_xyz
  1  'x, y, z'
loop_
 _atom_site_type_symbol
 _atom_site_label
 _atom_site_symmetry_multiplicity
 _atom_site_fract_x
 _atom_site_fract_y
 _atom_site_fract_z
 _atom_site_occupancy
  Ti  Ti0  1  0.55482700  0.10381400  0.04898600  1
  Ti  Ti1  1  0.44517300  0.49415900  0.54898600  1
  Ti  Ti2  1  0.97269400  0.49355800  0.02086500  1
  Ti  Ti3  1  0.02730600  0.04817100  0.52086500  1
  Ti  Ti4  1  0.75156100  0.91747000  0.66591000  1
  Ti  Ti5  1  0.24843900  0.91434900  0.16591000  1
  Ge  Ge6  1  0.78181700  0.53739700  0.25558100  1
  Ge  Ge7  1  0.21818300  0.47376400  0.75558100  1
  Ge  Ge8  1  0.33631700  0.82752700  0.49897500  1
  Ge  Ge9  1  0.66368300  0.16265800  0.49120900  1
  Ge  Ge10  1  0.82855100  0.82752700  0.99120900  1
  Ge  Ge11  1  0.17144900  0.16265800  0.99897500  1
  Ru  Ru12  1  0.50000000  0.24387700  0.74387700  1
  Ru  Ru13  1  0.00000000  0.24387700  0.24387700  1
  Ru  Ru14  1  0.16523900  0.74965600  0.66118000  1
  Ru  Ru15  1  0.83476100  0.49594100  0.58441800  1
  Ru  Ru16  1  0.58847600  0.74965600  0.08441800  1
  Ru  Ru17  1  0.41152400  0.49594100  0.16118000  1
