# generated using pymatgen
data_CdI2
_symmetry_space_group_name_H-M   'P 1'
_cell_length_a   4.33952844
_cell_length_b   4.33952844
_cell_length_c   44.19828759
_cell_angle_alpha   87.18612788
_cell_angle_beta   87.18612788
_cell_angle_gamma   59.99999325
_symmetry_Int_Tables_number   1
_chemical_formula_structural   CdI2
_chemical_formula_sum   'Cd6 I12'
_cell_volume   719.65150623
_cell_formula_units_Z   6
loop_
 _symmetry_equiv_pos_site_id
 _symmetry_equiv_pos_as_xyz
  1  'x, y, z'
loop_
 _atom_site_type_symbol
 _atom_site_label
 _atom_site_symmetry_multiplicity
 _atom_site_fract_x
 _atom_site_fract_y
 _atom_site_fract_z
 _atom_site_occupancy
  Cd  Cd0  1  0.93056000  0.93056000  0.20832000  1
  Cd  Cd1  1  0.76389500  0.76389500  0.70831400  1
  Cd  Cd2  1  0.37499400  0.37499400  0.87501900  1
  Cd  Cd3  1  0.31945500  0.31945500  0.04163500  1
  Cd  Cd4  1  0.20832900  0.20832900  0.37501200  1
  Cd  Cd5  1  0.15278100  0.15278100  0.54165700  1
  I  I6  1  0.99913000  0.99913000  0.00261000  1
  I  I7  1  0.88800500  0.88800500  0.33598600  1
  I  I8  1  0.83246600  0.83246600  0.50260300  1
  I  I9  1  0.69530800  0.69530800  0.91407700  1
  I  I10  1  0.63976000  0.63976000  0.08072000  1
  I  I11  1  0.58420800  0.58420800  0.24737700  1
  I  I12  1  0.52863600  0.52863600  0.41409100  1
  I  I13  1  0.47309700  0.47309700  0.58070900  1
  I  I14  1  0.41754100  0.41754100  0.74737800  1
  I  I15  1  0.27691100  0.27691100  0.16926800  1
  I  I16  1  0.11025300  0.11025300  0.66924000  1
  I  I17  1  0.05467200  0.05467200  0.83598300  1
