# generated using pymatgen
data_Zn2Cl5O2
_symmetry_space_group_name_H-M   'P 1'
_cell_length_a   12.08514244
_cell_length_b   11.97556541
_cell_length_c   6.60789781
_cell_angle_alpha   74.97548881
_cell_angle_beta   73.14821749
_cell_angle_gamma   31.87629370
_symmetry_Int_Tables_number   1
_chemical_formula_structural   Zn2Cl5O2
_chemical_formula_sum   'Zn4 Cl10 O4'
_cell_volume   483.18105525
_cell_formula_units_Z   2
loop_
 _symmetry_equiv_pos_site_id
 _symmetry_equiv_pos_as_xyz
  1  'x, y, z'
loop_
 _atom_site_type_symbol
 _atom_site_label
 _atom_site_symmetry_multiplicity
 _atom_site_fract_x
 _atom_site_fract_y
 _atom_site_fract_z
 _atom_site_occupancy
  Zn  Zn0  1  0.16464700  0.16407800  0.36174000  1
  Zn  Zn1  1  0.30953500  0.36174000  0.16407800  1
  Zn  Zn2  1  0.88826000  0.94046500  0.08535300  1
  Zn  Zn3  1  0.08592200  0.08535300  0.94046500  1
  Cl  Cl4  1  0.30092200  0.03136700  0.67215000  1
  Cl  Cl5  1  0.99556100  0.67215000  0.03136700  1
  Cl  Cl6  1  0.57785000  0.25443900  0.94907800  1
  Cl  Cl7  1  0.21863300  0.94907800  0.25443900  1
  Cl  Cl8  1  0.81196300  0.48710500  0.39755800  1
  Cl  Cl9  1  0.30337400  0.39755800  0.48710500  1
  Cl  Cl10  1  0.85244200  0.94662600  0.43803700  1
  Cl  Cl11  1  0.76289500  0.43803700  0.94662600  1
  Cl  Cl12  1  0.38170200  0.11829800  0.11829800  1
  Cl  Cl13  1  0.13170200  0.86829800  0.86829800  1
  O  O14  1  0.88134400  0.60559600  0.74090900  1
  O  O15  1  0.77215100  0.74090900  0.60559600  1
  O  O16  1  0.50909100  0.47784900  0.36865600  1
  O  O17  1  0.64440400  0.36865600  0.47784900  1
