# generated using pymatgen
data_Sc4Ge6Os7
_symmetry_space_group_name_H-M   'P 1'
_cell_length_a   7.08510625
_cell_length_b   7.08510625
_cell_length_c   7.08510625
_cell_angle_alpha   109.47122063
_cell_angle_beta   109.47122063
_cell_angle_gamma   109.47122063
_symmetry_Int_Tables_number   1
_chemical_formula_structural   Sc4Ge6Os7
_chemical_formula_sum   'Sc4 Ge6 Os7'
_cell_volume   273.78976644
_cell_formula_units_Z   1
loop_
 _symmetry_equiv_pos_site_id
 _symmetry_equiv_pos_as_xyz
  1  'x, y, z'
loop_
 _atom_site_type_symbol
 _atom_site_label
 _atom_site_symmetry_multiplicity
 _atom_site_fract_x
 _atom_site_fract_y
 _atom_site_fract_z
 _atom_site_occupancy
  Sc  Sc0  1  0.00000000  0.00000000  0.50000000  1
  Sc  Sc1  1  0.00000000  0.50000000  0.00000000  1
  Sc  Sc2  1  0.50000000  0.00000000  0.00000000  1
  Sc  Sc3  1  0.50000000  0.50000000  0.50000000  1
  Ge  Ge4  1  0.69431400  0.69431400  0.00000000  1
  Ge  Ge5  1  0.30568600  0.00000000  0.30568600  1
  Ge  Ge6  1  0.00000000  0.30568600  0.30568600  1
  Ge  Ge7  1  0.30568600  0.30568600  0.00000000  1
  Ge  Ge8  1  0.69431400  0.00000000  0.69431400  1
  Ge  Ge9  1  0.00000000  0.69431400  0.69431400  1
  Os  Os10  1  0.75000000  0.25000000  0.50000000  1
  Os  Os11  1  0.75000000  0.50000000  0.25000000  1
  Os  Os12  1  0.50000000  0.25000000  0.75000000  1
  Os  Os13  1  0.25000000  0.50000000  0.75000000  1
  Os  Os14  1  0.25000000  0.75000000  0.50000000  1
  Os  Os15  1  0.50000000  0.75000000  0.25000000  1
  Os  Os16  1  0.00000000  0.00000000  0.00000000  1
