# generated using pymatgen
data_WSeS
_symmetry_space_group_name_H-M   'P 1'
_cell_length_a   3.25369120
_cell_length_b   3.25369120
_cell_length_c   36.85244500
_cell_angle_alpha   90.00000000
_cell_angle_beta   90.00000000
_cell_angle_gamma   119.99998366
_symmetry_Int_Tables_number   1
_chemical_formula_structural   WSeS
_chemical_formula_sum   'W4 Se4 S4'
_cell_volume   337.87003310
_cell_formula_units_Z   4
loop_
 _symmetry_equiv_pos_site_id
 _symmetry_equiv_pos_as_xyz
  1  'x, y, z'
loop_
 _atom_site_type_symbol
 _atom_site_label
 _atom_site_symmetry_multiplicity
 _atom_site_fract_x
 _atom_site_fract_y
 _atom_site_fract_z
 _atom_site_occupancy
  W  W0  1  0.00000000  0.00000000  0.09391700  1
  W  W1  1  0.00000000  0.00000000  0.46965800  1
  W  W2  1  0.33333300  0.66666700  0.28179900  1
  W  W3  1  0.33333300  0.66666700  0.65754800  1
  Se  Se4  1  0.00000000  0.00000000  0.32814100  1
  Se  Se5  1  0.00000000  0.00000000  0.70393100  1
  Se  Se6  1  0.00000000  0.00000000  0.23543300  1
  Se  Se7  1  0.00000000  0.00000000  0.61117900  1
  S  S8  1  0.33333300  0.66666700  0.05182700  1
  S  S9  1  0.33333300  0.66666700  0.42758400  1
  S  S10  1  0.33333300  0.66666700  0.13600400  1
  S  S11  1  0.33333300  0.66666700  0.51172800  1
