# generated using pymatgen
data_W2Se3S
_symmetry_space_group_name_H-M   'P 1'
_cell_length_a   3.28695789
_cell_length_b   3.28695789
_cell_length_c   37.44428300
_cell_angle_alpha   90.00000000
_cell_angle_beta   90.00000000
_cell_angle_gamma   119.99999775
_symmetry_Int_Tables_number   1
_chemical_formula_structural   W2Se3S
_chemical_formula_sum   'W4 Se6 S2'
_cell_volume   350.35187052
_cell_formula_units_Z   2
loop_
 _symmetry_equiv_pos_site_id
 _symmetry_equiv_pos_as_xyz
  1  'x, y, z'
loop_
 _atom_site_type_symbol
 _atom_site_label
 _atom_site_symmetry_multiplicity
 _atom_site_fract_x
 _atom_site_fract_y
 _atom_site_fract_z
 _atom_site_occupancy
  W  W0  1  0.00000000  0.00000000  0.09391900  1
  W  W1  1  0.00000000  0.00000000  0.46965900  1
  W  W2  1  0.33333300  0.66666700  0.28178900  1
  W  W3  1  0.33333300  0.66666700  0.65754700  1
  Se  Se4  1  0.00000000  0.00000000  0.32706700  1
  Se  Se5  1  0.00000000  0.00000000  0.70282700  1
  Se  Se6  1  0.33333300  0.66666700  0.42438200  1
  Se  Se7  1  0.33333300  0.66666700  0.51493900  1
  Se  Se8  1  0.00000000  0.00000000  0.23651700  1
  Se  Se9  1  0.00000000  0.00000000  0.61225100  1
  S  S10  1  0.33333300  0.66666700  0.05276900  1
  S  S11  1  0.33333300  0.66666700  0.13508200  1
