# generated using pymatgen
data_DyMnO3
_symmetry_space_group_name_H-M   'P 1'
_cell_length_a   3.40013600
_cell_length_b   6.00860500
_cell_length_c   12.99438000
_cell_angle_alpha   90.00000000
_cell_angle_beta   90.00000000
_cell_angle_gamma   90.00000000
_symmetry_Int_Tables_number   1
_chemical_formula_structural   DyMnO3
_chemical_formula_sum   'Dy4 Mn4 O12'
_cell_volume   265.47614720
_cell_formula_units_Z   4
loop_
 _symmetry_equiv_pos_site_id
 _symmetry_equiv_pos_as_xyz
  1  'x, y, z'
loop_
 _atom_site_type_symbol
 _atom_site_label
 _atom_site_symmetry_multiplicity
 _atom_site_fract_x
 _atom_site_fract_y
 _atom_site_fract_z
 _atom_site_occupancy
  Dy  Dy0  1  0.75517700  0.69163300  0.25000000  1
  Dy  Dy1  1  0.74482300  0.19163300  0.25000000  1
  Dy  Dy2  1  0.24482300  0.30836700  0.75000000  1
  Dy  Dy3  1  0.25517700  0.80836700  0.75000000  1
  Mn  Mn4  1  0.50000000  0.50000000  0.00000000  1
  Mn  Mn5  1  0.00000000  0.00000000  0.50000000  1
  Mn  Mn6  1  0.50000000  0.50000000  0.50000000  1
  Mn  Mn7  1  0.00000000  0.00000000  0.00000000  1
  O  O8  1  0.24498900  0.95049900  0.25000000  1
  O  O9  1  0.25501100  0.45049900  0.25000000  1
  O  O10  1  0.75501100  0.04950100  0.75000000  1
  O  O11  1  0.74498900  0.54950100  0.75000000  1
  O  O12  1  0.75997100  0.74517400  0.07805500  1
  O  O13  1  0.74002900  0.24517400  0.42194500  1
  O  O14  1  0.24002900  0.25482600  0.57805500  1
  O  O15  1  0.25997100  0.75482600  0.92194500  1
  O  O16  1  0.24002900  0.25482600  0.92194500  1
  O  O17  1  0.25997100  0.75482600  0.57805500  1
  O  O18  1  0.75997100  0.74517400  0.42194500  1
  O  O19  1  0.74002900  0.24517400  0.07805500  1
