# generated using pymatgen
data_Sc4Ge6Ru7
_symmetry_space_group_name_H-M   'P 1'
_cell_length_a   7.06873490
_cell_length_b   7.06873490
_cell_length_c   7.06873490
_cell_angle_alpha   109.47122063
_cell_angle_beta   109.47122063
_cell_angle_gamma   109.47122063
_symmetry_Int_Tables_number   1
_chemical_formula_structural   Sc4Ge6Ru7
_chemical_formula_sum   'Sc4 Ge6 Ru7'
_cell_volume   271.89623491
_cell_formula_units_Z   1
loop_
 _symmetry_equiv_pos_site_id
 _symmetry_equiv_pos_as_xyz
  1  'x, y, z'
loop_
 _atom_site_type_symbol
 _atom_site_label
 _atom_site_symmetry_multiplicity
 _atom_site_fract_x
 _atom_site_fract_y
 _atom_site_fract_z
 _atom_site_occupancy
  Sc  Sc0  1  0.00000000  0.00000000  0.50000000  1
  Sc  Sc1  1  0.00000000  0.50000000  0.00000000  1
  Sc  Sc2  1  0.50000000  0.00000000  0.00000000  1
  Sc  Sc3  1  0.50000000  0.50000000  0.50000000  1
  Ge  Ge4  1  0.69093900  0.69093900  0.00000000  1
  Ge  Ge5  1  0.30906100  0.00000000  0.30906100  1
  Ge  Ge6  1  0.00000000  0.30906100  0.30906100  1
  Ge  Ge7  1  0.30906100  0.30906100  0.00000000  1
  Ge  Ge8  1  0.69093800  0.00000000  0.69093900  1
  Ge  Ge9  1  0.00000000  0.69093900  0.69093900  1
  Ru  Ru10  1  0.75000000  0.25000000  0.50000000  1
  Ru  Ru11  1  0.75000000  0.50000000  0.25000000  1
  Ru  Ru12  1  0.50000000  0.25000000  0.75000000  1
  Ru  Ru13  1  0.25000000  0.50000000  0.75000000  1
  Ru  Ru14  1  0.25000000  0.75000000  0.50000000  1
  Ru  Ru15  1  0.50000000  0.75000000  0.25000000  1
  Ru  Ru16  1  0.00000000  0.00000000  0.00000000  1
