# generated using pymatgen
data_Ta4AlN3
_symmetry_space_group_name_H-M   'P 1'
_cell_length_a   2.97527995
_cell_length_b   2.97527995
_cell_length_c   25.78130200
_cell_angle_alpha   90.00000000
_cell_angle_beta   90.00000000
_cell_angle_gamma   119.99999878
_symmetry_Int_Tables_number   1
_chemical_formula_structural   Ta4AlN3
_chemical_formula_sum   'Ta8 Al2 N6'
_cell_volume   197.64742155
_cell_formula_units_Z   2
loop_
 _symmetry_equiv_pos_site_id
 _symmetry_equiv_pos_as_xyz
  1  'x, y, z'
loop_
 _atom_site_type_symbol
 _atom_site_label
 _atom_site_symmetry_multiplicity
 _atom_site_fract_x
 _atom_site_fract_y
 _atom_site_fract_z
 _atom_site_occupancy
  Ta  Ta0  1  0.33333300  0.66666700  0.44489800  1
  Ta  Ta1  1  0.66666700  0.33333300  0.55510200  1
  Ta  Ta2  1  0.66666700  0.33333300  0.94489800  1
  Ta  Ta3  1  0.33333300  0.66666700  0.05510200  1
  Ta  Ta4  1  0.33333300  0.66666700  0.83627800  1
  Ta  Ta5  1  0.66666700  0.33333300  0.16372200  1
  Ta  Ta6  1  0.66666700  0.33333300  0.33627800  1
  Ta  Ta7  1  0.33333300  0.66666700  0.66372200  1
  Al  Al8  1  0.33333300  0.66666700  0.25000000  1
  Al  Al9  1  0.66666700  0.33333300  0.75000000  1
  N  N10  1  0.00000000  0.00000000  0.50000000  1
  N  N11  1  0.00000000  0.00000000  0.00000000  1
  N  N12  1  0.00000000  0.00000000  0.39115300  1
  N  N13  1  0.00000000  0.00000000  0.60884700  1
  N  N14  1  0.00000000  0.00000000  0.89115300  1
  N  N15  1  0.00000000  0.00000000  0.10884700  1
