# generated using pymatgen
data_BaSm(CoO3)2
_symmetry_space_group_name_H-M   'P 1'
_cell_length_a   3.96718300
_cell_length_b   7.73499600
_cell_length_c   7.74271600
_cell_angle_alpha   90.00000000
_cell_angle_beta   90.00000000
_cell_angle_gamma   90.00000000
_symmetry_Int_Tables_number   1
_chemical_formula_structural   BaSm(CoO3)2
_chemical_formula_sum   'Ba2 Sm2 Co4 O12'
_cell_volume   237.59410305
_cell_formula_units_Z   2
loop_
 _symmetry_equiv_pos_site_id
 _symmetry_equiv_pos_as_xyz
  1  'x, y, z'
loop_
 _atom_site_type_symbol
 _atom_site_label
 _atom_site_symmetry_multiplicity
 _atom_site_fract_x
 _atom_site_fract_y
 _atom_site_fract_z
 _atom_site_occupancy
  Ba  Ba0  1  0.50000000  0.00000000  0.24792500  1
  Ba  Ba1  1  0.50000000  0.00000000  0.75207500  1
  Sm  Sm2  1  0.50000000  0.50000000  0.24349500  1
  Sm  Sm3  1  0.50000000  0.50000000  0.75650500  1
  Co  Co4  1  0.00000000  0.74651000  0.50000000  1
  Co  Co5  1  0.00000000  0.25349000  0.50000000  1
  Co  Co6  1  0.00000000  0.74480400  0.00000000  1
  Co  Co7  1  0.00000000  0.25519600  0.00000000  1
  O  O8  1  0.00000000  0.00000000  0.00000000  1
  O  O9  1  0.00000000  0.00000000  0.50000000  1
  O  O10  1  0.00000000  0.50000000  0.50000000  1
  O  O11  1  0.00000000  0.50000000  0.00000000  1
  O  O12  1  0.50000000  0.71485500  0.00000000  1
  O  O13  1  0.50000000  0.28514500  0.00000000  1
  O  O14  1  0.50000000  0.72320200  0.50000000  1
  O  O15  1  0.50000000  0.27679800  0.50000000  1
  O  O16  1  0.00000000  0.72744200  0.24009500  1
  O  O17  1  0.00000000  0.72744200  0.75990500  1
  O  O18  1  0.00000000  0.27255800  0.75990500  1
  O  O19  1  0.00000000  0.27255800  0.24009500  1
