# generated using pymatgen
data_PrZn3
_symmetry_space_group_name_H-M   'P 1'
_cell_length_a   4.58470600
_cell_length_b   6.73724800
_cell_length_c   10.46567300
_cell_angle_alpha   90.00000000
_cell_angle_beta   90.00000000
_cell_angle_gamma   90.00000000
_symmetry_Int_Tables_number   1
_chemical_formula_structural   PrZn3
_chemical_formula_sum   'Pr4 Zn12'
_cell_volume   323.26686124
_cell_formula_units_Z   4
loop_
 _symmetry_equiv_pos_site_id
 _symmetry_equiv_pos_as_xyz
  1  'x, y, z'
loop_
 _atom_site_type_symbol
 _atom_site_label
 _atom_site_symmetry_multiplicity
 _atom_site_fract_x
 _atom_site_fract_y
 _atom_site_fract_z
 _atom_site_occupancy
  Pr  Pr0  1  0.25000000  0.27608200  0.65867900  1
  Pr  Pr1  1  0.25000000  0.77608200  0.84132100  1
  Pr  Pr2  1  0.75000000  0.72391800  0.34132100  1
  Pr  Pr3  1  0.75000000  0.22391800  0.15867900  1
  Zn  Zn4  1  0.25000000  0.53492100  0.10567400  1
  Zn  Zn5  1  0.25000000  0.03492100  0.39432600  1
  Zn  Zn6  1  0.75000000  0.46507900  0.89432600  1
  Zn  Zn7  1  0.75000000  0.96507900  0.60567400  1
  Zn  Zn8  1  0.25000000  0.91480100  0.14705500  1
  Zn  Zn9  1  0.25000000  0.41480100  0.35294500  1
  Zn  Zn10  1  0.75000000  0.08519900  0.85294500  1
  Zn  Zn11  1  0.75000000  0.58519900  0.64705500  1
  Zn  Zn12  1  0.25000000  0.21706300  0.95647800  1
  Zn  Zn13  1  0.25000000  0.71706300  0.54352200  1
  Zn  Zn14  1  0.75000000  0.78293700  0.04352200  1
  Zn  Zn15  1  0.75000000  0.28293700  0.45647800  1
