# generated using pymatgen
data_CoTe(PbO3)2
_symmetry_space_group_name_H-M   'P 1'
_cell_length_a   5.73349600
_cell_length_b   5.79424336
_cell_length_c   8.03740143
_cell_angle_alpha   90.31310889
_cell_angle_beta   90.00000000
_cell_angle_gamma   90.00000000
_symmetry_Int_Tables_number   1
_chemical_formula_structural   CoTe(PbO3)2
_chemical_formula_sum   'Co2 Te2 Pb4 O12'
_cell_volume   267.00870504
_cell_formula_units_Z   2
loop_
 _symmetry_equiv_pos_site_id
 _symmetry_equiv_pos_as_xyz
  1  'x, y, z'
loop_
 _atom_site_type_symbol
 _atom_site_label
 _atom_site_symmetry_multiplicity
 _atom_site_fract_x
 _atom_site_fract_y
 _atom_site_fract_z
 _atom_site_occupancy
  Co  Co0  1  0.50000000  0.50000000  0.50000000  1
  Co  Co1  1  0.00000000  0.00000000  0.00000000  1
  Te  Te2  1  0.50000000  0.50000000  0.00000000  1
  Te  Te3  1  0.00000000  0.00000000  0.50000000  1
  Pb  Pb4  1  0.99269700  0.49611000  0.75329800  1
  Pb  Pb5  1  0.50730300  0.99611000  0.25329800  1
  Pb  Pb6  1  0.00730300  0.50389000  0.24670200  1
  Pb  Pb7  1  0.49269700  0.00389000  0.74670200  1
  O  O8  1  0.50847500  0.55013400  0.75885000  1
  O  O9  1  0.99152500  0.05013400  0.25885000  1
  O  O10  1  0.49152500  0.44986600  0.24115000  1
  O  O11  1  0.00847500  0.94986600  0.74115000  1
  O  O12  1  0.22910100  0.75148800  0.47031500  1
  O  O13  1  0.27089900  0.25148800  0.97031500  1
  O  O14  1  0.77089900  0.24851200  0.52968500  1
  O  O15  1  0.72910100  0.74851200  0.02968500  1
  O  O16  1  0.74526200  0.77575000  0.47464000  1
  O  O17  1  0.75473800  0.27575000  0.97464000  1
  O  O18  1  0.25473800  0.22425000  0.52536000  1
  O  O19  1  0.24526200  0.72425000  0.02536000  1
