# generated using pymatgen
data_Sm2Ge5Pt3
_symmetry_space_group_name_H-M   'P 1'
_cell_length_a   8.46652193
_cell_length_b   8.46652193
_cell_length_c   8.46652193
_cell_angle_alpha   136.15596091
_cell_angle_beta   105.31231653
_cell_angle_gamma   90.84179673
_symmetry_Int_Tables_number   1
_chemical_formula_structural   Sm2Ge5Pt3
_chemical_formula_sum   'Sm4 Ge10 Pt6'
_cell_volume   385.88327515
_cell_formula_units_Z   2
loop_
 _symmetry_equiv_pos_site_id
 _symmetry_equiv_pos_as_xyz
  1  'x, y, z'
loop_
 _atom_site_type_symbol
 _atom_site_label
 _atom_site_symmetry_multiplicity
 _atom_site_fract_x
 _atom_site_fract_y
 _atom_site_fract_z
 _atom_site_occupancy
  Sm  Sm0  1  0.59868700  0.36918200  0.22950500  1
  Sm  Sm1  1  0.40131300  0.63081800  0.77049500  1
  Sm  Sm2  1  0.13967700  0.86918200  0.27049500  1
  Sm  Sm3  1  0.86032300  0.13081800  0.72950500  1
  Ge  Ge4  1  0.50000000  0.25000000  0.75000000  1
  Ge  Ge5  1  0.50000000  0.75000000  0.25000000  1
  Ge  Ge6  1  0.22794300  0.47794300  0.25000000  1
  Ge  Ge7  1  0.77205700  0.02205700  0.25000000  1
  Ge  Ge8  1  0.77205700  0.52205700  0.75000000  1
  Ge  Ge9  1  0.22794300  0.97794300  0.75000000  1
  Ge  Ge10  1  0.95000600  0.60489300  0.34511300  1
  Ge  Ge11  1  0.04999400  0.39510700  0.65488700  1
  Ge  Ge12  1  0.25977900  0.10489300  0.15488700  1
  Ge  Ge13  1  0.74022100  0.89510700  0.84511300  1
  Pt  Pt14  1  0.00000000  0.75000000  0.75000000  1
  Pt  Pt15  1  0.00000000  0.25000000  0.25000000  1
  Pt  Pt16  1  0.52748700  0.13869400  0.38879200  1
  Pt  Pt17  1  0.47251300  0.86130600  0.61120800  1
  Pt  Pt18  1  0.74990200  0.63869400  0.11120800  1
  Pt  Pt19  1  0.25009800  0.36130600  0.88879200  1
