# generated using pymatgen
data_PtC8(NCl3)2
_symmetry_space_group_name_H-M   'P 1'
_cell_length_a   7.67338844
_cell_length_b   7.67338844
_cell_length_c   7.67338844
_cell_angle_alpha   60.00000000
_cell_angle_beta   60.00000000
_cell_angle_gamma   60.00000000
_symmetry_Int_Tables_number   1
_chemical_formula_structural   PtC8(NCl3)2
_chemical_formula_sum   'Pt1 C8 N2 Cl6'
_cell_volume   319.48211620
_cell_formula_units_Z   1
loop_
 _symmetry_equiv_pos_site_id
 _symmetry_equiv_pos_as_xyz
  1  'x, y, z'
loop_
 _atom_site_type_symbol
 _atom_site_label
 _atom_site_symmetry_multiplicity
 _atom_site_fract_x
 _atom_site_fract_y
 _atom_site_fract_z
 _atom_site_occupancy
  Pt  Pt0  1  0.00000000  0.00000000  0.00000000  1
  C  C1  1  0.67322900  0.67322900  0.98031300  1
  C  C2  1  0.67322900  0.98031300  0.67322900  1
  C  C3  1  0.98031300  0.67322900  0.67322900  1
  C  C4  1  0.67322900  0.67322900  0.67322900  1
  C  C5  1  0.32677100  0.32677100  0.01968700  1
  C  C6  1  0.32677100  0.01968700  0.32677100  1
  C  C7  1  0.01968700  0.32677100  0.32677100  1
  C  C8  1  0.32677100  0.32677100  0.32677100  1
  N  N9  1  0.75000000  0.75000000  0.75000000  1
  N  N10  1  0.25000000  0.25000000  0.25000000  1
  Cl  Cl11  1  0.78487400  0.78487400  0.21512600  1
  Cl  Cl12  1  0.21512600  0.78487400  0.21512600  1
  Cl  Cl13  1  0.78487400  0.21512600  0.21512600  1
  Cl  Cl14  1  0.21512600  0.21512600  0.78487400  1
  Cl  Cl15  1  0.78487400  0.21512600  0.78487400  1
  Cl  Cl16  1  0.21512600  0.78487400  0.78487400  1
