# generated using pymatgen
data_Rb2AlOF5
_symmetry_space_group_name_H-M   'P 1'
_cell_length_a   6.39481619
_cell_length_b   6.39481619
_cell_length_c   7.63563900
_cell_angle_alpha   90.00000000
_cell_angle_beta   90.00000000
_cell_angle_gamma   99.49042250
_symmetry_Int_Tables_number   1
_chemical_formula_structural   Rb2AlOF5
_chemical_formula_sum   'Rb4 Al2 O2 F10'
_cell_volume   307.97563144
_cell_formula_units_Z   2
loop_
 _symmetry_equiv_pos_site_id
 _symmetry_equiv_pos_as_xyz
  1  'x, y, z'
loop_
 _atom_site_type_symbol
 _atom_site_label
 _atom_site_symmetry_multiplicity
 _atom_site_fract_x
 _atom_site_fract_y
 _atom_site_fract_z
 _atom_site_occupancy
  Rb  Rb0  1  0.50136700  0.95551800  0.25000000  1
  Rb  Rb1  1  0.04448200  0.49863300  0.75000000  1
  Rb  Rb2  1  0.49863300  0.04448200  0.75000000  1
  Rb  Rb3  1  0.95551800  0.50136700  0.25000000  1
  Al  Al4  1  0.00000000  0.00000000  0.50000000  1
  Al  Al5  1  0.00000000  0.00000000  0.00000000  1
  O  O6  1  0.42966400  0.42966400  0.25000000  1
  O  O7  1  0.57033600  0.57033600  0.75000000  1
  F  F8  1  0.18433300  0.81566700  0.50000000  1
  F  F9  1  0.18433300  0.81566700  0.00000000  1
  F  F10  1  0.81566700  0.18433300  0.50000000  1
  F  F11  1  0.81566700  0.18433300  0.00000000  1
  F  F12  1  0.21914700  0.21914700  0.49167300  1
  F  F13  1  0.78085300  0.78085300  0.50832700  1
  F  F14  1  0.21914700  0.21914700  0.00832700  1
  F  F15  1  0.78085300  0.78085300  0.99167300  1
  F  F16  1  0.98921400  0.98921400  0.25000000  1
  F  F17  1  0.01078600  0.01078600  0.75000000  1
