# generated using pymatgen
data_K2HgS(ClO2)2
_symmetry_space_group_name_H-M   'P 1'
_cell_length_a   6.09933631
_cell_length_b   7.38762305
_cell_length_c   10.76482763
_cell_angle_alpha   76.35292968
_cell_angle_beta   87.68089390
_cell_angle_gamma   67.66103760
_symmetry_Int_Tables_number   1
_chemical_formula_structural   K2HgS(ClO2)2
_chemical_formula_sum   'K4 Hg2 S2 Cl4 O8'
_cell_volume   435.33519678
_cell_formula_units_Z   2
loop_
 _symmetry_equiv_pos_site_id
 _symmetry_equiv_pos_as_xyz
  1  'x, y, z'
loop_
 _atom_site_type_symbol
 _atom_site_label
 _atom_site_symmetry_multiplicity
 _atom_site_fract_x
 _atom_site_fract_y
 _atom_site_fract_z
 _atom_site_occupancy
  K  K0  1  0.00908500  0.53158700  0.76350800  1
  K  K1  1  0.99091500  0.46841300  0.23649200  1
  K  K2  1  0.70663100  0.19156800  0.59600000  1
  K  K3  1  0.29336900  0.80843200  0.40400000  1
  Hg  Hg4  1  0.33200900  0.82790700  0.94627500  1
  Hg  Hg5  1  0.66799100  0.17209300  0.05372500  1
  S  S6  1  0.29515200  0.95077000  0.70744500  1
  S  S7  1  0.70484800  0.04923000  0.29255500  1
  Cl  Cl8  1  0.16161500  0.17752900  0.04003900  1
  Cl  Cl9  1  0.83838500  0.82247100  0.95996100  1
  Cl  Cl10  1  0.43298000  0.59765800  0.16210200  1
  Cl  Cl11  1  0.56702000  0.40234200  0.83789800  1
  O  O12  1  0.15196400  0.85860300  0.65464600  1
  O  O13  1  0.84803600  0.14139700  0.34535400  1
  O  O14  1  0.54063300  0.88758400  0.66343500  1
  O  O15  1  0.45936700  0.11241600  0.33656500  1
  O  O16  1  0.17298900  0.17422800  0.68048600  1
  O  O17  1  0.82701100  0.82577200  0.31951400  1
  O  O18  1  0.74991200  0.60151300  0.53285600  1
  O  O19  1  0.25008800  0.39848700  0.46714400  1
