# generated using pymatgen
data_Cu5(PO6)2
_symmetry_space_group_name_H-M   'P 1'
_cell_length_a   4.57176200
_cell_length_b   5.74383398
_cell_length_c   8.42696699
_cell_angle_alpha   76.07325972
_cell_angle_beta   89.60108006
_cell_angle_gamma   84.52623614
_symmetry_Int_Tables_number   1
_chemical_formula_structural   Cu5(PO6)2
_chemical_formula_sum   'Cu5 P2 O12'
_cell_volume   213.77382574
_cell_formula_units_Z   1
loop_
 _symmetry_equiv_pos_site_id
 _symmetry_equiv_pos_as_xyz
  1  'x, y, z'
loop_
 _atom_site_type_symbol
 _atom_site_label
 _atom_site_symmetry_multiplicity
 _atom_site_fract_x
 _atom_site_fract_y
 _atom_site_fract_z
 _atom_site_occupancy
  Cu  Cu0  1  0.00000000  0.50000000  0.50000000  1
  Cu  Cu1  1  0.00000000  0.00000000  0.00000000  1
  Cu  Cu2  1  0.00000000  0.50000000  0.00000000  1
  Cu  Cu3  1  0.05256100  0.04187600  0.33031300  1
  Cu  Cu4  1  0.94743900  0.95812400  0.66968700  1
  P  P5  1  0.50649200  0.65668300  0.22975000  1
  P  P6  1  0.49350800  0.34331700  0.77025000  1
  O  O7  1  0.69480900  0.68843000  0.07220700  1
  O  O8  1  0.30519100  0.31157000  0.92779300  1
  O  O9  1  0.69620200  0.69745800  0.36993300  1
  O  O10  1  0.30379800  0.30254200  0.63006700  1
  O  O11  1  0.28900700  0.90122000  0.18433300  1
  O  O12  1  0.71099300  0.09878000  0.81566700  1
  O  O13  1  0.67456700  0.55515500  0.73401600  1
  O  O14  1  0.32543300  0.44484500  0.26598400  1
  O  O15  1  0.14234800  0.80219100  0.52372700  1
  O  O16  1  0.85765200  0.19780900  0.47627300  1
  O  O17  1  0.12634300  0.78435400  0.87311400  1
  O  O18  1  0.87365700  0.21564600  0.12688600  1
