# generated using pymatgen
data_K3YN6
_symmetry_space_group_name_H-M   'P 1'
_cell_length_a   7.86858616
_cell_length_b   7.86858616
_cell_length_c   7.86858568
_cell_angle_alpha   91.70744981
_cell_angle_beta   91.70744981
_cell_angle_gamma   91.70744515
_symmetry_Int_Tables_number   1
_chemical_formula_structural   K3YN6
_chemical_formula_sum   'K6 Y2 N12'
_cell_volume   486.51858931
_cell_formula_units_Z   2
loop_
 _symmetry_equiv_pos_site_id
 _symmetry_equiv_pos_as_xyz
  1  'x, y, z'
loop_
 _atom_site_type_symbol
 _atom_site_label
 _atom_site_symmetry_multiplicity
 _atom_site_fract_x
 _atom_site_fract_y
 _atom_site_fract_z
 _atom_site_occupancy
  K  K0  1  0.00000000  0.65537400  0.34462600  1
  K  K1  1  0.65537400  0.34462600  0.00000000  1
  K  K2  1  0.34462600  0.00000000  0.65537400  1
  K  K3  1  0.50000000  0.84724300  0.15275700  1
  K  K4  1  0.84724300  0.15275700  0.50000000  1
  K  K5  1  0.15275700  0.50000000  0.84724300  1
  Y  Y6  1  0.74760700  0.74760700  0.74760700  1
  Y  Y7  1  0.25239300  0.25239300  0.25239300  1
  N  N8  1  0.47258500  0.68392700  0.80975800  1
  N  N9  1  0.68392700  0.80975800  0.47258500  1
  N  N10  1  0.80975800  0.47258500  0.68392700  1
  N  N11  1  0.52741500  0.19024200  0.31607300  1
  N  N12  1  0.31607300  0.52741500  0.19024200  1
  N  N13  1  0.19024200  0.31607300  0.52741500  1
  N  N14  1  0.81627000  0.68964600  0.02452300  1
  N  N15  1  0.68964600  0.02452300  0.81627000  1
  N  N16  1  0.02452300  0.81627000  0.68964600  1
  N  N17  1  0.18373000  0.97547700  0.31035400  1
  N  N18  1  0.31035400  0.18373000  0.97547700  1
  N  N19  1  0.97547700  0.31035400  0.18373000  1
