# generated using pymatgen
data_Ca3Tl5
_symmetry_space_group_name_H-M   'P 1'
_cell_length_a   6.70059052
_cell_length_b   6.70059052
_cell_length_c   10.87177700
_cell_angle_alpha   90.00000000
_cell_angle_beta   90.00000000
_cell_angle_gamma   103.31240323
_symmetry_Int_Tables_number   1
_chemical_formula_structural   Ca3Tl5
_chemical_formula_sum   'Ca6 Tl10'
_cell_volume   475.00385048
_cell_formula_units_Z   2
loop_
 _symmetry_equiv_pos_site_id
 _symmetry_equiv_pos_as_xyz
  1  'x, y, z'
loop_
 _atom_site_type_symbol
 _atom_site_label
 _atom_site_symmetry_multiplicity
 _atom_site_fract_x
 _atom_site_fract_y
 _atom_site_fract_z
 _atom_site_occupancy
  Ca  Ca0  1  0.08568900  0.08568900  0.25000000  1
  Ca  Ca1  1  0.91431100  0.91431100  0.75000000  1
  Ca  Ca2  1  0.28623300  0.71376700  0.00000000  1
  Ca  Ca3  1  0.28623300  0.71376700  0.50000000  1
  Ca  Ca4  1  0.71376700  0.28623300  0.00000000  1
  Ca  Ca5  1  0.71376700  0.28623300  0.50000000  1
  Tl  Tl6  1  0.52558800  0.52558800  0.75000000  1
  Tl  Tl7  1  0.47441200  0.47441200  0.25000000  1
  Tl  Tl8  1  0.44449800  0.01780300  0.75000000  1
  Tl  Tl9  1  0.98219700  0.55550200  0.25000000  1
  Tl  Tl10  1  0.55550200  0.98219700  0.25000000  1
  Tl  Tl11  1  0.01780300  0.44449800  0.75000000  1
  Tl  Tl12  1  0.20397000  0.20397000  0.96503000  1
  Tl  Tl13  1  0.79603000  0.79603000  0.03497000  1
  Tl  Tl14  1  0.20397000  0.20397000  0.53497000  1
  Tl  Tl15  1  0.79603000  0.79603000  0.46503000  1
