# generated using pymatgen
data_KMgPO5
_symmetry_space_group_name_H-M   'P 1'
_cell_length_a   4.93821900
_cell_length_b   5.45977400
_cell_length_c   8.32031900
_cell_angle_alpha   90.00000000
_cell_angle_beta   90.00000000
_cell_angle_gamma   90.00000000
_symmetry_Int_Tables_number   1
_chemical_formula_structural   KMgPO5
_chemical_formula_sum   'K2 Mg2 P2 O10'
_cell_volume   224.32877746
_cell_formula_units_Z   2
loop_
 _symmetry_equiv_pos_site_id
 _symmetry_equiv_pos_as_xyz
  1  'x, y, z'
loop_
 _atom_site_type_symbol
 _atom_site_label
 _atom_site_symmetry_multiplicity
 _atom_site_fract_x
 _atom_site_fract_y
 _atom_site_fract_z
 _atom_site_occupancy
  K  K0  1  0.51235800  0.00000000  0.53678000  1
  K  K1  1  0.01235800  0.50000000  0.46322000  1
  Mg  Mg2  1  0.65859300  0.00000000  0.99683300  1
  Mg  Mg3  1  0.15859300  0.50000000  0.00316700  1
  P  P4  1  0.58792300  0.50000000  0.78966900  1
  P  P5  1  0.08792300  0.00000000  0.21033100  1
  O  O6  1  0.89960700  0.50000000  0.81337900  1
  O  O7  1  0.39960700  0.00000000  0.18662100  1
  O  O8  1  0.52103500  0.50000000  0.60978500  1
  O  O9  1  0.02103500  0.00000000  0.39021500  1
  O  O10  1  0.45763600  0.72463000  0.87884900  1
  O  O11  1  0.45763600  0.27537000  0.87884900  1
  O  O12  1  0.95763600  0.77537000  0.12115100  1
  O  O13  1  0.95763600  0.22463000  0.12115100  1
  O  O14  1  0.93801100  0.00000000  0.79542300  1
  O  O15  1  0.43801100  0.50000000  0.20457700  1
