# generated using pymatgen
data_Cs3NiCl5
_symmetry_space_group_name_H-M   'P 1'
_cell_length_a   9.99320812
_cell_length_b   9.99320812
_cell_length_c   9.99320812
_cell_angle_alpha   124.74537208
_cell_angle_beta   124.74537208
_cell_angle_gamma   81.96020924
_symmetry_Int_Tables_number   1
_chemical_formula_structural   Cs3NiCl5
_chemical_formula_sum   'Cs6 Ni2 Cl10'
_cell_volume   648.02901548
_cell_formula_units_Z   2
loop_
 _symmetry_equiv_pos_site_id
 _symmetry_equiv_pos_as_xyz
  1  'x, y, z'
loop_
 _atom_site_type_symbol
 _atom_site_label
 _atom_site_symmetry_multiplicity
 _atom_site_fract_x
 _atom_site_fract_y
 _atom_site_fract_z
 _atom_site_occupancy
  Cs  Cs0  1  0.75000000  0.75000000  0.00000000  1
  Cs  Cs1  1  0.25000000  0.25000000  0.00000000  1
  Cs  Cs2  1  0.16764200  0.66764200  0.83528400  1
  Cs  Cs3  1  0.83235800  0.33235800  0.16471600  1
  Cs  Cs4  1  0.66764200  0.83235800  0.50000000  1
  Cs  Cs5  1  0.33235800  0.16764200  0.50000000  1
  Ni  Ni6  1  0.75000000  0.25000000  0.50000000  1
  Ni  Ni7  1  0.25000000  0.75000000  0.50000000  1
  Cl  Cl8  1  0.00000000  0.00000000  0.00000000  1
  Cl  Cl9  1  0.50000000  0.50000000  0.00000000  1
  Cl  Cl10  1  0.47674500  0.97674500  0.76326600  1
  Cl  Cl11  1  0.21347900  0.71347900  0.23673400  1
  Cl  Cl12  1  0.97674500  0.21347900  0.50000000  1
  Cl  Cl13  1  0.71347900  0.47674500  0.50000000  1
  Cl  Cl14  1  0.52325500  0.02325500  0.23673400  1
  Cl  Cl15  1  0.78652100  0.28652100  0.76326600  1
  Cl  Cl16  1  0.02325500  0.78652100  0.50000000  1
  Cl  Cl17  1  0.28652100  0.52325500  0.50000000  1
