# generated using pymatgen
data_TeMoWSe3
_symmetry_space_group_name_H-M   'P 1'
_cell_length_a   3.37934198
_cell_length_b   3.37934198
_cell_length_c   38.49261000
_cell_angle_alpha   90.00000000
_cell_angle_beta   90.00000000
_cell_angle_gamma   119.99999966
_symmetry_Int_Tables_number   1
_chemical_formula_structural   TeMoWSe3
_chemical_formula_sum   'Te2 Mo2 W2 Se6'
_cell_volume   380.69071115
_cell_formula_units_Z   2
loop_
 _symmetry_equiv_pos_site_id
 _symmetry_equiv_pos_as_xyz
  1  'x, y, z'
loop_
 _atom_site_type_symbol
 _atom_site_label
 _atom_site_symmetry_multiplicity
 _atom_site_fract_x
 _atom_site_fract_y
 _atom_site_fract_z
 _atom_site_occupancy
  Te  Te0  1  0.33333300  0.66666700  0.42081500  1
  Te  Te1  1  0.33333300  0.66666700  0.51850000  1
  Mo  Mo2  1  0.00000000  0.00000000  0.09392000  1
  Mo  Mo3  1  0.00000000  0.00000000  0.46967000  1
  W  W4  1  0.33333300  0.66666700  0.28178100  1
  W  W5  1  0.33333300  0.66666700  0.65756300  1
  Se  Se6  1  0.00000000  0.00000000  0.32497000  1
  Se  Se7  1  0.00000000  0.00000000  0.70073000  1
  Se  Se8  1  0.33333300  0.66666700  0.05088700  1
  Se  Se9  1  0.33333300  0.66666700  0.13695700  1
  Se  Se10  1  0.00000000  0.00000000  0.23859700  1
  Se  Se11  1  0.00000000  0.00000000  0.61435600  1
