# generated using pymatgen
data_ZrC8(NCl3)2
_symmetry_space_group_name_H-M   'P 1'
_cell_length_a   7.85526903
_cell_length_b   7.85526903
_cell_length_c   7.85526903
_cell_angle_alpha   60.00000000
_cell_angle_beta   60.00000000
_cell_angle_gamma   60.00000000
_symmetry_Int_Tables_number   1
_chemical_formula_structural   ZrC8(NCl3)2
_chemical_formula_sum   'Zr1 C8 N2 Cl6'
_cell_volume   342.74268362
_cell_formula_units_Z   1
loop_
 _symmetry_equiv_pos_site_id
 _symmetry_equiv_pos_as_xyz
  1  'x, y, z'
loop_
 _atom_site_type_symbol
 _atom_site_label
 _atom_site_symmetry_multiplicity
 _atom_site_fract_x
 _atom_site_fract_y
 _atom_site_fract_z
 _atom_site_occupancy
  Zr  Zr0  1  0.00000000  0.00000000  0.00000000  1
  C  C1  1  0.67493200  0.67493200  0.97520300  1
  C  C2  1  0.67493200  0.97520300  0.67493200  1
  C  C3  1  0.97520300  0.67493200  0.67493200  1
  C  C4  1  0.67493200  0.67493200  0.67493200  1
  C  C5  1  0.32506800  0.32506800  0.02479700  1
  C  C6  1  0.32506800  0.02479700  0.32506800  1
  C  C7  1  0.02479700  0.32506800  0.32506800  1
  C  C8  1  0.32506800  0.32506800  0.32506800  1
  N  N9  1  0.75000000  0.75000000  0.75000000  1
  N  N10  1  0.25000000  0.25000000  0.25000000  1
  Cl  Cl11  1  0.77591100  0.77591100  0.22408900  1
  Cl  Cl12  1  0.22408900  0.77591100  0.22408900  1
  Cl  Cl13  1  0.77591100  0.22408900  0.22408900  1
  Cl  Cl14  1  0.22408900  0.22408900  0.77591100  1
  Cl  Cl15  1  0.77591100  0.22408900  0.77591100  1
  Cl  Cl16  1  0.22408900  0.77591100  0.77591100  1
