# generated using pymatgen
data_Cs2FeOF5
_symmetry_space_group_name_H-M   'P 1'
_cell_length_a   6.52865845
_cell_length_b   6.52865845
_cell_length_c   9.46977700
_cell_angle_alpha   90.00000000
_cell_angle_beta   90.00000000
_cell_angle_gamma   99.53289963
_symmetry_Int_Tables_number   1
_chemical_formula_structural   Cs2FeOF5
_chemical_formula_sum   'Cs4 Fe2 O2 F10'
_cell_volume   398.05999915
_cell_formula_units_Z   2
loop_
 _symmetry_equiv_pos_site_id
 _symmetry_equiv_pos_as_xyz
  1  'x, y, z'
loop_
 _atom_site_type_symbol
 _atom_site_label
 _atom_site_symmetry_multiplicity
 _atom_site_fract_x
 _atom_site_fract_y
 _atom_site_fract_z
 _atom_site_occupancy
  Cs  Cs0  1  0.21349600  0.78650400  0.50000000  1
  Cs  Cs1  1  0.21349600  0.78650400  0.00000000  1
  Cs  Cs2  1  0.78650400  0.21349600  0.50000000  1
  Cs  Cs3  1  0.78650400  0.21349600  0.00000000  1
  Fe  Fe4  1  0.27095500  0.27095500  0.25000000  1
  Fe  Fe5  1  0.72904500  0.72904500  0.75000000  1
  O  O6  1  0.51987200  0.51987200  0.25000000  1
  O  O7  1  0.48012800  0.48012800  0.75000000  1
  F  F8  1  0.49509400  0.10690500  0.25000000  1
  F  F9  1  0.89309500  0.50490600  0.75000000  1
  F  F10  1  0.50490600  0.89309500  0.75000000  1
  F  F11  1  0.10690500  0.49509400  0.25000000  1
  F  F12  1  0.04391100  0.04391100  0.25000000  1
  F  F13  1  0.95608900  0.95608900  0.75000000  1
  F  F14  1  0.29805000  0.29805000  0.45414400  1
  F  F15  1  0.70195000  0.70195000  0.54585600  1
  F  F16  1  0.29805000  0.29805000  0.04585600  1
  F  F17  1  0.70195000  0.70195000  0.95414400  1
