# generated using pymatgen
data_NaBrO3
_symmetry_space_group_name_H-M   'P 1'
_cell_length_a   7.77917600
_cell_length_b   7.77917600
_cell_length_c   7.77917600
_cell_angle_alpha   90.00000000
_cell_angle_beta   90.00000000
_cell_angle_gamma   90.00000000
_symmetry_Int_Tables_number   1
_chemical_formula_structural   NaBrO3
_chemical_formula_sum   'Na4 Br4 O12'
_cell_volume   470.76134164
_cell_formula_units_Z   4
loop_
 _symmetry_equiv_pos_site_id
 _symmetry_equiv_pos_as_xyz
  1  'x, y, z'
loop_
 _atom_site_type_symbol
 _atom_site_label
 _atom_site_symmetry_multiplicity
 _atom_site_fract_x
 _atom_site_fract_y
 _atom_site_fract_z
 _atom_site_occupancy
  Na  Na0  1  0.49873000  0.99873000  0.50127000  1
  Na  Na1  1  0.99873000  0.50127000  0.49873000  1
  Na  Na2  1  0.50127000  0.49873000  0.99873000  1
  Na  Na3  1  0.00127000  0.00127000  0.00127000  1
  Br  Br4  1  0.05096000  0.55096000  0.94904000  1
  Br  Br5  1  0.55096000  0.94904000  0.05096000  1
  Br  Br6  1  0.94904000  0.05096000  0.55096000  1
  Br  Br7  1  0.44904000  0.44904000  0.44904000  1
  O  O8  1  0.23478500  0.45219300  0.89112500  1
  O  O9  1  0.10887500  0.73478500  0.04780700  1
  O  O10  1  0.95219300  0.60887500  0.76521500  1
  O  O11  1  0.73478500  0.04780700  0.10887500  1
  O  O12  1  0.60887500  0.76521500  0.95219300  1
  O  O13  1  0.45219300  0.89112500  0.23478500  1
  O  O14  1  0.76521500  0.95219300  0.60887500  1
  O  O15  1  0.89112500  0.23478500  0.45219300  1
  O  O16  1  0.04780700  0.10887500  0.73478500  1
  O  O17  1  0.26521500  0.54780700  0.39112500  1
  O  O18  1  0.39112500  0.26521500  0.54780700  1
  O  O19  1  0.54780700  0.39112500  0.26521500  1
