# generated using pymatgen
data_NaNb(CuS2)2
_symmetry_space_group_name_H-M   'P 1'
_cell_length_a   9.61664872
_cell_length_b   9.61664872
_cell_length_c   7.49889000
_cell_angle_alpha   90.00000000
_cell_angle_beta   90.00000000
_cell_angle_gamma   146.60989240
_symmetry_Int_Tables_number   1
_chemical_formula_structural   NaNb(CuS2)2
_chemical_formula_sum   'Na2 Nb2 Cu4 S8'
_cell_volume   381.65668827
_cell_formula_units_Z   2
loop_
 _symmetry_equiv_pos_site_id
 _symmetry_equiv_pos_as_xyz
  1  'x, y, z'
loop_
 _atom_site_type_symbol
 _atom_site_label
 _atom_site_symmetry_multiplicity
 _atom_site_fract_x
 _atom_site_fract_y
 _atom_site_fract_z
 _atom_site_occupancy
  Na  Na0  1  0.18829400  0.82621000  0.75000000  1
  Na  Na1  1  0.82621000  0.18829400  0.25000000  1
  Nb  Nb2  1  0.64006000  0.86378900  0.75000000  1
  Nb  Nb3  1  0.86378900  0.64006000  0.25000000  1
  Cu  Cu4  1  0.14647200  0.35807800  0.75000000  1
  Cu  Cu5  1  0.35807800  0.14647200  0.25000000  1
  Cu  Cu6  1  0.72937300  0.72937300  0.00000000  1
  Cu  Cu7  1  0.72937300  0.72937300  0.50000000  1
  S  S8  1  0.98038900  0.99235200  0.75000000  1
  S  S9  1  0.99235200  0.98038900  0.25000000  1
  S  S10  1  0.39936600  0.61333100  0.00012800  1
  S  S11  1  0.61333100  0.39936600  0.99987200  1
  S  S12  1  0.39936600  0.61333100  0.49987200  1
  S  S13  1  0.61333100  0.39936600  0.50012800  1
  S  S14  1  0.79815000  0.21826500  0.75000000  1
  S  S15  1  0.21826500  0.79815000  0.25000000  1
