# generated using pymatgen
data_Zn2PO5
_symmetry_space_group_name_H-M   'P 1'
_cell_length_a   5.59933400
_cell_length_b   5.76029870
_cell_length_c   6.56256787
_cell_angle_alpha   103.58106472
_cell_angle_beta   102.23157516
_cell_angle_gamma   87.17997581
_symmetry_Int_Tables_number   1
_chemical_formula_structural   Zn2PO5
_chemical_formula_sum   'Zn4 P2 O10'
_cell_volume   201.07877549
_cell_formula_units_Z   2
loop_
 _symmetry_equiv_pos_site_id
 _symmetry_equiv_pos_as_xyz
  1  'x, y, z'
loop_
 _atom_site_type_symbol
 _atom_site_label
 _atom_site_symmetry_multiplicity
 _atom_site_fract_x
 _atom_site_fract_y
 _atom_site_fract_z
 _atom_site_occupancy
  Zn  Zn0  1  0.61247000  0.75681000  0.50871400  1
  Zn  Zn1  1  0.38753000  0.24319000  0.49128600  1
  Zn  Zn2  1  0.96705900  0.26026200  0.81022100  1
  Zn  Zn3  1  0.03294100  0.73973800  0.18977900  1
  P  P4  1  0.16531300  0.75068400  0.72728200  1
  P  P5  1  0.83468700  0.24931600  0.27271800  1
  O  O6  1  0.21960200  0.01071000  0.84849800  1
  O  O7  1  0.78039800  0.98929000  0.15150200  1
  O  O8  1  0.06128700  0.61214800  0.86799200  1
  O  O9  1  0.93871300  0.38785200  0.13200800  1
  O  O10  1  0.39730900  0.61838800  0.66389400  1
  O  O11  1  0.60269100  0.38161200  0.33610600  1
  O  O12  1  0.03162400  0.25275300  0.48468200  1
  O  O13  1  0.96837600  0.74724700  0.51531800  1
  O  O14  1  0.64119300  0.10743900  0.68863600  1
  O  O15  1  0.35880700  0.89256100  0.31136400  1
