# generated using pymatgen
data_Na2BN
_symmetry_space_group_name_H-M   'P 1'
_cell_length_a   9.58083200
_cell_length_b   5.80666200
_cell_length_c   5.27141200
_cell_angle_alpha   90.00000000
_cell_angle_beta   90.00000000
_cell_angle_gamma   90.00000000
_symmetry_Int_Tables_number   1
_chemical_formula_structural   Na2BN
_chemical_formula_sum   'Na8 B4 N4'
_cell_volume   293.26263516
_cell_formula_units_Z   4
loop_
 _symmetry_equiv_pos_site_id
 _symmetry_equiv_pos_as_xyz
  1  'x, y, z'
loop_
 _atom_site_type_symbol
 _atom_site_label
 _atom_site_symmetry_multiplicity
 _atom_site_fract_x
 _atom_site_fract_y
 _atom_site_fract_z
 _atom_site_occupancy
  Na  Na0  1  0.75000000  0.54200100  0.50000000  1
  Na  Na1  1  0.25000000  0.45799900  0.00000000  1
  Na  Na2  1  0.25000000  0.45799900  0.50000000  1
  Na  Na3  1  0.75000000  0.54200100  0.00000000  1
  Na  Na4  1  0.48580100  0.81050000  0.25000000  1
  Na  Na5  1  0.51419900  0.18950000  0.75000000  1
  Na  Na6  1  0.01419900  0.81050000  0.75000000  1
  Na  Na7  1  0.98580100  0.18950000  0.25000000  1
  B  B8  1  0.75000000  0.03075800  0.50000000  1
  B  B9  1  0.25000000  0.96924200  0.00000000  1
  B  B10  1  0.25000000  0.96924200  0.50000000  1
  B  B11  1  0.75000000  0.03075800  0.00000000  1
  N  N12  1  0.75029800  0.93341900  0.25000000  1
  N  N13  1  0.24970200  0.06658100  0.75000000  1
  N  N14  1  0.74970200  0.93341900  0.75000000  1
  N  N15  1  0.25029800  0.06658100  0.25000000  1
