# generated using pymatgen
data_Ag2TeO6
_symmetry_space_group_name_H-M   'P 1'
_cell_length_a   6.31404122
_cell_length_b   6.31404122
_cell_length_c   8.91021632
_cell_angle_alpha   99.27201552
_cell_angle_beta   99.27201552
_cell_angle_gamma   123.04229121
_symmetry_Int_Tables_number   1
_chemical_formula_structural   Ag2TeO6
_chemical_formula_sum   'Ag4 Te2 O12'
_cell_volume   280.25924041
_cell_formula_units_Z   2
loop_
 _symmetry_equiv_pos_site_id
 _symmetry_equiv_pos_as_xyz
  1  'x, y, z'
loop_
 _atom_site_type_symbol
 _atom_site_label
 _atom_site_symmetry_multiplicity
 _atom_site_fract_x
 _atom_site_fract_y
 _atom_site_fract_z
 _atom_site_occupancy
  Ag  Ag0  1  0.73978900  0.16958900  0.33617300  1
  Ag  Ag1  1  0.83041100  0.26021100  0.66382700  1
  Ag  Ag2  1  0.65361600  0.58341600  0.16382700  1
  Ag  Ag3  1  0.41658400  0.34638400  0.83617300  1
  Te  Te4  1  0.23937200  0.76062800  0.50000000  1
  Te  Te5  1  0.98937200  0.01062800  0.00000000  1
  O  O6  1  0.14055100  0.40701600  0.39595100  1
  O  O7  1  0.59298400  0.85944900  0.60404900  1
  O  O8  1  0.99460000  0.76106500  0.10404900  1
  O  O9  1  0.23893500  0.00540000  0.89595100  1
  O  O10  1  0.86703600  0.61415900  0.40081600  1
  O  O11  1  0.38584100  0.13296400  0.59918400  1
  O  O12  1  0.71622100  0.96334300  0.09918400  1
  O  O13  1  0.03665700  0.28377900  0.90081600  1
  O  O14  1  0.36526200  0.85764700  0.31723400  1
  O  O15  1  0.14235300  0.63473800  0.68276600  1
  O  O16  1  0.29802800  0.29041300  0.18276600  1
  O  O17  1  0.70958700  0.70197200  0.81723400  1
