# generated using pymatgen
data_CsNaC2
_symmetry_space_group_name_H-M   'P 1'
_cell_length_a   6.67457500
_cell_length_b   6.96186400
_cell_length_c   8.43259000
_cell_angle_alpha   90.00000000
_cell_angle_beta   90.00000000
_cell_angle_gamma   90.00000000
_symmetry_Int_Tables_number   1
_chemical_formula_structural   CsNaC2
_chemical_formula_sum   'Cs4 Na4 C8'
_cell_volume   391.84123591
_cell_formula_units_Z   4
loop_
 _symmetry_equiv_pos_site_id
 _symmetry_equiv_pos_as_xyz
  1  'x, y, z'
loop_
 _atom_site_type_symbol
 _atom_site_label
 _atom_site_symmetry_multiplicity
 _atom_site_fract_x
 _atom_site_fract_y
 _atom_site_fract_z
 _atom_site_occupancy
  Cs  Cs0  1  0.75000000  0.53357200  0.65701300  1
  Cs  Cs1  1  0.25000000  0.46642800  0.34298700  1
  Cs  Cs2  1  0.25000000  0.96642800  0.65701300  1
  Cs  Cs3  1  0.75000000  0.03357200  0.34298700  1
  Na  Na4  1  0.50000000  0.75000000  0.03101200  1
  Na  Na5  1  0.00000000  0.25000000  0.96898800  1
  Na  Na6  1  0.50000000  0.25000000  0.96898800  1
  Na  Na7  1  0.00000000  0.75000000  0.03101200  1
  C  C8  1  0.75000000  0.55751800  0.24858400  1
  C  C9  1  0.25000000  0.44248200  0.75141600  1
  C  C10  1  0.25000000  0.94248200  0.24858400  1
  C  C11  1  0.75000000  0.05751800  0.75141600  1
  C  C12  1  0.75000000  0.45924300  0.12222900  1
  C  C13  1  0.25000000  0.54075700  0.87777100  1
  C  C14  1  0.25000000  0.04075700  0.12222900  1
  C  C15  1  0.75000000  0.95924300  0.87777100  1
