# generated using pymatgen
data_ZrP2CO6
_symmetry_space_group_name_H-M   'P 1'
_cell_length_a   8.29266800
_cell_length_b   5.14354300
_cell_length_c   7.69054008
_cell_angle_alpha   76.36898384
_cell_angle_beta   90.00000000
_cell_angle_gamma   90.00000000
_symmetry_Int_Tables_number   1
_chemical_formula_structural   ZrP2CO6
_chemical_formula_sum   'Zr2 P4 C2 O12'
_cell_volume   318.79051324
_cell_formula_units_Z   2
loop_
 _symmetry_equiv_pos_site_id
 _symmetry_equiv_pos_as_xyz
  1  'x, y, z'
loop_
 _atom_site_type_symbol
 _atom_site_label
 _atom_site_symmetry_multiplicity
 _atom_site_fract_x
 _atom_site_fract_y
 _atom_site_fract_z
 _atom_site_occupancy
  Zr  Zr0  1  0.19910300  0.70576300  0.76996200  1
  Zr  Zr1  1  0.69910300  0.29423700  0.23003800  1
  P  P2  1  0.95915600  0.25134000  0.60464700  1
  P  P3  1  0.45915600  0.74866000  0.39535300  1
  P  P4  1  0.87211900  0.89332500  0.98899100  1
  P  P5  1  0.37211900  0.10667500  0.01100900  1
  C  C6  1  0.82690200  0.07736300  0.77140700  1
  C  C7  1  0.32690200  0.92263700  0.22859300  1
  O  O8  1  0.87314500  0.09096100  0.11187100  1
  O  O9  1  0.37314500  0.90903900  0.88812900  1
  O  O10  1  0.04207400  0.78245300  0.96881400  1
  O  O11  1  0.54207400  0.21754700  0.03118600  1
  O  O12  1  0.75334800  0.66418100  0.05778200  1
  O  O13  1  0.25334800  0.33581900  0.94221800  1
  O  O14  1  0.10200900  0.05933500  0.60342100  1
  O  O15  1  0.60200900  0.94066500  0.39657900  1
  O  O16  1  0.01671600  0.50471500  0.65889500  1
  O  O17  1  0.51671600  0.49528500  0.34110500  1
  O  O18  1  0.86942800  0.32355400  0.42459000  1
  O  O19  1  0.36942800  0.67644600  0.57541000  1
