# generated using pymatgen
data_Tb6RhBr10
_symmetry_space_group_name_H-M   'P 1'
_cell_length_a   7.41962300
_cell_length_b   9.26469167
_cell_length_c   9.29469183
_cell_angle_alpha   108.32307817
_cell_angle_beta   97.16192755
_cell_angle_gamma   105.42795973
_symmetry_Int_Tables_number   1
_chemical_formula_structural   Tb6RhBr10
_chemical_formula_sum   'Tb6 Rh1 Br10'
_cell_volume   569.32256604
_cell_formula_units_Z   1
loop_
 _symmetry_equiv_pos_site_id
 _symmetry_equiv_pos_as_xyz
  1  'x, y, z'
loop_
 _atom_site_type_symbol
 _atom_site_label
 _atom_site_symmetry_multiplicity
 _atom_site_fract_x
 _atom_site_fract_y
 _atom_site_fract_z
 _atom_site_occupancy
  Tb  Tb0  1  0.63427300  0.86064600  0.81888000  1
  Tb  Tb1  1  0.36572700  0.13935400  0.18112000  1
  Tb  Tb2  1  0.97411100  0.29996200  0.09519300  1
  Tb  Tb3  1  0.02588900  0.70003800  0.90480700  1
  Tb  Tb4  1  0.12430600  0.04501700  0.75380300  1
  Tb  Tb5  1  0.87569400  0.95498300  0.24619700  1
  Rh  Rh6  1  0.00000000  0.00000000  0.00000000  1
  Br  Br7  1  0.64073700  0.54179500  0.72608200  1
  Br  Br8  1  0.35926300  0.45820500  0.27391800  1
  Br  Br9  1  0.54841900  0.17506600  0.91535600  1
  Br  Br10  1  0.45158100  0.82493400  0.08464400  1
  Br  Br11  1  0.20773100  0.73993400  0.65008400  1
  Br  Br12  1  0.79226900  0.26006600  0.34991600  1
  Br  Br13  1  0.08595800  0.37007700  0.82896000  1
  Br  Br14  1  0.91404200  0.62992300  0.17104000  1
  Br  Br15  1  0.74819100  0.91633700  0.54189200  1
  Br  Br16  1  0.25180900  0.08366300  0.45810800  1
