# generated using pymatgen
data_CaBO3
_symmetry_space_group_name_H-M   'P 1'
_cell_length_a   9.43989900
_cell_length_b   3.68089800
_cell_length_c   8.19471793
_cell_angle_alpha   69.00875662
_cell_angle_beta   90.00000000
_cell_angle_gamma   90.00000000
_symmetry_Int_Tables_number   1
_chemical_formula_structural   CaBO3
_chemical_formula_sum   'Ca4 B4 O12'
_cell_volume   265.84735931
_cell_formula_units_Z   4
loop_
 _symmetry_equiv_pos_site_id
 _symmetry_equiv_pos_as_xyz
  1  'x, y, z'
loop_
 _atom_site_type_symbol
 _atom_site_label
 _atom_site_symmetry_multiplicity
 _atom_site_fract_x
 _atom_site_fract_y
 _atom_site_fract_z
 _atom_site_occupancy
  Ca  Ca0  1  0.49619800  0.92822200  0.28678100  1
  Ca  Ca1  1  0.99619800  0.07177800  0.21321900  1
  Ca  Ca2  1  0.50380200  0.07177800  0.71321900  1
  Ca  Ca3  1  0.00380200  0.92822200  0.78678100  1
  B  B4  1  0.73871500  0.28768100  0.93158700  1
  B  B5  1  0.23871500  0.71231900  0.56841300  1
  B  B6  1  0.26128500  0.71231900  0.06841300  1
  B  B7  1  0.76128500  0.28768100  0.43158700  1
  O  O8  1  0.61757300  0.31274000  0.42647700  1
  O  O9  1  0.11757300  0.68726000  0.07352300  1
  O  O10  1  0.38242700  0.68726000  0.57352300  1
  O  O11  1  0.88242700  0.31274000  0.92647700  1
  O  O12  1  0.64548000  0.50060600  0.80325400  1
  O  O13  1  0.14548000  0.49939400  0.69674600  1
  O  O14  1  0.35452000  0.49939400  0.19674600  1
  O  O15  1  0.85452000  0.50060600  0.30325400  1
  O  O16  1  0.66228700  0.02490200  0.06424900  1
  O  O17  1  0.16228700  0.97509800  0.43575100  1
  O  O18  1  0.33771300  0.97509800  0.93575100  1
  O  O19  1  0.83771300  0.02490200  0.56424900  1
