# generated using pymatgen
data_SrBO3
_symmetry_space_group_name_H-M   'P 1'
_cell_length_a   5.80494300
_cell_length_b   6.84678700
_cell_length_c   7.05723500
_cell_angle_alpha   90.00000000
_cell_angle_beta   90.00000000
_cell_angle_gamma   90.00000000
_symmetry_Int_Tables_number   1
_chemical_formula_structural   SrBO3
_chemical_formula_sum   'Sr4 B4 O12'
_cell_volume   280.49127487
_cell_formula_units_Z   4
loop_
 _symmetry_equiv_pos_site_id
 _symmetry_equiv_pos_as_xyz
  1  'x, y, z'
loop_
 _atom_site_type_symbol
 _atom_site_label
 _atom_site_symmetry_multiplicity
 _atom_site_fract_x
 _atom_site_fract_y
 _atom_site_fract_z
 _atom_site_occupancy
  Sr  Sr0  1  0.25000000  0.15183200  0.33426100  1
  Sr  Sr1  1  0.25000000  0.34816800  0.83426100  1
  Sr  Sr2  1  0.75000000  0.84816800  0.66573900  1
  Sr  Sr3  1  0.75000000  0.65183200  0.16573900  1
  B  B4  1  0.25000000  0.71397400  0.41264600  1
  B  B5  1  0.25000000  0.78602600  0.91264600  1
  B  B6  1  0.75000000  0.28602600  0.58735400  1
  B  B7  1  0.75000000  0.21397400  0.08735400  1
  O  O8  1  0.45696300  0.80648600  0.38770100  1
  O  O9  1  0.04303700  0.69351400  0.88770100  1
  O  O10  1  0.95696300  0.19351400  0.61229900  1
  O  O11  1  0.54303700  0.30648600  0.11229900  1
  O  O12  1  0.54303700  0.19351400  0.61229900  1
  O  O13  1  0.95696300  0.30648600  0.11229900  1
  O  O14  1  0.04303700  0.80648600  0.38770100  1
  O  O15  1  0.45696300  0.69351400  0.88770100  1
  O  O16  1  0.25000000  0.51996200  0.46523700  1
  O  O17  1  0.25000000  0.98003800  0.96523700  1
  O  O18  1  0.75000000  0.48003800  0.53476300  1
  O  O19  1  0.75000000  0.01996200  0.03476300  1
