# generated using pymatgen
data_MnO2
_symmetry_space_group_name_H-M   'P 1'
_cell_length_a   9.57727700
_cell_length_b   9.57727700
_cell_length_c   2.93344700
_cell_angle_alpha   90.00000000
_cell_angle_beta   90.00000000
_cell_angle_gamma   90.00000000
_symmetry_Int_Tables_number   1
_chemical_formula_structural   MnO2
_chemical_formula_sum   'Mn6 O12'
_cell_volume   269.06818121
_cell_formula_units_Z   6
loop_
 _symmetry_equiv_pos_site_id
 _symmetry_equiv_pos_as_xyz
  1  'x, y, z'
loop_
 _atom_site_type_symbol
 _atom_site_label
 _atom_site_symmetry_multiplicity
 _atom_site_fract_x
 _atom_site_fract_y
 _atom_site_fract_z
 _atom_site_occupancy
  Mn  Mn0  1  0.00000000  0.50000000  0.50000000  1
  Mn  Mn1  1  0.50000000  0.00000000  0.00000000  1
  Mn  Mn2  1  0.76688300  0.98915100  0.50000000  1
  Mn  Mn3  1  0.23311700  0.01084900  0.50000000  1
  Mn  Mn4  1  0.01084900  0.76688300  0.00000000  1
  Mn  Mn5  1  0.98915100  0.23311700  0.00000000  1
  O  O6  1  0.90979300  0.84697600  0.50000000  1
  O  O7  1  0.09020700  0.15302400  0.50000000  1
  O  O8  1  0.15302400  0.90979300  0.00000000  1
  O  O9  1  0.84697600  0.09020700  0.00000000  1
  O  O10  1  0.40738100  0.90335400  0.50000000  1
  O  O11  1  0.59261900  0.09664600  0.50000000  1
  O  O12  1  0.09664600  0.40738100  0.00000000  1
  O  O13  1  0.90335400  0.59261900  0.00000000  1
  O  O14  1  0.89442500  0.32787100  0.50000000  1
  O  O15  1  0.10557500  0.67212900  0.50000000  1
  O  O16  1  0.67212900  0.89442500  0.00000000  1
  O  O17  1  0.32787100  0.10557500  0.00000000  1
