# generated using pymatgen
data_Mn7BiO12
_symmetry_space_group_name_H-M   'P 1'
_cell_length_a   6.55021688
_cell_length_b   6.55021688
_cell_length_c   7.58876181
_cell_angle_alpha   54.87220055
_cell_angle_beta   54.87220055
_cell_angle_gamma   70.46887287
_symmetry_Int_Tables_number   1
_chemical_formula_structural   Mn7BiO12
_chemical_formula_sum   'Mn7 Bi1 O12'
_cell_volume   217.79426688
_cell_formula_units_Z   1
loop_
 _symmetry_equiv_pos_site_id
 _symmetry_equiv_pos_as_xyz
  1  'x, y, z'
loop_
 _atom_site_type_symbol
 _atom_site_label
 _atom_site_symmetry_multiplicity
 _atom_site_fract_x
 _atom_site_fract_y
 _atom_site_fract_z
 _atom_site_occupancy
  Mn  Mn0  1  0.50000000  0.50000000  0.50000000  1
  Mn  Mn1  1  0.00000000  0.00000000  0.50000000  1
  Mn  Mn2  1  0.50000000  0.50000000  0.00000000  1
  Mn  Mn3  1  0.00000000  0.50000000  0.00000000  1
  Mn  Mn4  1  0.50000000  0.00000000  0.00000000  1
  Mn  Mn5  1  0.50000000  0.00000000  0.50000000  1
  Mn  Mn6  1  0.00000000  0.50000000  0.50000000  1
  Bi  Bi7  1  0.00000000  0.00000000  0.00000000  1
  O  O8  1  0.81936100  0.17009100  0.31432700  1
  O  O9  1  0.82990900  0.18063900  0.68567300  1
  O  O10  1  0.18063900  0.82990900  0.68567300  1
  O  O11  1  0.17009100  0.81936100  0.31432700  1
  O  O12  1  0.30258300  0.30258300  0.86651200  1
  O  O13  1  0.69741700  0.69741700  0.13348800  1
  O  O14  1  0.68549900  0.68549900  0.49580000  1
  O  O15  1  0.31450100  0.31450100  0.50420000  1
  O  O16  1  0.13368200  0.51761800  0.16635200  1
  O  O17  1  0.48238200  0.86631800  0.83364800  1
  O  O18  1  0.86631800  0.48238200  0.83364800  1
  O  O19  1  0.51761800  0.13368200  0.16635200  1
