# generated using pymatgen
data_Yb2Te3
_symmetry_space_group_name_H-M   'P 1'
_cell_length_a   14.47545365
_cell_length_b   13.80394939
_cell_length_c   7.68301678
_cell_angle_alpha   79.11936406
_cell_angle_beta   69.46651412
_cell_angle_gamma   31.41412181
_symmetry_Int_Tables_number   1
_chemical_formula_structural   Yb2Te3
_chemical_formula_sum   'Yb8 Te12'
_cell_volume   729.86105324
_cell_formula_units_Z   4
loop_
 _symmetry_equiv_pos_site_id
 _symmetry_equiv_pos_as_xyz
  1  'x, y, z'
loop_
 _atom_site_type_symbol
 _atom_site_label
 _atom_site_symmetry_multiplicity
 _atom_site_fract_x
 _atom_site_fract_y
 _atom_site_fract_z
 _atom_site_occupancy
  Yb  Yb0  1  0.33373800  0.33373800  0.16626200  1
  Yb  Yb1  1  0.16626200  0.16626200  0.33373800  1
  Yb  Yb2  1  0.91626200  0.91626200  0.08373800  1
  Yb  Yb3  1  0.08373800  0.08373800  0.91626200  1
  Yb  Yb4  1  0.99817000  0.99817000  0.50183000  1
  Yb  Yb5  1  0.50183000  0.50183000  0.99817000  1
  Yb  Yb6  1  0.25183000  0.25183000  0.74817000  1
  Yb  Yb7  1  0.74817000  0.74817000  0.25183000  1
  Te  Te8  1  0.99125200  0.50874800  0.50874800  1
  Te  Te9  1  0.50874800  0.99125200  0.99125200  1
  Te  Te10  1  0.25874800  0.74125200  0.74125200  1
  Te  Te11  1  0.74125200  0.25874800  0.25874800  1
  Te  Te12  1  0.66457300  0.16736200  0.83102800  1
  Te  Te13  1  0.83102800  0.33703700  0.66457300  1
  Te  Te14  1  0.33703700  0.83102800  0.16736200  1
  Te  Te15  1  0.16736200  0.66457300  0.33703700  1
  Te  Te16  1  0.58542700  0.08263800  0.41897200  1
  Te  Te17  1  0.41897200  0.91296300  0.58542700  1
  Te  Te18  1  0.91296300  0.41897200  0.08263800  1
  Te  Te19  1  0.08263800  0.58542700  0.91296300  1
