# generated using pymatgen
data_Yb5CuSn3
_symmetry_space_group_name_H-M   'P 1'
_cell_length_a   9.39227500
_cell_length_b   9.39227547
_cell_length_c   6.54214100
_cell_angle_alpha   90.00000000
_cell_angle_beta   90.00000000
_cell_angle_gamma   120.00000188
_symmetry_Int_Tables_number   1
_chemical_formula_structural   Yb5CuSn3
_chemical_formula_sum   'Yb10 Cu2 Sn6'
_cell_volume   499.79527387
_cell_formula_units_Z   2
loop_
 _symmetry_equiv_pos_site_id
 _symmetry_equiv_pos_as_xyz
  1  'x, y, z'
loop_
 _atom_site_type_symbol
 _atom_site_label
 _atom_site_symmetry_multiplicity
 _atom_site_fract_x
 _atom_site_fract_y
 _atom_site_fract_z
 _atom_site_occupancy
  Yb  Yb0  1  0.74413000  0.74413000  0.25000000  1
  Yb  Yb1  1  0.25587000  0.00000000  0.25000000  1
  Yb  Yb2  1  0.00000000  0.25587000  0.25000000  1
  Yb  Yb3  1  0.25587000  0.25587000  0.75000000  1
  Yb  Yb4  1  0.74413000  0.00000000  0.75000000  1
  Yb  Yb5  1  0.00000000  0.74413000  0.75000000  1
  Yb  Yb6  1  0.66666700  0.33333300  0.50000000  1
  Yb  Yb7  1  0.33333300  0.66666700  0.50000000  1
  Yb  Yb8  1  0.33333300  0.66666700  0.00000000  1
  Yb  Yb9  1  0.66666700  0.33333300  0.00000000  1
  Cu  Cu10  1  0.00000000  0.00000000  0.50000000  1
  Cu  Cu11  1  0.00000000  0.00000000  0.00000000  1
  Sn  Sn12  1  0.40323200  0.40323200  0.25000000  1
  Sn  Sn13  1  0.59676800  0.00000000  0.25000000  1
  Sn  Sn14  1  0.00000000  0.59676800  0.25000000  1
  Sn  Sn15  1  0.59676800  0.59676800  0.75000000  1
  Sn  Sn16  1  0.40323200  0.00000000  0.75000000  1
  Sn  Sn17  1  0.00000000  0.40323200  0.75000000  1
