# generated using pymatgen
data_Yb3NdS6
_symmetry_space_group_name_H-M   'P 1'
_cell_length_a   4.11865200
_cell_length_b   11.18122800
_cell_length_c   11.54474837
_cell_angle_alpha   73.74528310
_cell_angle_beta   90.00000000
_cell_angle_gamma   90.00000000
_symmetry_Int_Tables_number   1
_chemical_formula_structural   Yb3NdS6
_chemical_formula_sum   'Yb6 Nd2 S12'
_cell_volume   510.40208126
_cell_formula_units_Z   2
loop_
 _symmetry_equiv_pos_site_id
 _symmetry_equiv_pos_as_xyz
  1  'x, y, z'
loop_
 _atom_site_type_symbol
 _atom_site_label
 _atom_site_symmetry_multiplicity
 _atom_site_fract_x
 _atom_site_fract_y
 _atom_site_fract_z
 _atom_site_occupancy
  Yb  Yb0  1  0.25000000  0.94997800  0.20524200  1
  Yb  Yb1  1  0.75000000  0.05002200  0.79475800  1
  Yb  Yb2  1  0.25000000  0.65640200  0.93812700  1
  Yb  Yb3  1  0.75000000  0.34359800  0.06187300  1
  Yb  Yb4  1  0.25000000  0.42956200  0.68659600  1
  Yb  Yb5  1  0.75000000  0.57043800  0.31340400  1
  Nd  Nd6  1  0.25000000  0.82102000  0.53818600  1
  Nd  Nd7  1  0.75000000  0.17898000  0.46181400  1
  S  S8  1  0.25000000  0.92401100  0.96523800  1
  S  S9  1  0.75000000  0.07598900  0.03476200  1
  S  S10  1  0.25000000  0.71102900  0.34342700  1
  S  S11  1  0.75000000  0.28897100  0.65657300  1
  S  S12  1  0.25000000  0.41906700  0.91371900  1
  S  S13  1  0.75000000  0.58093300  0.08628100  1
  S  S14  1  0.25000000  0.37120600  0.37971900  1
  S  S15  1  0.75000000  0.62879400  0.62028100  1
  S  S16  1  0.25000000  0.25632500  0.26274400  1
  S  S17  1  0.75000000  0.74367500  0.73725600  1
  S  S18  1  0.25000000  0.04142100  0.61759900  1
  S  S19  1  0.75000000  0.95857900  0.38240100  1
