# generated using pymatgen
data_Te2MoWS2
_symmetry_space_group_name_H-M   'P 1'
_cell_length_a   3.35565794
_cell_length_b   3.35565794
_cell_length_c   38.31834600
_cell_angle_alpha   90.00000000
_cell_angle_beta   90.00000000
_cell_angle_gamma   119.99999873
_symmetry_Int_Tables_number   1
_chemical_formula_structural   Te2MoWS2
_chemical_formula_sum   'Te4 Mo2 W2 S4'
_cell_volume   373.67389564
_cell_formula_units_Z   2
loop_
 _symmetry_equiv_pos_site_id
 _symmetry_equiv_pos_as_xyz
  1  'x, y, z'
loop_
 _atom_site_type_symbol
 _atom_site_label
 _atom_site_symmetry_multiplicity
 _atom_site_fract_x
 _atom_site_fract_y
 _atom_site_fract_z
 _atom_site_occupancy
  Te  Te0  1  0.33333300  0.66666700  0.33122100  1
  Te  Te1  1  0.66666700  0.33333300  0.66877900  1
  Te  Te2  1  0.66666700  0.33333300  0.76757000  1
  Te  Te3  1  0.33333300  0.66666700  0.23243000  1
  Mo  Mo4  1  0.33333300  0.66666700  0.71816000  1
  Mo  Mo5  1  0.66666700  0.33333300  0.28184000  1
  W  W6  1  0.33333300  0.66666700  0.09391900  1
  W  W7  1  0.66666700  0.33333300  0.90608100  1
  S  S8  1  0.33333300  0.66666700  0.94571500  1
  S  S9  1  0.66666700  0.33333300  0.05428500  1
  S  S10  1  0.66666700  0.33333300  0.13356200  1
  S  S11  1  0.33333300  0.66666700  0.86643800  1
