# generated using pymatgen
data_VCdPO7
_symmetry_space_group_name_H-M   'P 1'
_cell_length_a   5.53106406
_cell_length_b   6.98180300
_cell_length_c   7.47966538
_cell_angle_alpha   90.00000000
_cell_angle_beta   106.67403393
_cell_angle_gamma   90.00000000
_symmetry_Int_Tables_number   1
_chemical_formula_structural   VCdPO7
_chemical_formula_sum   'V2 Cd2 P2 O14'
_cell_volume   276.69574495
_cell_formula_units_Z   2
loop_
 _symmetry_equiv_pos_site_id
 _symmetry_equiv_pos_as_xyz
  1  'x, y, z'
loop_
 _atom_site_type_symbol
 _atom_site_label
 _atom_site_symmetry_multiplicity
 _atom_site_fract_x
 _atom_site_fract_y
 _atom_site_fract_z
 _atom_site_occupancy
  V  V0  1  0.54437100  0.53161100  0.03891100  1
  V  V1  1  0.45562900  0.03161100  0.96108900  1
  Cd  Cd2  1  0.99259200  0.00019300  0.51009600  1
  Cd  Cd3  1  0.00740800  0.50019300  0.48990400  1
  P  P4  1  0.55424800  0.74839100  0.65917400  1
  P  P5  1  0.44575200  0.24839100  0.34082600  1
  O  O6  1  0.27864100  0.75507200  0.53384500  1
  O  O7  1  0.72135900  0.25507200  0.46615500  1
  O  O8  1  0.83272800  0.58478400  0.17496500  1
  O  O9  1  0.16727200  0.08478400  0.82503500  1
  O  O10  1  0.75102400  0.74235200  0.55007000  1
  O  O11  1  0.24897600  0.24235200  0.44993000  1
  O  O12  1  0.78080200  0.96996700  0.18233800  1
  O  O13  1  0.21919800  0.46996700  0.81766200  1
  O  O14  1  0.59618500  0.56060900  0.78237900  1
  O  O15  1  0.40381500  0.06060900  0.21762100  1
  O  O16  1  0.60819000  0.93116800  0.78403100  1
  O  O17  1  0.39181000  0.43116800  0.21596900  1
  O  O18  1  0.38129200  0.74965400  0.00363400  1
  O  O19  1  0.61870800  0.24965400  0.99636600  1
