# generated using pymatgen
data_C
_symmetry_space_group_name_H-M   'P 1'
_cell_length_a   2.52601800
_cell_length_b   4.15959500
_cell_length_c   9.07208800
_cell_angle_alpha   90.00000000
_cell_angle_beta   90.00000000
_cell_angle_gamma   90.00000000
_symmetry_Int_Tables_number   1
_chemical_formula_structural   C
_chemical_formula_sum   C16
_cell_volume   95.32235047
_cell_formula_units_Z   16
loop_
 _symmetry_equiv_pos_site_id
 _symmetry_equiv_pos_as_xyz
  1  'x, y, z'
loop_
 _atom_site_type_symbol
 _atom_site_label
 _atom_site_symmetry_multiplicity
 _atom_site_fract_x
 _atom_site_fract_y
 _atom_site_fract_z
 _atom_site_occupancy
  C  C0  1  0.75000000  0.42352000  0.69522700  1
  C  C1  1  0.75000000  0.07648000  0.19522700  1
  C  C2  1  0.25000000  0.57648000  0.30477300  1
  C  C3  1  0.25000000  0.92352000  0.80477300  1
  C  C4  1  0.25000000  0.19840900  0.68948000  1
  C  C5  1  0.25000000  0.30159100  0.18948000  1
  C  C6  1  0.75000000  0.80159100  0.31052000  1
  C  C7  1  0.75000000  0.69840900  0.81052000  1
  C  C8  1  0.25000000  0.40820500  0.02055600  1
  C  C9  1  0.25000000  0.09179500  0.52055600  1
  C  C10  1  0.75000000  0.59179500  0.97944400  1
  C  C11  1  0.75000000  0.90820500  0.47944400  1
  C  C12  1  0.25000000  0.06837400  0.96316700  1
  C  C13  1  0.25000000  0.43162600  0.46316700  1
  C  C14  1  0.75000000  0.93162600  0.03683300  1
  C  C15  1  0.75000000  0.56837400  0.53683300  1
