# generated using pymatgen
data_TeMoWSeS2
_symmetry_space_group_name_H-M   'P 1'
_cell_length_a   3.30430742
_cell_length_b   3.30430742
_cell_length_c   37.61401900
_cell_angle_alpha   90.00000000
_cell_angle_beta   90.00000000
_cell_angle_gamma   119.99998838
_symmetry_Int_Tables_number   1
_chemical_formula_structural   TeMoWSeS2
_chemical_formula_sum   'Te2 Mo2 W2 Se2 S4'
_cell_volume   355.66515046
_cell_formula_units_Z   2
loop_
 _symmetry_equiv_pos_site_id
 _symmetry_equiv_pos_as_xyz
  1  'x, y, z'
loop_
 _atom_site_type_symbol
 _atom_site_label
 _atom_site_symmetry_multiplicity
 _atom_site_fract_x
 _atom_site_fract_y
 _atom_site_fract_z
 _atom_site_occupancy
  Te  Te0  1  0.33333300  0.66666700  0.04309200  1
  Te  Te1  1  0.33333300  0.66666700  0.14467600  1
  Mo  Mo2  1  0.00000000  0.00000000  0.09387300  1
  Mo  Mo3  1  0.33333300  0.66666700  0.28185200  1
  W  W4  1  0.00000000  0.00000000  0.46965800  1
  W  W5  1  0.33333300  0.66666700  0.65753300  1
  Se  Se6  1  0.00000000  0.00000000  0.32645800  1
  Se  Se7  1  0.00000000  0.00000000  0.23721400  1
  S  S8  1  0.00000000  0.00000000  0.69833500  1
  S  S9  1  0.33333300  0.66666700  0.42886800  1
  S  S10  1  0.33333300  0.66666700  0.51046200  1
  S  S11  1  0.00000000  0.00000000  0.61672800  1
