# generated using pymatgen
data_SnPClO2
_symmetry_space_group_name_H-M   'P 1'
_cell_length_a   5.63560900
_cell_length_b   8.02283000
_cell_length_c   10.30221800
_cell_angle_alpha   90.00000000
_cell_angle_beta   90.00000000
_cell_angle_gamma   90.00000000
_symmetry_Int_Tables_number   1
_chemical_formula_structural   SnPClO2
_chemical_formula_sum   'Sn4 P4 Cl4 O8'
_cell_volume   465.79967304
_cell_formula_units_Z   4
loop_
 _symmetry_equiv_pos_site_id
 _symmetry_equiv_pos_as_xyz
  1  'x, y, z'
loop_
 _atom_site_type_symbol
 _atom_site_label
 _atom_site_symmetry_multiplicity
 _atom_site_fract_x
 _atom_site_fract_y
 _atom_site_fract_z
 _atom_site_occupancy
  Sn  Sn0  1  0.25000000  0.60887300  0.34768900  1
  Sn  Sn1  1  0.25000000  0.10887300  0.15231100  1
  Sn  Sn2  1  0.75000000  0.39112700  0.65231100  1
  Sn  Sn3  1  0.75000000  0.89112700  0.84768900  1
  P  P4  1  0.75000000  0.54602900  0.13821600  1
  P  P5  1  0.75000000  0.04602900  0.36178400  1
  P  P6  1  0.25000000  0.45397100  0.86178400  1
  P  P7  1  0.25000000  0.95397100  0.63821600  1
  Cl  Cl8  1  0.25000000  0.33322200  0.47520100  1
  Cl  Cl9  1  0.25000000  0.83322200  0.02479900  1
  Cl  Cl10  1  0.75000000  0.66677800  0.52479900  1
  Cl  Cl11  1  0.75000000  0.16677800  0.97520100  1
  O  O12  1  0.52487800  0.50387200  0.21513200  1
  O  O13  1  0.97512200  0.00387200  0.28486800  1
  O  O14  1  0.02487800  0.49612800  0.78486800  1
  O  O15  1  0.47512200  0.99612800  0.71513200  1
  O  O16  1  0.47512200  0.49612800  0.78486800  1
  O  O17  1  0.02487800  0.99612800  0.71513200  1
  O  O18  1  0.97512200  0.50387200  0.21513200  1
  O  O19  1  0.52487800  0.00387200  0.28486800  1
