# generated using pymatgen
data_Na2U2O7
_symmetry_space_group_name_H-M   'P 1'
_cell_length_a   6.57713745
_cell_length_b   6.94210063
_cell_length_c   7.92918700
_cell_angle_alpha   90.00000000
_cell_angle_beta   90.00000000
_cell_angle_gamma   110.62991560
_symmetry_Int_Tables_number   1
_chemical_formula_structural   Na2U2O7
_chemical_formula_sum   'Na4 U4 O14'
_cell_volume   338.82438246
_cell_formula_units_Z   2
loop_
 _symmetry_equiv_pos_site_id
 _symmetry_equiv_pos_as_xyz
  1  'x, y, z'
loop_
 _atom_site_type_symbol
 _atom_site_label
 _atom_site_symmetry_multiplicity
 _atom_site_fract_x
 _atom_site_fract_y
 _atom_site_fract_z
 _atom_site_occupancy
  Na  Na0  1  0.46447100  0.49755900  0.51926600  1
  Na  Na1  1  0.53552900  0.50244100  0.01926600  1
  Na  Na2  1  0.50577100  0.99708600  0.26509800  1
  Na  Na3  1  0.49422900  0.00291400  0.76509800  1
  U  U4  1  0.99787700  0.98410000  0.00071800  1
  U  U5  1  0.00212300  0.01590000  0.50071800  1
  U  U6  1  0.99854500  0.53158100  0.75377600  1
  U  U7  1  0.00145500  0.46841900  0.25377600  1
  O  O8  1  0.01266000  0.86819700  0.74439700  1
  O  O9  1  0.98734000  0.13180300  0.24439700  1
  O  O10  1  0.97723200  0.65211800  0.02430000  1
  O  O11  1  0.02276800  0.34788200  0.52430000  1
  O  O12  1  0.69446800  0.91993600  0.51273900  1
  O  O13  1  0.30553200  0.08006400  0.01273900  1
  O  O14  1  0.30243500  0.63679500  0.75308600  1
  O  O15  1  0.69756500  0.36320500  0.25308600  1
  O  O16  1  0.69246500  0.42934600  0.74210400  1
  O  O17  1  0.30753500  0.57065400  0.24210400  1
  O  O18  1  0.69098400  0.88338200  0.99859400  1
  O  O19  1  0.30901600  0.11661800  0.49859400  1
  O  O20  1  0.00087900  0.72311200  0.40776100  1
  O  O21  1  0.99912100  0.27688800  0.90776100  1
