# generated using pymatgen
data_Fe2O2F5
_symmetry_space_group_name_H-M   'P 1'
_cell_length_a   7.40588920
_cell_length_b   7.40588920
_cell_length_c   7.40588920
_cell_angle_alpha   135.50303772
_cell_angle_beta   117.77541557
_cell_angle_gamma   79.67132206
_symmetry_Int_Tables_number   1
_chemical_formula_structural   Fe2O2F5
_chemical_formula_sum   'Fe4 O4 F10'
_cell_volume   244.08932661
_cell_formula_units_Z   2
loop_
 _symmetry_equiv_pos_site_id
 _symmetry_equiv_pos_as_xyz
  1  'x, y, z'
loop_
 _atom_site_type_symbol
 _atom_site_label
 _atom_site_symmetry_multiplicity
 _atom_site_fract_x
 _atom_site_fract_y
 _atom_site_fract_z
 _atom_site_occupancy
  Fe  Fe0  1  0.50000000  0.50000000  0.00000000  1
  Fe  Fe1  1  0.00000000  0.00000000  0.00000000  1
  Fe  Fe2  1  0.50000000  0.50000000  0.50000000  1
  Fe  Fe3  1  0.00000000  0.50000000  0.00000000  1
  O  O4  1  0.53508700  0.94969600  0.41460900  1
  O  O5  1  0.46491300  0.05030400  0.58539100  1
  O  O6  1  0.03508700  0.62047900  0.58539100  1
  O  O7  1  0.96491300  0.37952200  0.41460900  1
  F  F8  1  0.44490900  0.60185200  0.79393700  1
  F  F9  1  0.19208400  0.39814800  0.84305700  1
  F  F10  1  0.94490900  0.15097200  0.84305700  1
  F  F11  1  0.69208400  0.84902800  0.79393700  1
  F  F12  1  0.55509100  0.39814800  0.20606300  1
  F  F13  1  0.80791600  0.60185200  0.15694300  1
  F  F14  1  0.05509100  0.84902800  0.15694300  1
  F  F15  1  0.30791600  0.15097200  0.20606300  1
  F  F16  1  0.75000000  0.38855200  0.63855200  1
  F  F17  1  0.25000000  0.61144800  0.36144800  1
