# generated using pymatgen
data_Nd4FeS6O
_symmetry_space_group_name_H-M   'P 1'
_cell_length_a   9.37577720
_cell_length_b   9.37577720
_cell_length_c   6.74455000
_cell_angle_alpha   90.00000000
_cell_angle_beta   90.00000000
_cell_angle_gamma   119.99999433
_symmetry_Int_Tables_number   1
_chemical_formula_structural   Nd4FeS6O
_chemical_formula_sum   'Nd8 Fe2 S12 O2'
_cell_volume   513.45003970
_cell_formula_units_Z   2
loop_
 _symmetry_equiv_pos_site_id
 _symmetry_equiv_pos_as_xyz
  1  'x, y, z'
loop_
 _atom_site_type_symbol
 _atom_site_label
 _atom_site_symmetry_multiplicity
 _atom_site_fract_x
 _atom_site_fract_y
 _atom_site_fract_z
 _atom_site_occupancy
  Nd  Nd0  1  0.80283100  0.19716900  0.32812900  1
  Nd  Nd1  1  0.39433800  0.19716900  0.32812900  1
  Nd  Nd2  1  0.80283100  0.60566200  0.32812900  1
  Nd  Nd3  1  0.19716900  0.80283100  0.82812900  1
  Nd  Nd4  1  0.60566200  0.80283100  0.82812900  1
  Nd  Nd5  1  0.19716900  0.39433800  0.82812900  1
  Nd  Nd6  1  0.33333300  0.66666700  0.30374300  1
  Nd  Nd7  1  0.66666700  0.33333300  0.80374300  1
  Fe  Fe8  1  0.00000000  0.00000000  0.49777600  1
  Fe  Fe9  1  0.00000000  0.00000000  0.99777600  1
  S  S10  1  0.12289600  0.87710400  0.23094400  1
  S  S11  1  0.75420700  0.87710400  0.23094400  1
  S  S12  1  0.12289600  0.24579300  0.23094400  1
  S  S13  1  0.87710400  0.12289600  0.73094400  1
  S  S14  1  0.24579300  0.12289600  0.73094400  1
  S  S15  1  0.87710400  0.75420700  0.73094400  1
  S  S16  1  0.53135800  0.46864200  0.05290100  1
  S  S17  1  0.93728400  0.46864200  0.05290100  1
  S  S18  1  0.53135800  0.06271600  0.05290100  1
  S  S19  1  0.46864200  0.53135800  0.55290100  1
  S  S20  1  0.06271600  0.53135800  0.55290100  1
  S  S21  1  0.46864200  0.93728400  0.55290100  1
  O  O22  1  0.33333300  0.66666700  0.95483300  1
  O  O23  1  0.66666700  0.33333300  0.45483300  1
