# generated using pymatgen
data_Bi4Pb7Se13
_symmetry_space_group_name_H-M   'P 1'
_cell_length_a   7.46793105
_cell_length_b   7.46793105
_cell_length_c   23.93844560
_cell_angle_alpha   83.00011640
_cell_angle_beta   83.00011640
_cell_angle_gamma   33.46755427
_symmetry_Int_Tables_number   1
_chemical_formula_structural   Bi4Pb7Se13
_chemical_formula_sum   'Bi4 Pb7 Se13'
_cell_volume   730.24559753
_cell_formula_units_Z   1
loop_
 _symmetry_equiv_pos_site_id
 _symmetry_equiv_pos_as_xyz
  1  'x, y, z'
loop_
 _atom_site_type_symbol
 _atom_site_label
 _atom_site_symmetry_multiplicity
 _atom_site_fract_x
 _atom_site_fract_y
 _atom_site_fract_z
 _atom_site_occupancy
  Bi  Bi0  1  0.24847100  0.24847100  0.91330100  1
  Bi  Bi1  1  0.75152900  0.75152900  0.08669900  1
  Bi  Bi2  1  0.06147600  0.06147600  0.62265900  1
  Bi  Bi3  1  0.93852400  0.93852400  0.37734100  1
  Pb  Pb4  1  0.50000000  0.50000000  0.00000000  1
  Pb  Pb5  1  0.35346300  0.35346300  0.54197900  1
  Pb  Pb6  1  0.64653700  0.64653700  0.45802100  1
  Pb  Pb7  1  0.98919400  0.98919400  0.83678900  1
  Pb  Pb8  1  0.01080600  0.01080600  0.16321100  1
  Pb  Pb9  1  0.76734800  0.76734800  0.71811800  1
  Pb  Pb10  1  0.23265200  0.23265200  0.28188200  1
  Se  Se11  1  0.86835100  0.86835100  0.96010300  1
  Se  Se12  1  0.13164900  0.13164900  0.03989700  1
  Se  Se13  1  0.62639600  0.62639600  0.88185000  1
  Se  Se14  1  0.37360400  0.37360400  0.11815000  1
  Se  Se15  1  0.70777600  0.70777600  0.58957700  1
  Se  Se16  1  0.29222400  0.29222400  0.41042300  1
  Se  Se17  1  0.35773400  0.35773400  0.80675000  1
  Se  Se18  1  0.64226600  0.64226600  0.19325000  1
  Se  Se19  1  0.42333700  0.42333700  0.65250500  1
  Se  Se20  1  0.57666300  0.57666300  0.34749500  1
  Se  Se21  1  0.00000000  0.00000000  0.50000000  1
  Se  Se22  1  0.12309100  0.12309100  0.73030200  1
  Se  Se23  1  0.87690900  0.87690900  0.26969800  1
