# generated using pymatgen
data_NaYb3GeS7
_symmetry_space_group_name_H-M   'P 1'
_cell_length_a   9.89723617
_cell_length_b   9.89723617
_cell_length_c   6.02314200
_cell_angle_alpha   90.00000000
_cell_angle_beta   90.00000000
_cell_angle_gamma   120.00000114
_symmetry_Int_Tables_number   1
_chemical_formula_structural   NaYb3GeS7
_chemical_formula_sum   'Na2 Yb6 Ge2 S14'
_cell_volume   510.95375612
_cell_formula_units_Z   2
loop_
 _symmetry_equiv_pos_site_id
 _symmetry_equiv_pos_as_xyz
  1  'x, y, z'
loop_
 _atom_site_type_symbol
 _atom_site_label
 _atom_site_symmetry_multiplicity
 _atom_site_fract_x
 _atom_site_fract_y
 _atom_site_fract_z
 _atom_site_occupancy
  Na  Na0  1  0.00000000  0.00000000  0.47066500  1
  Na  Na1  1  0.00000000  0.00000000  0.97066500  1
  Yb  Yb2  1  0.77482200  0.14403800  0.75918000  1
  Yb  Yb3  1  0.36921600  0.22517800  0.75918000  1
  Yb  Yb4  1  0.85596200  0.63078400  0.75918000  1
  Yb  Yb5  1  0.22517800  0.85596200  0.25918000  1
  Yb  Yb6  1  0.63078400  0.77482200  0.25918000  1
  Yb  Yb7  1  0.14403800  0.36921600  0.25918000  1
  Ge  Ge8  1  0.66666700  0.33333300  0.31283900  1
  Ge  Ge9  1  0.33333300  0.66666700  0.81283900  1
  S  S10  1  0.66666700  0.33333300  0.94696800  1
  S  S11  1  0.33333300  0.66666700  0.44696800  1
  S  S12  1  0.73419300  0.83684200  0.72360600  1
  S  S13  1  0.10264800  0.26580700  0.72360600  1
  S  S14  1  0.16315800  0.89735200  0.72360600  1
  S  S15  1  0.26580700  0.16315800  0.22360600  1
  S  S16  1  0.89735200  0.73419300  0.22360600  1
  S  S17  1  0.83684200  0.10264800  0.22360600  1
  S  S18  1  0.56855000  0.47176200  0.46175000  1
  S  S19  1  0.90321100  0.43145000  0.46175000  1
  S  S20  1  0.52823800  0.09678900  0.46175000  1
  S  S21  1  0.43145000  0.52823800  0.96175000  1
  S  S22  1  0.09678900  0.56855000  0.96175000  1
  S  S23  1  0.47176200  0.90321100  0.96175000  1
