# generated using pymatgen
data_Na4Ti6O13
_symmetry_space_group_name_H-M   'P 1'
_cell_length_a   3.97615900
_cell_length_b   7.43852050
_cell_length_c   9.33986911
_cell_angle_alpha   92.82198727
_cell_angle_beta   90.00000000
_cell_angle_gamma   105.50176542
_symmetry_Int_Tables_number   1
_chemical_formula_structural   Na4Ti6O13
_chemical_formula_sum   'Na4 Ti6 O13'
_cell_volume   265.84612171
_cell_formula_units_Z   1
loop_
 _symmetry_equiv_pos_site_id
 _symmetry_equiv_pos_as_xyz
  1  'x, y, z'
loop_
 _atom_site_type_symbol
 _atom_site_label
 _atom_site_symmetry_multiplicity
 _atom_site_fract_x
 _atom_site_fract_y
 _atom_site_fract_z
 _atom_site_occupancy
  Na  Na0  1  0.40107300  0.80214600  0.10023600  1
  Na  Na1  1  0.59892700  0.19785400  0.89976400  1
  Na  Na2  1  0.48801800  0.97603600  0.35132900  1
  Na  Na3  1  0.51198200  0.02396400  0.64867100  1
  Ti  Ti4  1  0.11210900  0.22421900  0.12893000  1
  Ti  Ti5  1  0.88789100  0.77578100  0.87107000  1
  Ti  Ti6  1  0.17152400  0.34304700  0.45756300  1
  Ti  Ti7  1  0.82847600  0.65695300  0.54243700  1
  Ti  Ti8  1  0.24423000  0.48846000  0.78051900  1
  Ti  Ti9  1  0.75577000  0.51154000  0.21948100  1
  O  O10  1  0.24342500  0.48684900  0.24601200  1
  O  O11  1  0.75657500  0.51315100  0.75398800  1
  O  O12  1  0.06814100  0.13628200  0.32731300  1
  O  O13  1  0.93185900  0.86371800  0.67268700  1
  O  O14  1  0.30754500  0.61509000  0.55928900  1
  O  O15  1  0.69245500  0.38491000  0.44071100  1
  O  O16  1  0.12909700  0.25819400  0.63778800  1
  O  O17  1  0.87090300  0.74180600  0.36221200  1
  O  O18  1  0.38163900  0.76327900  0.85621300  1
  O  O19  1  0.61836100  0.23672100  0.14378700  1
  O  O20  1  0.18056400  0.36112800  0.94008200  1
  O  O21  1  0.81943600  0.63887200  0.05991800  1
  O  O22  1  0.00000000  0.00000000  0.00000000  1
