# generated using pymatgen
data_BaReH9
_symmetry_space_group_name_H-M   'P 1'
_cell_length_a   10.06104000
_cell_length_b   3.80886200
_cell_length_c   5.24115699
_cell_angle_alpha   87.31194321
_cell_angle_beta   90.00000000
_cell_angle_gamma   90.00000000
_symmetry_Int_Tables_number   1
_chemical_formula_structural   BaReH9
_chemical_formula_sum   'Ba2 Re2 H18'
_cell_volume   200.62597146
_cell_formula_units_Z   2
loop_
 _symmetry_equiv_pos_site_id
 _symmetry_equiv_pos_as_xyz
  1  'x, y, z'
loop_
 _atom_site_type_symbol
 _atom_site_label
 _atom_site_symmetry_multiplicity
 _atom_site_fract_x
 _atom_site_fract_y
 _atom_site_fract_z
 _atom_site_occupancy
  Ba  Ba0  1  0.00000000  0.00000000  0.00000000  1
  Ba  Ba1  1  0.50000000  0.00000000  0.00000000  1
  Re  Re2  1  0.25000000  0.56557100  0.53050300  1
  Re  Re3  1  0.75000000  0.43442900  0.46949700  1
  H  H4  1  0.25000000  0.60707700  0.84888400  1
  H  H5  1  0.75000000  0.39292300  0.15111600  1
  H  H6  1  0.40525500  0.49683700  0.65551900  1
  H  H7  1  0.90525500  0.50316300  0.34448100  1
  H  H8  1  0.59474500  0.50316300  0.34448100  1
  H  H9  1  0.09474500  0.49683700  0.65551900  1
  H  H10  1  0.25000000  0.13265500  0.99795000  1
  H  H11  1  0.75000000  0.86734500  0.00205000  1
  H  H12  1  0.33686800  0.94469400  0.53835100  1
  H  H13  1  0.83686800  0.05530600  0.46164900  1
  H  H14  1  0.66313200  0.05530600  0.46164900  1
  H  H15  1  0.16313200  0.94469400  0.53835100  1
  H  H16  1  0.25000000  0.01323700  0.12403000  1
  H  H17  1  0.75000000  0.98676300  0.87597000  1
  H  H18  1  0.35968200  0.52033500  0.27453300  1
  H  H19  1  0.85968200  0.47966500  0.72546700  1
  H  H20  1  0.64031800  0.47966500  0.72546700  1
  H  H21  1  0.14031800  0.52033500  0.27453300  1
