# generated using pymatgen
data_PH6NO4
_symmetry_space_group_name_H-M   'P 1'
_cell_length_a   6.50406949
_cell_length_b   6.50406949
_cell_length_c   6.50406949
_cell_angle_alpha   114.51664387
_cell_angle_beta   107.00895823
_cell_angle_gamma   107.00895823
_symmetry_Int_Tables_number   1
_chemical_formula_structural   PH6NO4
_chemical_formula_sum   'P2 H12 N2 O8'
_cell_volume   210.56084739
_cell_formula_units_Z   2
loop_
 _symmetry_equiv_pos_site_id
 _symmetry_equiv_pos_as_xyz
  1  'x, y, z'
loop_
 _atom_site_type_symbol
 _atom_site_label
 _atom_site_symmetry_multiplicity
 _atom_site_fract_x
 _atom_site_fract_y
 _atom_site_fract_z
 _atom_site_occupancy
  P  P0  1  0.50000000  0.75000000  0.25000000  1
  P  P1  1  0.00000000  0.00000000  0.00000000  1
  H  H2  1  0.61832800  0.26742800  0.67500300  1
  H  H3  1  0.90757500  0.48257200  0.60090000  1
  H  H4  1  0.38167200  0.05667500  0.64910000  1
  H  H5  1  0.09242500  0.69332500  0.57499700  1
  H  H6  1  0.59242500  0.32499700  0.94332500  1
  H  H7  1  0.11832800  0.42500300  0.51742800  1
  H  H8  1  0.40757500  0.35090000  0.73257200  1
  H  H9  1  0.88167200  0.39910000  0.30667500  1
  H  H10  1  0.88399800  0.00899800  0.62500000  1
  H  H11  1  0.11600200  0.74100200  0.12500000  1
  H  H12  1  0.38399800  0.37500000  0.25899800  1
  H  H13  1  0.61600200  0.87500000  0.99100200  1
  N  N14  1  0.50000000  0.25000000  0.75000000  1
  N  N15  1  0.00000000  0.50000000  0.50000000  1
  O  O16  1  0.73065800  0.01401300  0.46988000  1
  O  O17  1  0.95586700  0.73598700  0.96664500  1
  O  O18  1  0.26934200  0.73922200  0.28335500  1
  O  O19  1  0.04413300  0.01077800  0.78012000  1
  O  O20  1  0.54413300  0.53012000  0.26077800  1
  O  O21  1  0.23065800  0.21988000  0.26401300  1
  O  O22  1  0.45586700  0.71664500  0.98598700  1
  O  O23  1  0.76934200  0.03335500  0.98922200  1
