# generated using pymatgen
data_Ba2ZnSe3
_symmetry_space_group_name_H-M   'P 1'
_cell_length_a   4.47187600
_cell_length_b   9.25122000
_cell_length_c   17.91516000
_cell_angle_alpha   90.00000000
_cell_angle_beta   90.00000000
_cell_angle_gamma   90.00000000
_symmetry_Int_Tables_number   1
_chemical_formula_structural   Ba2ZnSe3
_chemical_formula_sum   'Ba8 Zn4 Se12'
_cell_volume   741.15569941
_cell_formula_units_Z   4
loop_
 _symmetry_equiv_pos_site_id
 _symmetry_equiv_pos_as_xyz
  1  'x, y, z'
loop_
 _atom_site_type_symbol
 _atom_site_label
 _atom_site_symmetry_multiplicity
 _atom_site_fract_x
 _atom_site_fract_y
 _atom_site_fract_z
 _atom_site_occupancy
  Ba  Ba0  1  0.25000000  0.25053900  0.54308200  1
  Ba  Ba1  1  0.25000000  0.75053900  0.95691800  1
  Ba  Ba2  1  0.75000000  0.74946100  0.45691800  1
  Ba  Ba3  1  0.75000000  0.24946100  0.04308200  1
  Ba  Ba4  1  0.25000000  0.41898900  0.28715200  1
  Ba  Ba5  1  0.25000000  0.91898900  0.21284800  1
  Ba  Ba6  1  0.75000000  0.58101100  0.71284800  1
  Ba  Ba7  1  0.75000000  0.08101100  0.78715200  1
  Zn  Zn8  1  0.25000000  0.36383500  0.86464600  1
  Zn  Zn9  1  0.25000000  0.86383500  0.63535400  1
  Zn  Zn10  1  0.75000000  0.63616500  0.13535400  1
  Zn  Zn11  1  0.75000000  0.13616500  0.36464600  1
  Se  Se12  1  0.25000000  0.00459500  0.39879200  1
  Se  Se13  1  0.25000000  0.50459500  0.10120800  1
  Se  Se14  1  0.75000000  0.99540500  0.60120800  1
  Se  Se15  1  0.75000000  0.49540500  0.89879200  1
  Se  Se16  1  0.25000000  0.12522400  0.92875300  1
  Se  Se17  1  0.25000000  0.62522400  0.57124700  1
  Se  Se18  1  0.75000000  0.87477600  0.07124700  1
  Se  Se19  1  0.75000000  0.37477600  0.42875300  1
  Se  Se20  1  0.25000000  0.31770300  0.72709400  1
  Se  Se21  1  0.25000000  0.81770300  0.77290600  1
  Se  Se22  1  0.75000000  0.68229700  0.27290600  1
  Se  Se23  1  0.75000000  0.18229700  0.22709400  1
