# generated using pymatgen
data_GdH9C5(NO4)2
_symmetry_space_group_name_H-M   'P 1'
_cell_length_a   6.80748717
_cell_length_b   6.80748717
_cell_length_c   6.71987132
_cell_angle_alpha   75.22960809
_cell_angle_beta   75.22960809
_cell_angle_gamma   65.67852535
_symmetry_Int_Tables_number   1
_chemical_formula_structural   GdH9C5(NO4)2
_chemical_formula_sum   'Gd1 H9 C5 N2 O8'
_cell_volume   270.39392560
_cell_formula_units_Z   1
loop_
 _symmetry_equiv_pos_site_id
 _symmetry_equiv_pos_as_xyz
  1  'x, y, z'
loop_
 _atom_site_type_symbol
 _atom_site_label
 _atom_site_symmetry_multiplicity
 _atom_site_fract_x
 _atom_site_fract_y
 _atom_site_fract_z
 _atom_site_occupancy
  Gd  Gd0  1  0.05007000  0.94993000  0.00000000  1
  H  H1  1  0.97023000  0.02977000  0.50000000  1
  H  H2  1  0.58843500  0.78973700  0.11986100  1
  H  H3  1  0.21026300  0.41156500  0.88013900  1
  H  H4  1  0.85524000  0.58457100  0.41734000  1
  H  H5  1  0.41542900  0.14476000  0.58266000  1
  H  H6  1  0.57608000  0.68382700  0.53329800  1
  H  H7  1  0.31617300  0.42392000  0.46670200  1
  H  H8  1  0.61372300  0.42065300  0.81685200  1
  H  H9  1  0.57934700  0.38627700  0.18314800  1
  C  C10  1  0.11943100  0.88056900  0.50000000  1
  C  C11  1  0.57982300  0.89481600  0.96355100  1
  C  C12  1  0.10518400  0.42017700  0.03644900  1
  C  C13  1  0.76443600  0.41595600  0.70410500  1
  C  C14  1  0.58404400  0.23556400  0.29589500  1
  N  N15  1  0.73193700  0.57435600  0.53967700  1
  N  N16  1  0.42564400  0.26806300  0.46032300  1
  O  O17  1  0.20473700  0.80552700  0.66502100  1
  O  O18  1  0.19447300  0.79526300  0.33497900  1
  O  O19  1  0.94624200  0.27109100  0.73584600  1
  O  O20  1  0.72890900  0.05375800  0.26415400  1
  O  O21  1  0.41273300  0.93803300  0.88299400  1
  O  O22  1  0.06196700  0.58726700  0.11700600  1
  O  O23  1  0.73308500  0.96228500  0.87785200  1
  O  O24  1  0.03771500  0.26691500  0.12214800  1
