# generated using pymatgen
data_HoH9C5(NO4)2
_symmetry_space_group_name_H-M   'P 1'
_cell_length_a   6.69827280
_cell_length_b   6.69827280
_cell_length_c   6.64731115
_cell_angle_alpha   75.35886134
_cell_angle_beta   75.35886134
_cell_angle_gamma   65.81347590
_symmetry_Int_Tables_number   1
_chemical_formula_structural   HoH9C5(NO4)2
_chemical_formula_sum   'Ho1 H9 C5 N2 O8'
_cell_volume   259.44000291
_cell_formula_units_Z   1
loop_
 _symmetry_equiv_pos_site_id
 _symmetry_equiv_pos_as_xyz
  1  'x, y, z'
loop_
 _atom_site_type_symbol
 _atom_site_label
 _atom_site_symmetry_multiplicity
 _atom_site_fract_x
 _atom_site_fract_y
 _atom_site_fract_z
 _atom_site_occupancy
  Ho  Ho0  1  0.09267600  0.90732400  0.00000000  1
  H  H1  1  0.89647500  0.54892000  0.42135500  1
  H  H2  1  0.45108000  0.10352500  0.57864500  1
  H  H3  1  0.61291000  0.64133200  0.53962500  1
  H  H4  1  0.35866800  0.38709000  0.46037500  1
  H  H5  1  0.65401300  0.36728300  0.81781100  1
  H  H6  1  0.63271700  0.34598700  0.18218900  1
  H  H7  1  0.62948000  0.74628900  0.12546100  1
  H  H8  1  0.25371100  0.37052000  0.87453900  1
  H  H9  1  0.01011600  0.98988400  0.50000000  1
  C  C10  1  0.80696300  0.36806500  0.70650800  1
  C  C11  1  0.63193500  0.19303700  0.29349200  1
  C  C12  1  0.62180500  0.85042300  0.96633800  1
  C  C13  1  0.14957700  0.37819500  0.03366200  1
  C  C14  1  0.16125700  0.83874300  0.50000000  1
  N  N15  1  0.77239500  0.53261500  0.54363300  1
  N  N16  1  0.46738500  0.22760500  0.45636700  1
  O  O17  1  0.99265700  0.22327000  0.73827800  1
  O  O18  1  0.77673000  0.00734300  0.26172200  1
  O  O19  1  0.23869200  0.75264300  0.33266300  1
  O  O20  1  0.24735700  0.76130800  0.66733700  1
  O  O21  1  0.45151700  0.89421600  0.88568400  1
  O  O22  1  0.10578400  0.54848300  0.11431600  1
  O  O23  1  0.08328900  0.22159100  0.12238500  1
  O  O24  1  0.77840900  0.91671100  0.87761500  1
