# generated using pymatgen
data_Cs2Cu2Sb2S5
_symmetry_space_group_name_H-M   'P 1'
_cell_length_a   7.51528100
_cell_length_b   8.74630680
_cell_length_c   10.00376869
_cell_angle_alpha   91.29511459
_cell_angle_beta   91.49204685
_cell_angle_gamma   101.65183793
_symmetry_Int_Tables_number   1
_chemical_formula_structural   Cs2Cu2Sb2S5
_chemical_formula_sum   'Cs4 Cu4 Sb4 S10'
_cell_volume   643.52785168
_cell_formula_units_Z   2
loop_
 _symmetry_equiv_pos_site_id
 _symmetry_equiv_pos_as_xyz
  1  'x, y, z'
loop_
 _atom_site_type_symbol
 _atom_site_label
 _atom_site_symmetry_multiplicity
 _atom_site_fract_x
 _atom_site_fract_y
 _atom_site_fract_z
 _atom_site_occupancy
  Cs  Cs0  1  0.27265700  0.56428800  0.61277700  1
  Cs  Cs1  1  0.72734300  0.43571200  0.38722300  1
  Cs  Cs2  1  0.73150900  0.30646500  0.90517400  1
  Cs  Cs3  1  0.26849100  0.69353500  0.09482600  1
  Cu  Cu4  1  0.60157100  0.99517800  0.61180600  1
  Cu  Cu5  1  0.39842900  0.00482200  0.38819400  1
  Cu  Cu6  1  0.88631700  0.86162100  0.57781700  1
  Cu  Cu7  1  0.11368300  0.13837900  0.42218300  1
  Sb  Sb8  1  0.81330600  0.92469400  0.25943500  1
  Sb  Sb9  1  0.18669400  0.07530600  0.74056500  1
  Sb  Sb10  1  0.80184900  0.85622200  0.88013600  1
  Sb  Sb11  1  0.19815100  0.14377800  0.11986400  1
  S  S12  1  0.07797100  0.85657700  0.38734300  1
  S  S13  1  0.92202900  0.14342300  0.61265700  1
  S  S14  1  0.58444200  0.81576800  0.42579300  1
  S  S15  1  0.41555800  0.18423200  0.57420700  1
  S  S16  1  0.85985600  0.66014100  0.72110400  1
  S  S17  1  0.14014400  0.33985900  0.27889600  1
  S  S18  1  0.49864700  0.88513700  0.81250500  1
  S  S19  1  0.50135300  0.11486300  0.18749500  1
  S  S20  1  0.74848200  0.69292300  0.09202700  1
  S  S21  1  0.25151800  0.30707700  0.90797300  1
