# generated using pymatgen
data_Te4MoW3(SeS)2
_symmetry_space_group_name_H-M   'P 1'
_cell_length_a   3.39580217
_cell_length_b   3.39580217
_cell_length_c   38.77738700
_cell_angle_alpha   90.00000000
_cell_angle_beta   90.00000000
_cell_angle_gamma   120.00000340
_symmetry_Int_Tables_number   1
_chemical_formula_structural   Te4MoW3(SeS)2
_chemical_formula_sum   'Te4 Mo1 W3 Se2 S2'
_cell_volume   387.25222525
_cell_formula_units_Z   1
loop_
 _symmetry_equiv_pos_site_id
 _symmetry_equiv_pos_as_xyz
  1  'x, y, z'
loop_
 _atom_site_type_symbol
 _atom_site_label
 _atom_site_symmetry_multiplicity
 _atom_site_fract_x
 _atom_site_fract_y
 _atom_site_fract_z
 _atom_site_occupancy
  Te  Te0  1  0.33333300  0.66666700  0.04557800  1
  Te  Te1  1  0.33333300  0.66666700  0.42105700  1
  Te  Te2  1  0.33333300  0.66666700  0.14229100  1
  Te  Te3  1  0.33333300  0.66666700  0.51822000  1
  Mo  Mo4  1  0.00000000  0.00000000  0.09389800  1
  W  W5  1  0.00000000  0.00000000  0.46961200  1
  W  W6  1  0.33333300  0.66666700  0.28178100  1
  W  W7  1  0.33333300  0.66666700  0.65758000  1
  Se  Se8  1  0.00000000  0.00000000  0.70032700  1
  Se  Se9  1  0.00000000  0.00000000  0.61482200  1
  S  S10  1  0.00000000  0.00000000  0.32061400  1
  S  S11  1  0.00000000  0.00000000  0.24296800  1
