# generated using pymatgen
data_VO2
_symmetry_space_group_name_H-M   'P 1'
_cell_length_a   3.06062600
_cell_length_b   8.74594000
_cell_length_c   10.36555700
_cell_angle_alpha   89.99974184
_cell_angle_beta   89.99995917
_cell_angle_gamma   90.00000655
_symmetry_Int_Tables_number   1
_chemical_formula_structural   VO2
_chemical_formula_sum   'V8 O16'
_cell_volume   277.46576213
_cell_formula_units_Z   8
loop_
 _symmetry_equiv_pos_site_id
 _symmetry_equiv_pos_as_xyz
  1  'x, y, z'
loop_
 _atom_site_type_symbol
 _atom_site_label
 _atom_site_symmetry_multiplicity
 _atom_site_fract_x
 _atom_site_fract_y
 _atom_site_fract_z
 _atom_site_occupancy
  V  V0  1  0.74999200  0.57089700  0.39227200  1
  V  V1  1  0.24999900  0.42910100  0.60772900  1
  V  V2  1  0.24999800  0.92909300  0.89227200  1
  V  V3  1  0.74999600  0.07090400  0.10772900  1
  V  V4  1  0.25000500  0.93042300  0.39133800  1
  V  V5  1  0.74999700  0.06957700  0.60866600  1
  V  V6  1  0.75000400  0.56958000  0.89132800  1
  V  V7  1  0.25000700  0.43042100  0.10866100  1
  O  O8  1  0.24999700  0.71088800  0.36120300  1
  O  O9  1  0.75000100  0.28911400  0.63879800  1
  O  O10  1  0.75000000  0.78911400  0.86120500  1
  O  O11  1  0.25000100  0.21088600  0.13879800  1
  O  O12  1  0.24999900  0.61109900  0.01609500  1
  O  O13  1  0.75000400  0.38890400  0.98390400  1
  O  O14  1  0.75000300  0.88889900  0.51609900  1
  O  O15  1  0.24999800  0.11110100  0.48390600  1
  O  O16  1  0.75000000  0.98217100  0.27932900  1
  O  O17  1  0.25000000  0.01783000  0.72067000  1
  O  O18  1  0.25000100  0.51782900  0.77932700  1
  O  O19  1  0.75000300  0.48217100  0.22067000  1
  O  O20  1  0.24999800  0.92469900  0.07057800  1
  O  O21  1  0.74999900  0.07530000  0.92942200  1
  O  O22  1  0.74999800  0.57530100  0.57058000  1
  O  O23  1  0.25000000  0.42469900  0.42942000  1
