# generated using pymatgen
data_Ba2ZnS3
_symmetry_space_group_name_H-M   'P 1'
_cell_length_a   4.29972900
_cell_length_b   8.90969300
_cell_length_c   17.20432100
_cell_angle_alpha   90.00000000
_cell_angle_beta   90.00000000
_cell_angle_gamma   90.00000000
_symmetry_Int_Tables_number   1
_chemical_formula_structural   Ba2ZnS3
_chemical_formula_sum   'Ba8 Zn4 S12'
_cell_volume   659.08489875
_cell_formula_units_Z   4
loop_
 _symmetry_equiv_pos_site_id
 _symmetry_equiv_pos_as_xyz
  1  'x, y, z'
loop_
 _atom_site_type_symbol
 _atom_site_label
 _atom_site_symmetry_multiplicity
 _atom_site_fract_x
 _atom_site_fract_y
 _atom_site_fract_z
 _atom_site_occupancy
  Ba  Ba0  1  0.75000000  0.75273100  0.95625500  1
  Ba  Ba1  1  0.75000000  0.25273100  0.54374500  1
  Ba  Ba2  1  0.25000000  0.24726900  0.04374500  1
  Ba  Ba3  1  0.25000000  0.74726900  0.45625500  1
  Ba  Ba4  1  0.25000000  0.58090800  0.71343100  1
  Ba  Ba5  1  0.25000000  0.08090800  0.78656900  1
  Ba  Ba6  1  0.75000000  0.41909200  0.28656900  1
  Ba  Ba7  1  0.75000000  0.91909200  0.21343100  1
  Zn  Zn8  1  0.75000000  0.36489200  0.86524600  1
  Zn  Zn9  1  0.75000000  0.86489200  0.63475400  1
  Zn  Zn10  1  0.25000000  0.63510800  0.13475400  1
  Zn  Zn11  1  0.25000000  0.13510800  0.36524600  1
  S  S12  1  0.75000000  0.31965900  0.72933000  1
  S  S13  1  0.75000000  0.81965900  0.77067000  1
  S  S14  1  0.25000000  0.68034100  0.27067000  1
  S  S15  1  0.25000000  0.18034100  0.22933000  1
  S  S16  1  0.75000000  0.12981600  0.92811300  1
  S  S17  1  0.75000000  0.62981600  0.57188700  1
  S  S18  1  0.25000000  0.87018400  0.07188700  1
  S  S19  1  0.25000000  0.37018400  0.42811300  1
  S  S20  1  0.25000000  0.49285000  0.89840400  1
  S  S21  1  0.25000000  0.99285000  0.60159600  1
  S  S22  1  0.75000000  0.50715000  0.10159600  1
  S  S23  1  0.75000000  0.00715000  0.39840400  1
