# generated using pymatgen
data_RbSO4
_symmetry_space_group_name_H-M   'P 1'
_cell_length_a   7.93662900
_cell_length_b   7.61036500
_cell_length_c   7.67173619
_cell_angle_alpha   67.86393440
_cell_angle_beta   90.00000000
_cell_angle_gamma   90.00000000
_symmetry_Int_Tables_number   1
_chemical_formula_structural   RbSO4
_chemical_formula_sum   'Rb4 S4 O16'
_cell_volume   429.22297930
_cell_formula_units_Z   4
loop_
 _symmetry_equiv_pos_site_id
 _symmetry_equiv_pos_as_xyz
  1  'x, y, z'
loop_
 _atom_site_type_symbol
 _atom_site_label
 _atom_site_symmetry_multiplicity
 _atom_site_fract_x
 _atom_site_fract_y
 _atom_site_fract_z
 _atom_site_occupancy
  Rb  Rb0  1  0.49035900  0.21554800  0.04134100  1
  Rb  Rb1  1  0.99035900  0.78445200  0.95865900  1
  Rb  Rb2  1  0.74734800  0.21837700  0.53628100  1
  Rb  Rb3  1  0.24734800  0.78162300  0.46371900  1
  S  S4  1  0.99385100  0.26116200  0.02381300  1
  S  S5  1  0.49385100  0.73883800  0.97618700  1
  S  S6  1  0.24314600  0.25975600  0.52667600  1
  S  S7  1  0.74314600  0.74024400  0.47332400  1
  O  O8  1  0.91771800  0.31962400  0.17306400  1
  O  O9  1  0.41771800  0.68037600  0.82693600  1
  O  O10  1  0.08452800  0.42993200  0.89121400  1
  O  O11  1  0.58452800  0.57006800  0.10878600  1
  O  O12  1  0.85237600  0.20438300  0.92951500  1
  O  O13  1  0.35237600  0.79561700  0.07048500  1
  O  O14  1  0.11232500  0.10186800  0.10775700  1
  O  O15  1  0.61232500  0.89813200  0.89224300  1
  O  O16  1  0.37691700  0.18518200  0.43757200  1
  O  O17  1  0.87691700  0.81481800  0.56242800  1
  O  O18  1  0.32632700  0.33163200  0.66233600  1
  O  O19  1  0.82632700  0.66836800  0.33766400  1
  O  O20  1  0.11935900  0.11031500  0.62407100  1
  O  O21  1  0.61935900  0.88968500  0.37592900  1
  O  O22  1  0.15484500  0.42509000  0.38458700  1
  O  O23  1  0.65484500  0.57491000  0.61541300  1
