# generated using pymatgen
data_CO2
_symmetry_space_group_name_H-M   'P 1'
_cell_length_a   7.25563739
_cell_length_b   7.25563739
_cell_length_c   7.25563766
_cell_angle_alpha   89.74807440
_cell_angle_beta   89.74807440
_cell_angle_gamma   89.74807979
_symmetry_Int_Tables_number   1
_chemical_formula_structural   CO2
_chemical_formula_sum   'C8 O16'
_cell_volume   381.95673185
_cell_formula_units_Z   8
loop_
 _symmetry_equiv_pos_site_id
 _symmetry_equiv_pos_as_xyz
  1  'x, y, z'
loop_
 _atom_site_type_symbol
 _atom_site_label
 _atom_site_symmetry_multiplicity
 _atom_site_fract_x
 _atom_site_fract_y
 _atom_site_fract_z
 _atom_site_occupancy
  C  C0  1  0.50000000  0.50000000  0.50000000  1
  C  C1  1  0.00000000  0.00000000  0.00000000  1
  C  C2  1  0.25000000  0.99975600  0.50024400  1
  C  C3  1  0.50024400  0.25000000  0.99975600  1
  C  C4  1  0.99975600  0.50024400  0.25000000  1
  C  C5  1  0.00024400  0.49975600  0.75000000  1
  C  C6  1  0.75000000  0.00024400  0.49975600  1
  C  C7  1  0.49975600  0.75000000  0.00024400  1
  O  O8  1  0.40690700  0.40690700  0.40690700  1
  O  O9  1  0.90690700  0.90690700  0.90690700  1
  O  O10  1  0.59309300  0.59309300  0.59309300  1
  O  O11  1  0.09309300  0.09309300  0.09309300  1
  O  O12  1  0.16479800  0.09727100  0.59789200  1
  O  O13  1  0.59789200  0.16479800  0.09727100  1
  O  O14  1  0.09727100  0.59789200  0.16479800  1
  O  O15  1  0.09789200  0.59727100  0.66479800  1
  O  O16  1  0.66479800  0.09789200  0.59727100  1
  O  O17  1  0.59727100  0.66479800  0.09789200  1
  O  O18  1  0.83520200  0.90272900  0.40210800  1
  O  O19  1  0.40210800  0.83520200  0.90272900  1
  O  O20  1  0.90272900  0.40210800  0.83520200  1
  O  O21  1  0.90210800  0.40272900  0.33520200  1
  O  O22  1  0.33520200  0.90210800  0.40272900  1
  O  O23  1  0.40272900  0.33520200  0.90210800  1
