# generated using pymatgen
data_MoW3S8
_symmetry_space_group_name_H-M   'P 1'
_cell_length_a   3.19106581
_cell_length_b   3.19106581
_cell_length_c   35.84507200
_cell_angle_alpha   90.00000000
_cell_angle_beta   90.00000000
_cell_angle_gamma   119.99999603
_symmetry_Int_Tables_number   1
_chemical_formula_structural   MoW3S8
_chemical_formula_sum   'Mo1 W3 S8'
_cell_volume   316.10519072
_cell_formula_units_Z   1
loop_
 _symmetry_equiv_pos_site_id
 _symmetry_equiv_pos_as_xyz
  1  'x, y, z'
loop_
 _atom_site_type_symbol
 _atom_site_label
 _atom_site_symmetry_multiplicity
 _atom_site_fract_x
 _atom_site_fract_y
 _atom_site_fract_z
 _atom_site_occupancy
  Mo  Mo0  1  0.66666700  0.33333300  0.28181100  1
  W  W1  1  0.33333300  0.66666700  0.09390800  1
  W  W2  1  0.33333300  0.66666700  0.46966400  1
  W  W3  1  0.66666700  0.33333300  0.65755200  1
  S  S4  1  0.33333300  0.66666700  0.32544800  1
  S  S5  1  0.33333300  0.66666700  0.70141200  1
  S  S6  1  0.66666700  0.33333300  0.05003100  1
  S  S7  1  0.66666700  0.33333300  0.42580900  1
  S  S8  1  0.66666700  0.33333300  0.13778900  1
  S  S9  1  0.66666700  0.33333300  0.51350500  1
  S  S10  1  0.33333300  0.66666700  0.23814100  1
  S  S11  1  0.33333300  0.66666700  0.61367900  1
