# generated using pymatgen
data_Gd3MgAlS7
_symmetry_space_group_name_H-M   'P 1'
_cell_length_a   9.77476405
_cell_length_b   9.77476405
_cell_length_c   6.18327400
_cell_angle_alpha   90.00000000
_cell_angle_beta   90.00000000
_cell_angle_gamma   120.00000035
_symmetry_Int_Tables_number   1
_chemical_formula_structural   Gd3MgAlS7
_chemical_formula_sum   'Gd6 Mg2 Al2 S14'
_cell_volume   511.63669865
_cell_formula_units_Z   2
loop_
 _symmetry_equiv_pos_site_id
 _symmetry_equiv_pos_as_xyz
  1  'x, y, z'
loop_
 _atom_site_type_symbol
 _atom_site_label
 _atom_site_symmetry_multiplicity
 _atom_site_fract_x
 _atom_site_fract_y
 _atom_site_fract_z
 _atom_site_occupancy
  Gd  Gd0  1  0.61984800  0.84519100  0.26715000  1
  Gd  Gd1  1  0.15480900  0.77465700  0.26715000  1
  Gd  Gd2  1  0.22534300  0.38015200  0.26715000  1
  Gd  Gd3  1  0.38015200  0.15480900  0.76715000  1
  Gd  Gd4  1  0.84519100  0.22534300  0.76715000  1
  Gd  Gd5  1  0.77465700  0.61984800  0.76715000  1
  Mg  Mg6  1  0.00000000  0.00000000  0.44956200  1
  Mg  Mg7  1  0.00000000  0.00000000  0.94956200  1
  Al  Al8  1  0.33333300  0.66666700  0.84608300  1
  Al  Al9  1  0.66666700  0.33333300  0.34608300  1
  S  S10  1  0.75672700  0.89482500  0.68752800  1
  S  S11  1  0.10517500  0.86190200  0.68752800  1
  S  S12  1  0.13809800  0.24327300  0.68752800  1
  S  S13  1  0.24327300  0.10517500  0.18752800  1
  S  S14  1  0.89482500  0.13809800  0.18752800  1
  S  S15  1  0.86190200  0.75672700  0.18752800  1
  S  S16  1  0.47719200  0.56985100  0.99801700  1
  S  S17  1  0.43014900  0.90734100  0.99801700  1
  S  S18  1  0.09265900  0.52280800  0.99801700  1
  S  S19  1  0.52280800  0.43014900  0.49801700  1
  S  S20  1  0.56985100  0.09265900  0.49801700  1
  S  S21  1  0.90734100  0.47719200  0.49801700  1
  S  S22  1  0.33333300  0.66666700  0.48229300  1
  S  S23  1  0.66666700  0.33333300  0.98229300  1
