# generated using pymatgen
data_La3LuBeS7
_symmetry_space_group_name_H-M   'P 1'
_cell_length_a   10.30095550
_cell_length_b   10.30095550
_cell_length_c   6.18862200
_cell_angle_alpha   90.00000000
_cell_angle_beta   90.00000000
_cell_angle_gamma   119.99999678
_symmetry_Int_Tables_number   1
_chemical_formula_structural   La3LuBeS7
_chemical_formula_sum   'La6 Lu2 Be2 S14'
_cell_volume   568.69528108
_cell_formula_units_Z   2
loop_
 _symmetry_equiv_pos_site_id
 _symmetry_equiv_pos_as_xyz
  1  'x, y, z'
loop_
 _atom_site_type_symbol
 _atom_site_label
 _atom_site_symmetry_multiplicity
 _atom_site_fract_x
 _atom_site_fract_y
 _atom_site_fract_z
 _atom_site_occupancy
  La  La0  1  0.74076800  0.13684800  0.24947000  1
  La  La1  1  0.39607900  0.25923200  0.24947000  1
  La  La2  1  0.86315200  0.60392100  0.24947000  1
  La  La3  1  0.25923200  0.86315200  0.74947000  1
  La  La4  1  0.60392100  0.74076800  0.74947000  1
  La  La5  1  0.13684800  0.39607900  0.74947000  1
  Lu  Lu6  1  0.00000000  0.00000000  0.01846600  1
  Lu  Lu7  1  0.00000000  0.00000000  0.51846600  1
  Be  Be8  1  0.66666700  0.33333300  0.66066500  1
  Be  Be9  1  0.33333300  0.66666700  0.16066500  1
  S  S10  1  0.84404000  0.08064800  0.76992700  1
  S  S11  1  0.23660800  0.15596000  0.76992700  1
  S  S12  1  0.91935200  0.76339200  0.76992700  1
  S  S13  1  0.15596000  0.91935200  0.26992700  1
  S  S14  1  0.76339200  0.84404000  0.26992700  1
  S  S15  1  0.08064800  0.23660800  0.26992700  1
  S  S16  1  0.88394300  0.40347400  0.52855400  1
  S  S17  1  0.51953200  0.11605700  0.52855400  1
  S  S18  1  0.59652600  0.48046800  0.52855400  1
  S  S19  1  0.11605700  0.59652600  0.02855400  1
  S  S20  1  0.48046800  0.88394300  0.02855400  1
  S  S21  1  0.40347400  0.51953200  0.02855400  1
  S  S22  1  0.66666700  0.33333300  0.00904700  1
  S  S23  1  0.33333300  0.66666700  0.50904700  1
