# generated using pymatgen
data_AsH6NO4
_symmetry_space_group_name_H-M   'P 1'
_cell_length_a   6.68659810
_cell_length_b   6.68659810
_cell_length_c   6.68659810
_cell_angle_alpha   116.53715964
_cell_angle_beta   106.05803822
_cell_angle_gamma   106.05803822
_symmetry_Int_Tables_number   1
_chemical_formula_structural   AsH6NO4
_chemical_formula_sum   'As2 H12 N2 O8'
_cell_volume   227.48474022
_cell_formula_units_Z   2
loop_
 _symmetry_equiv_pos_site_id
 _symmetry_equiv_pos_as_xyz
  1  'x, y, z'
loop_
 _atom_site_type_symbol
 _atom_site_label
 _atom_site_symmetry_multiplicity
 _atom_site_fract_x
 _atom_site_fract_y
 _atom_site_fract_z
 _atom_site_occupancy
  As  As0  1  0.50000000  0.75000000  0.25000000  1
  As  As1  1  0.00000000  0.00000000  0.00000000  1
  H  H2  1  0.63491500  0.25598200  0.70252000  1
  H  H3  1  0.94653800  0.49401800  0.62893300  1
  H  H4  1  0.36508500  0.06760500  0.62106700  1
  H  H5  1  0.05346200  0.68239500  0.54748000  1
  H  H6  1  0.55346200  0.29748000  0.93239500  1
  H  H7  1  0.13491500  0.45252000  0.50598200  1
  H  H8  1  0.44653800  0.37893300  0.74401800  1
  H  H9  1  0.86508500  0.37106700  0.31760500  1
  H  H10  1  0.89051300  0.01551300  0.62500000  1
  H  H11  1  0.10948700  0.73448700  0.12500000  1
  H  H12  1  0.39051300  0.37500000  0.26551300  1
  H  H13  1  0.60948700  0.87500000  0.98448700  1
  N  N14  1  0.50000000  0.25000000  0.75000000  1
  N  N15  1  0.00000000  0.50000000  0.50000000  1
  O  O16  1  0.74494600  0.03697300  0.49124900  1
  O  O17  1  0.95427600  0.71302700  0.95797300  1
  O  O18  1  0.25505400  0.74630300  0.29202700  1
  O  O19  1  0.04572400  0.00369700  0.75875100  1
  O  O20  1  0.54572400  0.50875100  0.25369700  1
  O  O21  1  0.24494600  0.24124900  0.28697300  1
  O  O22  1  0.45427600  0.70797300  0.96302700  1
  O  O23  1  0.75505400  0.04202700  0.99630300  1
