# generated using pymatgen
data_K5MoC7N7O
_symmetry_space_group_name_H-M   'P 1'
_cell_length_a   7.87330100
_cell_length_b   7.92744261
_cell_length_c   8.13700893
_cell_angle_alpha   107.97024863
_cell_angle_beta   109.25605093
_cell_angle_gamma   108.16771294
_symmetry_Int_Tables_number   1
_chemical_formula_structural   K5MoC7N7O
_chemical_formula_sum   'K5 Mo1 C7 N7 O1'
_cell_volume   404.82985079
_cell_formula_units_Z   1
loop_
 _symmetry_equiv_pos_site_id
 _symmetry_equiv_pos_as_xyz
  1  'x, y, z'
loop_
 _atom_site_type_symbol
 _atom_site_label
 _atom_site_symmetry_multiplicity
 _atom_site_fract_x
 _atom_site_fract_y
 _atom_site_fract_z
 _atom_site_occupancy
  K  K0  1  0.60445500  0.25226800  0.08429800  1
  K  K1  1  0.83536900  0.31392800  0.67894200  1
  K  K2  1  0.09353800  0.82746800  0.45088800  1
  K  K3  1  0.35574600  0.48172400  0.61110000  1
  K  K4  1  0.48775400  0.72640700  0.23094800  1
  Mo  Mo5  1  0.99810700  0.99922800  0.99402200  1
  C  C6  1  0.11521600  0.80226700  0.87051000  1
  C  C7  1  0.82243200  0.70933000  0.96572100  1
  C  C8  1  0.89126300  0.04725700  0.21188600  1
  C  C9  1  0.06837200  0.31617100  0.12521400  1
  C  C10  1  0.14003200  0.13996700  0.85102200  1
  C  C11  1  0.70477600  0.93773300  0.77085500  1
  C  C12  1  0.28617800  0.10243500  0.24542700  1
  N  N13  1  0.19253400  0.70463300  0.82204200  1
  N  N14  1  0.71846800  0.55238000  0.94540200  1
  N  N15  1  0.83917800  0.08177200  0.33314200  1
  N  N16  1  0.10968000  0.48589500  0.20395900  1
  N  N17  1  0.21441400  0.22230400  0.77548000  1
  N  N18  1  0.54587900  0.91095500  0.65958200  1
  N  N19  1  0.44391800  0.16688000  0.38298700  1
  O  O20  1  0.73259200  0.59269800  0.37537200  1
