# generated using pymatgen
data_MgH12(BrO3)2
_symmetry_space_group_name_H-M   'P 1'
_cell_length_a   6.30262758
_cell_length_b   6.49562089
_cell_length_c   6.49562089
_cell_angle_alpha   71.12284175
_cell_angle_beta   87.02933724
_cell_angle_gamma   87.02933724
_symmetry_Int_Tables_number   1
_chemical_formula_structural   MgH12(BrO3)2
_chemical_formula_sum   'Mg1 H12 Br2 O6'
_cell_volume   251.11315391
_cell_formula_units_Z   1
loop_
 _symmetry_equiv_pos_site_id
 _symmetry_equiv_pos_as_xyz
  1  'x, y, z'
loop_
 _atom_site_type_symbol
 _atom_site_label
 _atom_site_symmetry_multiplicity
 _atom_site_fract_x
 _atom_site_fract_y
 _atom_site_fract_z
 _atom_site_occupancy
  Mg  Mg0  1  0.00000000  0.50000000  0.50000000  1
  H  H1  1  0.24526200  0.27129800  0.27129800  1
  H  H2  1  0.75473800  0.72870200  0.72870200  1
  H  H3  1  0.25967000  0.18742900  0.77100200  1
  H  H4  1  0.25967000  0.77100200  0.18742900  1
  H  H5  1  0.74033000  0.81257100  0.22899800  1
  H  H6  1  0.74033000  0.22899800  0.81257100  1
  H  H7  1  0.31338300  0.41578800  0.79606600  1
  H  H8  1  0.31338300  0.79606600  0.41578800  1
  H  H9  1  0.68661700  0.58421200  0.20393400  1
  H  H10  1  0.68661700  0.20393400  0.58421200  1
  H  H11  1  0.99606400  0.24720200  0.24720200  1
  H  H12  1  0.00393600  0.75279800  0.75279800  1
  Br  Br13  1  0.61770300  0.18078100  0.18078100  1
  Br  Br14  1  0.38229700  0.81921900  0.81921900  1
  O  O15  1  0.10078700  0.31189200  0.31189200  1
  O  O16  1  0.89921300  0.68810800  0.68810800  1
  O  O17  1  0.21345900  0.34202600  0.73654200  1
  O  O18  1  0.21345900  0.73654200  0.34202600  1
  O  O19  1  0.78654100  0.65797400  0.26345800  1
  O  O20  1  0.78654100  0.26345800  0.65797400  1
