# generated using pymatgen
data_NaPNO8
_symmetry_space_group_name_H-M   'P 1'
_cell_length_a   5.55202800
_cell_length_b   7.39722666
_cell_length_c   9.18367635
_cell_angle_alpha   113.07312547
_cell_angle_beta   94.21071667
_cell_angle_gamma   90.30912743
_symmetry_Int_Tables_number   1
_chemical_formula_structural   NaPNO8
_chemical_formula_sum   'Na2 P2 N2 O16'
_cell_volume   345.82173713
_cell_formula_units_Z   2
loop_
 _symmetry_equiv_pos_site_id
 _symmetry_equiv_pos_as_xyz
  1  'x, y, z'
loop_
 _atom_site_type_symbol
 _atom_site_label
 _atom_site_symmetry_multiplicity
 _atom_site_fract_x
 _atom_site_fract_y
 _atom_site_fract_z
 _atom_site_occupancy
  Na  Na0  1  0.98407100  0.21285300  0.42772000  1
  Na  Na1  1  0.01592900  0.78714700  0.57228000  1
  P  P2  1  0.48842800  0.62655900  0.25481200  1
  P  P3  1  0.51157200  0.37344100  0.74518800  1
  N  N4  1  0.13866500  0.93431400  0.02924700  1
  N  N5  1  0.86133500  0.06568600  0.97075300  1
  O  O6  1  0.28210500  0.56323100  0.13582000  1
  O  O7  1  0.71789500  0.43676900  0.86418000  1
  O  O8  1  0.65235000  0.44228800  0.25319000  1
  O  O9  1  0.34765000  0.55771200  0.74681000  1
  O  O10  1  0.40378200  0.71786200  0.43808600  1
  O  O11  1  0.59621800  0.28213800  0.56191400  1
  O  O12  1  0.64920700  0.80795800  0.24926900  1
  O  O13  1  0.35079300  0.19204200  0.75073100  1
  O  O14  1  0.41296200  0.21929100  0.44132700  1
  O  O15  1  0.58703800  0.78070900  0.55867300  1
  O  O16  1  0.84900900  0.48718300  0.36691200  1
  O  O17  1  0.15099100  0.51281700  0.63308800  1
  O  O18  1  0.84559300  0.87851200  0.36370500  1
  O  O19  1  0.15440700  0.12148800  0.63629500  1
  O  O20  1  0.10209000  0.11132800  0.01692800  1
  O  O21  1  0.89791000  0.88867200  0.98307200  1
