# generated using pymatgen
data_KHCO3
_symmetry_space_group_name_H-M   'P 1'
_cell_length_a   5.58946929
_cell_length_b   5.58946929
_cell_length_c   11.04977441
_cell_angle_alpha   75.80331787
_cell_angle_beta   75.80331787
_cell_angle_gamma   72.81330546
_symmetry_Int_Tables_number   1
_chemical_formula_structural   KHCO3
_chemical_formula_sum   'K4 H4 C4 O12'
_cell_volume   314.11836499
_cell_formula_units_Z   4
loop_
 _symmetry_equiv_pos_site_id
 _symmetry_equiv_pos_as_xyz
  1  'x, y, z'
loop_
 _atom_site_type_symbol
 _atom_site_label
 _atom_site_symmetry_multiplicity
 _atom_site_fract_x
 _atom_site_fract_y
 _atom_site_fract_z
 _atom_site_occupancy
  K  K0  1  0.98236600  0.29772300  0.86359600  1
  K  K1  1  0.70227700  0.01763400  0.63640400  1
  K  K2  1  0.01763400  0.70227700  0.13640400  1
  K  K3  1  0.29772300  0.98236600  0.36359600  1
  H  H4  1  0.38492800  0.58064900  0.64572200  1
  H  H5  1  0.41935100  0.61507200  0.85427800  1
  H  H6  1  0.61507200  0.41935100  0.35427800  1
  H  H7  1  0.58064900  0.38492800  0.14572200  1
  C  C8  1  0.09119700  0.45599200  0.55035900  1
  C  C9  1  0.54400800  0.90880300  0.94964100  1
  C  C10  1  0.90880300  0.54400800  0.44964100  1
  C  C11  1  0.45599200  0.09119700  0.05035900  1
  O  O12  1  0.54677800  0.54500100  0.68239500  1
  O  O13  1  0.45499900  0.45322200  0.81760500  1
  O  O14  1  0.45322200  0.45499900  0.31760500  1
  O  O15  1  0.54500100  0.54677800  0.18239500  1
  O  O16  1  0.13996700  0.63602400  0.58531700  1
  O  O17  1  0.36397600  0.86003300  0.91468300  1
  O  O18  1  0.86003300  0.36397600  0.41468300  1
  O  O19  1  0.63602400  0.13996700  0.08531700  1
  O  O20  1  0.17337800  0.22105800  0.58994300  1
  O  O21  1  0.77894200  0.82662200  0.91005700  1
  O  O22  1  0.82662200  0.77894200  0.41005700  1
  O  O23  1  0.22105800  0.17337800  0.08994300  1
