# generated using pymatgen
data_Ca(BH4)2
_symmetry_space_group_name_H-M   'P 1'
_cell_length_a   6.99262700
_cell_length_b   6.99262700
_cell_length_c   4.35049700
_cell_angle_alpha   90.00000000
_cell_angle_beta   90.00000000
_cell_angle_gamma   90.00000000
_symmetry_Int_Tables_number   1
_chemical_formula_structural   Ca(BH4)2
_chemical_formula_sum   'Ca2 B4 H16'
_cell_volume   212.72552250
_cell_formula_units_Z   2
loop_
 _symmetry_equiv_pos_site_id
 _symmetry_equiv_pos_as_xyz
  1  'x, y, z'
loop_
 _atom_site_type_symbol
 _atom_site_label
 _atom_site_symmetry_multiplicity
 _atom_site_fract_x
 _atom_site_fract_y
 _atom_site_fract_z
 _atom_site_occupancy
  Ca  Ca0  1  0.50000000  0.00000000  0.24710900  1
  Ca  Ca1  1  0.00000000  0.50000000  0.75289100  1
  B  B2  1  0.20006400  0.31487500  0.25281300  1
  B  B3  1  0.79993600  0.68512500  0.25281300  1
  B  B4  1  0.31487500  0.79993600  0.74718700  1
  B  B5  1  0.68512500  0.20006400  0.74718700  1
  H  H6  1  0.37445900  0.30241700  0.24003300  1
  H  H7  1  0.62554100  0.69758300  0.24003300  1
  H  H8  1  0.30241700  0.62554100  0.75996700  1
  H  H9  1  0.69758300  0.37445900  0.75996700  1
  H  H10  1  0.13800900  0.23830100  0.48510100  1
  H  H11  1  0.86199100  0.76169900  0.48510100  1
  H  H12  1  0.23830100  0.86199100  0.51489900  1
  H  H13  1  0.76169900  0.13800900  0.51489900  1
  H  H14  1  0.17082500  0.48839900  0.25456300  1
  H  H15  1  0.82917500  0.51160100  0.25456300  1
  H  H16  1  0.48839900  0.82917500  0.74543700  1
  H  H17  1  0.51160100  0.17082500  0.74543700  1
  H  H18  1  0.12506100  0.23763500  0.03106100  1
  H  H19  1  0.87493900  0.76236500  0.03106100  1
  H  H20  1  0.23763500  0.87493900  0.96893900  1
  H  H21  1  0.76236500  0.12506100  0.96893900  1
