# generated using pymatgen
data_BaMn2O8
_symmetry_space_group_name_H-M   'P 1'
_cell_length_a   9.47698052
_cell_length_b   9.47698052
_cell_length_c   7.76398605
_cell_angle_alpha   100.34259703
_cell_angle_beta   100.34259703
_cell_angle_gamma   134.89706391
_symmetry_Int_Tables_number   1
_chemical_formula_structural   BaMn2O8
_chemical_formula_sum   'Ba2 Mn4 O16'
_cell_volume   436.48953108
_cell_formula_units_Z   2
loop_
 _symmetry_equiv_pos_site_id
 _symmetry_equiv_pos_as_xyz
  1  'x, y, z'
loop_
 _atom_site_type_symbol
 _atom_site_label
 _atom_site_symmetry_multiplicity
 _atom_site_fract_x
 _atom_site_fract_y
 _atom_site_fract_z
 _atom_site_occupancy
  Ba  Ba0  1  0.75000000  0.25000000  0.50000000  1
  Ba  Ba1  1  0.00000000  0.00000000  0.00000000  1
  Mn  Mn2  1  0.94984400  0.05015600  0.50000000  1
  Mn  Mn3  1  0.80015600  0.19984400  0.00000000  1
  Mn  Mn4  1  0.55015600  0.44984400  0.50000000  1
  Mn  Mn5  1  0.19984400  0.80015600  0.00000000  1
  O  O6  1  0.64884000  0.15439900  0.80638100  1
  O  O7  1  0.84560100  0.35116000  0.19361900  1
  O  O8  1  0.10116000  0.09560100  0.69361900  1
  O  O9  1  0.90439900  0.89884000  0.30638100  1
  O  O10  1  0.15754200  0.65198200  0.80638100  1
  O  O11  1  0.34801800  0.84245800  0.19361900  1
  O  O12  1  0.59245800  0.59801800  0.69361900  1
  O  O13  1  0.40198200  0.40754200  0.30638100  1
  O  O14  1  0.71898100  0.92940400  0.50552100  1
  O  O15  1  0.07059600  0.28101900  0.49447900  1
  O  O16  1  0.03101900  0.32059600  0.99447900  1
  O  O17  1  0.67940400  0.96898100  0.00552100  1
  O  O18  1  0.78654000  0.57611700  0.50552100  1
  O  O19  1  0.42388300  0.21346000  0.49447900  1
  O  O20  1  0.96346000  0.67388300  0.99447900  1
  O  O21  1  0.32611700  0.03654000  0.00552100  1
