# generated using pymatgen
data_Te4MoW3(SeS)2
_symmetry_space_group_name_H-M   'P 1'
_cell_length_a   3.39630440
_cell_length_b   3.39630440
_cell_length_c   38.74608800
_cell_angle_alpha   90.00000000
_cell_angle_beta   90.00000000
_cell_angle_gamma   120.00000771
_symmetry_Int_Tables_number   1
_chemical_formula_structural   Te4MoW3(SeS)2
_chemical_formula_sum   'Te4 Mo1 W3 Se2 S2'
_cell_volume   387.05410059
_cell_formula_units_Z   1
loop_
 _symmetry_equiv_pos_site_id
 _symmetry_equiv_pos_as_xyz
  1  'x, y, z'
loop_
 _atom_site_type_symbol
 _atom_site_label
 _atom_site_symmetry_multiplicity
 _atom_site_fract_x
 _atom_site_fract_y
 _atom_site_fract_z
 _atom_site_occupancy
  Te  Te0  1  0.00000000  0.00000000  0.70619700  1
  Te  Te1  1  0.33333300  0.66666700  0.04552300  1
  Te  Te2  1  0.33333300  0.66666700  0.14229000  1
  Te  Te3  1  0.00000000  0.00000000  0.60885900  1
  Mo  Mo4  1  0.00000000  0.00000000  0.09389700  1
  W  W5  1  0.00000000  0.00000000  0.46965300  1
  W  W6  1  0.33333300  0.66666700  0.28183700  1
  W  W7  1  0.33333300  0.66666700  0.65755000  1
  Se  Se8  1  0.00000000  0.00000000  0.32459600  1
  Se  Se9  1  0.00000000  0.00000000  0.23903700  1
  S  S10  1  0.33333300  0.66666700  0.43076200  1
  S  S11  1  0.33333300  0.66666700  0.50854600  1
