# generated using pymatgen
data_Ce4CdRu
_symmetry_space_group_name_H-M   'P 1'
_cell_length_a   9.72474481
_cell_length_b   9.72474481
_cell_length_c   9.72474481
_cell_angle_alpha   60.00000000
_cell_angle_beta   60.00000000
_cell_angle_gamma   60.00000000
_symmetry_Int_Tables_number   1
_chemical_formula_structural   Ce4CdRu
_chemical_formula_sum   'Ce16 Cd4 Ru4'
_cell_volume   650.30881831
_cell_formula_units_Z   4
loop_
 _symmetry_equiv_pos_site_id
 _symmetry_equiv_pos_as_xyz
  1  'x, y, z'
loop_
 _atom_site_type_symbol
 _atom_site_label
 _atom_site_symmetry_multiplicity
 _atom_site_fract_x
 _atom_site_fract_y
 _atom_site_fract_z
 _atom_site_occupancy
  Ce  Ce0  1  0.55961200  0.55961200  0.94038800  1
  Ce  Ce1  1  0.94038800  0.55961200  0.94038800  1
  Ce  Ce2  1  0.55961200  0.94038800  0.94038800  1
  Ce  Ce3  1  0.94038800  0.94038800  0.55961200  1
  Ce  Ce4  1  0.55961200  0.94038800  0.55961200  1
  Ce  Ce5  1  0.94038800  0.55961200  0.55961200  1
  Ce  Ce6  1  0.19000600  0.19000600  0.80999400  1
  Ce  Ce7  1  0.80999400  0.19000600  0.80999400  1
  Ce  Ce8  1  0.19000500  0.80999500  0.80999400  1
  Ce  Ce9  1  0.80999400  0.80999500  0.19000600  1
  Ce  Ce10  1  0.19000500  0.80999400  0.19000500  1
  Ce  Ce11  1  0.80999400  0.19000600  0.19000600  1
  Ce  Ce12  1  0.34720000  0.34720000  0.95840100  1
  Ce  Ce13  1  0.34720000  0.95840100  0.34720000  1
  Ce  Ce14  1  0.95840100  0.34720000  0.34720000  1
  Ce  Ce15  1  0.34720000  0.34720000  0.34720000  1
  Cd  Cd16  1  0.57900600  0.57900600  0.26298100  1
  Cd  Cd17  1  0.57900600  0.26298100  0.57900600  1
  Cd  Cd18  1  0.26298100  0.57900600  0.57900600  1
  Cd  Cd19  1  0.57900600  0.57900600  0.57900600  1
  Ru  Ru20  1  0.13627500  0.13627500  0.59117500  1
  Ru  Ru21  1  0.13627500  0.59117500  0.13627500  1
  Ru  Ru22  1  0.59117500  0.13627500  0.13627500  1
  Ru  Ru23  1  0.13627500  0.13627500  0.13627500  1
