# generated using pymatgen
data_ReIr2(NCl)10
_symmetry_space_group_name_H-M   'P 1'
_cell_length_a   7.39148920
_cell_length_b   7.39148920
_cell_length_c   11.92617640
_cell_angle_alpha   76.57039186
_cell_angle_beta   76.57039186
_cell_angle_gamma   71.26952012
_symmetry_Int_Tables_number   1
_chemical_formula_structural   ReIr2(NCl)10
_chemical_formula_sum   'Re1 Ir2 N10 Cl10'
_cell_volume   591.33736045
_cell_formula_units_Z   1
loop_
 _symmetry_equiv_pos_site_id
 _symmetry_equiv_pos_as_xyz
  1  'x, y, z'
loop_
 _atom_site_type_symbol
 _atom_site_label
 _atom_site_symmetry_multiplicity
 _atom_site_fract_x
 _atom_site_fract_y
 _atom_site_fract_z
 _atom_site_occupancy
  Re  Re0  1  0.00000000  0.00000000  0.00000000  1
  Ir  Ir1  1  0.66623900  0.66623900  0.70977700  1
  Ir  Ir2  1  0.33376100  0.33376100  0.29022300  1
  N  N3  1  0.51183600  0.51183600  0.76840100  1
  N  N4  1  0.48816400  0.48816400  0.23159900  1
  N  N5  1  0.50353200  0.80256500  0.54860900  1
  N  N6  1  0.80256500  0.50353200  0.54860900  1
  N  N7  1  0.49646800  0.19743500  0.45139100  1
  N  N8  1  0.19743500  0.49646800  0.45139100  1
  N  N9  1  0.54557100  0.88599600  0.76469800  1
  N  N10  1  0.88599600  0.54557100  0.76469800  1
  N  N11  1  0.45442900  0.11400400  0.23530200  1
  N  N12  1  0.11400400  0.45442900  0.23530200  1
  Cl  Cl13  1  0.19542100  0.19542100  0.97962400  1
  Cl  Cl14  1  0.80457900  0.80457900  0.02037600  1
  Cl  Cl15  1  0.03625300  0.03625300  0.80130700  1
  Cl  Cl16  1  0.96374700  0.96374700  0.19869300  1
  Cl  Cl17  1  0.73104800  0.26895200  0.00000000  1
  Cl  Cl18  1  0.26895200  0.73104800  0.00000000  1
  Cl  Cl19  1  0.87870600  0.87870600  0.59906000  1
  Cl  Cl20  1  0.12129400  0.12129400  0.40094000  1
  Cl  Cl21  1  0.34784400  0.34784400  0.52027300  1
  Cl  Cl22  1  0.65215600  0.65215600  0.47972700  1
