# generated using pymatgen
data_SnSb4S7
_symmetry_space_group_name_H-M   'P 1'
_cell_length_a   3.89935900
_cell_length_b   11.36690800
_cell_length_c   14.77170734
_cell_angle_alpha   75.38542493
_cell_angle_beta   90.00000000
_cell_angle_gamma   90.00000000
_symmetry_Int_Tables_number   1
_chemical_formula_structural   SnSb4S7
_chemical_formula_sum   'Sn2 Sb8 S14'
_cell_volume   633.55208598
_cell_formula_units_Z   2
loop_
 _symmetry_equiv_pos_site_id
 _symmetry_equiv_pos_as_xyz
  1  'x, y, z'
loop_
 _atom_site_type_symbol
 _atom_site_label
 _atom_site_symmetry_multiplicity
 _atom_site_fract_x
 _atom_site_fract_y
 _atom_site_fract_z
 _atom_site_occupancy
  Sn  Sn0  1  0.25000000  0.61903700  0.21415000  1
  Sn  Sn1  1  0.75000000  0.38096300  0.78585000  1
  Sb  Sb2  1  0.25000000  0.33138200  0.47379200  1
  Sb  Sb3  1  0.75000000  0.66861800  0.52620800  1
  Sb  Sb4  1  0.25000000  0.05609100  0.88037400  1
  Sb  Sb5  1  0.75000000  0.94390900  0.11962600  1
  Sb  Sb6  1  0.25000000  0.34442200  0.03961400  1
  Sb  Sb7  1  0.75000000  0.65557800  0.96038600  1
  Sb  Sb8  1  0.25000000  0.92781700  0.61886100  1
  Sb  Sb9  1  0.75000000  0.07218300  0.38113900  1
  S  S10  1  0.25000000  0.24036100  0.33318200  1
  S  S11  1  0.75000000  0.75963900  0.66681800  1
  S  S12  1  0.25000000  0.04746800  0.18047600  1
  S  S13  1  0.75000000  0.95253200  0.81952400  1
  S  S14  1  0.25000000  0.88987300  0.46087000  1
  S  S15  1  0.75000000  0.11012700  0.53913000  1
  S  S16  1  0.25000000  0.23329200  0.74433100  1
  S  S17  1  0.75000000  0.76670800  0.25566900  1
  S  S18  1  0.25000000  0.53099400  0.60078700  1
  S  S19  1  0.75000000  0.46900600  0.39921300  1
  S  S20  1  0.25000000  0.51287600  0.89502700  1
  S  S21  1  0.75000000  0.48712400  0.10497300  1
  S  S22  1  0.25000000  0.76267400  0.03786100  1
  S  S23  1  0.75000000  0.23732600  0.96213900  1
