# generated using pymatgen
data_Sm3AlFeS7
_symmetry_space_group_name_H-M   'P 1'
_cell_length_a   9.79324479
_cell_length_b   9.79324479
_cell_length_c   6.23679300
_cell_angle_alpha   90.00000000
_cell_angle_beta   90.00000000
_cell_angle_gamma   120.00000533
_symmetry_Int_Tables_number   1
_chemical_formula_structural   Sm3AlFeS7
_chemical_formula_sum   'Sm6 Al2 Fe2 S14'
_cell_volume   518.01836716
_cell_formula_units_Z   2
loop_
 _symmetry_equiv_pos_site_id
 _symmetry_equiv_pos_as_xyz
  1  'x, y, z'
loop_
 _atom_site_type_symbol
 _atom_site_label
 _atom_site_symmetry_multiplicity
 _atom_site_fract_x
 _atom_site_fract_y
 _atom_site_fract_z
 _atom_site_occupancy
  Sm  Sm0  1  0.77308500  0.14934900  0.22843600  1
  Sm  Sm1  1  0.37626400  0.22691500  0.22843600  1
  Sm  Sm2  1  0.85065100  0.62373600  0.22843600  1
  Sm  Sm3  1  0.22691500  0.85065100  0.72843600  1
  Sm  Sm4  1  0.62373600  0.77308500  0.72843600  1
  Sm  Sm5  1  0.14934900  0.37626400  0.72843600  1
  Al  Al6  1  0.66666700  0.33333300  0.65360800  1
  Al  Al7  1  0.33333300  0.66666700  0.15360800  1
  Fe  Fe8  1  0.00000000  0.00000000  0.05469800  1
  Fe  Fe9  1  0.00000000  0.00000000  0.55469800  1
  S  S10  1  0.86460300  0.09503900  0.81697400  1
  S  S11  1  0.23043600  0.13539700  0.81697400  1
  S  S12  1  0.90496100  0.76956400  0.81697400  1
  S  S13  1  0.13539700  0.90496100  0.31697400  1
  S  S14  1  0.76956400  0.86460300  0.31697400  1
  S  S15  1  0.09503900  0.23043600  0.31697400  1
  S  S16  1  0.90613100  0.42535600  0.50204000  1
  S  S17  1  0.51922500  0.09386900  0.50204000  1
  S  S18  1  0.57464400  0.48077500  0.50204000  1
  S  S19  1  0.09386900  0.57464400  0.00204000  1
  S  S20  1  0.48077500  0.90613100  0.00204000  1
  S  S21  1  0.42535600  0.51922500  0.00204000  1
  S  S22  1  0.66666700  0.33333300  0.01340300  1
  S  S23  1  0.33333300  0.66666700  0.51340300  1
