# generated using pymatgen
data_CsSm2Cu3Se5
_symmetry_space_group_name_H-M   'P 1'
_cell_length_a   7.64867518
_cell_length_b   7.64867518
_cell_length_c   17.69027200
_cell_angle_alpha   90.00000000
_cell_angle_beta   90.00000000
_cell_angle_gamma   147.73568272
_symmetry_Int_Tables_number   1
_chemical_formula_structural   CsSm2Cu3Se5
_chemical_formula_sum   'Cs2 Sm4 Cu6 Se10'
_cell_volume   552.46724282
_cell_formula_units_Z   2
loop_
 _symmetry_equiv_pos_site_id
 _symmetry_equiv_pos_as_xyz
  1  'x, y, z'
loop_
 _atom_site_type_symbol
 _atom_site_label
 _atom_site_symmetry_multiplicity
 _atom_site_fract_x
 _atom_site_fract_y
 _atom_site_fract_z
 _atom_site_occupancy
  Cs  Cs0  1  0.06134100  0.93865900  0.25000000  1
  Cs  Cs1  1  0.93865900  0.06134100  0.75000000  1
  Sm  Sm2  1  0.80765000  0.19235000  0.09042300  1
  Sm  Sm3  1  0.19235000  0.80765000  0.90957700  1
  Sm  Sm4  1  0.80765000  0.19235000  0.40957700  1
  Sm  Sm5  1  0.19235000  0.80765000  0.59042300  1
  Cu  Cu6  1  0.34090900  0.65909100  0.25000000  1
  Cu  Cu7  1  0.65909100  0.34090900  0.75000000  1
  Cu  Cu8  1  0.58261300  0.41738700  0.46930400  1
  Cu  Cu9  1  0.41738700  0.58261300  0.53069600  1
  Cu  Cu10  1  0.58261300  0.41738700  0.03069600  1
  Cu  Cu11  1  0.41738700  0.58261300  0.96930400  1
  Se  Se12  1  0.76494300  0.23505700  0.25000000  1
  Se  Se13  1  0.23505700  0.76494300  0.75000000  1
  Se  Se14  1  0.55947300  0.44052700  0.89011000  1
  Se  Se15  1  0.44052700  0.55947300  0.10989000  1
  Se  Se16  1  0.55947300  0.44052700  0.60989000  1
  Se  Se17  1  0.44052700  0.55947300  0.39011000  1
  Se  Se18  1  0.83111000  0.16889000  0.92945700  1
  Se  Se19  1  0.16889000  0.83111000  0.07054300  1
  Se  Se20  1  0.83111000  0.16889000  0.57054300  1
  Se  Se21  1  0.16889000  0.83111000  0.42945700  1
