# generated using pymatgen
data_Ca2CdAs2
_symmetry_space_group_name_H-M   'P 1'
_cell_length_a   11.05674473
_cell_length_b   11.05674473
_cell_length_c   14.48862028
_cell_angle_alpha   70.45032523
_cell_angle_beta   70.45032523
_cell_angle_gamma   22.58158413
_symmetry_Int_Tables_number   1
_chemical_formula_structural   Ca2CdAs2
_chemical_formula_sum   'Ca10 Cd5 As10'
_cell_volume   639.33732441
_cell_formula_units_Z   5
loop_
 _symmetry_equiv_pos_site_id
 _symmetry_equiv_pos_as_xyz
  1  'x, y, z'
loop_
 _atom_site_type_symbol
 _atom_site_label
 _atom_site_symmetry_multiplicity
 _atom_site_fract_x
 _atom_site_fract_y
 _atom_site_fract_z
 _atom_site_occupancy
  Ca  Ca0  1  0.98100600  0.98100600  0.61478500  1
  Ca  Ca1  1  0.83759700  0.83759700  0.50248100  1
  Ca  Ca2  1  0.80971100  0.80971100  0.76953500  1
  Ca  Ca3  1  0.43573500  0.43573500  0.21301200  1
  Ca  Ca4  1  0.40492300  0.40492300  0.93580400  1
  Ca  Ca5  1  0.27703700  0.27703700  0.19290300  1
  Ca  Ca6  1  0.17389200  0.17389200  0.57938600  1
  Ca  Ca7  1  0.14812000  0.14812000  0.85162200  1
  Ca  Ca8  1  0.11445100  0.11445100  0.12337000  1
  Ca  Ca9  1  0.10573100  0.10573100  0.36626100  1
  Cd  Cd10  1  0.00025400  0.00025400  0.00035100  1
  Cd  Cd11  1  0.76494900  0.76494900  0.03166100  1
  Cd  Cd12  1  0.71850500  0.71850500  0.38293100  1
  Cd  Cd13  1  0.56561400  0.56561400  0.73076600  1
  Cd  Cd14  1  0.47289300  0.47289300  0.43823400  1
  As  As15  1  0.99227800  0.99227800  0.81050100  1
  As  As16  1  0.98247700  0.98247700  0.32262100  1
  As  As17  1  0.87261300  0.87261300  0.10675400  1
  As  As18  1  0.69681100  0.69681100  0.70086600  1
  As  As19  1  0.67300300  0.67300300  0.22177400  1
  As  As20  1  0.58575000  0.58575000  0.51912100  1
  As  As21  1  0.56988900  0.56988900  0.02109300  1
  As  As22  1  0.38121200  0.38121200  0.62222900  1
  As  As23  1  0.29039800  0.29039800  0.39051100  1
  As  As24  1  0.26443200  0.26443200  0.92600900  1
