# generated using pymatgen
data_CoN6(ClO)2
_symmetry_space_group_name_H-M   'P 1'
_cell_length_a   6.44318537
_cell_length_b   6.44318537
_cell_length_c   9.34359391
_cell_angle_alpha   84.43936710
_cell_angle_beta   84.43936710
_cell_angle_gamma   84.43677844
_symmetry_Int_Tables_number   1
_chemical_formula_structural   CoN6(ClO)2
_chemical_formula_sum   'Co2 N12 Cl4 O4'
_cell_volume   382.74999141
_cell_formula_units_Z   2
loop_
 _symmetry_equiv_pos_site_id
 _symmetry_equiv_pos_as_xyz
  1  'x, y, z'
loop_
 _atom_site_type_symbol
 _atom_site_label
 _atom_site_symmetry_multiplicity
 _atom_site_fract_x
 _atom_site_fract_y
 _atom_site_fract_z
 _atom_site_occupancy
  Co  Co0  1  0.91340900  0.08659100  0.75000000  1
  Co  Co1  1  0.08659100  0.91340900  0.25000000  1
  N  N2  1  0.30089800  0.69910200  0.75000000  1
  N  N3  1  0.69910200  0.30089800  0.25000000  1
  N  N4  1  0.72456500  0.28968100  0.85561100  1
  N  N5  1  0.71031900  0.27543500  0.64438900  1
  N  N6  1  0.27543500  0.71031900  0.14438900  1
  N  N7  1  0.28968100  0.72456500  0.35561100  1
  N  N8  1  0.81966800  0.39056500  0.73056300  1
  N  N9  1  0.60943500  0.18033200  0.76943700  1
  N  N10  1  0.18033200  0.60943500  0.26943700  1
  N  N11  1  0.39056500  0.81966800  0.23056300  1
  N  N12  1  0.14684800  0.85315200  0.75000000  1
  N  N13  1  0.85315200  0.14684800  0.25000000  1
  Cl  Cl14  1  0.18458700  0.16207200  0.58557500  1
  Cl  Cl15  1  0.83792800  0.81541300  0.91442500  1
  Cl  Cl16  1  0.81541300  0.83792800  0.41442500  1
  Cl  Cl17  1  0.16207200  0.18458700  0.08557500  1
  O  O18  1  0.45409000  0.72009300  0.65954400  1
  O  O19  1  0.27990700  0.54591000  0.84045600  1
  O  O20  1  0.54591000  0.27990700  0.34045600  1
  O  O21  1  0.72009300  0.45409000  0.15954400  1
