# generated using pymatgen
data_Na2UI4O15
_symmetry_space_group_name_H-M   'P 1'
_cell_length_a   7.09855434
_cell_length_b   7.09855434
_cell_length_c   7.75797565
_cell_angle_alpha   88.71773870
_cell_angle_beta   88.71773870
_cell_angle_gamma   72.79369830
_symmetry_Int_Tables_number   1
_chemical_formula_structural   Na2UI4O15
_chemical_formula_sum   'Na2 U1 I4 O15'
_cell_volume   373.28065893
_cell_formula_units_Z   1
loop_
 _symmetry_equiv_pos_site_id
 _symmetry_equiv_pos_as_xyz
  1  'x, y, z'
loop_
 _atom_site_type_symbol
 _atom_site_label
 _atom_site_symmetry_multiplicity
 _atom_site_fract_x
 _atom_site_fract_y
 _atom_site_fract_z
 _atom_site_occupancy
  Na  Na0  1  0.17458700  0.82541300  0.00000000  1
  Na  Na1  1  0.63879700  0.36120300  0.00000000  1
  U  U2  1  0.64152700  0.35847300  0.50000000  1
  I  I3  1  0.16331400  0.34465400  0.78170100  1
  I  I4  1  0.65534600  0.83668600  0.21829900  1
  I  I5  1  0.13872100  0.30093200  0.23483500  1
  I  I6  1  0.69906800  0.86127900  0.76516500  1
  O  O7  1  0.30083100  0.40029100  0.57438400  1
  O  O8  1  0.59970900  0.69916900  0.42561600  1
  O  O9  1  0.29528700  0.08255900  0.79155400  1
  O  O10  1  0.91744100  0.70471300  0.20844600  1
  O  O11  1  0.29415100  0.44294500  0.94100300  1
  O  O12  1  0.55705500  0.70584900  0.05899700  1
  O  O13  1  0.27822800  0.04149500  0.23752300  1
  O  O14  1  0.95850500  0.72177200  0.76247700  1
  O  O15  1  0.96273900  0.29809700  0.41574800  1
  O  O16  1  0.70190300  0.03726100  0.58425200  1
  O  O17  1  0.98354500  0.28583700  0.05176200  1
  O  O18  1  0.71416300  0.01645500  0.94823800  1
  O  O19  1  0.38494200  0.61505800  0.50000000  1
  O  O20  1  0.58087100  0.28873200  0.28338600  1
  O  O21  1  0.71126800  0.41912900  0.71661400  1
