# generated using pymatgen
data_TmCO4
_symmetry_space_group_name_H-M   'P 1'
_cell_length_a   4.80754300
_cell_length_b   7.00569600
_cell_length_c   8.74489300
_cell_angle_alpha   90.00000000
_cell_angle_beta   90.00000000
_cell_angle_gamma   90.00000000
_symmetry_Int_Tables_number   1
_chemical_formula_structural   TmCO4
_chemical_formula_sum   'Tm4 C4 O16'
_cell_volume   294.52961199
_cell_formula_units_Z   4
loop_
 _symmetry_equiv_pos_site_id
 _symmetry_equiv_pos_as_xyz
  1  'x, y, z'
loop_
 _atom_site_type_symbol
 _atom_site_label
 _atom_site_symmetry_multiplicity
 _atom_site_fract_x
 _atom_site_fract_y
 _atom_site_fract_z
 _atom_site_occupancy
  Tm  Tm0  1  0.52581900  0.62708800  0.66149000  1
  Tm  Tm1  1  0.97418100  0.37291200  0.16149000  1
  Tm  Tm2  1  0.47418100  0.12708800  0.83851000  1
  Tm  Tm3  1  0.02581900  0.87291200  0.33851000  1
  C  C4  1  0.50757000  0.54489000  0.32994100  1
  C  C5  1  0.99243000  0.45511000  0.82994100  1
  C  C6  1  0.49243000  0.04489000  0.17005900  1
  C  C7  1  0.00757000  0.95511000  0.67005900  1
  O  O8  1  0.46979300  0.81431100  0.85710100  1
  O  O9  1  0.03020700  0.18568900  0.35710100  1
  O  O10  1  0.53020700  0.31431100  0.64289900  1
  O  O11  1  0.96979300  0.68568900  0.14289900  1
  O  O12  1  0.04571600  0.55513200  0.71176200  1
  O  O13  1  0.45428400  0.44486800  0.21176200  1
  O  O14  1  0.95428400  0.05513200  0.78823800  1
  O  O15  1  0.54571600  0.94486800  0.28823800  1
  O  O16  1  0.26939500  0.92857600  0.63189800  1
  O  O17  1  0.23060500  0.07142400  0.13189800  1
  O  O18  1  0.73060500  0.42857600  0.86810200  1
  O  O19  1  0.76939500  0.57142400  0.36810200  1
  O  O20  1  0.82045200  0.88245300  0.58116500  1
  O  O21  1  0.67954800  0.11754700  0.08116500  1
  O  O22  1  0.17954800  0.38245300  0.91883500  1
  O  O23  1  0.32045200  0.61754700  0.41883500  1
