# generated using pymatgen
data_Dy3GaNiSe7
_symmetry_space_group_name_H-M   'P 1'
_cell_length_a   9.98627200
_cell_length_b   9.98627179
_cell_length_c   6.49785200
_cell_angle_alpha   90.00000000
_cell_angle_beta   90.00000000
_cell_angle_gamma   120.00000069
_symmetry_Int_Tables_number   1
_chemical_formula_structural   Dy3GaNiSe7
_chemical_formula_sum   'Dy6 Ga2 Ni2 Se14'
_cell_volume   561.18650223
_cell_formula_units_Z   2
loop_
 _symmetry_equiv_pos_site_id
 _symmetry_equiv_pos_as_xyz
  1  'x, y, z'
loop_
 _atom_site_type_symbol
 _atom_site_label
 _atom_site_symmetry_multiplicity
 _atom_site_fract_x
 _atom_site_fract_y
 _atom_site_fract_z
 _atom_site_occupancy
  Dy  Dy0  1  0.15958400  0.37413100  0.82179300  1
  Dy  Dy1  1  0.21454800  0.84041600  0.82179300  1
  Dy  Dy2  1  0.62586900  0.78545200  0.82179300  1
  Dy  Dy3  1  0.84041600  0.62586900  0.32179300  1
  Dy  Dy4  1  0.78545200  0.15958400  0.32179300  1
  Dy  Dy5  1  0.37413100  0.21454800  0.32179300  1
  Ga  Ga6  1  0.66666700  0.33333300  0.89639900  1
  Ga  Ga7  1  0.33333300  0.66666700  0.39639900  1
  Ni  Ni8  1  0.00000000  0.00000000  0.49684700  1
  Ni  Ni9  1  0.00000000  0.00000000  0.99684700  1
  Se  Se10  1  0.43825500  0.52003100  0.55533300  1
  Se  Se11  1  0.08177600  0.56174500  0.55533300  1
  Se  Se12  1  0.47996900  0.91822400  0.55533300  1
  Se  Se13  1  0.56174500  0.47996900  0.05533300  1
  Se  Se14  1  0.91822400  0.43825500  0.05533300  1
  Se  Se15  1  0.52003100  0.08177600  0.05533300  1
  Se  Se16  1  0.66666700  0.33333300  0.52615200  1
  Se  Se17  1  0.33333300  0.66666700  0.02615200  1
  Se  Se18  1  0.86929000  0.10411300  0.73115100  1
  Se  Se19  1  0.23482200  0.13071000  0.73115100  1
  Se  Se20  1  0.89588700  0.76517800  0.73115100  1
  Se  Se21  1  0.13071000  0.89588700  0.23115100  1
  Se  Se22  1  0.76517800  0.86929000  0.23115100  1
  Se  Se23  1  0.10411300  0.23482200  0.23115100  1
