# generated using pymatgen
data_WO3
_symmetry_space_group_name_H-M   'P 1'
_cell_length_a   7.51274250
_cell_length_b   7.51274250
_cell_length_c   7.69583800
_cell_angle_alpha   90.00000000
_cell_angle_beta   90.00000000
_cell_angle_gamma   120.00000439
_symmetry_Int_Tables_number   1
_chemical_formula_structural   WO3
_chemical_formula_sum   'W6 O18'
_cell_volume   376.16946257
_cell_formula_units_Z   6
loop_
 _symmetry_equiv_pos_site_id
 _symmetry_equiv_pos_as_xyz
  1  'x, y, z'
loop_
 _atom_site_type_symbol
 _atom_site_label
 _atom_site_symmetry_multiplicity
 _atom_site_fract_x
 _atom_site_fract_y
 _atom_site_fract_z
 _atom_site_occupancy
  W  W0  1  0.51849500  0.51849500  0.75000000  1
  W  W1  1  0.48150500  0.00000000  0.75000000  1
  W  W2  1  0.00000000  0.48150500  0.75000000  1
  W  W3  1  0.48150500  0.48150500  0.25000000  1
  W  W4  1  0.51849500  0.00000000  0.25000000  1
  W  W5  1  0.00000000  0.51849500  0.25000000  1
  O  O6  1  0.57385600  0.79019100  0.75000000  1
  O  O7  1  0.20980900  0.78366500  0.75000000  1
  O  O8  1  0.21633500  0.42614400  0.75000000  1
  O  O9  1  0.79019100  0.57385600  0.75000000  1
  O  O10  1  0.78366500  0.20980900  0.75000000  1
  O  O11  1  0.42614400  0.21633500  0.75000000  1
  O  O12  1  0.42614400  0.20980900  0.25000000  1
  O  O13  1  0.79019100  0.21633500  0.25000000  1
  O  O14  1  0.78366500  0.57385600  0.25000000  1
  O  O15  1  0.20980900  0.42614400  0.25000000  1
  O  O16  1  0.21633500  0.79019100  0.25000000  1
  O  O17  1  0.57385600  0.78366500  0.25000000  1
  O  O18  1  0.50000000  0.50000000  0.00000000  1
  O  O19  1  0.50000000  0.00000000  0.00000000  1
  O  O20  1  0.00000000  0.50000000  0.00000000  1
  O  O21  1  0.50000000  0.50000000  0.50000000  1
  O  O22  1  0.50000000  0.00000000  0.50000000  1
  O  O23  1  0.00000000  0.50000000  0.50000000  1
