# generated using pymatgen
data_FeB4O7
_symmetry_space_group_name_H-M   'P 1'
_cell_length_a   6.38728875
_cell_length_b   8.26967664
_cell_length_c   8.26960170
_cell_angle_alpha   78.52104002
_cell_angle_beta   110.81223293
_cell_angle_gamma   110.81123450
_symmetry_Int_Tables_number   1
_chemical_formula_structural   FeB4O7
_chemical_formula_sum   'Fe4 B16 O28'
_cell_volume   380.33989925
_cell_formula_units_Z   4
loop_
 _symmetry_equiv_pos_site_id
 _symmetry_equiv_pos_as_xyz
  1  'x, y, z'
loop_
 _atom_site_type_symbol
 _atom_site_label
 _atom_site_symmetry_multiplicity
 _atom_site_fract_x
 _atom_site_fract_y
 _atom_site_fract_z
 _atom_site_occupancy
  Fe  Fe0  1  0.22350400  0.48652100  0.73632700  1
  Fe  Fe1  1  0.77644800  0.51346600  0.26376100  1
  Fe  Fe2  1  0.22096100  0.98553700  0.23577900  1
  Fe  Fe3  1  0.77888900  0.01449600  0.76430600  1
  B  B4  1  0.29505700  0.10253700  0.60250600  1
  B  B5  1  0.29496100  0.60265300  0.10302800  1
  B  B6  1  0.29483400  0.35263000  0.35240700  1
  B  B7  1  0.29516100  0.85288400  0.85279200  1
  B  B8  1  0.70502500  0.89743100  0.39750400  1
  B  B9  1  0.70499900  0.39735200  0.89697500  1
  B  B10  1  0.70485300  0.14711200  0.14719900  1
  B  B11  1  0.70512600  0.64733600  0.64756500  1
  B  B12  1  0.08294200  0.78495800  0.53524300  1
  B  B13  1  0.08270000  0.28521100  0.03486600  1
  B  B14  1  0.68071200  0.33376700  0.58374400  1
  B  B15  1  0.68033000  0.83377500  0.08385600  1
  B  B16  1  0.91713400  0.21504700  0.46478400  1
  B  B17  1  0.91737000  0.71483100  0.96514500  1
  B  B18  1  0.31925500  0.66624600  0.41622300  1
  B  B19  1  0.31958500  0.16616200  0.91612100  1
  O  O20  1  0.90917200  0.32921100  0.57880600  1
  O  O21  1  0.90883000  0.82896300  0.07940200  1
  O  O22  1  0.09085000  0.67088000  0.42113000  1
  O  O23  1  0.09111100  0.17110900  0.92057900  1
  O  O24  1  0.19076000  0.25292500  0.50276800  1
  O  O25  1  0.19086000  0.75303700  0.00321100  1
  O  O26  1  0.24390500  0.02963600  0.77958200  1
  O  O27  1  0.24382700  0.52957900  0.27964200  1
  O  O28  1  0.80924300  0.74705000  0.49721500  1
  O  O29  1  0.80908600  0.24692500  0.99674700  1
  O  O30  1  0.75624000  0.97038400  0.22044300  1
  O  O31  1  0.75615100  0.47041900  0.72035300  1
  O  O32  1  0.19065400  0.96436200  0.48786900  1
  O  O33  1  0.19053300  0.46485500  0.98771000  1
  O  O34  1  0.54851100  0.16664400  0.64324100  1
  O  O35  1  0.54859600  0.66684700  0.14357600  1
  O  O36  1  0.19070600  0.73776100  0.71494800  1
  O  O37  1  0.19049100  0.23780100  0.21421800  1
  O  O38  1  0.54847900  0.39330000  0.41675900  1
  O  O39  1  0.54859600  0.89347700  0.91678600  1
  O  O40  1  0.80937800  0.03558700  0.51216300  1
  O  O41  1  0.80941900  0.53516000  0.01230100  1
  O  O42  1  0.45161000  0.83339700  0.35670400  1
  O  O43  1  0.45139800  0.33313600  0.85644700  1
  O  O44  1  0.80931400  0.26221800  0.28505300  1
  O  O45  1  0.80950200  0.76219700  0.78571100  1
  O  O46  1  0.45149100  0.60671800  0.58323500  1
  O  O47  1  0.45144500  0.10646900  0.08327300  1
