# generated using pymatgen
data_TeC2S2(N2Cl)2
_symmetry_space_group_name_H-M   'P 1'
_cell_length_a   9.18042002
_cell_length_b   9.18042002
_cell_length_c   10.13582066
_cell_angle_alpha   60.42454746
_cell_angle_beta   60.42454746
_cell_angle_gamma   50.46077864
_symmetry_Int_Tables_number   1
_chemical_formula_structural   TeC2S2(N2Cl)2
_chemical_formula_sum   'Te2 C4 S4 N8 Cl4'
_cell_volume   552.08441351
_cell_formula_units_Z   2
loop_
 _symmetry_equiv_pos_site_id
 _symmetry_equiv_pos_as_xyz
  1  'x, y, z'
loop_
 _atom_site_type_symbol
 _atom_site_label
 _atom_site_symmetry_multiplicity
 _atom_site_fract_x
 _atom_site_fract_y
 _atom_site_fract_z
 _atom_site_occupancy
  Te  Te0  1  0.10699200  0.89300800  0.75000000  1
  Te  Te1  1  0.89300800  0.10699200  0.25000000  1
  C  C2  1  0.21652900  0.49124100  0.08469500  1
  C  C3  1  0.50875900  0.78347100  0.41530500  1
  C  C4  1  0.78347100  0.50875900  0.91530500  1
  C  C5  1  0.49124100  0.21652900  0.58469500  1
  S  S6  1  0.27988200  0.50575200  0.87551000  1
  S  S7  1  0.49424800  0.72011800  0.62449000  1
  S  S8  1  0.72011800  0.49424800  0.12449000  1
  S  S9  1  0.50575200  0.27988200  0.37551000  1
  N  N10  1  0.21065200  0.33637000  0.18567100  1
  N  N11  1  0.66363000  0.78934800  0.31432900  1
  N  N12  1  0.78934800  0.66363000  0.81432900  1
  N  N13  1  0.33637000  0.21065200  0.68567100  1
  N  N14  1  0.19680300  0.63954100  0.09680900  1
  N  N15  1  0.36045900  0.80319700  0.40319100  1
  N  N16  1  0.80319700  0.36045900  0.90319100  1
  N  N17  1  0.63954100  0.19680300  0.59680900  1
  Cl  Cl18  1  0.78109900  0.97193900  0.93857900  1
  Cl  Cl19  1  0.02806100  0.21890100  0.56142100  1
  Cl  Cl20  1  0.21890100  0.02806100  0.06142100  1
  Cl  Cl21  1  0.97193900  0.78109900  0.43857900  1
