# generated using pymatgen
data_Ce3AlCdS7
_symmetry_space_group_name_H-M   'P 1'
_cell_length_a   10.22731869
_cell_length_b   10.22731869
_cell_length_c   6.07253500
_cell_angle_alpha   90.00000000
_cell_angle_beta   90.00000000
_cell_angle_gamma   120.00000448
_symmetry_Int_Tables_number   1
_chemical_formula_structural   Ce3AlCdS7
_chemical_formula_sum   'Ce6 Al2 Cd2 S14'
_cell_volume   550.07792533
_cell_formula_units_Z   2
loop_
 _symmetry_equiv_pos_site_id
 _symmetry_equiv_pos_as_xyz
  1  'x, y, z'
loop_
 _atom_site_type_symbol
 _atom_site_label
 _atom_site_symmetry_multiplicity
 _atom_site_fract_x
 _atom_site_fract_y
 _atom_site_fract_z
 _atom_site_occupancy
  Ce  Ce0  1  0.62595200  0.86808900  0.26273600  1
  Ce  Ce1  1  0.13191100  0.75786300  0.26273600  1
  Ce  Ce2  1  0.24213700  0.37404800  0.26273600  1
  Ce  Ce3  1  0.37404800  0.13191100  0.76273600  1
  Ce  Ce4  1  0.86808900  0.24213700  0.76273600  1
  Ce  Ce5  1  0.75786300  0.62595200  0.76273600  1
  Al  Al6  1  0.33333300  0.66666700  0.84244500  1
  Al  Al7  1  0.66666700  0.33333300  0.34244500  1
  Cd  Cd8  1  0.00000000  0.00000000  0.50233900  1
  Cd  Cd9  1  0.00000000  0.00000000  0.00233900  1
  S  S10  1  0.74749900  0.91079700  0.74194600  1
  S  S11  1  0.08920300  0.83670200  0.74194600  1
  S  S12  1  0.16329800  0.25250100  0.74194600  1
  S  S13  1  0.25250100  0.08920300  0.24194600  1
  S  S14  1  0.91079700  0.16329800  0.24194600  1
  S  S15  1  0.83670200  0.74749900  0.24194600  1
  S  S16  1  0.48387100  0.58684500  0.99601100  1
  S  S17  1  0.41315500  0.89702700  0.99601100  1
  S  S18  1  0.10297300  0.51612900  0.99601100  1
  S  S19  1  0.51612900  0.41315500  0.49601100  1
  S  S20  1  0.58684500  0.10297300  0.49601100  1
  S  S21  1  0.89702700  0.48387100  0.49601100  1
  S  S22  1  0.33333300  0.66666700  0.47302100  1
  S  S23  1  0.66666700  0.33333300  0.97302100  1
