# generated using pymatgen
data_NpPH3CO5
_symmetry_space_group_name_H-M   'P 1'
_cell_length_a   6.70161200
_cell_length_b   6.72391117
_cell_length_c   7.13615062
_cell_angle_alpha   90.44201636
_cell_angle_beta   98.79725414
_cell_angle_gamma   96.16540660
_symmetry_Int_Tables_number   1
_chemical_formula_structural   NpPH3CO5
_chemical_formula_sum   'Np2 P2 H6 C2 O10'
_cell_volume   315.84602831
_cell_formula_units_Z   2
loop_
 _symmetry_equiv_pos_site_id
 _symmetry_equiv_pos_as_xyz
  1  'x, y, z'
loop_
 _atom_site_type_symbol
 _atom_site_label
 _atom_site_symmetry_multiplicity
 _atom_site_fract_x
 _atom_site_fract_y
 _atom_site_fract_z
 _atom_site_occupancy
  Np  Np0  1  0.98089400  0.14596500  0.24834900  1
  Np  Np1  1  0.01910600  0.85403500  0.75165100  1
  P  P2  1  0.08526500  0.69235200  0.25892900  1
  P  P3  1  0.91473500  0.30764800  0.74107100  1
  H  H4  1  0.43465800  0.82864600  0.30112400  1
  H  H5  1  0.56534200  0.17135400  0.69887600  1
  H  H6  1  0.39735700  0.59670300  0.42205400  1
  H  H7  1  0.60264300  0.40329700  0.57794600  1
  H  H8  1  0.39166100  0.59307000  0.17212300  1
  H  H9  1  0.60833900  0.40693000  0.82787700  1
  C  C10  1  0.35342600  0.67725900  0.29176200  1
  C  C11  1  0.64657400  0.32274100  0.70823800  1
  O  O12  1  0.25103500  0.19309800  0.29068700  1
  O  O13  1  0.74896500  0.80690200  0.70931300  1
  O  O14  1  0.71174700  0.09329200  0.20688800  1
  O  O15  1  0.28825300  0.90670800  0.79311200  1
  O  O16  1  0.02238000  0.81973900  0.08211200  1
  O  O17  1  0.97762000  0.18026100  0.91788800  1
  O  O18  1  0.97160800  0.17932500  0.57786600  1
  O  O19  1  0.02839200  0.82067500  0.42213400  1
  O  O20  1  0.96668500  0.48322000  0.24359800  1
  O  O21  1  0.03331500  0.51678000  0.75640200  1
