# generated using pymatgen
data_UH3CO6
_symmetry_space_group_name_H-M   'P 1'
_cell_length_a   5.68251333
_cell_length_b   6.27218767
_cell_length_c   7.84183284
_cell_angle_alpha   85.68890062
_cell_angle_beta   88.81277771
_cell_angle_gamma   81.62818234
_symmetry_Int_Tables_number   1
_chemical_formula_structural   UH3CO6
_chemical_formula_sum   'U2 H6 C2 O12'
_cell_volume   275.72273986
_cell_formula_units_Z   2
loop_
 _symmetry_equiv_pos_site_id
 _symmetry_equiv_pos_as_xyz
  1  'x, y, z'
loop_
 _atom_site_type_symbol
 _atom_site_label
 _atom_site_symmetry_multiplicity
 _atom_site_fract_x
 _atom_site_fract_y
 _atom_site_fract_z
 _atom_site_occupancy
  U  U0  1  0.63358300  0.64580700  0.79816100  1
  U  U1  1  0.36641700  0.35419300  0.20183900  1
  H  H2  1  0.79104800  0.25704800  0.99800600  1
  H  H3  1  0.20895200  0.74295200  0.00199400  1
  H  H4  1  0.37059500  0.09235600  0.65538800  1
  H  H5  1  0.62940500  0.90764400  0.34461200  1
  H  H6  1  0.53604700  0.13324600  0.81372700  1
  H  H7  1  0.46395300  0.86675400  0.18627300  1
  C  C8  1  0.97176800  0.61138200  0.45173400  1
  C  C9  1  0.02823200  0.38861800  0.54826600  1
  O  O10  1  0.38993000  0.58111400  0.67737900  1
  O  O11  1  0.61007000  0.41888600  0.32262100  1
  O  O12  1  0.87203800  0.72321000  0.91862900  1
  O  O13  1  0.12796200  0.27679000  0.08137100  1
  O  O14  1  0.81474600  0.74731500  0.51854100  1
  O  O15  1  0.18525400  0.25268500  0.48145900  1
  O  O16  1  0.91604400  0.35786200  0.68592000  1
  O  O17  1  0.08395600  0.64213800  0.31408000  1
  O  O18  1  0.62525600  0.30467000  0.96228800  1
  O  O19  1  0.37474400  0.69533000  0.03771200  1
  O  O20  1  0.48367300  0.02170000  0.74390400  1
  O  O21  1  0.51632700  0.97830000  0.25609600  1
