# generated using pymatgen
data_CuP2(HO)4
_symmetry_space_group_name_H-M   'P 1'
_cell_length_a   5.45182400
_cell_length_b   6.73905700
_cell_length_c   7.32292500
_cell_angle_alpha   90.00000000
_cell_angle_beta   90.00000000
_cell_angle_gamma   90.00000000
_symmetry_Int_Tables_number   1
_chemical_formula_structural   CuP2(HO)4
_chemical_formula_sum   'Cu2 P4 H8 O8'
_cell_volume   269.04538264
_cell_formula_units_Z   2
loop_
 _symmetry_equiv_pos_site_id
 _symmetry_equiv_pos_as_xyz
  1  'x, y, z'
loop_
 _atom_site_type_symbol
 _atom_site_label
 _atom_site_symmetry_multiplicity
 _atom_site_fract_x
 _atom_site_fract_y
 _atom_site_fract_z
 _atom_site_occupancy
  Cu  Cu0  1  0.50000000  0.00000000  0.00000000  1
  Cu  Cu1  1  0.50000000  0.50000000  0.00000000  1
  P  P2  1  0.00000000  0.75000000  0.85577000  1
  P  P3  1  0.00000000  0.25000000  0.14423000  1
  P  P4  1  0.50000000  0.75000000  0.36278100  1
  P  P5  1  0.50000000  0.25000000  0.63721900  1
  H  H6  1  0.00000000  0.58362800  0.73822900  1
  H  H7  1  0.00000000  0.41637200  0.26177100  1
  H  H8  1  0.00000000  0.91637200  0.73822900  1
  H  H9  1  0.00000000  0.08362800  0.26177100  1
  H  H10  1  0.70320100  0.75000000  0.48248200  1
  H  H11  1  0.70320100  0.25000000  0.51751800  1
  H  H12  1  0.29679900  0.25000000  0.51751800  1
  H  H13  1  0.29679900  0.75000000  0.48248200  1
  O  O14  1  0.76067900  0.75000000  0.96545100  1
  O  O15  1  0.76067900  0.25000000  0.03454900  1
  O  O16  1  0.23932100  0.25000000  0.03454900  1
  O  O17  1  0.23932100  0.75000000  0.96545100  1
  O  O18  1  0.50000000  0.94722700  0.25920100  1
  O  O19  1  0.50000000  0.05277300  0.74079900  1
  O  O20  1  0.50000000  0.55277300  0.25920100  1
  O  O21  1  0.50000000  0.44722700  0.74079900  1
