# generated using pymatgen
data_Zn6Sb5
_symmetry_space_group_name_H-M   'P 1'
_cell_length_a   8.21773131
_cell_length_b   8.21773131
_cell_length_c   8.21773176
_cell_angle_alpha   96.75445503
_cell_angle_beta   96.75445503
_cell_angle_gamma   96.75445937
_symmetry_Int_Tables_number   1
_chemical_formula_structural   Zn6Sb5
_chemical_formula_sum   'Zn12 Sb10'
_cell_volume   542.39233553
_cell_formula_units_Z   2
loop_
 _symmetry_equiv_pos_site_id
 _symmetry_equiv_pos_as_xyz
  1  'x, y, z'
loop_
 _atom_site_type_symbol
 _atom_site_label
 _atom_site_symmetry_multiplicity
 _atom_site_fract_x
 _atom_site_fract_y
 _atom_site_fract_z
 _atom_site_occupancy
  Zn  Zn0  1  0.01756000  0.93259100  0.34053300  1
  Zn  Zn1  1  0.34053300  0.01756000  0.93259100  1
  Zn  Zn2  1  0.93259100  0.34053300  0.01756000  1
  Zn  Zn3  1  0.84053300  0.43259100  0.51756000  1
  Zn  Zn4  1  0.51756000  0.84053300  0.43259100  1
  Zn  Zn5  1  0.43259100  0.51756000  0.84053300  1
  Zn  Zn6  1  0.98244000  0.06740900  0.65946700  1
  Zn  Zn7  1  0.65946700  0.98244000  0.06740900  1
  Zn  Zn8  1  0.06740900  0.65946700  0.98244000  1
  Zn  Zn9  1  0.15946700  0.56740900  0.48244000  1
  Zn  Zn10  1  0.48244000  0.15946700  0.56740900  1
  Zn  Zn11  1  0.56740900  0.48244000  0.15946700  1
  Sb  Sb12  1  0.89447300  0.60552700  0.25000000  1
  Sb  Sb13  1  0.25000000  0.89447300  0.60552700  1
  Sb  Sb14  1  0.60552700  0.25000000  0.89447300  1
  Sb  Sb15  1  0.75000000  0.10552700  0.39447300  1
  Sb  Sb16  1  0.39447300  0.75000000  0.10552700  1
  Sb  Sb17  1  0.10552700  0.39447300  0.75000000  1
  Sb  Sb18  1  0.36406600  0.36406600  0.36406600  1
  Sb  Sb19  1  0.86406600  0.86406600  0.86406600  1
  Sb  Sb20  1  0.63593400  0.63593400  0.63593400  1
  Sb  Sb21  1  0.13593400  0.13593400  0.13593400  1
