# generated using pymatgen
data_ZrS2O9
_symmetry_space_group_name_H-M   'P 1'
_cell_length_a   5.34293800
_cell_length_b   8.16771375
_cell_length_c   9.13776863
_cell_angle_alpha   103.72854268
_cell_angle_beta   85.96797786
_cell_angle_gamma   107.98661060
_symmetry_Int_Tables_number   1
_chemical_formula_structural   ZrS2O9
_chemical_formula_sum   'Zr2 S4 O18'
_cell_volume   368.44257706
_cell_formula_units_Z   2
loop_
 _symmetry_equiv_pos_site_id
 _symmetry_equiv_pos_as_xyz
  1  'x, y, z'
loop_
 _atom_site_type_symbol
 _atom_site_label
 _atom_site_symmetry_multiplicity
 _atom_site_fract_x
 _atom_site_fract_y
 _atom_site_fract_z
 _atom_site_occupancy
  Zr  Zr0  1  0.19662500  0.89438900  0.72521200  1
  Zr  Zr1  1  0.80337500  0.10561100  0.27478800  1
  S  S2  1  0.80371600  0.16263600  0.89710600  1
  S  S3  1  0.19628400  0.83736400  0.10289400  1
  S  S4  1  0.34026800  0.24413100  0.52665000  1
  S  S5  1  0.65973200  0.75586900  0.47335000  1
  O  O6  1  0.96711800  0.63193800  0.75564900  1
  O  O7  1  0.03288200  0.36806200  0.24435100  1
  O  O8  1  0.98165000  0.32383200  0.87095500  1
  O  O9  1  0.01835000  0.67616800  0.12904500  1
  O  O10  1  0.44018600  0.39791500  0.64330700  1
  O  O11  1  0.55981400  0.60208500  0.35669300  1
  O  O12  1  0.25459600  0.07292000  0.57619400  1
  O  O13  1  0.74540400  0.92708000  0.42380600  1
  O  O14  1  0.89120100  0.74903500  0.55439100  1
  O  O15  1  0.10879900  0.25096500  0.44560900  1
  O  O16  1  0.45466300  0.77720800  0.59530900  1
  O  O17  1  0.54533700  0.22279200  0.40469100  1
  O  O18  1  0.25651700  0.82950600  0.93665100  1
  O  O19  1  0.74348300  0.17049400  0.06334900  1
  O  O20  1  0.54302200  0.11111600  0.82201200  1
  O  O21  1  0.45697800  0.88888400  0.17798800  1
  O  O22  1  0.91561100  0.00790000  0.84398100  1
  O  O23  1  0.08438900  0.99210000  0.15601900  1
