# generated using pymatgen
data_NpCO4
_symmetry_space_group_name_H-M   'P 1'
_cell_length_a   6.76999100
_cell_length_b   6.76999100
_cell_length_c   8.32000200
_cell_angle_alpha   90.00000000
_cell_angle_beta   90.00000000
_cell_angle_gamma   90.00000000
_symmetry_Int_Tables_number   1
_chemical_formula_structural   NpCO4
_chemical_formula_sum   'Np4 C4 O16'
_cell_volume   381.32880579
_cell_formula_units_Z   4
loop_
 _symmetry_equiv_pos_site_id
 _symmetry_equiv_pos_as_xyz
  1  'x, y, z'
loop_
 _atom_site_type_symbol
 _atom_site_label
 _atom_site_symmetry_multiplicity
 _atom_site_fract_x
 _atom_site_fract_y
 _atom_site_fract_z
 _atom_site_occupancy
  Np  Np0  1  0.74938700  0.22787600  0.99379900  1
  Np  Np1  1  0.25061300  0.77212400  0.49379900  1
  Np  Np2  1  0.22787600  0.25061300  0.74379900  1
  Np  Np3  1  0.77212400  0.74938700  0.24379900  1
  C  C4  1  0.25240700  0.22975300  0.14439800  1
  C  C5  1  0.74759300  0.77024700  0.64439800  1
  C  C6  1  0.22975300  0.74759300  0.89439800  1
  C  C7  1  0.77024700  0.25240700  0.39439800  1
  O  O8  1  0.74474300  0.94979400  0.00056600  1
  O  O9  1  0.25525700  0.05020600  0.50056600  1
  O  O10  1  0.94979400  0.25525700  0.75056600  1
  O  O11  1  0.05020600  0.74474300  0.25056600  1
  O  O12  1  0.50168600  0.23906900  0.78731600  1
  O  O13  1  0.49831400  0.76093100  0.28731600  1
  O  O14  1  0.23906900  0.49831400  0.53731600  1
  O  O15  1  0.76093100  0.50168600  0.03731600  1
  O  O16  1  0.43190100  0.24452700  0.14281800  1
  O  O17  1  0.56809900  0.75547300  0.64281800  1
  O  O18  1  0.24452700  0.56809900  0.89281800  1
  O  O19  1  0.75547300  0.43190100  0.39281800  1
  O  O20  1  0.12167100  0.20524500  0.03910300  1
  O  O21  1  0.87832900  0.79475500  0.53910300  1
  O  O22  1  0.20524500  0.87832900  0.78910300  1
  O  O23  1  0.79475500  0.12167100  0.28910300  1
