# generated using pymatgen
data_Tm8Rh5C12
_symmetry_space_group_name_H-M   'P 1'
_cell_length_a   3.48149400
_cell_length_b   7.34560019
_cell_length_c   13.99141715
_cell_angle_alpha   94.38897585
_cell_angle_beta   97.14699399
_cell_angle_gamma   90.00000000
_symmetry_Int_Tables_number   1
_chemical_formula_structural   Tm8Rh5C12
_chemical_formula_sum   'Tm8 Rh5 C12'
_cell_volume   353.97414456
_cell_formula_units_Z   1
loop_
 _symmetry_equiv_pos_site_id
 _symmetry_equiv_pos_as_xyz
  1  'x, y, z'
loop_
 _atom_site_type_symbol
 _atom_site_label
 _atom_site_symmetry_multiplicity
 _atom_site_fract_x
 _atom_site_fract_y
 _atom_site_fract_z
 _atom_site_occupancy
  Tm  Tm0  1  0.29315500  0.88454100  0.58631100  1
  Tm  Tm1  1  0.70684500  0.11545900  0.41368900  1
  Tm  Tm2  1  0.29992200  0.39066100  0.59984500  1
  Tm  Tm3  1  0.70007800  0.60933900  0.40015500  1
  Tm  Tm4  1  0.41198700  0.17209300  0.82397500  1
  Tm  Tm5  1  0.58801300  0.82790700  0.17602500  1
  Tm  Tm6  1  0.45303800  0.70374100  0.90607600  1
  Tm  Tm7  1  0.54696200  0.29625900  0.09392400  1
  Rh  Rh8  1  0.00000000  0.00000000  0.00000000  1
  Rh  Rh9  1  0.11046400  0.49464800  0.22092700  1
  Rh  Rh10  1  0.88953600  0.50535200  0.77907300  1
  Rh  Rh11  1  0.11628700  0.12622800  0.23257400  1
  Rh  Rh12  1  0.88371300  0.87377200  0.76742600  1
  C  C13  1  0.02272200  0.75442800  0.04544400  1
  C  C14  1  0.97727800  0.24557200  0.95455600  1
  C  C15  1  0.04775800  0.61253200  0.09551600  1
  C  C16  1  0.95224200  0.38746800  0.90448400  1
  C  C17  1  0.16858000  0.34666000  0.33716100  1
  C  C18  1  0.83142000  0.65334000  0.66283900  1
  C  C19  1  0.21694700  0.36522900  0.43389300  1
  C  C20  1  0.78305300  0.63477100  0.56610700  1
  C  C21  1  0.15849400  0.87232900  0.31698800  1
  C  C22  1  0.84150600  0.12767100  0.68301200  1
  C  C23  1  0.20743400  0.86879200  0.41486900  1
  C  C24  1  0.79256600  0.13120800  0.58513100  1
