# generated using pymatgen
data_Er3CuSnS7
_symmetry_space_group_name_H-M   'P 1'
_cell_length_a   6.15978800
_cell_length_b   9.72177692
_cell_length_c   9.72072372
_cell_angle_alpha   119.99664713
_cell_angle_beta   90.00000000
_cell_angle_gamma   90.00000000
_symmetry_Int_Tables_number   1
_chemical_formula_structural   Er3CuSnS7
_chemical_formula_sum   'Er6 Cu2 Sn2 S14'
_cell_volume   504.14483295
_cell_formula_units_Z   2
loop_
 _symmetry_equiv_pos_site_id
 _symmetry_equiv_pos_as_xyz
  1  'x, y, z'
loop_
 _atom_site_type_symbol
 _atom_site_label
 _atom_site_symmetry_multiplicity
 _atom_site_fract_x
 _atom_site_fract_y
 _atom_site_fract_z
 _atom_site_occupancy
  Er  Er0  1  0.26702900  0.21688800  0.35862100  1
  Er  Er1  1  0.26686700  0.64158000  0.85827800  1
  Er  Er2  1  0.26693600  0.14167300  0.78317300  1
  Er  Er3  1  0.76702900  0.78311200  0.64137900  1
  Er  Er4  1  0.76686700  0.35842000  0.14172200  1
  Er  Er5  1  0.76693600  0.85832700  0.21682700  1
  Cu  Cu6  1  0.16786700  0.00107300  0.00114700  1
  Cu  Cu7  1  0.66786700  0.99892700  0.99885300  1
  Sn  Sn8  1  0.82935700  0.33341300  0.66682200  1
  Sn  Sn9  1  0.32935700  0.66658700  0.33317800  1
  S  S10  1  0.69316700  0.15164500  0.26178700  1
  S  S11  1  0.69337600  0.73708000  0.88933900  1
  S  S12  1  0.69324300  0.11041100  0.84801900  1
  S  S13  1  0.19316700  0.84835500  0.73821300  1
  S  S14  1  0.19337600  0.26292000  0.11066100  1
  S  S15  1  0.19324300  0.88958900  0.15198100  1
  S  S16  1  0.01626400  0.08311600  0.51467800  1
  S  S17  1  0.01631500  0.48531100  0.56834900  1
  S  S18  1  0.01640900  0.43165200  0.91709700  1
  S  S19  1  0.51626400  0.91688400  0.48532200  1
  S  S20  1  0.51631500  0.51468900  0.43165100  1
  S  S21  1  0.51640900  0.56834800  0.08290300  1
  S  S22  1  0.44117100  0.33335100  0.66670900  1
  S  S23  1  0.94117100  0.66664900  0.33329100  1
