# generated using pymatgen
data_Sm3SbO7
_symmetry_space_group_name_H-M   'P 1'
_cell_length_a   6.61911460
_cell_length_b   6.61911518
_cell_length_c   7.67923800
_cell_angle_alpha   90.00000000
_cell_angle_beta   90.00000000
_cell_angle_gamma   109.53878623
_symmetry_Int_Tables_number   1
_chemical_formula_structural   Sm3SbO7
_chemical_formula_sum   'Sm6 Sb2 O14'
_cell_volume   317.07375570
_cell_formula_units_Z   2
loop_
 _symmetry_equiv_pos_site_id
 _symmetry_equiv_pos_as_xyz
  1  'x, y, z'
loop_
 _atom_site_type_symbol
 _atom_site_label
 _atom_site_symmetry_multiplicity
 _atom_site_fract_x
 _atom_site_fract_y
 _atom_site_fract_z
 _atom_site_occupancy
  Sm  Sm0  1  0.50570200  0.50570200  0.50000000  1
  Sm  Sm1  1  0.49429800  0.49429800  0.00000000  1
  Sm  Sm2  1  0.46783300  0.00058500  0.24915400  1
  Sm  Sm3  1  0.99941500  0.53216700  0.25084600  1
  Sm  Sm4  1  0.53216700  0.99941500  0.74915400  1
  Sm  Sm5  1  0.00058500  0.46783300  0.75084600  1
  Sb  Sb6  1  0.00152200  0.00152200  0.50000000  1
  Sb  Sb7  1  0.99847800  0.99847800  0.00000000  1
  O  O8  1  0.31809900  0.07007200  0.52726400  1
  O  O9  1  0.92992800  0.68190100  0.97273600  1
  O  O10  1  0.68190100  0.92992800  0.02726400  1
  O  O11  1  0.07007200  0.31809900  0.47273600  1
  O  O12  1  0.92945500  0.68375400  0.52913600  1
  O  O13  1  0.31624600  0.07054500  0.97086400  1
  O  O14  1  0.07054500  0.31624600  0.02913600  1
  O  O15  1  0.68375400  0.92945500  0.47086400  1
  O  O16  1  0.62937100  0.37062900  0.25000000  1
  O  O17  1  0.37062900  0.62937100  0.75000000  1
  O  O18  1  0.63604000  0.36396000  0.75000000  1
  O  O19  1  0.36396000  0.63604000  0.25000000  1
  O  O20  1  0.06545100  0.93454900  0.25000000  1
  O  O21  1  0.93454900  0.06545100  0.75000000  1
