# generated using pymatgen
data_NiH12(N3O2)2
_symmetry_space_group_name_H-M   'P 1'
_cell_length_a   6.06697489
_cell_length_b   6.43127772
_cell_length_c   6.43127772
_cell_angle_alpha   113.01745691
_cell_angle_beta   109.91452877
_cell_angle_gamma   70.08547123
_symmetry_Int_Tables_number   1
_chemical_formula_structural   NiH12(N3O2)2
_chemical_formula_sum   'Ni1 H12 N6 O4'
_cell_volume   210.81786527
_cell_formula_units_Z   1
loop_
 _symmetry_equiv_pos_site_id
 _symmetry_equiv_pos_as_xyz
  1  'x, y, z'
loop_
 _atom_site_type_symbol
 _atom_site_label
 _atom_site_symmetry_multiplicity
 _atom_site_fract_x
 _atom_site_fract_y
 _atom_site_fract_z
 _atom_site_occupancy
  Ni  Ni0  1  0.00000000  0.00000000  0.00000000  1
  H  H1  1  0.56111900  0.93493000  0.72890200  1
  H  H2  1  0.56111900  0.27109800  0.06507000  1
  H  H3  1  0.43888100  0.06507000  0.27109800  1
  H  H4  1  0.43888100  0.72890200  0.93493000  1
  H  H5  1  0.75200700  0.83474600  0.56033500  1
  H  H6  1  0.75200700  0.43966500  0.16525400  1
  H  H7  1  0.24799300  0.16525400  0.43966500  1
  H  H8  1  0.24799300  0.56033500  0.83474600  1
  H  H9  1  0.75515600  0.67835700  0.71270600  1
  H  H10  1  0.75515600  0.28729400  0.32164300  1
  H  H11  1  0.24484400  0.32164300  0.28729400  1
  H  H12  1  0.24484400  0.71270600  0.67835700  1
  N  N13  1  0.01315500  0.19937400  0.80062600  1
  N  N14  1  0.98684500  0.80062600  0.19937400  1
  N  N15  1  0.73446600  0.84519200  0.71767300  1
  N  N16  1  0.73446600  0.28232700  0.15480800  1
  N  N17  1  0.26553400  0.15480800  0.28232700  1
  N  N18  1  0.26553400  0.71767300  0.84519200  1
  O  O19  1  0.82194800  0.30667100  0.69332900  1
  O  O20  1  0.17805200  0.69332900  0.30667100  1
  O  O21  1  0.21304700  0.21197000  0.78803000  1
  O  O22  1  0.78695300  0.78803000  0.21197000  1
