# generated using pymatgen
data_KMoO4
_symmetry_space_group_name_H-M   'P 1'
_cell_length_a   7.56040500
_cell_length_b   7.91601923
_cell_length_c   8.49841781
_cell_angle_alpha   113.81620342
_cell_angle_beta   115.84287333
_cell_angle_gamma   85.73336638
_symmetry_Int_Tables_number   1
_chemical_formula_structural   KMoO4
_chemical_formula_sum   'K4 Mo4 O16'
_cell_volume   415.56925370
_cell_formula_units_Z   4
loop_
 _symmetry_equiv_pos_site_id
 _symmetry_equiv_pos_as_xyz
  1  'x, y, z'
loop_
 _atom_site_type_symbol
 _atom_site_label
 _atom_site_symmetry_multiplicity
 _atom_site_fract_x
 _atom_site_fract_y
 _atom_site_fract_z
 _atom_site_occupancy
  K  K0  1  0.08267200  0.66019700  0.88806700  1
  K  K1  1  0.91732800  0.33980300  0.11193300  1
  K  K2  1  0.29298400  0.06913700  0.81181400  1
  K  K3  1  0.70701600  0.93086300  0.18818600  1
  Mo  Mo4  1  0.50933400  0.52127900  0.71078700  1
  Mo  Mo5  1  0.49066600  0.47872100  0.28921300  1
  Mo  Mo6  1  0.30967400  0.09413200  0.38531200  1
  Mo  Mo7  1  0.69032600  0.90586800  0.61468800  1
  O  O8  1  0.39752300  0.35720200  0.41459500  1
  O  O9  1  0.60247700  0.64279800  0.58540500  1
  O  O10  1  0.34423500  0.90602900  0.46775900  1
  O  O11  1  0.65576500  0.09397100  0.53224100  1
  O  O12  1  0.39109200  0.30391900  0.67630200  1
  O  O13  1  0.60890800  0.69608100  0.32369800  1
  O  O14  1  0.32161800  0.99038600  0.16237500  1
  O  O15  1  0.67838200  0.00961400  0.83762500  1
  O  O16  1  0.25452000  0.44228500  0.09339900  1
  O  O17  1  0.74548000  0.55771500  0.90660100  1
  O  O18  1  0.05521800  0.11476600  0.31321400  1
  O  O19  1  0.94478200  0.88523400  0.68678600  1
  O  O20  1  0.37582400  0.69451800  0.79858700  1
  O  O21  1  0.62417600  0.30548200  0.20141300  1
  O  O22  1  0.02331100  0.73284900  0.37058500  1
  O  O23  1  0.97668900  0.26715100  0.62941500  1
