# generated using pymatgen
data_Ce7ZrO16
_symmetry_space_group_name_H-M   'P 1'
_cell_length_a   7.67971400
_cell_length_b   7.67971400
_cell_length_c   5.42610900
_cell_angle_alpha   90.00000000
_cell_angle_beta   90.00000000
_cell_angle_gamma   90.00000000
_symmetry_Int_Tables_number   1
_chemical_formula_structural   Ce7ZrO16
_chemical_formula_sum   'Ce7 Zr1 O16'
_cell_volume   320.02109525
_cell_formula_units_Z   1
loop_
 _symmetry_equiv_pos_site_id
 _symmetry_equiv_pos_as_xyz
  1  'x, y, z'
loop_
 _atom_site_type_symbol
 _atom_site_label
 _atom_site_symmetry_multiplicity
 _atom_site_fract_x
 _atom_site_fract_y
 _atom_site_fract_z
 _atom_site_occupancy
  Ce  Ce0  1  0.24701400  0.24701400  0.50000000  1
  Ce  Ce1  1  0.50000000  0.00000000  0.00000000  1
  Ce  Ce2  1  0.75298600  0.24701400  0.50000000  1
  Ce  Ce3  1  0.00000000  0.50000000  0.00000000  1
  Ce  Ce4  1  0.24701400  0.75298600  0.50000000  1
  Ce  Ce5  1  0.50000000  0.50000000  0.00000000  1
  Ce  Ce6  1  0.75298600  0.75298600  0.50000000  1
  Zr  Zr7  1  0.00000000  0.00000000  0.00000000  1
  O  O8  1  0.00000000  0.24171700  0.24297100  1
  O  O9  1  0.24171700  0.00000000  0.24297100  1
  O  O10  1  0.24171700  0.00000000  0.75702900  1
  O  O11  1  0.00000000  0.24171700  0.75702900  1
  O  O12  1  0.50000000  0.24784200  0.25064800  1
  O  O13  1  0.75828300  0.00000000  0.24297100  1
  O  O14  1  0.75828300  0.00000000  0.75702900  1
  O  O15  1  0.50000000  0.24784200  0.74935200  1
  O  O16  1  0.00000000  0.75828300  0.24297100  1
  O  O17  1  0.24784200  0.50000000  0.25064800  1
  O  O18  1  0.24784200  0.50000000  0.74935200  1
  O  O19  1  0.00000000  0.75828300  0.75702900  1
  O  O20  1  0.50000000  0.75215800  0.25064800  1
  O  O21  1  0.75215800  0.50000000  0.25064800  1
  O  O22  1  0.75215800  0.50000000  0.74935200  1
  O  O23  1  0.50000000  0.75215800  0.74935200  1
