# generated using pymatgen
data_CoBr2(N3O)2
_symmetry_space_group_name_H-M   'P 1'
_cell_length_a   6.62918604
_cell_length_b   6.62918604
_cell_length_c   10.56962670
_cell_angle_alpha   75.70889070
_cell_angle_beta   75.70889070
_cell_angle_gamma   97.31495000
_symmetry_Int_Tables_number   1
_chemical_formula_structural   CoBr2(N3O)2
_chemical_formula_sum   'Co2 Br4 N12 O4'
_cell_volume   427.33532525
_cell_formula_units_Z   2
loop_
 _symmetry_equiv_pos_site_id
 _symmetry_equiv_pos_as_xyz
  1  'x, y, z'
loop_
 _atom_site_type_symbol
 _atom_site_label
 _atom_site_symmetry_multiplicity
 _atom_site_fract_x
 _atom_site_fract_y
 _atom_site_fract_z
 _atom_site_occupancy
  Co  Co0  1  0.03540800  0.96459200  0.75000000  1
  Co  Co1  1  0.96459200  0.03540800  0.25000000  1
  Br  Br2  1  0.78809300  0.05584500  0.54952800  1
  Br  Br3  1  0.94415500  0.21190700  0.95047200  1
  Br  Br4  1  0.21190700  0.94415500  0.45047200  1
  Br  Br5  1  0.05584500  0.78809300  0.04952800  1
  N  N6  1  0.66865600  0.33134400  0.75000000  1
  N  N7  1  0.33134400  0.66865600  0.25000000  1
  N  N8  1  0.19217500  0.80782500  0.75000000  1
  N  N9  1  0.80782500  0.19217500  0.25000000  1
  N  N10  1  0.10057200  0.22154200  0.77890000  1
  N  N11  1  0.77845800  0.89942800  0.72110000  1
  N  N12  1  0.89942800  0.77845800  0.22110000  1
  N  N13  1  0.22154200  0.10057200  0.27890000  1
  N  N14  1  0.87594100  0.83577000  0.94581600  1
  N  N15  1  0.16423000  0.12405900  0.55418400  1
  N  N16  1  0.12405900  0.16423000  0.05418400  1
  N  N17  1  0.83577000  0.87594100  0.44581600  1
  O  O18  1  0.74344600  0.50232000  0.66494300  1
  O  O19  1  0.49768000  0.25655400  0.83505700  1
  O  O20  1  0.25655400  0.49768000  0.33505700  1
  O  O21  1  0.50232000  0.74344600  0.16494300  1
