# generated using pymatgen
data_KPb2C2O6F
_symmetry_space_group_name_H-M   'P 1'
_cell_length_a   5.37102740
_cell_length_b   5.37102740
_cell_length_c   14.04651100
_cell_angle_alpha   90.00000000
_cell_angle_beta   90.00000000
_cell_angle_gamma   119.99999261
_symmetry_Int_Tables_number   1
_chemical_formula_structural   KPb2C2O6F
_chemical_formula_sum   'K2 Pb4 C4 O12 F2'
_cell_volume   350.92464038
_cell_formula_units_Z   2
loop_
 _symmetry_equiv_pos_site_id
 _symmetry_equiv_pos_as_xyz
  1  'x, y, z'
loop_
 _atom_site_type_symbol
 _atom_site_label
 _atom_site_symmetry_multiplicity
 _atom_site_fract_x
 _atom_site_fract_y
 _atom_site_fract_z
 _atom_site_occupancy
  K  K0  1  0.66666700  0.33333300  0.25000000  1
  K  K1  1  0.33333300  0.66666700  0.75000000  1
  Pb  Pb2  1  0.33333300  0.66666700  0.08163900  1
  Pb  Pb3  1  0.66666700  0.33333300  0.91836100  1
  Pb  Pb4  1  0.66666700  0.33333300  0.58163900  1
  Pb  Pb5  1  0.33333300  0.66666700  0.41836100  1
  C  C6  1  0.00000000  0.00000000  0.10641900  1
  C  C7  1  0.00000000  0.00000000  0.89358100  1
  C  C8  1  0.00000000  0.00000000  0.60641900  1
  C  C9  1  0.00000000  0.00000000  0.39358100  1
  O  O10  1  0.28036600  0.14018300  0.10594400  1
  O  O11  1  0.85981700  0.14018300  0.10594400  1
  O  O12  1  0.85981700  0.71963400  0.10594400  1
  O  O13  1  0.71963400  0.85981700  0.89405600  1
  O  O14  1  0.14018300  0.85981700  0.89405600  1
  O  O15  1  0.14018300  0.28036600  0.89405600  1
  O  O16  1  0.71963400  0.85981700  0.60594400  1
  O  O17  1  0.14018300  0.85981700  0.60594400  1
  O  O18  1  0.14018300  0.28036600  0.60594400  1
  O  O19  1  0.28036600  0.14018300  0.39405600  1
  O  O20  1  0.85981700  0.14018300  0.39405600  1
  O  O21  1  0.85981700  0.71963400  0.39405600  1
  F  F22  1  0.33333300  0.66666700  0.25000000  1
  F  F23  1  0.66666700  0.33333300  0.75000000  1
