# generated using pymatgen
data_BaSiC
_symmetry_space_group_name_H-M   'P 1'
_cell_length_a   6.11984800
_cell_length_b   8.90654400
_cell_length_c   11.41866800
_cell_angle_alpha   90.00000000
_cell_angle_beta   90.00000000
_cell_angle_gamma   90.00000000
_symmetry_Int_Tables_number   1
_chemical_formula_structural   BaSiC
_chemical_formula_sum   'Ba8 Si8 C8'
_cell_volume   622.39385952
_cell_formula_units_Z   8
loop_
 _symmetry_equiv_pos_site_id
 _symmetry_equiv_pos_as_xyz
  1  'x, y, z'
loop_
 _atom_site_type_symbol
 _atom_site_label
 _atom_site_symmetry_multiplicity
 _atom_site_fract_x
 _atom_site_fract_y
 _atom_site_fract_z
 _atom_site_occupancy
  Ba  Ba0  1  0.25000000  0.97539400  0.34528600  1
  Ba  Ba1  1  0.25000000  0.47539400  0.15471400  1
  Ba  Ba2  1  0.75000000  0.02460600  0.65471400  1
  Ba  Ba3  1  0.75000000  0.52460600  0.84528600  1
  Ba  Ba4  1  0.25000000  0.88219500  0.92364100  1
  Ba  Ba5  1  0.25000000  0.38219500  0.57635900  1
  Ba  Ba6  1  0.75000000  0.11780500  0.07635900  1
  Ba  Ba7  1  0.75000000  0.61780500  0.42364100  1
  Si  Si8  1  0.05765500  0.21542000  0.84023400  1
  Si  Si9  1  0.44234500  0.71542000  0.65976600  1
  Si  Si10  1  0.55765500  0.78458000  0.15976600  1
  Si  Si11  1  0.94234500  0.28458000  0.34023400  1
  Si  Si12  1  0.94234500  0.78458000  0.15976600  1
  Si  Si13  1  0.55765500  0.28458000  0.34023400  1
  Si  Si14  1  0.44234500  0.21542000  0.84023400  1
  Si  Si15  1  0.05765500  0.71542000  0.65976600  1
  C  C16  1  0.25000000  0.35352400  0.93410100  1
  C  C17  1  0.25000000  0.85352400  0.56589900  1
  C  C18  1  0.75000000  0.64647600  0.06589900  1
  C  C19  1  0.75000000  0.14647600  0.43410100  1
  C  C20  1  0.25000000  0.20352700  0.98312400  1
  C  C21  1  0.25000000  0.70352700  0.51687600  1
  C  C22  1  0.75000000  0.79647300  0.01687600  1
  C  C23  1  0.75000000  0.29647300  0.48312400  1
