# generated using pymatgen
data_Ag5TePO4
_symmetry_space_group_name_H-M   'P 1'
_cell_length_a   7.14488500
_cell_length_b   7.14488500
_cell_length_c   7.39966500
_cell_angle_alpha   90.00000000
_cell_angle_beta   90.00000000
_cell_angle_gamma   90.00000000
_symmetry_Int_Tables_number   1
_chemical_formula_structural   Ag5TePO4
_chemical_formula_sum   'Ag10 Te2 P2 O8'
_cell_volume   377.74832277
_cell_formula_units_Z   2
loop_
 _symmetry_equiv_pos_site_id
 _symmetry_equiv_pos_as_xyz
  1  'x, y, z'
loop_
 _atom_site_type_symbol
 _atom_site_label
 _atom_site_symmetry_multiplicity
 _atom_site_fract_x
 _atom_site_fract_y
 _atom_site_fract_z
 _atom_site_occupancy
  Ag  Ag0  1  0.77240900  0.72759100  0.20032000  1
  Ag  Ag1  1  0.22759100  0.72759100  0.20032000  1
  Ag  Ag2  1  0.77240900  0.27240900  0.20032000  1
  Ag  Ag3  1  0.22759100  0.27240900  0.20032000  1
  Ag  Ag4  1  0.72759100  0.77240900  0.79968000  1
  Ag  Ag5  1  0.27240900  0.77240900  0.79968000  1
  Ag  Ag6  1  0.72759100  0.22759100  0.79968000  1
  Ag  Ag7  1  0.27240900  0.22759100  0.79968000  1
  Ag  Ag8  1  0.00000000  0.50000000  0.46176000  1
  Ag  Ag9  1  0.50000000  0.00000000  0.53824000  1
  Te  Te10  1  0.00000000  0.50000000  0.00545100  1
  Te  Te11  1  0.50000000  0.00000000  0.99454900  1
  P  P12  1  0.50000000  0.50000000  0.50000000  1
  P  P13  1  0.00000000  0.00000000  0.50000000  1
  O  O14  1  0.50000000  0.31959300  0.38053500  1
  O  O15  1  0.50000000  0.68040700  0.38053500  1
  O  O16  1  0.81959300  0.00000000  0.38053500  1
  O  O17  1  0.18040700  0.00000000  0.38053500  1
  O  O18  1  0.00000000  0.18040700  0.61946500  1
  O  O19  1  0.00000000  0.81959300  0.61946500  1
  O  O20  1  0.68040700  0.50000000  0.61946500  1
  O  O21  1  0.31959300  0.50000000  0.61946500  1
