# generated using pymatgen
data_Gd3BeCrS7
_symmetry_space_group_name_H-M   'P 1'
_cell_length_a   9.73157684
_cell_length_b   9.73157684
_cell_length_c   5.93550500
_cell_angle_alpha   90.00000000
_cell_angle_beta   90.00000000
_cell_angle_gamma   120.00000568
_symmetry_Int_Tables_number   1
_chemical_formula_structural   Gd3BeCrS7
_chemical_formula_sum   'Gd6 Be2 Cr2 S14'
_cell_volume   486.80464546
_cell_formula_units_Z   2
loop_
 _symmetry_equiv_pos_site_id
 _symmetry_equiv_pos_as_xyz
  1  'x, y, z'
loop_
 _atom_site_type_symbol
 _atom_site_label
 _atom_site_symmetry_multiplicity
 _atom_site_fract_x
 _atom_site_fract_y
 _atom_site_fract_z
 _atom_site_occupancy
  Gd  Gd0  1  0.60986300  0.86112700  0.25301900  1
  Gd  Gd1  1  0.13887300  0.74873600  0.25301900  1
  Gd  Gd2  1  0.25126400  0.39013700  0.25301900  1
  Gd  Gd3  1  0.39013700  0.13887300  0.75301900  1
  Gd  Gd4  1  0.86112700  0.25126400  0.75301900  1
  Gd  Gd5  1  0.74873600  0.60986300  0.75301900  1
  Be  Be6  1  0.33333300  0.66666700  0.83724300  1
  Be  Be7  1  0.66666700  0.33333300  0.33724300  1
  Cr  Cr8  1  0.00000000  0.00000000  0.48161700  1
  Cr  Cr9  1  0.00000000  0.00000000  0.98161700  1
  S  S10  1  0.77569500  0.92091500  0.72699100  1
  S  S11  1  0.07908500  0.85478000  0.72699100  1
  S  S12  1  0.14522000  0.22430500  0.72699100  1
  S  S13  1  0.22430500  0.07908500  0.22699100  1
  S  S14  1  0.92091500  0.14522000  0.22699100  1
  S  S15  1  0.85478000  0.77569500  0.22699100  1
  S  S16  1  0.48267600  0.58911600  0.97475200  1
  S  S17  1  0.41088400  0.89356000  0.97475200  1
  S  S18  1  0.10644000  0.51732400  0.97475200  1
  S  S19  1  0.51732400  0.41088400  0.47475200  1
  S  S20  1  0.58911600  0.10644000  0.47475200  1
  S  S21  1  0.89356000  0.48267600  0.47475200  1
  S  S22  1  0.33333300  0.66666700  0.48483000  1
  S  S23  1  0.66666700  0.33333300  0.98483000  1
