# generated using pymatgen
data_Ba2FeS3
_symmetry_space_group_name_H-M   'P 1'
_cell_length_a   4.17253400
_cell_length_b   12.10000100
_cell_length_c   12.18052100
_cell_angle_alpha   90.00000000
_cell_angle_beta   90.00000000
_cell_angle_gamma   90.00000000
_symmetry_Int_Tables_number   1
_chemical_formula_structural   Ba2FeS3
_chemical_formula_sum   'Ba8 Fe4 S12'
_cell_volume   614.96607075
_cell_formula_units_Z   4
loop_
 _symmetry_equiv_pos_site_id
 _symmetry_equiv_pos_as_xyz
  1  'x, y, z'
loop_
 _atom_site_type_symbol
 _atom_site_label
 _atom_site_symmetry_multiplicity
 _atom_site_fract_x
 _atom_site_fract_y
 _atom_site_fract_z
 _atom_site_occupancy
  Ba  Ba0  1  0.25000000  0.48035100  0.82522800  1
  Ba  Ba1  1  0.25000000  0.01964900  0.32522800  1
  Ba  Ba2  1  0.75000000  0.51964900  0.17477200  1
  Ba  Ba3  1  0.75000000  0.98035100  0.67477200  1
  Ba  Ba4  1  0.25000000  0.67057000  0.48764300  1
  Ba  Ba5  1  0.25000000  0.82943000  0.98764300  1
  Ba  Ba6  1  0.75000000  0.32943000  0.51235700  1
  Ba  Ba7  1  0.75000000  0.17057000  0.01235700  1
  Fe  Fe8  1  0.25000000  0.20046100  0.74511000  1
  Fe  Fe9  1  0.25000000  0.29953900  0.24511000  1
  Fe  Fe10  1  0.75000000  0.79953900  0.25489000  1
  Fe  Fe11  1  0.75000000  0.70046100  0.75489000  1
  S  S12  1  0.25000000  0.05475800  0.85729400  1
  S  S13  1  0.25000000  0.44524200  0.35729400  1
  S  S14  1  0.75000000  0.94524200  0.14270600  1
  S  S15  1  0.75000000  0.55475800  0.64270600  1
  S  S16  1  0.25000000  0.14450400  0.56900900  1
  S  S17  1  0.25000000  0.35549600  0.06900900  1
  S  S18  1  0.75000000  0.85549600  0.43099100  1
  S  S19  1  0.75000000  0.64450400  0.93099100  1
  S  S20  1  0.25000000  0.73711700  0.23423800  1
  S  S21  1  0.25000000  0.76288300  0.73423800  1
  S  S22  1  0.75000000  0.26288300  0.76576200  1
  S  S23  1  0.75000000  0.23711700  0.26576200  1
