# generated using pymatgen
data_CeBr3O7
_symmetry_space_group_name_H-M   'P 1'
_cell_length_a   8.01102539
_cell_length_b   6.95841451
_cell_length_c   7.99097814
_cell_angle_alpha   87.22202432
_cell_angle_beta   84.30949058
_cell_angle_gamma   75.14126454
_symmetry_Int_Tables_number   1
_chemical_formula_structural   CeBr3O7
_chemical_formula_sum   'Ce2 Br6 O14'
_cell_volume   428.30929315
_cell_formula_units_Z   2
loop_
 _symmetry_equiv_pos_site_id
 _symmetry_equiv_pos_as_xyz
  1  'x, y, z'
loop_
 _atom_site_type_symbol
 _atom_site_label
 _atom_site_symmetry_multiplicity
 _atom_site_fract_x
 _atom_site_fract_y
 _atom_site_fract_z
 _atom_site_occupancy
  Ce  Ce0  1  0.20544400  0.25380600  0.27261300  1
  Ce  Ce1  1  0.79455600  0.74619400  0.72738700  1
  Br  Br2  1  0.74856500  0.21850900  0.48281800  1
  Br  Br3  1  0.25143500  0.78149100  0.51718200  1
  Br  Br4  1  0.62501200  0.28676800  0.90306400  1
  Br  Br5  1  0.37498800  0.71323200  0.09693600  1
  Br  Br6  1  0.22040800  0.35254600  0.73757700  1
  Br  Br7  1  0.77959200  0.64745400  0.26242300  1
  O  O8  1  0.32149700  0.02736100  0.12440600  1
  O  O9  1  0.67850300  0.97263900  0.87559400  1
  O  O10  1  0.37012600  0.44780700  0.12152700  1
  O  O11  1  0.62987400  0.55219300  0.87847300  1
  O  O12  1  0.29047600  0.01618500  0.49151200  1
  O  O13  1  0.70952400  0.98381500  0.50848800  1
  O  O14  1  0.26763700  0.40788000  0.52314600  1
  O  O15  1  0.73236300  0.59212000  0.47685500  1
  O  O16  1  0.99319500  0.09074000  0.99916700  1
  O  O17  1  0.00680500  0.90926000  0.00083300  1
  O  O18  1  0.94297300  0.18396100  0.35245100  1
  O  O19  1  0.05702700  0.81603900  0.64754900  1
  O  O20  1  0.00385600  0.56642300  0.22201200  1
  O  O21  1  0.99614400  0.43357700  0.77798800  1
