# generated using pymatgen
data_Nd4FeS7
_symmetry_space_group_name_H-M   'P 1'
_cell_length_a   6.95707100
_cell_length_b   9.82422600
_cell_length_c   9.82734206
_cell_angle_alpha   60.15512330
_cell_angle_beta   90.00000000
_cell_angle_gamma   90.00000000
_symmetry_Int_Tables_number   1
_chemical_formula_structural   Nd4FeS7
_chemical_formula_sum   'Nd8 Fe2 S14'
_cell_volume   582.59696942
_cell_formula_units_Z   2
loop_
 _symmetry_equiv_pos_site_id
 _symmetry_equiv_pos_as_xyz
  1  'x, y, z'
loop_
 _atom_site_type_symbol
 _atom_site_label
 _atom_site_symmetry_multiplicity
 _atom_site_fract_x
 _atom_site_fract_y
 _atom_site_fract_z
 _atom_site_occupancy
  Nd  Nd0  1  0.72335600  0.37588000  0.78464300  1
  Nd  Nd1  1  0.72665400  0.83953600  0.37567400  1
  Nd  Nd2  1  0.72325900  0.78509900  0.83988200  1
  Nd  Nd3  1  0.22335600  0.62412000  0.21535700  1
  Nd  Nd4  1  0.22665400  0.16046400  0.62432600  1
  Nd  Nd5  1  0.22325900  0.21490100  0.16011800  1
  Nd  Nd6  1  0.17955700  0.66178100  0.67204900  1
  Nd  Nd7  1  0.67955700  0.33821900  0.32795100  1
  Fe  Fe8  1  0.51659100  0.00399200  0.99889400  1
  Fe  Fe9  1  0.01659100  0.99600800  0.00110600  1
  S  S10  1  0.33572200  0.23824500  0.86781300  1
  S  S11  1  0.33429400  0.89759100  0.23231700  1
  S  S12  1  0.33401100  0.87170400  0.89684600  1
  S  S13  1  0.83572200  0.76175500  0.13218700  1
  S  S14  1  0.83429400  0.10240900  0.76768300  1
  S  S15  1  0.83401100  0.12829600  0.10315400  1
  S  S16  1  0.96178400  0.51408100  0.93183900  1
  S  S17  1  0.96558400  0.55431900  0.51761000  1
  S  S18  1  0.96861900  0.92547500  0.55779300  1
  S  S19  1  0.46178400  0.48591900  0.06816100  1
  S  S20  1  0.46558400  0.44568100  0.48239000  1
  S  S21  1  0.46861900  0.07452500  0.44220700  1
  S  S22  1  0.56257200  0.66834100  0.66493400  1
  S  S23  1  0.06257200  0.33165900  0.33506600  1
