# generated using pymatgen
data_CsB3H8
_symmetry_space_group_name_H-M   'P 1'
_cell_length_a   5.84731870
_cell_length_b   5.84731870
_cell_length_c   9.49761700
_cell_angle_alpha   90.00000000
_cell_angle_beta   90.00000000
_cell_angle_gamma   98.71005182
_symmetry_Int_Tables_number   1
_chemical_formula_structural   CsB3H8
_chemical_formula_sum   'Cs2 B6 H16'
_cell_volume   320.98926167
_cell_formula_units_Z   2
loop_
 _symmetry_equiv_pos_site_id
 _symmetry_equiv_pos_as_xyz
  1  'x, y, z'
loop_
 _atom_site_type_symbol
 _atom_site_label
 _atom_site_symmetry_multiplicity
 _atom_site_fract_x
 _atom_site_fract_y
 _atom_site_fract_z
 _atom_site_occupancy
  Cs  Cs0  1  0.17602500  0.82684600  0.75000000  1
  Cs  Cs1  1  0.82684600  0.17602500  0.25000000  1
  B  B2  1  0.77248100  0.22025600  0.84457000  1
  B  B3  1  0.22025600  0.77248100  0.15543000  1
  B  B4  1  0.77248100  0.22025600  0.65543000  1
  B  B5  1  0.22025600  0.77248100  0.34457000  1
  B  B6  1  0.60513300  0.39463300  0.75000000  1
  B  B7  1  0.39463300  0.60513300  0.25000000  1
  H  H8  1  0.96562500  0.29384800  0.61242000  1
  H  H9  1  0.29384800  0.96562500  0.38758000  1
  H  H10  1  0.96562500  0.29384800  0.88758000  1
  H  H11  1  0.29384800  0.96562500  0.11242000  1
  H  H12  1  0.68993200  0.02995300  0.61253300  1
  H  H13  1  0.02995300  0.68993200  0.38746700  1
  H  H14  1  0.68993200  0.02995300  0.88746700  1
  H  H15  1  0.02995300  0.68993200  0.11253300  1
  H  H16  1  0.39756700  0.33795000  0.75000000  1
  H  H17  1  0.33795000  0.39756700  0.25000000  1
  H  H18  1  0.66653200  0.60286800  0.75000000  1
  H  H19  1  0.60286800  0.66653200  0.25000000  1
  H  H20  1  0.64615300  0.35297600  0.59943500  1
  H  H21  1  0.35297600  0.64615300  0.40056500  1
  H  H22  1  0.64615300  0.35297600  0.90056500  1
  H  H23  1  0.35297600  0.64615300  0.09943500  1
