# generated using pymatgen
data_K2S2NO6
_symmetry_space_group_name_H-M   'P 1'
_cell_length_a   7.40909227
_cell_length_b   7.40909227
_cell_length_c   7.37199620
_cell_angle_alpha   88.66118730
_cell_angle_beta   88.66118730
_cell_angle_gamma   61.89642893
_symmetry_Int_Tables_number   1
_chemical_formula_structural   K2S2NO6
_chemical_formula_sum   'K4 S4 N2 O12'
_cell_volume   356.83749395
_cell_formula_units_Z   2
loop_
 _symmetry_equiv_pos_site_id
 _symmetry_equiv_pos_as_xyz
  1  'x, y, z'
loop_
 _atom_site_type_symbol
 _atom_site_label
 _atom_site_symmetry_multiplicity
 _atom_site_fract_x
 _atom_site_fract_y
 _atom_site_fract_z
 _atom_site_occupancy
  K  K0  1  0.29665600  0.00553100  0.64503600  1
  K  K1  1  0.99446900  0.70334400  0.85496400  1
  K  K2  1  0.70334400  0.99446900  0.35496400  1
  K  K3  1  0.00553100  0.29665600  0.14503600  1
  S  S4  1  0.77930200  0.42144200  0.64205400  1
  S  S5  1  0.57855800  0.22069800  0.85794600  1
  S  S6  1  0.22069800  0.57855800  0.35794600  1
  S  S7  1  0.42144200  0.77930200  0.14205400  1
  N  N8  1  0.57614200  0.42385800  0.75000000  1
  N  N9  1  0.42385800  0.57614200  0.25000000  1
  O  O10  1  0.82869200  0.28334500  0.48743700  1
  O  O11  1  0.71665500  0.17130800  0.01256300  1
  O  O12  1  0.17130800  0.71665500  0.51256300  1
  O  O13  1  0.28334500  0.82869200  0.98743700  1
  O  O14  1  0.70635000  0.63566000  0.59076800  1
  O  O15  1  0.36434000  0.29365000  0.90923200  1
  O  O16  1  0.29365000  0.36434000  0.40923200  1
  O  O17  1  0.63566000  0.70635000  0.09076800  1
  O  O18  1  0.94726500  0.34761100  0.77363100  1
  O  O19  1  0.65238900  0.05273500  0.72636900  1
  O  O20  1  0.05273500  0.65238900  0.22636900  1
  O  O21  1  0.34761100  0.94726500  0.27363100  1
