# generated using pymatgen
data_KU(TeO4)2
_symmetry_space_group_name_H-M   'P 1'
_cell_length_a   6.02697165
_cell_length_b   6.02697165
_cell_length_c   11.90853900
_cell_angle_alpha   90.00000000
_cell_angle_beta   90.00000000
_cell_angle_gamma   100.02339574
_symmetry_Int_Tables_number   1
_chemical_formula_structural   KU(TeO4)2
_chemical_formula_sum   'K2 U2 Te4 O16'
_cell_volume   425.96795924
_cell_formula_units_Z   2
loop_
 _symmetry_equiv_pos_site_id
 _symmetry_equiv_pos_as_xyz
  1  'x, y, z'
loop_
 _atom_site_type_symbol
 _atom_site_label
 _atom_site_symmetry_multiplicity
 _atom_site_fract_x
 _atom_site_fract_y
 _atom_site_fract_z
 _atom_site_occupancy
  K  K0  1  0.50000000  0.50000000  0.50000000  1
  K  K1  1  0.50000000  0.50000000  0.00000000  1
  U  U2  1  0.00000000  0.00000000  0.50000000  1
  U  U3  1  0.00000000  0.00000000  0.00000000  1
  Te  Te4  1  0.92892100  0.57610400  0.75000000  1
  Te  Te5  1  0.57610400  0.92892100  0.25000000  1
  Te  Te6  1  0.07107900  0.42389600  0.25000000  1
  Te  Te7  1  0.42389600  0.07107900  0.75000000  1
  O  O8  1  0.80861800  0.19138200  0.54475800  1
  O  O9  1  0.19138200  0.80861800  0.45524200  1
  O  O10  1  0.80861800  0.19138200  0.95524200  1
  O  O11  1  0.19138200  0.80861800  0.04475800  1
  O  O12  1  0.84183600  0.74717000  0.62929100  1
  O  O13  1  0.74717000  0.84183600  0.37070900  1
  O  O14  1  0.84183600  0.74717000  0.87070900  1
  O  O15  1  0.74717000  0.84183600  0.12929100  1
  O  O16  1  0.15816400  0.25283000  0.37070900  1
  O  O17  1  0.25283000  0.15816400  0.62929100  1
  O  O18  1  0.15816400  0.25283000  0.12929100  1
  O  O19  1  0.25283000  0.15816400  0.87070900  1
  O  O20  1  0.60698900  0.39301100  0.75000000  1
  O  O21  1  0.39301100  0.60698900  0.25000000  1
  O  O22  1  0.25672200  0.74327800  0.75000000  1
  O  O23  1  0.74327800  0.25672200  0.25000000  1
