# generated using pymatgen
data_Na2GeO9
_symmetry_space_group_name_H-M   'P 1'
_cell_length_a   5.10569100
_cell_length_b   6.53754500
_cell_length_c   11.53665190
_cell_angle_alpha   85.48374567
_cell_angle_beta   90.00000000
_cell_angle_gamma   90.00000000
_symmetry_Int_Tables_number   1
_chemical_formula_structural   Na2GeO9
_chemical_formula_sum   'Na4 Ge2 O18'
_cell_volume   383.88261138
_cell_formula_units_Z   2
loop_
 _symmetry_equiv_pos_site_id
 _symmetry_equiv_pos_as_xyz
  1  'x, y, z'
loop_
 _atom_site_type_symbol
 _atom_site_label
 _atom_site_symmetry_multiplicity
 _atom_site_fract_x
 _atom_site_fract_y
 _atom_site_fract_z
 _atom_site_occupancy
  Na  Na0  1  0.05067800  0.12540600  0.60714900  1
  Na  Na1  1  0.55067800  0.87459400  0.39285100  1
  Na  Na2  1  0.17080800  0.62553900  0.91655400  1
  Na  Na3  1  0.67080800  0.37446100  0.08344600  1
  Ge  Ge4  1  0.42996000  0.19288200  0.82703700  1
  Ge  Ge5  1  0.92996000  0.80711800  0.17296300  1
  O  O6  1  0.40508800  0.29156100  0.68512300  1
  O  O7  1  0.90508800  0.70843900  0.31487700  1
  O  O8  1  0.44889400  0.89493700  0.81737300  1
  O  O9  1  0.94889400  0.10506300  0.18262700  1
  O  O10  1  0.36883000  0.31126000  0.95039800  1
  O  O11  1  0.86883000  0.68874000  0.04960200  1
  O  O12  1  0.82866000  0.20774900  0.86589800  1
  O  O13  1  0.32866000  0.79225100  0.13410200  1
  O  O14  1  0.60100000  0.85111800  0.71187700  1
  O  O15  1  0.10100000  0.14888200  0.28812300  1
  O  O16  1  0.70850900  0.38152900  0.49524000  1
  O  O17  1  0.20850900  0.61847100  0.50476000  1
  O  O18  1  0.06595900  0.65448400  0.58739100  1
  O  O19  1  0.56595900  0.34551600  0.41260900  1
  O  O20  1  0.48245100  0.91564400  0.61450100  1
  O  O21  1  0.98245100  0.08435600  0.38549900  1
  O  O22  1  0.00046300  0.09556500  0.81130100  1
  O  O23  1  0.50046300  0.90443500  0.18869900  1
