# generated using pymatgen
data_Ti6H2O13
_symmetry_space_group_name_H-M   'P 1'
_cell_length_a   7.69184659
_cell_length_b   7.69184659
_cell_length_c   9.38482795
_cell_angle_alpha   82.61624507
_cell_angle_beta   82.61624507
_cell_angle_gamma   28.37423309
_symmetry_Int_Tables_number   1
_chemical_formula_structural   Ti6H2O13
_chemical_formula_sum   'Ti6 H2 O13'
_cell_volume   261.54147560
_cell_formula_units_Z   1
loop_
 _symmetry_equiv_pos_site_id
 _symmetry_equiv_pos_as_xyz
  1  'x, y, z'
loop_
 _atom_site_type_symbol
 _atom_site_label
 _atom_site_symmetry_multiplicity
 _atom_site_fract_x
 _atom_site_fract_y
 _atom_site_fract_z
 _atom_site_occupancy
  Ti  Ti0  1  0.11450700  0.11450700  0.90802000  1
  Ti  Ti1  1  0.88549300  0.88549300  0.09198000  1
  Ti  Ti2  1  0.16645300  0.16645300  0.55167800  1
  Ti  Ti3  1  0.83354700  0.83354700  0.44832200  1
  Ti  Ti4  1  0.22873500  0.22873500  0.22710800  1
  Ti  Ti5  1  0.77126500  0.77126500  0.77289200  1
  H  H6  1  0.99982800  0.99982800  0.68686300  1
  H  H7  1  0.00017200  0.00017200  0.31313700  1
  O  O8  1  0.00000000  0.00000000  0.00000000  1
  O  O9  1  0.23737500  0.23737500  0.75148900  1
  O  O10  1  0.76262500  0.76262500  0.24851100  1
  O  O11  1  0.06436900  0.06436900  0.69830700  1
  O  O12  1  0.93563100  0.93563100  0.30169300  1
  O  O13  1  0.29702600  0.29702600  0.43421200  1
  O  O14  1  0.70297400  0.70297400  0.56578800  1
  O  O15  1  0.12549600  0.12549600  0.38164000  1
  O  O16  1  0.87450400  0.87450400  0.61836000  1
  O  O17  1  0.35750100  0.35750100  0.12508400  1
  O  O18  1  0.64249900  0.64249900  0.87491600  1
  O  O19  1  0.16980600  0.16980600  0.07606600  1
  O  O20  1  0.83019400  0.83019400  0.92393400  1
