# generated using pymatgen
data_CaSiN2
_symmetry_space_group_name_H-M   'P 1'
_cell_length_a   6.15727433
_cell_length_b   6.15727433
_cell_length_c   6.84259500
_cell_angle_alpha   90.00000000
_cell_angle_beta   90.00000000
_cell_angle_gamma   127.53651426
_symmetry_Int_Tables_number   1
_chemical_formula_structural   CaSiN2
_chemical_formula_sum   'Ca4 Si4 N8'
_cell_volume   205.70837900
_cell_formula_units_Z   4
loop_
 _symmetry_equiv_pos_site_id
 _symmetry_equiv_pos_as_xyz
  1  'x, y, z'
loop_
 _atom_site_type_symbol
 _atom_site_label
 _atom_site_symmetry_multiplicity
 _atom_site_fract_x
 _atom_site_fract_y
 _atom_site_fract_z
 _atom_site_occupancy
  Ca  Ca0  1  0.82405300  0.17594700  0.57239600  1
  Ca  Ca1  1  0.17594700  0.82405300  0.42760400  1
  Ca  Ca2  1  0.67594700  0.32405300  0.07239600  1
  Ca  Ca3  1  0.32405300  0.67594700  0.92760400  1
  Si  Si4  1  0.56170500  0.43829500  0.64251600  1
  Si  Si5  1  0.43829500  0.56170500  0.35748400  1
  Si  Si6  1  0.93829500  0.06170500  0.14251600  1
  Si  Si7  1  0.06170500  0.93829500  0.85748400  1
  N  N8  1  0.90259700  0.09740300  0.88987700  1
  N  N9  1  0.09740300  0.90259700  0.11012300  1
  N  N10  1  0.59740300  0.40259700  0.38987700  1
  N  N11  1  0.40259700  0.59740300  0.61012300  1
  N  N12  1  0.38084400  0.11915600  0.75000000  1
  N  N13  1  0.11915600  0.38084400  0.25000000  1
  N  N14  1  0.61915600  0.88084400  0.25000000  1
  N  N15  1  0.88084400  0.61915600  0.75000000  1
