# generated using pymatgen
data_CdIClO3
_symmetry_space_group_name_H-M   'P 1'
_cell_length_a   9.02625344
_cell_length_b   9.02625344
_cell_length_c   7.44836200
_cell_angle_alpha   90.00000000
_cell_angle_beta   90.00000000
_cell_angle_gamma   131.59144265
_symmetry_Int_Tables_number   1
_chemical_formula_structural   CdIClO3
_chemical_formula_sum   'Cd4 I4 Cl4 O12'
_cell_volume   453.85565827
_cell_formula_units_Z   4
loop_
 _symmetry_equiv_pos_site_id
 _symmetry_equiv_pos_as_xyz
  1  'x, y, z'
loop_
 _atom_site_type_symbol
 _atom_site_label
 _atom_site_symmetry_multiplicity
 _atom_site_fract_x
 _atom_site_fract_y
 _atom_site_fract_z
 _atom_site_occupancy
  Cd  Cd0  1  0.35254100  0.14745900  0.75000000  1
  Cd  Cd1  1  0.14745900  0.35254100  0.25000000  1
  Cd  Cd2  1  0.64745900  0.85254100  0.25000000  1
  Cd  Cd3  1  0.85254100  0.64745900  0.75000000  1
  I  I4  1  0.59614100  0.40385900  0.27797400  1
  I  I5  1  0.40385900  0.59614100  0.72202600  1
  I  I6  1  0.90385900  0.09614100  0.77797400  1
  I  I7  1  0.09614100  0.90385900  0.22202600  1
  Cl  Cl8  1  0.20623400  0.79376600  0.66713500  1
  Cl  Cl9  1  0.79376600  0.20623400  0.33286500  1
  Cl  Cl10  1  0.29376600  0.70623400  0.16713500  1
  Cl  Cl11  1  0.70623400  0.29376600  0.83286500  1
  O  O12  1  0.40590900  0.21110500  0.43522000  1
  O  O13  1  0.21110500  0.40590900  0.56478000  1
  O  O14  1  0.71110600  0.90590900  0.93522000  1
  O  O15  1  0.90590900  0.71110500  0.06478000  1
  O  O16  1  0.59409100  0.78889500  0.56478000  1
  O  O17  1  0.78889500  0.59409100  0.43522000  1
  O  O18  1  0.28889500  0.09409100  0.06478000  1
  O  O19  1  0.09409100  0.28889500  0.93522000  1
  O  O20  1  0.48574400  0.51425600  0.22222500  1
  O  O21  1  0.51425600  0.48574400  0.77777500  1
  O  O22  1  0.01425600  0.98574400  0.72222500  1
  O  O23  1  0.98574400  0.01425600  0.27777500  1
