# generated using pymatgen
data_Rb2Pt(CN)4
_symmetry_space_group_name_H-M   'P 1'
_cell_length_a   7.98142700
_cell_length_b   8.98179754
_cell_length_c   8.98179754
_cell_angle_alpha   78.79990154
_cell_angle_beta   63.62071666
_cell_angle_gamma   63.62071666
_symmetry_Int_Tables_number   1
_chemical_formula_structural   Rb2Pt(CN)4
_chemical_formula_sum   'Rb4 Pt2 C8 N8'
_cell_volume   516.76851943
_cell_formula_units_Z   2
loop_
 _symmetry_equiv_pos_site_id
 _symmetry_equiv_pos_as_xyz
  1  'x, y, z'
loop_
 _atom_site_type_symbol
 _atom_site_label
 _atom_site_symmetry_multiplicity
 _atom_site_fract_x
 _atom_site_fract_y
 _atom_site_fract_z
 _atom_site_occupancy
  Rb  Rb0  1  0.00000000  0.00000000  0.00000000  1
  Rb  Rb1  1  0.50000000  0.50000000  0.50000000  1
  Rb  Rb2  1  0.25000000  0.47118200  0.02881800  1
  Rb  Rb3  1  0.75000000  0.52881800  0.97118200  1
  Pt  Pt4  1  0.50000000  0.00000000  0.50000000  1
  Pt  Pt5  1  0.00000000  0.00000000  0.50000000  1
  C  C6  1  0.48442400  0.82603400  0.67396600  1
  C  C7  1  0.51557600  0.17396600  0.32603400  1
  C  C8  1  0.98442400  0.17396600  0.32603400  1
  C  C9  1  0.01557600  0.82603400  0.67396600  1
  C  C10  1  0.32484600  0.17515400  0.67515400  1
  C  C11  1  0.82484600  0.17515400  0.67515400  1
  C  C12  1  0.67515400  0.82484600  0.32484600  1
  C  C13  1  0.17515400  0.82484600  0.32484600  1
  N  N14  1  0.47241800  0.72324400  0.77675600  1
  N  N15  1  0.52758200  0.27675600  0.22324400  1
  N  N16  1  0.97241800  0.27675600  0.22324400  1
  N  N17  1  0.02758200  0.72324400  0.77675600  1
  N  N18  1  0.22132200  0.27867800  0.77867800  1
  N  N19  1  0.72132200  0.27867800  0.77867800  1
  N  N20  1  0.77867800  0.72132200  0.22132200  1
  N  N21  1  0.27867800  0.72132200  0.22132200  1
