# generated using pymatgen
data_GdBN2
_symmetry_space_group_name_H-M   'P 1'
_cell_length_a   6.77749500
_cell_length_b   7.25709884
_cell_length_c   7.25709824
_cell_angle_alpha   110.77105257
_cell_angle_beta   108.13784388
_cell_angle_gamma   108.13784232
_symmetry_Int_Tables_number   1
_chemical_formula_structural   GdBN2
_chemical_formula_sum   'Gd6 B6 N12'
_cell_volume   279.16229599
_cell_formula_units_Z   6
loop_
 _symmetry_equiv_pos_site_id
 _symmetry_equiv_pos_as_xyz
  1  'x, y, z'
loop_
 _atom_site_type_symbol
 _atom_site_label
 _atom_site_symmetry_multiplicity
 _atom_site_fract_x
 _atom_site_fract_y
 _atom_site_fract_z
 _atom_site_occupancy
  Gd  Gd0  1  0.24880100  0.54619100  0.45356200  1
  Gd  Gd1  1  0.79523900  0.54643800  0.09262900  1
  Gd  Gd2  1  0.70260900  0.90737100  0.45380900  1
  Gd  Gd3  1  0.74880100  0.45356200  0.54619100  1
  Gd  Gd4  1  0.20260900  0.45380900  0.90737100  1
  Gd  Gd5  1  0.29523900  0.09262900  0.54643800  1
  B  B6  1  0.86843100  0.12159600  0.24266600  1
  B  B7  1  0.62576500  0.75733400  0.87893000  1
  B  B8  1  0.74683500  0.12107000  0.87840400  1
  B  B9  1  0.36843100  0.24266600  0.12159600  1
  B  B10  1  0.24683500  0.87840400  0.12107000  1
  B  B11  1  0.12576500  0.87893000  0.75733400  1
  N  N12  1  0.87070200  0.24917500  0.12433000  1
  N  N13  1  0.74637200  0.87567000  0.12484500  1
  N  N14  1  0.62152700  0.87515500  0.75082500  1
  N  N15  1  0.37070200  0.12433000  0.24917500  1
  N  N16  1  0.12152700  0.75082500  0.87515500  1
  N  N17  1  0.24637200  0.12484500  0.87567000  1
  N  N18  1  0.50426000  0.51095600  0.75610400  1
  N  N19  1  0.74815600  0.24389600  0.75485200  1
  N  N20  1  0.99330400  0.24514800  0.48904400  1
  N  N21  1  0.00426000  0.75610400  0.51095600  1
  N  N22  1  0.49330400  0.48904400  0.24514800  1
  N  N23  1  0.24815600  0.75485200  0.24389600  1
