# generated using pymatgen
data_NdMnB4
_symmetry_space_group_name_H-M   'P 1'
_cell_length_a   6.02007600
_cell_length_b   11.64702500
_cell_length_c   3.51015600
_cell_angle_alpha   90.00000000
_cell_angle_beta   90.00000000
_cell_angle_gamma   90.00000000
_symmetry_Int_Tables_number   1
_chemical_formula_structural   NdMnB4
_chemical_formula_sum   'Nd4 Mn4 B16'
_cell_volume   246.11801271
_cell_formula_units_Z   4
loop_
 _symmetry_equiv_pos_site_id
 _symmetry_equiv_pos_as_xyz
  1  'x, y, z'
loop_
 _atom_site_type_symbol
 _atom_site_label
 _atom_site_symmetry_multiplicity
 _atom_site_fract_x
 _atom_site_fract_y
 _atom_site_fract_z
 _atom_site_occupancy
  Nd  Nd0  1  0.62528300  0.34897900  0.00000000  1
  Nd  Nd1  1  0.37471700  0.65102100  0.00000000  1
  Nd  Nd2  1  0.12528300  0.15102100  0.00000000  1
  Nd  Nd3  1  0.87471700  0.84897900  0.00000000  1
  Mn  Mn4  1  0.62645400  0.08245000  0.00000000  1
  Mn  Mn5  1  0.37354600  0.91755000  0.00000000  1
  Mn  Mn6  1  0.12645400  0.41755000  0.00000000  1
  Mn  Mn7  1  0.87354600  0.58245000  0.00000000  1
  B  B8  1  0.77705100  0.18140800  0.50000000  1
  B  B9  1  0.22294900  0.81859200  0.50000000  1
  B  B10  1  0.27705100  0.31859200  0.50000000  1
  B  B11  1  0.72294900  0.68140800  0.50000000  1
  B  B12  1  0.85835000  0.03260400  0.50000000  1
  B  B13  1  0.14165000  0.96739600  0.50000000  1
  B  B14  1  0.35835000  0.46739600  0.50000000  1
  B  B15  1  0.64165000  0.53260400  0.50000000  1
  B  B16  1  0.88968300  0.45493500  0.50000000  1
  B  B17  1  0.11031700  0.54506500  0.50000000  1
  B  B18  1  0.38968300  0.04506500  0.50000000  1
  B  B19  1  0.61031700  0.95493500  0.50000000  1
  B  B20  1  0.97725400  0.31223000  0.50000000  1
  B  B21  1  0.02274600  0.68777000  0.50000000  1
  B  B22  1  0.47725400  0.18777000  0.50000000  1
  B  B23  1  0.52274600  0.81223000  0.50000000  1
