# generated using pymatgen
data_BaC2
_symmetry_space_group_name_H-M   'P 1'
_cell_length_a   5.55938100
_cell_length_b   7.76041900
_cell_length_c   9.78491000
_cell_angle_alpha   90.00000000
_cell_angle_beta   90.00000000
_cell_angle_gamma   90.00000000
_symmetry_Int_Tables_number   1
_chemical_formula_structural   BaC2
_chemical_formula_sum   'Ba8 C16'
_cell_volume   422.15160445
_cell_formula_units_Z   8
loop_
 _symmetry_equiv_pos_site_id
 _symmetry_equiv_pos_as_xyz
  1  'x, y, z'
loop_
 _atom_site_type_symbol
 _atom_site_label
 _atom_site_symmetry_multiplicity
 _atom_site_fract_x
 _atom_site_fract_y
 _atom_site_fract_z
 _atom_site_occupancy
  Ba  Ba0  1  0.25000000  0.00426500  0.32005000  1
  Ba  Ba1  1  0.25000000  0.50426500  0.17995000  1
  Ba  Ba2  1  0.75000000  0.99573500  0.67995000  1
  Ba  Ba3  1  0.75000000  0.49573500  0.82005000  1
  Ba  Ba4  1  0.25000000  0.85480100  0.90248600  1
  Ba  Ba5  1  0.25000000  0.35480100  0.59751400  1
  Ba  Ba6  1  0.75000000  0.14519900  0.09751400  1
  Ba  Ba7  1  0.75000000  0.64519900  0.40248600  1
  C  C8  1  0.25000000  0.37260500  0.90854700  1
  C  C9  1  0.25000000  0.87260500  0.59145300  1
  C  C10  1  0.75000000  0.62739500  0.09145300  1
  C  C11  1  0.75000000  0.12739500  0.40854700  1
  C  C12  1  0.25000000  0.21046500  0.00275800  1
  C  C13  1  0.25000000  0.71046500  0.49724200  1
  C  C14  1  0.75000000  0.78953500  0.99724200  1
  C  C15  1  0.75000000  0.28953500  0.50275800  1
  C  C16  1  0.10865800  0.20759500  0.86438500  1
  C  C17  1  0.39134200  0.70759500  0.63561500  1
  C  C18  1  0.60865800  0.79240500  0.13561500  1
  C  C19  1  0.89134200  0.29240500  0.36438500  1
  C  C20  1  0.89134200  0.79240500  0.13561500  1
  C  C21  1  0.60865800  0.29240500  0.36438500  1
  C  C22  1  0.39134200  0.20759500  0.86438500  1
  C  C23  1  0.10865800  0.70759500  0.63561500  1
