# generated using pymatgen
data_GaNCl4
_symmetry_space_group_name_H-M   'P 1'
_cell_length_a   7.24386800
_cell_length_b   9.60370500
_cell_length_c   11.30814400
_cell_angle_alpha   90.00000000
_cell_angle_beta   90.00000000
_cell_angle_gamma   90.00000000
_symmetry_Int_Tables_number   1
_chemical_formula_structural   GaNCl4
_chemical_formula_sum   'Ga4 N4 Cl16'
_cell_volume   786.68463760
_cell_formula_units_Z   4
loop_
 _symmetry_equiv_pos_site_id
 _symmetry_equiv_pos_as_xyz
  1  'x, y, z'
loop_
 _atom_site_type_symbol
 _atom_site_label
 _atom_site_symmetry_multiplicity
 _atom_site_fract_x
 _atom_site_fract_y
 _atom_site_fract_z
 _atom_site_occupancy
  Ga  Ga0  1  0.25000000  0.18868900  0.56616500  1
  Ga  Ga1  1  0.25000000  0.31131100  0.06616500  1
  Ga  Ga2  1  0.75000000  0.81131100  0.43383500  1
  Ga  Ga3  1  0.75000000  0.68868900  0.93383500  1
  N  N4  1  0.25000000  0.82398300  0.18404700  1
  N  N5  1  0.25000000  0.67601700  0.68404700  1
  N  N6  1  0.75000000  0.17601700  0.81595300  1
  N  N7  1  0.75000000  0.32398300  0.31595300  1
  Cl  Cl8  1  0.00508000  0.32506900  0.57635400  1
  Cl  Cl9  1  0.49492000  0.17493100  0.07635400  1
  Cl  Cl10  1  0.50508000  0.67493100  0.42364600  1
  Cl  Cl11  1  0.99492000  0.82506900  0.92364600  1
  Cl  Cl12  1  0.99492000  0.67493100  0.42364600  1
  Cl  Cl13  1  0.50508000  0.82506900  0.92364600  1
  Cl  Cl14  1  0.49492000  0.32506900  0.57635400  1
  Cl  Cl15  1  0.00508000  0.17493100  0.07635400  1
  Cl  Cl16  1  0.25000000  0.05024600  0.72117200  1
  Cl  Cl17  1  0.25000000  0.44975400  0.22117200  1
  Cl  Cl18  1  0.75000000  0.94975400  0.27882800  1
  Cl  Cl19  1  0.75000000  0.55024600  0.77882800  1
  Cl  Cl20  1  0.25000000  0.07527200  0.39835300  1
  Cl  Cl21  1  0.25000000  0.42472800  0.89835300  1
  Cl  Cl22  1  0.75000000  0.92472800  0.60164700  1
  Cl  Cl23  1  0.75000000  0.57527200  0.10164700  1
