# generated using pymatgen
data_Ca(AsO4)2
_symmetry_space_group_name_H-M   'P 1'
_cell_length_a   6.45232139
_cell_length_b   7.22900485
_cell_length_c   8.59759803
_cell_angle_alpha   62.82569206
_cell_angle_beta   62.80503588
_cell_angle_gamma   83.06373484
_symmetry_Int_Tables_number   1
_chemical_formula_structural   Ca(AsO4)2
_chemical_formula_sum   'Ca2 As4 O16'
_cell_volume   315.35652950
_cell_formula_units_Z   2
loop_
 _symmetry_equiv_pos_site_id
 _symmetry_equiv_pos_as_xyz
  1  'x, y, z'
loop_
 _atom_site_type_symbol
 _atom_site_label
 _atom_site_symmetry_multiplicity
 _atom_site_fract_x
 _atom_site_fract_y
 _atom_site_fract_z
 _atom_site_occupancy
  Ca  Ca0  1  0.76949400  0.16567700  0.91642000  1
  Ca  Ca1  1  0.23050600  0.83432300  0.08358000  1
  As  As2  1  0.39502500  0.25125700  0.57571700  1
  As  As3  1  0.60497500  0.74874300  0.42428300  1
  As  As4  1  0.82834300  0.73203100  0.79497900  1
  As  As5  1  0.17165700  0.26796900  0.20502100  1
  O  O6  1  0.18171300  0.09024700  0.80246900  1
  O  O7  1  0.81828700  0.90975300  0.19753100  1
  O  O8  1  0.24454700  0.49212400  0.54366400  1
  O  O9  1  0.75545300  0.50787600  0.45633600  1
  O  O10  1  0.51846300  0.22332500  0.37408500  1
  O  O11  1  0.48153700  0.77667500  0.62591500  1
  O  O12  1  0.60077500  0.32765900  0.63913800  1
  O  O13  1  0.39922500  0.67234100  0.36086200  1
  O  O14  1  0.98286200  0.59766100  0.98488400  1
  O  O15  1  0.01713800  0.40233900  0.01511600  1
  O  O16  1  0.64772500  0.87647600  0.90150900  1
  O  O17  1  0.35227500  0.12352400  0.09849100  1
  O  O18  1  0.73047200  0.50699100  0.83203200  1
  O  O19  1  0.26952800  0.49300900  0.16796800  1
  O  O20  1  0.07542100  0.87434400  0.58706800  1
  O  O21  1  0.92457900  0.12565600  0.41293200  1
