# generated using pymatgen
data_NaH4ClO6
_symmetry_space_group_name_H-M   'P 1'
_cell_length_a   6.37296431
_cell_length_b   7.23130509
_cell_length_c   7.73269840
_cell_angle_alpha   64.16136571
_cell_angle_beta   84.12382482
_cell_angle_gamma   68.66384940
_symmetry_Int_Tables_number   1
_chemical_formula_structural   NaH4ClO6
_chemical_formula_sum   'Na2 H8 Cl2 O12'
_cell_volume   298.07874785
_cell_formula_units_Z   2
loop_
 _symmetry_equiv_pos_site_id
 _symmetry_equiv_pos_as_xyz
  1  'x, y, z'
loop_
 _atom_site_type_symbol
 _atom_site_label
 _atom_site_symmetry_multiplicity
 _atom_site_fract_x
 _atom_site_fract_y
 _atom_site_fract_z
 _atom_site_occupancy
  Na  Na0  1  0.80024200  0.88316600  0.48242100  1
  Na  Na1  1  0.19975800  0.11683400  0.51757900  1
  H  H2  1  0.56472200  0.82999500  0.83378700  1
  H  H3  1  0.43527800  0.17000500  0.16621300  1
  H  H4  1  0.56203100  0.06776000  0.75814400  1
  H  H5  1  0.43796900  0.93224000  0.24185600  1
  H  H6  1  0.73530900  0.36130000  0.35389900  1
  H  H7  1  0.26469100  0.63870000  0.64610100  1
  H  H8  1  0.85788300  0.28917000  0.19835500  1
  H  H9  1  0.14211700  0.71083000  0.80164500  1
  Cl  Cl10  1  0.77856000  0.35741600  0.77818400  1
  Cl  Cl11  1  0.22144000  0.64258400  0.22181600  1
  O  O12  1  0.71738000  0.54690100  0.58818300  1
  O  O13  1  0.28262000  0.45309900  0.41181700  1
  O  O14  1  0.58235300  0.28914500  0.84284600  1
  O  O15  1  0.41764700  0.71085500  0.15715400  1
  O  O16  1  0.96588900  0.17647600  0.76360700  1
  O  O17  1  0.03411100  0.82352400  0.23639300  1
  O  O18  1  0.84125500  0.42213300  0.91404100  1
  O  O19  1  0.15874500  0.57786700  0.08595900  1
  O  O20  1  0.54871200  0.96286100  0.71520100  1
  O  O21  1  0.45128800  0.03713900  0.28479900  1
  O  O22  1  0.85005400  0.23667100  0.33879500  1
  O  O23  1  0.14994600  0.76332900  0.66120500  1
