# generated using pymatgen
data_AuC4(N2O)2
_symmetry_space_group_name_H-M   'P 1'
_cell_length_a   8.40600100
_cell_length_b   6.52468000
_cell_length_c   7.40211505
_cell_angle_alpha   88.84380635
_cell_angle_beta   90.00000000
_cell_angle_gamma   90.00000000
_symmetry_Int_Tables_number   1
_chemical_formula_structural   AuC4(N2O)2
_chemical_formula_sum   'Au2 C8 N8 O4'
_cell_volume   405.89719953
_cell_formula_units_Z   2
loop_
 _symmetry_equiv_pos_site_id
 _symmetry_equiv_pos_as_xyz
  1  'x, y, z'
loop_
 _atom_site_type_symbol
 _atom_site_label
 _atom_site_symmetry_multiplicity
 _atom_site_fract_x
 _atom_site_fract_y
 _atom_site_fract_z
 _atom_site_occupancy
  Au  Au0  1  0.00000000  0.00000000  0.00000000  1
  Au  Au1  1  0.50000000  0.00000000  0.50000000  1
  C  C2  1  0.57848500  0.13146200  0.72591500  1
  C  C3  1  0.07848500  0.86853800  0.77408500  1
  C  C4  1  0.42151500  0.86853800  0.27408500  1
  C  C5  1  0.92151500  0.13146200  0.22591500  1
  C  C6  1  0.34782400  0.23362900  0.45829500  1
  C  C7  1  0.84782400  0.76637100  0.04170500  1
  C  C8  1  0.65217600  0.76637100  0.54170500  1
  C  C9  1  0.15217600  0.23362900  0.95829500  1
  N  N10  1  0.63378700  0.20487700  0.85417500  1
  N  N11  1  0.13378700  0.79512300  0.64582500  1
  N  N12  1  0.36621300  0.79512300  0.14582500  1
  N  N13  1  0.86621300  0.20487700  0.35417500  1
  N  N14  1  0.25893400  0.36832600  0.43446100  1
  N  N15  1  0.75893400  0.63167400  0.06553900  1
  N  N16  1  0.74106600  0.63167400  0.56553900  1
  N  N17  1  0.24106600  0.36832600  0.93446100  1
  O  O18  1  0.06627400  0.59702900  0.41499400  1
  O  O19  1  0.56627400  0.40297100  0.08500600  1
  O  O20  1  0.93372600  0.40297100  0.58500600  1
  O  O21  1  0.43372600  0.59702900  0.91499400  1
