# generated using pymatgen
data_Ho8Rh5C12
_symmetry_space_group_name_H-M   'P 1'
_cell_length_a   3.53404400
_cell_length_b   7.39909167
_cell_length_c   14.05396542
_cell_angle_alpha   94.06534370
_cell_angle_beta   97.22298387
_cell_angle_gamma   90.00000000
_symmetry_Int_Tables_number   1
_chemical_formula_structural   Ho8Rh5C12
_chemical_formula_sum   'Ho8 Rh5 C12'
_cell_volume   363.64476028
_cell_formula_units_Z   1
loop_
 _symmetry_equiv_pos_site_id
 _symmetry_equiv_pos_as_xyz
  1  'x, y, z'
loop_
 _atom_site_type_symbol
 _atom_site_label
 _atom_site_symmetry_multiplicity
 _atom_site_fract_x
 _atom_site_fract_y
 _atom_site_fract_z
 _atom_site_occupancy
  Ho  Ho0  1  0.29352800  0.88413800  0.58705600  1
  Ho  Ho1  1  0.70647200  0.11586200  0.41294400  1
  Ho  Ho2  1  0.30023200  0.39081200  0.60046400  1
  Ho  Ho3  1  0.69976800  0.60918800  0.39953600  1
  Ho  Ho4  1  0.41195000  0.17166700  0.82390000  1
  Ho  Ho5  1  0.58805000  0.82833300  0.17610000  1
  Ho  Ho6  1  0.45292300  0.70343500  0.90584700  1
  Ho  Ho7  1  0.54707700  0.29656500  0.09415300  1
  Rh  Rh8  1  0.00000000  0.00000000  0.00000000  1
  Rh  Rh9  1  0.11012700  0.49326400  0.22025500  1
  Rh  Rh10  1  0.88987300  0.50673600  0.77974500  1
  Rh  Rh11  1  0.11652900  0.12739000  0.23305800  1
  Rh  Rh12  1  0.88347100  0.87261000  0.76694200  1
  C  C13  1  0.02275400  0.75493600  0.04550800  1
  C  C14  1  0.97724600  0.24506400  0.95449200  1
  C  C15  1  0.04777700  0.61379700  0.09555500  1
  C  C16  1  0.95222300  0.38620300  0.90444500  1
  C  C17  1  0.16850700  0.34707000  0.33701300  1
  C  C18  1  0.83149300  0.65293000  0.66298700  1
  C  C19  1  0.21651400  0.36484300  0.43302800  1
  C  C20  1  0.78348600  0.63515700  0.56697200  1
  C  C21  1  0.15864100  0.87316200  0.31728200  1
  C  C22  1  0.84135900  0.12683800  0.68271800  1
  C  C23  1  0.20725700  0.86899900  0.41451300  1
  C  C24  1  0.79274300  0.13100100  0.58548700  1
