# generated using pymatgen
data_CaPBrO8
_symmetry_space_group_name_H-M   'P 1'
_cell_length_a   10.97103554
_cell_length_b   10.97103554
_cell_length_c   7.05533326
_cell_angle_alpha   85.53459955
_cell_angle_beta   85.53459955
_cell_angle_gamma   33.93508030
_symmetry_Int_Tables_number   1
_chemical_formula_structural   CaPBrO8
_chemical_formula_sum   'Ca2 P2 Br2 O16'
_cell_volume   472.49844251
_cell_formula_units_Z   2
loop_
 _symmetry_equiv_pos_site_id
 _symmetry_equiv_pos_as_xyz
  1  'x, y, z'
loop_
 _atom_site_type_symbol
 _atom_site_label
 _atom_site_symmetry_multiplicity
 _atom_site_fract_x
 _atom_site_fract_y
 _atom_site_fract_z
 _atom_site_occupancy
  Ca  Ca0  1  0.34789800  0.65210200  0.25000000  1
  Ca  Ca1  1  0.65210200  0.34789800  0.75000000  1
  P  P2  1  0.83469600  0.16530400  0.25000000  1
  P  P3  1  0.16530400  0.83469600  0.75000000  1
  Br  Br4  1  0.50000000  0.00000000  0.50000000  1
  Br  Br5  1  0.00000000  0.50000000  0.00000000  1
  O  O6  1  0.94798800  0.94416000  0.25394600  1
  O  O7  1  0.05584000  0.05201200  0.24605400  1
  O  O8  1  0.05201200  0.05584000  0.74605400  1
  O  O9  1  0.94416000  0.94798800  0.75394600  1
  O  O10  1  0.68504300  0.30945300  0.42255700  1
  O  O11  1  0.69054700  0.31495700  0.07744300  1
  O  O12  1  0.31495700  0.69054700  0.57744300  1
  O  O13  1  0.30945300  0.68504300  0.92255700  1
  O  O14  1  0.20294900  0.50860800  0.34118400  1
  O  O15  1  0.49139200  0.79705100  0.15881600  1
  O  O16  1  0.79705100  0.49139200  0.65881600  1
  O  O17  1  0.50860800  0.20294900  0.84118400  1
  O  O18  1  0.93636600  0.38861000  0.53109800  1
  O  O19  1  0.61139000  0.06363400  0.96890200  1
  O  O20  1  0.06363400  0.61139000  0.46890200  1
  O  O21  1  0.38861000  0.93636600  0.03109800  1
