# generated using pymatgen
data_Rb3NiO2
_symmetry_space_group_name_H-M   'P 1'
_cell_length_a   6.33921358
_cell_length_b   6.33917551
_cell_length_c   14.90125405
_cell_angle_alpha   89.95893207
_cell_angle_beta   90.09804212
_cell_angle_gamma   90.02074300
_symmetry_Int_Tables_number   1
_chemical_formula_structural   Rb3NiO2
_chemical_formula_sum   'Rb12 Ni4 O8'
_cell_volume   598.81159872
_cell_formula_units_Z   4
loop_
 _symmetry_equiv_pos_site_id
 _symmetry_equiv_pos_as_xyz
  1  'x, y, z'
loop_
 _atom_site_type_symbol
 _atom_site_label
 _atom_site_symmetry_multiplicity
 _atom_site_fract_x
 _atom_site_fract_y
 _atom_site_fract_z
 _atom_site_occupancy
  Rb  Rb0  1  0.95683400  0.04321800  0.74958200  1
  Rb  Rb1  1  0.04321800  0.95680700  0.25034200  1
  Rb  Rb2  1  0.54335000  0.54310900  0.50037900  1
  Rb  Rb3  1  0.45680300  0.45690700  0.99963700  1
  Rb  Rb4  1  0.48168400  0.02074900  0.62433700  1
  Rb  Rb5  1  0.51830500  0.97946600  0.12419400  1
  Rb  Rb6  1  0.52081200  0.01837900  0.37355100  1
  Rb  Rb7  1  0.47964800  0.98106500  0.87464700  1
  Rb  Rb8  1  0.97964700  0.51840300  0.87632200  1
  Rb  Rb9  1  0.02016300  0.48122600  0.37519900  1
  Rb  Rb10  1  0.01836000  0.52039000  0.62590400  1
  Rb  Rb11  1  0.98181700  0.47969200  0.12579300  1
  Ni  Ni12  1  0.50362600  0.49637900  0.25023700  1
  Ni  Ni13  1  0.99615400  0.99667500  0.99987500  1
  Ni  Ni14  1  0.49624900  0.50384100  0.74979100  1
  Ni  Ni15  1  0.00358400  0.00373900  0.50026100  1
  O  O16  1  0.69480900  0.70528700  0.74004700  1
  O  O17  1  0.30530000  0.29455000  0.24069700  1
  O  O18  1  0.20495800  0.80529500  0.49084000  1
  O  O19  1  0.79449100  0.19490400  0.98992300  1
  O  O20  1  0.29491700  0.30514100  0.75934500  1
  O  O21  1  0.70547500  0.69477500  0.25988000  1
  O  O22  1  0.80537300  0.20509300  0.51014700  1
  O  O23  1  0.19442100  0.79491100  0.00907000  1
