# generated using pymatgen
data_KEr2Cu3Se5
_symmetry_space_group_name_H-M   'P 1'
_cell_length_a   7.49408447
_cell_length_b   7.49408447
_cell_length_c   17.02042100
_cell_angle_alpha   90.00000000
_cell_angle_beta   90.00000000
_cell_angle_gamma   148.16041736
_symmetry_Int_Tables_number   1
_chemical_formula_structural   KEr2Cu3Se5
_chemical_formula_sum   'K2 Er4 Cu6 Se10'
_cell_volume   504.27237698
_cell_formula_units_Z   2
loop_
 _symmetry_equiv_pos_site_id
 _symmetry_equiv_pos_as_xyz
  1  'x, y, z'
loop_
 _atom_site_type_symbol
 _atom_site_label
 _atom_site_symmetry_multiplicity
 _atom_site_fract_x
 _atom_site_fract_y
 _atom_site_fract_z
 _atom_site_occupancy
  K  K0  1  0.93777600  0.06222400  0.25000000  1
  K  K1  1  0.06222400  0.93777600  0.75000000  1
  Er  Er2  1  0.80781000  0.19219000  0.90688700  1
  Er  Er3  1  0.19219000  0.80781000  0.09311300  1
  Er  Er4  1  0.80781000  0.19219000  0.59311300  1
  Er  Er5  1  0.19219000  0.80781000  0.40688700  1
  Cu  Cu6  1  0.34039600  0.65960400  0.75000000  1
  Cu  Cu7  1  0.65960400  0.34039600  0.25000000  1
  Cu  Cu8  1  0.58367800  0.41632200  0.97009700  1
  Cu  Cu9  1  0.41632200  0.58367800  0.02990300  1
  Cu  Cu10  1  0.58367800  0.41632200  0.52990300  1
  Cu  Cu11  1  0.41632200  0.58367800  0.47009700  1
  Se  Se12  1  0.44013700  0.55986300  0.88163800  1
  Se  Se13  1  0.55986300  0.44013700  0.11836200  1
  Se  Se14  1  0.44013700  0.55986300  0.61836200  1
  Se  Se15  1  0.55986300  0.44013700  0.38163800  1
  Se  Se16  1  0.75087000  0.24913000  0.75000000  1
  Se  Se17  1  0.24913000  0.75087000  0.25000000  1
  Se  Se18  1  0.83402700  0.16597300  0.07048000  1
  Se  Se19  1  0.16597300  0.83402700  0.92952000  1
  Se  Se20  1  0.83402700  0.16597300  0.42952000  1
  Se  Se21  1  0.16597300  0.83402700  0.57048000  1
