# generated using pymatgen
data_Pr2Mn3(SbS3)4
_symmetry_space_group_name_H-M   'P 1'
_cell_length_a   10.20327448
_cell_length_b   10.20327448
_cell_length_c   14.95364829
_cell_angle_alpha   54.44105045
_cell_angle_beta   54.44105045
_cell_angle_gamma   22.05922705
_symmetry_Int_Tables_number   1
_chemical_formula_structural   Pr2Mn3(SbS3)4
_chemical_formula_sum   'Pr2 Mn3 Sb4 S12'
_cell_volume   471.00003347
_cell_formula_units_Z   1
loop_
 _symmetry_equiv_pos_site_id
 _symmetry_equiv_pos_as_xyz
  1  'x, y, z'
loop_
 _atom_site_type_symbol
 _atom_site_label
 _atom_site_symmetry_multiplicity
 _atom_site_fract_x
 _atom_site_fract_y
 _atom_site_fract_z
 _atom_site_occupancy
  Pr  Pr0  1  0.24045800  0.24045800  0.86277500  1
  Pr  Pr1  1  0.75954200  0.75954200  0.13722500  1
  Mn  Mn2  1  0.19930400  0.19930400  0.62027200  1
  Mn  Mn3  1  0.80069600  0.80069600  0.37972800  1
  Mn  Mn4  1  0.00000000  0.00000000  0.00000000  1
  Sb  Sb5  1  0.10643700  0.10643700  0.45212700  1
  Sb  Sb6  1  0.89356300  0.89356300  0.54787300  1
  Sb  Sb7  1  0.46154100  0.46154100  0.81454400  1
  Sb  Sb8  1  0.53845900  0.53845900  0.18545600  1
  S  S9  1  0.05817600  0.05817600  0.80208200  1
  S  S10  1  0.94182400  0.94182400  0.19791800  1
  S  S11  1  0.59956600  0.59956600  0.97895600  1
  S  S12  1  0.40043400  0.40043400  0.02104400  1
  S  S13  1  0.83247700  0.83247700  0.89490200  1
  S  S14  1  0.16752300  0.16752300  0.10509800  1
  S  S15  1  0.41116600  0.41116600  0.65004500  1
  S  S16  1  0.58883400  0.58883400  0.34995500  1
  S  S17  1  0.25742900  0.25742900  0.29309700  1
  S  S18  1  0.74257100  0.74257100  0.70690300  1
  S  S19  1  0.34281700  0.34281700  0.45243800  1
  S  S20  1  0.65718300  0.65718300  0.54756200  1
