# generated using pymatgen
data_HfBi2
_symmetry_space_group_name_H-M   'P 1'
_cell_length_a   4.05142700
_cell_length_b   10.29784200
_cell_length_c   15.78848200
_cell_angle_alpha   90.00000000
_cell_angle_beta   90.00000000
_cell_angle_gamma   90.00000000
_symmetry_Int_Tables_number   1
_chemical_formula_structural   HfBi2
_chemical_formula_sum   'Hf8 Bi16'
_cell_volume   658.71054894
_cell_formula_units_Z   8
loop_
 _symmetry_equiv_pos_site_id
 _symmetry_equiv_pos_as_xyz
  1  'x, y, z'
loop_
 _atom_site_type_symbol
 _atom_site_label
 _atom_site_symmetry_multiplicity
 _atom_site_fract_x
 _atom_site_fract_y
 _atom_site_fract_z
 _atom_site_occupancy
  Hf  Hf0  1  0.00000000  0.84073200  0.49575400  1
  Hf  Hf1  1  0.00000000  0.15926800  0.50424600  1
  Hf  Hf2  1  0.50000000  0.65926800  0.99575400  1
  Hf  Hf3  1  0.50000000  0.34073200  0.00424600  1
  Hf  Hf4  1  0.50000000  0.52182600  0.25295300  1
  Hf  Hf5  1  0.50000000  0.47817400  0.74704700  1
  Hf  Hf6  1  0.00000000  0.97817400  0.75295300  1
  Hf  Hf7  1  0.00000000  0.02182600  0.24704700  1
  Bi  Bi8  1  0.50000000  0.62445100  0.44360300  1
  Bi  Bi9  1  0.50000000  0.37554900  0.55639700  1
  Bi  Bi10  1  0.00000000  0.87554900  0.94360300  1
  Bi  Bi11  1  0.00000000  0.12445100  0.05639700  1
  Bi  Bi12  1  0.50000000  0.84485600  0.14934400  1
  Bi  Bi13  1  0.50000000  0.15514400  0.85065600  1
  Bi  Bi14  1  0.00000000  0.65514400  0.64934400  1
  Bi  Bi15  1  0.00000000  0.34485600  0.35065600  1
  Bi  Bi16  1  0.00000000  0.73561300  0.30021200  1
  Bi  Bi17  1  0.00000000  0.26438700  0.69978800  1
  Bi  Bi18  1  0.50000000  0.76438700  0.80021200  1
  Bi  Bi19  1  0.50000000  0.23561300  0.19978800  1
  Bi  Bi20  1  0.00000000  0.51280300  0.10755100  1
  Bi  Bi21  1  0.00000000  0.48719700  0.89244900  1
  Bi  Bi22  1  0.50000000  0.98719700  0.60755100  1
  Bi  Bi23  1  0.50000000  0.01280300  0.39244900  1
