# generated using pymatgen
data_La3BeCrS7
_symmetry_space_group_name_H-M   'P 1'
_cell_length_a   10.16956060
_cell_length_b   10.16956060
_cell_length_c   5.97545600
_cell_angle_alpha   90.00000000
_cell_angle_beta   90.00000000
_cell_angle_gamma   120.00000391
_symmetry_Int_Tables_number   1
_chemical_formula_structural   La3BeCrS7
_chemical_formula_sum   'La6 Be2 Cr2 S14'
_cell_volume   535.18760276
_cell_formula_units_Z   2
loop_
 _symmetry_equiv_pos_site_id
 _symmetry_equiv_pos_as_xyz
  1  'x, y, z'
loop_
 _atom_site_type_symbol
 _atom_site_label
 _atom_site_symmetry_multiplicity
 _atom_site_fract_x
 _atom_site_fract_y
 _atom_site_fract_z
 _atom_site_occupancy
  La  La0  1  0.86331700  0.25260300  0.25226700  1
  La  La1  1  0.74739700  0.61071400  0.25226700  1
  La  La2  1  0.38928600  0.13668300  0.25226700  1
  La  La3  1  0.13668300  0.74739700  0.75226700  1
  La  La4  1  0.25260300  0.38928600  0.75226700  1
  La  La5  1  0.61071400  0.86331700  0.75226700  1
  Be  Be6  1  0.66666700  0.33333300  0.83883900  1
  Be  Be7  1  0.33333300  0.66666700  0.33883900  1
  Cr  Cr8  1  0.00000000  0.00000000  0.48259700  1
  Cr  Cr9  1  0.00000000  0.00000000  0.98259700  1
  S  S10  1  0.92537400  0.14116500  0.73264700  1
  S  S11  1  0.85883500  0.78420900  0.73264700  1
  S  S12  1  0.21579100  0.07462600  0.73264700  1
  S  S13  1  0.07462600  0.85883500  0.23264700  1
  S  S14  1  0.14116500  0.21579100  0.23264700  1
  S  S15  1  0.78420900  0.92537400  0.23264700  1
  S  S16  1  0.59395000  0.11267700  0.96817700  1
  S  S17  1  0.88732300  0.48127400  0.96817700  1
  S  S18  1  0.51872600  0.40605000  0.96817700  1
  S  S19  1  0.40605000  0.88732300  0.46817700  1
  S  S20  1  0.11267700  0.51872600  0.46817700  1
  S  S21  1  0.48127400  0.59395000  0.46817700  1
  S  S22  1  0.66666700  0.33333300  0.48740900  1
  S  S23  1  0.33333300  0.66666700  0.98740900  1
