# generated using pymatgen
data_Pr4MnS7
_symmetry_space_group_name_H-M   'P 1'
_cell_length_a   9.87243121
_cell_length_b   9.87243121
_cell_length_c   7.10047900
_cell_angle_alpha   90.00000000
_cell_angle_beta   90.00000000
_cell_angle_gamma   119.99999472
_symmetry_Int_Tables_number   1
_chemical_formula_structural   Pr4MnS7
_chemical_formula_sum   'Pr8 Mn2 S14'
_cell_volume   599.33071444
_cell_formula_units_Z   2
loop_
 _symmetry_equiv_pos_site_id
 _symmetry_equiv_pos_as_xyz
  1  'x, y, z'
loop_
 _atom_site_type_symbol
 _atom_site_label
 _atom_site_symmetry_multiplicity
 _atom_site_fract_x
 _atom_site_fract_y
 _atom_site_fract_z
 _atom_site_occupancy
  Pr  Pr0  1  0.80202400  0.17992300  0.22438000  1
  Pr  Pr1  1  0.37789900  0.19797600  0.22438000  1
  Pr  Pr2  1  0.82007700  0.62210100  0.22438000  1
  Pr  Pr3  1  0.19797600  0.82007700  0.72438000  1
  Pr  Pr4  1  0.62210100  0.80202400  0.72438000  1
  Pr  Pr5  1  0.17992300  0.37789900  0.72438000  1
  Pr  Pr6  1  0.66666700  0.33333300  0.67751300  1
  Pr  Pr7  1  0.33333300  0.66666700  0.17751300  1
  Mn  Mn8  1  0.00000000  0.00000000  0.97875500  1
  Mn  Mn9  1  0.00000000  0.00000000  0.47875500  1
  S  S10  1  0.87224500  0.12006900  0.82896200  1
  S  S11  1  0.24782500  0.12775500  0.82896200  1
  S  S12  1  0.87993100  0.75217500  0.82896200  1
  S  S13  1  0.12775500  0.87993100  0.32896200  1
  S  S14  1  0.75217500  0.87224500  0.32896200  1
  S  S15  1  0.12006900  0.24782500  0.32896200  1
  S  S16  1  0.92720700  0.45639600  0.45972900  1
  S  S17  1  0.52918900  0.07279300  0.45972900  1
  S  S18  1  0.54360400  0.47081100  0.45972900  1
  S  S19  1  0.07279300  0.54360400  0.95972900  1
  S  S20  1  0.47081100  0.92720700  0.95972900  1
  S  S21  1  0.45639600  0.52918900  0.95972900  1
  S  S22  1  0.66666700  0.33333300  0.05757600  1
  S  S23  1  0.33333300  0.66666700  0.55757600  1
