# generated using pymatgen
data_V2CuO8
_symmetry_space_group_name_H-M   'P 1'
_cell_length_a   5.65358600
_cell_length_b   5.75675600
_cell_length_c   10.99928667
_cell_angle_alpha   88.16661378
_cell_angle_beta   90.00000000
_cell_angle_gamma   90.00000000
_symmetry_Int_Tables_number   1
_chemical_formula_structural   V2CuO8
_chemical_formula_sum   'V4 Cu2 O16'
_cell_volume   357.80299257
_cell_formula_units_Z   2
loop_
 _symmetry_equiv_pos_site_id
 _symmetry_equiv_pos_as_xyz
  1  'x, y, z'
loop_
 _atom_site_type_symbol
 _atom_site_label
 _atom_site_symmetry_multiplicity
 _atom_site_fract_x
 _atom_site_fract_y
 _atom_site_fract_z
 _atom_site_occupancy
  V  V0  1  0.44955800  0.76551000  0.15993100  1
  V  V1  1  0.44955800  0.23449000  0.34006900  1
  V  V2  1  0.55044200  0.23449000  0.84006900  1
  V  V3  1  0.55044200  0.76551000  0.65993100  1
  Cu  Cu4  1  0.00000000  0.00000000  0.00000000  1
  Cu  Cu5  1  0.00000000  0.00000000  0.50000000  1
  O  O6  1  0.55759000  0.00000000  0.25000000  1
  O  O7  1  0.44241000  0.00000000  0.75000000  1
  O  O8  1  0.15302200  0.82818100  0.12131200  1
  O  O9  1  0.15302200  0.17181900  0.37868800  1
  O  O10  1  0.84697800  0.17181900  0.87868800  1
  O  O11  1  0.84697800  0.82818100  0.62131200  1
  O  O12  1  0.45367200  0.50000000  0.25000000  1
  O  O13  1  0.54632800  0.50000000  0.75000000  1
  O  O14  1  0.62001200  0.75146600  0.04039800  1
  O  O15  1  0.62001200  0.24853400  0.45960200  1
  O  O16  1  0.37998800  0.24853400  0.95960200  1
  O  O17  1  0.37998800  0.75146600  0.54039800  1
  O  O18  1  0.06186700  0.77085700  0.90408300  1
  O  O19  1  0.06186700  0.22914300  0.59591700  1
  O  O20  1  0.93813300  0.22914300  0.09591700  1
  O  O21  1  0.93813300  0.77085700  0.40408300  1
