# generated using pymatgen
data_Na6WN4
_symmetry_space_group_name_H-M   'P 1'
_cell_length_a   7.52857700
_cell_length_b   7.52857700
_cell_length_c   5.81955800
_cell_angle_alpha   90.00000000
_cell_angle_beta   90.00000000
_cell_angle_gamma   90.00000000
_symmetry_Int_Tables_number   1
_chemical_formula_structural   Na6WN4
_chemical_formula_sum   'Na12 W2 N8'
_cell_volume   329.84947265
_cell_formula_units_Z   2
loop_
 _symmetry_equiv_pos_site_id
 _symmetry_equiv_pos_as_xyz
  1  'x, y, z'
loop_
 _atom_site_type_symbol
 _atom_site_label
 _atom_site_symmetry_multiplicity
 _atom_site_fract_x
 _atom_site_fract_y
 _atom_site_fract_z
 _atom_site_occupancy
  Na  Na0  1  0.50000000  0.00000000  0.63746300  1
  Na  Na1  1  0.00000000  0.50000000  0.86253700  1
  Na  Na2  1  0.00000000  0.50000000  0.36253700  1
  Na  Na3  1  0.50000000  0.00000000  0.13746300  1
  Na  Na4  1  0.20594300  0.20594300  0.50000000  1
  Na  Na5  1  0.79405700  0.79405700  0.50000000  1
  Na  Na6  1  0.70594300  0.70594300  0.00000000  1
  Na  Na7  1  0.29405700  0.29405700  0.00000000  1
  Na  Na8  1  0.20594300  0.79405700  0.50000000  1
  Na  Na9  1  0.79405700  0.20594300  0.50000000  1
  Na  Na10  1  0.70594300  0.29405700  0.00000000  1
  Na  Na11  1  0.29405700  0.70594300  0.00000000  1
  W  W12  1  0.50000000  0.50000000  0.50000000  1
  W  W13  1  0.00000000  0.00000000  0.00000000  1
  N  N14  1  0.50000000  0.28467000  0.32403700  1
  N  N15  1  0.50000000  0.71533000  0.32403700  1
  N  N16  1  0.00000000  0.78467000  0.17596300  1
  N  N17  1  0.00000000  0.21533000  0.17596300  1
  N  N18  1  0.28467000  0.50000000  0.67596300  1
  N  N19  1  0.71533000  0.50000000  0.67596300  1
  N  N20  1  0.78467000  0.00000000  0.82403700  1
  N  N21  1  0.21533000  0.00000000  0.82403700  1
