# generated using pymatgen
data_Ho5Mg24
_symmetry_space_group_name_H-M   'P 1'
_cell_length_a   9.75270525
_cell_length_b   9.75270525
_cell_length_c   9.75270525
_cell_angle_alpha   109.47122063
_cell_angle_beta   109.47122063
_cell_angle_gamma   109.47122063
_symmetry_Int_Tables_number   1
_chemical_formula_structural   Ho5Mg24
_chemical_formula_sum   'Ho5 Mg24'
_cell_volume   714.09074746
_cell_formula_units_Z   1
loop_
 _symmetry_equiv_pos_site_id
 _symmetry_equiv_pos_as_xyz
  1  'x, y, z'
loop_
 _atom_site_type_symbol
 _atom_site_label
 _atom_site_symmetry_multiplicity
 _atom_site_fract_x
 _atom_site_fract_y
 _atom_site_fract_z
 _atom_site_occupancy
  Ho  Ho0  1  0.00000000  0.00000000  0.00000000  1
  Ho  Ho1  1  0.63137800  0.00000000  0.00000000  1
  Ho  Ho2  1  0.00000000  0.63137800  0.00000000  1
  Ho  Ho3  1  0.00000000  0.00000000  0.63137800  1
  Ho  Ho4  1  0.36862200  0.36862200  0.36862200  1
  Mg  Mg5  1  0.39379200  0.67860500  0.00000000  1
  Mg  Mg6  1  0.71518700  0.32139500  0.32139500  1
  Mg  Mg7  1  0.39379100  0.00000000  0.67860500  1
  Mg  Mg8  1  0.67860500  0.39379200  0.00000000  1
  Mg  Mg9  1  0.00000000  0.39379100  0.67860500  1
  Mg  Mg10  1  0.32139500  0.71518700  0.32139500  1
  Mg  Mg11  1  0.32139500  0.32139500  0.71518700  1
  Mg  Mg12  1  0.00000000  0.67860500  0.39379200  1
  Mg  Mg13  1  0.67860500  0.00000000  0.39379200  1
  Mg  Mg14  1  0.60620800  0.60620800  0.28481300  1
  Mg  Mg15  1  0.28481300  0.60620800  0.60620800  1
  Mg  Mg16  1  0.60620800  0.28481300  0.60620800  1
  Mg  Mg17  1  0.37065300  0.19146500  0.00000000  1
  Mg  Mg18  1  0.17918800  0.80853500  0.80853500  1
  Mg  Mg19  1  0.37065300  0.00000000  0.19146500  1
  Mg  Mg20  1  0.19146500  0.37065300  0.00000000  1
  Mg  Mg21  1  0.00000000  0.37065300  0.19146500  1
  Mg  Mg22  1  0.80853500  0.17918800  0.80853500  1
  Mg  Mg23  1  0.80853500  0.80853500  0.17918800  1
  Mg  Mg24  1  0.00000000  0.19146500  0.37065300  1
  Mg  Mg25  1  0.19146500  0.00000000  0.37065300  1
  Mg  Mg26  1  0.62934700  0.62934700  0.82081200  1
  Mg  Mg27  1  0.82081200  0.62934700  0.62934700  1
  Mg  Mg28  1  0.62934700  0.82081200  0.62934700  1
