# generated using pymatgen
data_HgSNClO3
_symmetry_space_group_name_H-M   'P 1'
_cell_length_a   5.45438600
_cell_length_b   7.16682400
_cell_length_c   15.46833700
_cell_angle_alpha   90.00000000
_cell_angle_beta   90.00000000
_cell_angle_gamma   90.00000000
_symmetry_Int_Tables_number   1
_chemical_formula_structural   HgSNClO3
_chemical_formula_sum   'Hg4 S4 N4 Cl4 O12'
_cell_volume   604.66695315
_cell_formula_units_Z   4
loop_
 _symmetry_equiv_pos_site_id
 _symmetry_equiv_pos_as_xyz
  1  'x, y, z'
loop_
 _atom_site_type_symbol
 _atom_site_label
 _atom_site_symmetry_multiplicity
 _atom_site_fract_x
 _atom_site_fract_y
 _atom_site_fract_z
 _atom_site_occupancy
  Hg  Hg0  1  0.25000000  0.20808100  0.00454400  1
  Hg  Hg1  1  0.25000000  0.29191900  0.50454400  1
  Hg  Hg2  1  0.75000000  0.79191900  0.99545600  1
  Hg  Hg3  1  0.75000000  0.70808100  0.49545600  1
  S  S4  1  0.25000000  0.47304900  0.12116700  1
  S  S5  1  0.25000000  0.02695100  0.62116700  1
  S  S6  1  0.75000000  0.52695100  0.87883300  1
  S  S7  1  0.75000000  0.97304900  0.37883300  1
  N  N8  1  0.75000000  0.09308400  0.77313700  1
  N  N9  1  0.75000000  0.40691600  0.27313700  1
  N  N10  1  0.25000000  0.90691600  0.22686300  1
  N  N11  1  0.25000000  0.59308400  0.72686300  1
  Cl  Cl12  1  0.25000000  0.92162400  0.91809900  1
  Cl  Cl13  1  0.25000000  0.57837600  0.41809900  1
  Cl  Cl14  1  0.75000000  0.07837600  0.08190100  1
  Cl  Cl15  1  0.75000000  0.42162400  0.58190100  1
  O  O16  1  0.25000000  0.34423500  0.19334900  1
  O  O17  1  0.25000000  0.15576500  0.69334900  1
  O  O18  1  0.75000000  0.65576500  0.80665100  1
  O  O19  1  0.75000000  0.84423500  0.30665100  1
  O  O20  1  0.02167300  0.57162600  0.10193500  1
  O  O21  1  0.47832700  0.92837400  0.60193500  1
  O  O22  1  0.52167300  0.42837400  0.89806500  1
  O  O23  1  0.97832700  0.07162600  0.39806500  1
  O  O24  1  0.97832700  0.42837400  0.89806500  1
  O  O25  1  0.52167300  0.07162600  0.39806500  1
  O  O26  1  0.47832700  0.57162600  0.10193500  1
  O  O27  1  0.02167300  0.92837400  0.60193500  1
