# generated using pymatgen
data_CsC2N3
_symmetry_space_group_name_H-M   'P 1'
_cell_length_a   4.89584909
_cell_length_b   4.89584909
_cell_length_c   23.48484100
_cell_angle_alpha   90.00000000
_cell_angle_beta   90.00000000
_cell_angle_gamma   120.00001473
_symmetry_Int_Tables_number   1
_chemical_formula_structural   CsC2N3
_chemical_formula_sum   'Cs3 C6 N9'
_cell_volume   487.49956973
_cell_formula_units_Z   3
loop_
 _symmetry_equiv_pos_site_id
 _symmetry_equiv_pos_as_xyz
  1  'x, y, z'
loop_
 _atom_site_type_symbol
 _atom_site_label
 _atom_site_symmetry_multiplicity
 _atom_site_fract_x
 _atom_site_fract_y
 _atom_site_fract_z
 _atom_site_occupancy
  Cs  Cs0  1  0.00000000  0.30050400  0.66666700  1
  Cs  Cs1  1  0.30050400  0.00000000  0.33333300  1
  Cs  Cs2  1  0.69949600  0.69949600  0.00000000  1
  C  C3  1  0.98000300  0.28191500  0.21637100  1
  C  C4  1  0.30191200  0.01999700  0.88303800  1
  C  C5  1  0.71808500  0.69808800  0.54970400  1
  C  C6  1  0.01999700  0.30191200  0.11696200  1
  C  C7  1  0.28191500  0.98000300  0.78362900  1
  C  C8  1  0.69808800  0.71808500  0.45029600  1
  N  N9  1  0.00000000  0.18088400  0.16666700  1
  N  N10  1  0.18088400  0.00000000  0.83333300  1
  N  N11  1  0.81911600  0.81911600  0.50000000  1
  N  N12  1  0.96174500  0.34392800  0.26461100  1
  N  N13  1  0.38218300  0.03825500  0.93127800  1
  N  N14  1  0.65607200  0.61781700  0.59794500  1
  N  N15  1  0.03825500  0.38218300  0.06872200  1
  N  N16  1  0.34392800  0.96174500  0.73538900  1
  N  N17  1  0.61781700  0.65607200  0.40205500  1
