# generated using pymatgen
data_BaNdInO4
_symmetry_space_group_name_H-M   'P 1'
_cell_length_a   6.12815500
_cell_length_b   8.36845600
_cell_length_c   9.23681558
_cell_angle_alpha   76.60178317
_cell_angle_beta   90.00000000
_cell_angle_gamma   90.00000000
_symmetry_Int_Tables_number   1
_chemical_formula_structural   BaNdInO4
_chemical_formula_sum   'Ba4 Nd4 In4 O16'
_cell_volume   460.80094775
_cell_formula_units_Z   4
loop_
 _symmetry_equiv_pos_site_id
 _symmetry_equiv_pos_as_xyz
  1  'x, y, z'
loop_
 _atom_site_type_symbol
 _atom_site_label
 _atom_site_symmetry_multiplicity
 _atom_site_fract_x
 _atom_site_fract_y
 _atom_site_fract_z
 _atom_site_occupancy
  Ba  Ba0  1  0.75165400  0.46879700  0.14657000  1
  Ba  Ba1  1  0.25165400  0.03120300  0.85343000  1
  Ba  Ba2  1  0.24834600  0.53120300  0.85343000  1
  Ba  Ba3  1  0.74834600  0.96879700  0.14657000  1
  Nd  Nd4  1  0.24599800  0.39323700  0.45273100  1
  Nd  Nd5  1  0.74599800  0.10676300  0.54726900  1
  Nd  Nd6  1  0.75400200  0.60676300  0.54726900  1
  Nd  Nd7  1  0.25400200  0.89323700  0.45273100  1
  In  In8  1  0.75569100  0.29349700  0.83097100  1
  In  In9  1  0.25569100  0.20650300  0.16902900  1
  In  In10  1  0.24430900  0.70650300  0.16902900  1
  In  In11  1  0.74430900  0.79349700  0.83097100  1
  O  O12  1  0.30523600  0.45252700  0.18405600  1
  O  O13  1  0.80523600  0.04747300  0.81594400  1
  O  O14  1  0.69476400  0.54747300  0.81594400  1
  O  O15  1  0.19476400  0.95252700  0.18405600  1
  O  O16  1  0.48887800  0.22848300  0.98774700  1
  O  O17  1  0.98887800  0.27151700  0.01225300  1
  O  O18  1  0.51112200  0.77151700  0.01225300  1
  O  O19  1  0.01112200  0.72848300  0.98774700  1
  O  O20  1  0.04383300  0.16995300  0.38777200  1
  O  O21  1  0.54383300  0.33004700  0.61222800  1
  O  O22  1  0.95616700  0.83004700  0.61222800  1
  O  O23  1  0.45616700  0.66995300  0.38777200  1
  O  O24  1  0.00612900  0.37404900  0.64772400  1
  O  O25  1  0.50612900  0.12595100  0.35227600  1
  O  O26  1  0.99387100  0.62595100  0.35227600  1
  O  O27  1  0.49387100  0.87404900  0.64772400  1
