# generated using pymatgen
data_Gd3AlCdS7
_symmetry_space_group_name_H-M   'P 1'
_cell_length_a   9.84769500
_cell_length_b   9.84769522
_cell_length_c   6.25245900
_cell_angle_alpha   90.00000000
_cell_angle_beta   90.00000000
_cell_angle_gamma   120.00000263
_symmetry_Int_Tables_number   1
_chemical_formula_structural   Gd3AlCdS7
_chemical_formula_sum   'Gd6 Al2 Cd2 S14'
_cell_volume   525.11044973
_cell_formula_units_Z   2
loop_
 _symmetry_equiv_pos_site_id
 _symmetry_equiv_pos_as_xyz
  1  'x, y, z'
loop_
 _atom_site_type_symbol
 _atom_site_label
 _atom_site_symmetry_multiplicity
 _atom_site_fract_x
 _atom_site_fract_y
 _atom_site_fract_z
 _atom_site_occupancy
  Gd  Gd0  1  0.76633700  0.14715300  0.21979600  1
  Gd  Gd1  1  0.38081600  0.23366300  0.21979600  1
  Gd  Gd2  1  0.85284700  0.61918400  0.21979600  1
  Gd  Gd3  1  0.23366300  0.85284700  0.71979600  1
  Gd  Gd4  1  0.61918400  0.76633700  0.71979600  1
  Gd  Gd5  1  0.14715300  0.38081600  0.71979600  1
  Al  Al6  1  0.66666700  0.33333300  0.64269300  1
  Al  Al7  1  0.33333300  0.66666700  0.14269300  1
  Cd  Cd8  1  0.00000000  0.00000000  0.02344700  1
  Cd  Cd9  1  0.00000000  0.00000000  0.52344700  1
  S  S10  1  0.84979600  0.10803400  0.79646400  1
  S  S11  1  0.25823800  0.15020400  0.79646400  1
  S  S12  1  0.89196600  0.74176200  0.79646400  1
  S  S13  1  0.15020400  0.89196600  0.29646400  1
  S  S14  1  0.74176200  0.84979600  0.29646400  1
  S  S15  1  0.10803400  0.25823800  0.29646400  1
  S  S16  1  0.90327500  0.42340500  0.48682400  1
  S  S17  1  0.52013000  0.09672500  0.48682400  1
  S  S18  1  0.57659500  0.47987000  0.48682400  1
  S  S19  1  0.09672500  0.57659500  0.98682400  1
  S  S20  1  0.47987000  0.90327500  0.98682400  1
  S  S21  1  0.42340500  0.52013000  0.98682400  1
  S  S22  1  0.66666700  0.33333300  0.00661700  1
  S  S23  1  0.33333300  0.66666700  0.50661700  1
