# generated using pymatgen
data_SnP2(HO4)2
_symmetry_space_group_name_H-M   'P 1'
_cell_length_a   4.96739357
_cell_length_b   8.13917900
_cell_length_c   8.92398831
_cell_angle_alpha   117.13110759
_cell_angle_beta   98.01914250
_cell_angle_gamma   90.00000000
_symmetry_Int_Tables_number   1
_chemical_formula_structural   SnP2(HO4)2
_chemical_formula_sum   'Sn2 P4 H4 O16'
_cell_volume   317.13125141
_cell_formula_units_Z   2
loop_
 _symmetry_equiv_pos_site_id
 _symmetry_equiv_pos_as_xyz
  1  'x, y, z'
loop_
 _atom_site_type_symbol
 _atom_site_label
 _atom_site_symmetry_multiplicity
 _atom_site_fract_x
 _atom_site_fract_y
 _atom_site_fract_z
 _atom_site_occupancy
  Sn  Sn0  1  0.25000000  0.13942900  0.00000000  1
  Sn  Sn1  1  0.75000000  0.86057100  0.00000000  1
  P  P2  1  0.19781400  0.65403300  0.74242600  1
  P  P3  1  0.30218600  0.91160700  0.25757400  1
  P  P4  1  0.80218600  0.34596700  0.25757400  1
  P  P5  1  0.69781400  0.08839300  0.74242600  1
  H  H6  1  0.15765400  0.60713700  0.47078200  1
  H  H7  1  0.34234600  0.13635500  0.52921800  1
  H  H8  1  0.84234600  0.39286300  0.52921800  1
  H  H9  1  0.65765400  0.86364500  0.47078200  1
  O  O10  1  0.99411700  0.49965800  0.70326700  1
  O  O11  1  0.50588300  0.79639000  0.29673300  1
  O  O12  1  0.00588300  0.50034200  0.29673300  1
  O  O13  1  0.49411700  0.20361000  0.70326700  1
  O  O14  1  0.46742500  0.65118300  0.85603700  1
  O  O15  1  0.03257500  0.79514600  0.14396300  1
  O  O16  1  0.53257500  0.34881700  0.14396300  1
  O  O17  1  0.96742500  0.20485400  0.85603700  1
  O  O18  1  0.06060600  0.84849600  0.85701800  1
  O  O19  1  0.43939400  0.99147900  0.14298200  1
  O  O20  1  0.93939400  0.15150400  0.14298200  1
  O  O21  1  0.56060600  0.00852100  0.85701800  1
  O  O22  1  0.27904100  0.67484700  0.59072100  1
  O  O23  1  0.22095900  0.08412600  0.40927900  1
  O  O24  1  0.72095900  0.32515300  0.40927900  1
  O  O25  1  0.77904100  0.91587400  0.59072100  1
