# generated using pymatgen
data_Al2Si2O9
_symmetry_space_group_name_H-M   'P 1'
_cell_length_a   5.23413175
_cell_length_b   5.23413175
_cell_length_c   14.95350681
_cell_angle_alpha   86.65453291
_cell_angle_beta   86.65453291
_cell_angle_gamma   120.21582156
_symmetry_Int_Tables_number   1
_chemical_formula_structural   Al2Si2O9
_chemical_formula_sum   'Al4 Si4 O18'
_cell_volume   351.57375183
_cell_formula_units_Z   2
loop_
 _symmetry_equiv_pos_site_id
 _symmetry_equiv_pos_as_xyz
  1  'x, y, z'
loop_
 _atom_site_type_symbol
 _atom_site_label
 _atom_site_symmetry_multiplicity
 _atom_site_fract_x
 _atom_site_fract_y
 _atom_site_fract_z
 _atom_site_occupancy
  Al  Al0  1  0.92785000  0.44590400  0.27491500  1
  Al  Al1  1  0.44590400  0.92785000  0.77491500  1
  Al  Al2  1  0.56548800  0.71947500  0.27495800  1
  Al  Al3  1  0.71947500  0.56548800  0.77495800  1
  Si  Si4  1  0.16675100  0.35871900  0.46151400  1
  Si  Si5  1  0.35871900  0.16675100  0.96151400  1
  Si  Si6  1  0.82563700  0.67580900  0.46151700  1
  Si  Si7  1  0.67580900  0.82563700  0.96151700  1
  O  O8  1  0.94549900  0.46576800  0.50161900  1
  O  O9  1  0.46576800  0.94549900  0.00161900  1
  O  O10  1  0.48327900  0.54058000  0.50197000  1
  O  O11  1  0.54058000  0.48327900  0.00197000  1
  O  O12  1  0.02581900  0.00731000  0.49023500  1
  O  O13  1  0.00731000  0.02581900  0.99023500  1
  O  O14  1  0.21485500  0.43617700  0.35029500  1
  O  O15  1  0.43617700  0.21485500  0.85029500  1
  O  O16  1  0.83420900  0.67511100  0.35038700  1
  O  O17  1  0.67511100  0.83420900  0.85038700  1
  O  O18  1  0.61368500  0.06496100  0.32376600  1
  O  O19  1  0.06496100  0.61368500  0.82376600  1
  O  O20  1  0.28022700  0.72699500  0.20519100  1
  O  O21  1  0.72699500  0.28022700  0.70519100  1
  O  O22  1  0.88462500  0.10491100  0.21076400  1
  O  O23  1  0.10491100  0.88462500  0.71076400  1
  O  O24  1  0.66407500  0.49028300  0.20416900  1
  O  O25  1  0.49028300  0.66407500  0.70416900  1
