# generated using pymatgen
data_Mg(ClO5)2
_symmetry_space_group_name_H-M   'P 1'
_cell_length_a   7.32137100
_cell_length_b   7.32137100
_cell_length_c   9.74287600
_cell_angle_alpha   90.00000000
_cell_angle_beta   90.00000000
_cell_angle_gamma   90.00000000
_symmetry_Int_Tables_number   1
_chemical_formula_structural   Mg(ClO5)2
_chemical_formula_sum   'Mg2 Cl4 O20'
_cell_volume   522.24225085
_cell_formula_units_Z   2
loop_
 _symmetry_equiv_pos_site_id
 _symmetry_equiv_pos_as_xyz
  1  'x, y, z'
loop_
 _atom_site_type_symbol
 _atom_site_label
 _atom_site_symmetry_multiplicity
 _atom_site_fract_x
 _atom_site_fract_y
 _atom_site_fract_z
 _atom_site_occupancy
  Mg  Mg0  1  0.50000000  0.00000000  0.74871700  1
  Mg  Mg1  1  0.00000000  0.50000000  0.24871700  1
  Cl  Cl2  1  0.00000000  0.00000000  0.50915200  1
  Cl  Cl3  1  0.00000000  0.00000000  0.00915200  1
  Cl  Cl4  1  0.50000000  0.50000000  0.48511000  1
  Cl  Cl5  1  0.50000000  0.50000000  0.98511000  1
  O  O6  1  0.00000000  0.82924400  0.58919600  1
  O  O7  1  0.00000000  0.17075600  0.58919600  1
  O  O8  1  0.17075600  0.00000000  0.08919600  1
  O  O9  1  0.82924400  0.00000000  0.08919600  1
  O  O10  1  0.50000000  0.67123100  0.40561000  1
  O  O11  1  0.50000000  0.32876900  0.40561000  1
  O  O12  1  0.32876900  0.50000000  0.90561000  1
  O  O13  1  0.67123100  0.50000000  0.90561000  1
  O  O14  1  0.50000000  0.00000000  0.54647700  1
  O  O15  1  0.00000000  0.50000000  0.04647700  1
  O  O16  1  0.50000000  0.00000000  0.95143200  1
  O  O17  1  0.00000000  0.50000000  0.45143200  1
  O  O18  1  0.69811400  0.81114400  0.74515000  1
  O  O19  1  0.30188600  0.18885600  0.74515000  1
  O  O20  1  0.18885600  0.69811400  0.24515000  1
  O  O21  1  0.81114400  0.30188600  0.24515000  1
  O  O22  1  0.30188600  0.81114400  0.74515000  1
  O  O23  1  0.69811400  0.18885600  0.74515000  1
  O  O24  1  0.81114400  0.69811400  0.24515000  1
  O  O25  1  0.18885600  0.30188600  0.24515000  1
