# generated using pymatgen
data_Mn5SiC
_symmetry_space_group_name_H-M   'P 1'
_cell_length_a   6.37276748
_cell_length_b   6.37276748
_cell_length_c   7.50478700
_cell_angle_alpha   90.00000000
_cell_angle_beta   90.00000000
_cell_angle_gamma   104.56967191
_symmetry_Int_Tables_number   1
_chemical_formula_structural   Mn5SiC
_chemical_formula_sum   'Mn20 Si4 C4'
_cell_volume   294.98449404
_cell_formula_units_Z   4
loop_
 _symmetry_equiv_pos_site_id
 _symmetry_equiv_pos_as_xyz
  1  'x, y, z'
loop_
 _atom_site_type_symbol
 _atom_site_label
 _atom_site_symmetry_multiplicity
 _atom_site_fract_x
 _atom_site_fract_y
 _atom_site_fract_z
 _atom_site_occupancy
  Mn  Mn0  1  0.51102000  0.81314200  0.87455500  1
  Mn  Mn1  1  0.81314200  0.51102000  0.87455500  1
  Mn  Mn2  1  0.48898000  0.18685800  0.37455500  1
  Mn  Mn3  1  0.18685800  0.48898000  0.37455500  1
  Mn  Mn4  1  0.54041600  0.54041600  0.17692500  1
  Mn  Mn5  1  0.45958400  0.45958400  0.67692500  1
  Mn  Mn6  1  0.86094800  0.86094800  0.69027600  1
  Mn  Mn7  1  0.13905200  0.13905200  0.19027600  1
  Mn  Mn8  1  0.87188900  0.12176400  0.93976800  1
  Mn  Mn9  1  0.12176400  0.87188900  0.93976800  1
  Mn  Mn10  1  0.12811100  0.87823600  0.43976800  1
  Mn  Mn11  1  0.87823600  0.12811100  0.43976800  1
  Mn  Mn12  1  0.70515100  0.93964300  0.19093400  1
  Mn  Mn13  1  0.93964300  0.70515100  0.19093400  1
  Mn  Mn14  1  0.29484900  0.06035700  0.69093400  1
  Mn  Mn15  1  0.06035700  0.29484900  0.69093400  1
  Mn  Mn16  1  0.51561600  0.81674900  0.50210300  1
  Mn  Mn17  1  0.81674900  0.51561600  0.50210300  1
  Mn  Mn18  1  0.48438400  0.18325100  0.00210300  1
  Mn  Mn19  1  0.18325100  0.48438400  0.00210300  1
  Si  Si20  1  0.66424400  0.17352800  0.68853400  1
  Si  Si21  1  0.17352800  0.66424400  0.68853400  1
  Si  Si22  1  0.33575600  0.82647200  0.18853400  1
  Si  Si23  1  0.82647200  0.33575600  0.18853400  1
  C  C24  1  0.79816600  0.79816600  0.97461100  1
  C  C25  1  0.20183400  0.20183400  0.47461100  1
  C  C26  1  0.80723100  0.80723100  0.40779900  1
  C  C27  1  0.19276900  0.19276900  0.90779900  1
