# generated using pymatgen
data_KPtS2O9
_symmetry_space_group_name_H-M   'P 1'
_cell_length_a   7.61786700
_cell_length_b   7.70853947
_cell_length_c   7.77905770
_cell_angle_alpha   102.06137586
_cell_angle_beta   112.13731762
_cell_angle_gamma   99.29205081
_symmetry_Int_Tables_number   1
_chemical_formula_structural   KPtS2O9
_chemical_formula_sum   'K2 Pt2 S4 O18'
_cell_volume   398.97745310
_cell_formula_units_Z   2
loop_
 _symmetry_equiv_pos_site_id
 _symmetry_equiv_pos_as_xyz
  1  'x, y, z'
loop_
 _atom_site_type_symbol
 _atom_site_label
 _atom_site_symmetry_multiplicity
 _atom_site_fract_x
 _atom_site_fract_y
 _atom_site_fract_z
 _atom_site_occupancy
  K  K0  1  0.78479800  0.04349200  0.28318300  1
  K  K1  1  0.21520200  0.95650800  0.71681700  1
  Pt  Pt2  1  0.86422400  0.54878800  0.87373100  1
  Pt  Pt3  1  0.13577600  0.45121200  0.12626900  1
  S  S4  1  0.77072200  0.12654100  0.82498400  1
  S  S5  1  0.22927800  0.87345900  0.17501600  1
  S  S6  1  0.81281400  0.55537800  0.25712900  1
  S  S7  1  0.18718600  0.44462200  0.74287100  1
  O  O8  1  0.68277200  0.29165100  0.79136400  1
  O  O9  1  0.31722800  0.70834900  0.20863600  1
  O  O10  1  0.05611100  0.80155800  0.96600900  1
  O  O11  1  0.94388900  0.19844200  0.03399100  1
  O  O12  1  0.62276000  0.99408300  0.84008800  1
  O  O13  1  0.37724000  0.00591700  0.15991200  1
  O  O14  1  0.84090100  0.06212100  0.68128700  1
  O  O15  1  0.15909900  0.93787900  0.31871300  1
  O  O16  1  0.76617600  0.63297300  0.07878900  1
  O  O17  1  0.23382400  0.36702700  0.92121100  1
  O  O18  1  0.96922300  0.45553800  0.67731800  1
  O  O19  1  0.03077700  0.54446200  0.32268200  1
  O  O20  1  0.68332400  0.37569500  0.20745900  1
  O  O21  1  0.31667600  0.62430500  0.79254100  1
  O  O22  1  0.81420700  0.70152500  0.40929700  1
  O  O23  1  0.18579300  0.29847500  0.59070300  1
  O  O24  1  0.66056800  0.62074200  0.68054600  1
  O  O25  1  0.33943200  0.37925800  0.31945400  1
