# generated using pymatgen
data_Yb(SbSe2)2
_symmetry_space_group_name_H-M   'P 1'
_cell_length_a   12.29711500
_cell_length_b   4.06504700
_cell_length_c   15.16818100
_cell_angle_alpha   90.00000000
_cell_angle_beta   90.00000000
_cell_angle_gamma   90.00000000
_symmetry_Int_Tables_number   1
_chemical_formula_structural   Yb(SbSe2)2
_chemical_formula_sum   'Yb4 Sb8 Se16'
_cell_volume   758.23234736
_cell_formula_units_Z   4
loop_
 _symmetry_equiv_pos_site_id
 _symmetry_equiv_pos_as_xyz
  1  'x, y, z'
loop_
 _atom_site_type_symbol
 _atom_site_label
 _atom_site_symmetry_multiplicity
 _atom_site_fract_x
 _atom_site_fract_y
 _atom_site_fract_z
 _atom_site_occupancy
  Yb  Yb0  1  0.24137000  0.25000000  0.33833700  1
  Yb  Yb1  1  0.74137000  0.25000000  0.16166300  1
  Yb  Yb2  1  0.75863000  0.75000000  0.66166300  1
  Yb  Yb3  1  0.25863000  0.75000000  0.83833700  1
  Sb  Sb4  1  0.07466400  0.25000000  0.59962900  1
  Sb  Sb5  1  0.57466400  0.25000000  0.90037100  1
  Sb  Sb6  1  0.92533600  0.75000000  0.40037100  1
  Sb  Sb7  1  0.42533600  0.75000000  0.09962900  1
  Sb  Sb8  1  0.07305200  0.25000000  0.11439500  1
  Sb  Sb9  1  0.57305200  0.25000000  0.38560500  1
  Sb  Sb10  1  0.92694800  0.75000000  0.88560500  1
  Sb  Sb11  1  0.42694800  0.75000000  0.61439500  1
  Se  Se12  1  0.35711600  0.25000000  0.96865700  1
  Se  Se13  1  0.85711600  0.25000000  0.53134300  1
  Se  Se14  1  0.64288400  0.75000000  0.03134300  1
  Se  Se15  1  0.14288400  0.75000000  0.46865700  1
  Se  Se16  1  0.28028300  0.25000000  0.69163000  1
  Se  Se17  1  0.78028300  0.25000000  0.80837000  1
  Se  Se18  1  0.71971700  0.75000000  0.30837000  1
  Se  Se19  1  0.21971700  0.75000000  0.19163000  1
  Se  Se20  1  0.08594900  0.25000000  0.91519900  1
  Se  Se21  1  0.58594900  0.25000000  0.58480100  1
  Se  Se22  1  0.91405100  0.75000000  0.08480100  1
  Se  Se23  1  0.41405100  0.75000000  0.41519900  1
  Se  Se24  1  0.99744000  0.25000000  0.28845600  1
  Se  Se25  1  0.49744000  0.25000000  0.21154400  1
  Se  Se26  1  0.00256000  0.75000000  0.71154400  1
  Se  Se27  1  0.50256000  0.75000000  0.78845600  1
