# generated using pymatgen
data_Cs3H(SeO4)2
_symmetry_space_group_name_H-M   'P 1'
_cell_length_a   8.86001372
_cell_length_b   8.86001372
_cell_length_c   11.24088476
_cell_angle_alpha   78.98887130
_cell_angle_beta   78.98887130
_cell_angle_gamma   43.05157806
_symmetry_Int_Tables_number   1
_chemical_formula_structural   Cs3H(SeO4)2
_chemical_formula_sum   'Cs6 H2 Se4 O16'
_cell_volume   589.54747823
_cell_formula_units_Z   2
loop_
 _symmetry_equiv_pos_site_id
 _symmetry_equiv_pos_as_xyz
  1  'x, y, z'
loop_
 _atom_site_type_symbol
 _atom_site_label
 _atom_site_symmetry_multiplicity
 _atom_site_fract_x
 _atom_site_fract_y
 _atom_site_fract_z
 _atom_site_occupancy
  Cs  Cs0  1  0.74588600  0.25411400  0.25000000  1
  Cs  Cs1  1  0.25411400  0.74588600  0.75000000  1
  Cs  Cs2  1  0.91567000  0.46612800  0.84783900  1
  Cs  Cs3  1  0.46612800  0.91567000  0.34783900  1
  Cs  Cs4  1  0.08433000  0.53387200  0.15216100  1
  Cs  Cs5  1  0.53387200  0.08433000  0.65216100  1
  H  H6  1  0.00000000  0.00000000  0.00000000  1
  H  H7  1  0.00000000  0.00000000  0.50000000  1
  Se  Se8  1  0.32916200  0.90170300  0.03471500  1
  Se  Se9  1  0.90170300  0.32916200  0.53471500  1
  Se  Se10  1  0.67083800  0.09829700  0.96528500  1
  Se  Se11  1  0.09829700  0.67083800  0.46528500  1
  O  O12  1  0.17197400  0.13865900  0.09861100  1
  O  O13  1  0.13865900  0.17197400  0.59861100  1
  O  O14  1  0.82802600  0.86134100  0.90138900  1
  O  O15  1  0.86134100  0.82802600  0.40138900  1
  O  O16  1  0.17216300  0.84824200  0.05037300  1
  O  O17  1  0.84824200  0.17216300  0.55037300  1
  O  O18  1  0.82783700  0.15175800  0.94962700  1
  O  O19  1  0.15175800  0.82783700  0.44962700  1
  O  O20  1  0.38361300  0.92445700  0.88583900  1
  O  O21  1  0.92445700  0.38361300  0.38583900  1
  O  O22  1  0.61638700  0.07554300  0.11416100  1
  O  O23  1  0.07554300  0.61638700  0.61416100  1
  O  O24  1  0.55819700  0.68757400  0.10547400  1
  O  O25  1  0.68757400  0.55819700  0.60547400  1
  O  O26  1  0.44180300  0.31242600  0.89452600  1
  O  O27  1  0.31242600  0.44180300  0.39452600  1
