# generated using pymatgen
data_Co(MoS2)2
_symmetry_space_group_name_H-M   'P 1'
_cell_length_a   6.43469900
_cell_length_b   6.75321223
_cell_length_c   11.70020272
_cell_angle_alpha   79.35060341
_cell_angle_beta   74.03903379
_cell_angle_gamma   61.54830190
_symmetry_Int_Tables_number   1
_chemical_formula_structural   Co(MoS2)2
_chemical_formula_sum   'Co4 Mo8 S16'
_cell_volume   428.91810514
_cell_formula_units_Z   4
loop_
 _symmetry_equiv_pos_site_id
 _symmetry_equiv_pos_as_xyz
  1  'x, y, z'
loop_
 _atom_site_type_symbol
 _atom_site_label
 _atom_site_symmetry_multiplicity
 _atom_site_fract_x
 _atom_site_fract_y
 _atom_site_fract_z
 _atom_site_occupancy
  Co  Co0  1  0.53884300  0.71699400  0.45278900  1
  Co  Co1  1  0.29137400  0.21699400  0.95278900  1
  Co  Co2  1  0.79358700  0.20925800  0.95307100  1
  Co  Co3  1  0.04408400  0.70925800  0.45307100  1
  Mo  Mo4  1  0.88062600  0.77044400  0.70992100  1
  Mo  Mo5  1  0.63900900  0.27044400  0.20992100  1
  Mo  Mo6  1  0.45879500  0.16160900  0.68995000  1
  Mo  Mo7  1  0.68964600  0.66160900  0.18995000  1
  Mo  Mo8  1  0.94186400  0.15860400  0.68929300  1
  Mo  Mo9  1  0.21024000  0.65860400  0.18929300  1
  Mo  Mo10  1  0.38546500  0.77695900  0.71101200  1
  Mo  Mo11  1  0.12656400  0.27695900  0.21101200  1
  S  S12  1  0.82986400  0.04262100  0.54617700  1
  S  S13  1  0.58133900  0.54262100  0.04617700  1
  S  S14  1  0.50564300  0.88924600  0.85297800  1
  S  S15  1  0.75213200  0.38924600  0.35297800  1
  S  S16  1  0.03226800  0.36931500  0.81600000  1
  S  S17  1  0.78241700  0.86931500  0.31600000  1
  S  S18  1  0.30476500  0.56188500  0.58305500  1
  S  S19  1  0.55029500  0.06188500  0.08305500  1
  S  S20  1  0.53032700  0.37288800  0.81957300  1
  S  S21  1  0.27721200  0.87288800  0.31957300  1
  S  S22  1  0.80132800  0.55931000  0.58152500  1
  S  S23  1  0.05783600  0.05931000  0.08152500  1
  S  S24  1  0.32407000  0.05207800  0.55097500  1
  S  S25  1  0.07287700  0.55207800  0.05097500  1
  S  S26  1  0.00652600  0.88338800  0.85108200  1
  S  S27  1  0.25900300  0.38338800  0.35108200  1
