# generated using pymatgen
data_Ca(BO5)2
_symmetry_space_group_name_H-M   'P 1'
_cell_length_a   5.72579200
_cell_length_b   8.97340182
_cell_length_c   6.10578126
_cell_angle_alpha   98.14421672
_cell_angle_beta   90.00000000
_cell_angle_gamma   90.00000000
_symmetry_Int_Tables_number   1
_chemical_formula_structural   Ca(BO5)2
_chemical_formula_sum   'Ca2 B4 O20'
_cell_volume   310.55009403
_cell_formula_units_Z   2
loop_
 _symmetry_equiv_pos_site_id
 _symmetry_equiv_pos_as_xyz
  1  'x, y, z'
loop_
 _atom_site_type_symbol
 _atom_site_label
 _atom_site_symmetry_multiplicity
 _atom_site_fract_x
 _atom_site_fract_y
 _atom_site_fract_z
 _atom_site_occupancy
  Ca  Ca0  1  0.13553800  0.75000000  0.00000000  1
  Ca  Ca1  1  0.86446200  0.25000000  0.00000000  1
  B  B2  1  0.65899700  0.56467100  0.26308000  1
  B  B3  1  0.65899700  0.93532900  0.73692000  1
  B  B4  1  0.34100300  0.43532900  0.73692000  1
  B  B5  1  0.34100300  0.06467100  0.26308000  1
  O  O6  1  0.74564400  0.54797300  0.03431700  1
  O  O7  1  0.74564400  0.95202700  0.96568300  1
  O  O8  1  0.25435600  0.45202700  0.96568300  1
  O  O9  1  0.25435600  0.04797300  0.03431700  1
  O  O10  1  0.83458800  0.67442600  0.21697900  1
  O  O11  1  0.83458800  0.82557400  0.78302100  1
  O  O12  1  0.16541200  0.32557400  0.78302100  1
  O  O13  1  0.16541200  0.17442600  0.21697900  1
  O  O14  1  0.72978600  0.43354800  0.35557700  1
  O  O15  1  0.72978600  0.06645200  0.64442300  1
  O  O16  1  0.27021400  0.56645200  0.64442300  1
  O  O17  1  0.27021400  0.93354800  0.35557700  1
  O  O18  1  0.43030500  0.63079300  0.31138600  1
  O  O19  1  0.43030500  0.86920700  0.68861400  1
  O  O20  1  0.56969500  0.36920700  0.68861400  1
  O  O21  1  0.56969500  0.13079300  0.31138600  1
  O  O22  1  0.72762900  0.03006600  0.39985800  1
  O  O23  1  0.72762900  0.46993400  0.60014200  1
  O  O24  1  0.27237100  0.96993400  0.60014200  1
  O  O25  1  0.27237100  0.53006600  0.39985800  1
