# generated using pymatgen
data_CsCuAg2(CN)4
_symmetry_space_group_name_H-M   'P 1'
_cell_length_a   8.09668900
_cell_length_b   7.55315789
_cell_length_c   8.34184518
_cell_angle_alpha   104.07778231
_cell_angle_beta   90.00000000
_cell_angle_gamma   90.00000000
_symmetry_Int_Tables_number   1
_chemical_formula_structural   CsCuAg2(CN)4
_chemical_formula_sum   'Cs2 Cu2 Ag4 C8 N8'
_cell_volume   494.82865491
_cell_formula_units_Z   2
loop_
 _symmetry_equiv_pos_site_id
 _symmetry_equiv_pos_as_xyz
  1  'x, y, z'
loop_
 _atom_site_type_symbol
 _atom_site_label
 _atom_site_symmetry_multiplicity
 _atom_site_fract_x
 _atom_site_fract_y
 _atom_site_fract_z
 _atom_site_occupancy
  Cs  Cs0  1  0.24480900  0.50000000  0.25000000  1
  Cs  Cs1  1  0.75519100  0.50000000  0.75000000  1
  Cu  Cu2  1  0.25765600  0.50000000  0.75000000  1
  Cu  Cu3  1  0.74234400  0.50000000  0.25000000  1
  Ag  Ag4  1  0.00000000  0.00000000  0.50000000  1
  Ag  Ag5  1  0.00000000  0.00000000  0.00000000  1
  Ag  Ag6  1  0.44124100  0.00000000  0.25000000  1
  Ag  Ag7  1  0.55875900  0.00000000  0.75000000  1
  C  C8  1  0.07952400  0.78870700  0.59640300  1
  C  C9  1  0.07952400  0.21129300  0.90359700  1
  C  C10  1  0.92047600  0.21129300  0.40359700  1
  C  C11  1  0.92047600  0.78870700  0.09640300  1
  C  C12  1  0.41778400  0.79001000  0.04081200  1
  C  C13  1  0.41778400  0.20999000  0.45918800  1
  C  C14  1  0.58221600  0.20999000  0.95918800  1
  C  C15  1  0.58221600  0.79001000  0.54081200  1
  N  N16  1  0.13097600  0.66931900  0.65041800  1
  N  N17  1  0.13097600  0.33068100  0.84958200  1
  N  N18  1  0.86902400  0.33068100  0.34958200  1
  N  N19  1  0.86902400  0.66931900  0.15041800  1
  N  N20  1  0.38477000  0.67034800  0.92637000  1
  N  N21  1  0.38477000  0.32965200  0.57363000  1
  N  N22  1  0.61523000  0.32965200  0.07363000  1
  N  N23  1  0.61523000  0.67034800  0.42637000  1
