# generated using pymatgen
data_MgFeSiO4
_symmetry_space_group_name_H-M   'P 1'
_cell_length_a   4.87595200
_cell_length_b   6.07405600
_cell_length_c   10.43493100
_cell_angle_alpha   90.00000000
_cell_angle_beta   90.00000000
_cell_angle_gamma   90.00000000
_symmetry_Int_Tables_number   1
_chemical_formula_structural   MgFeSiO4
_chemical_formula_sum   'Mg4 Fe4 Si4 O16'
_cell_volume   309.04932185
_cell_formula_units_Z   4
loop_
 _symmetry_equiv_pos_site_id
 _symmetry_equiv_pos_as_xyz
  1  'x, y, z'
loop_
 _atom_site_type_symbol
 _atom_site_label
 _atom_site_symmetry_multiplicity
 _atom_site_fract_x
 _atom_site_fract_y
 _atom_site_fract_z
 _atom_site_occupancy
  Mg  Mg0  1  0.49086300  0.75000000  0.22199900  1
  Mg  Mg1  1  0.00913700  0.75000000  0.72199900  1
  Mg  Mg2  1  0.50913700  0.25000000  0.77800100  1
  Mg  Mg3  1  0.99086300  0.25000000  0.27800100  1
  Fe  Fe4  1  0.50000000  0.00000000  0.50000000  1
  Fe  Fe5  1  0.00000000  0.50000000  0.00000000  1
  Fe  Fe6  1  0.50000000  0.50000000  0.50000000  1
  Fe  Fe7  1  0.00000000  0.00000000  0.00000000  1
  Si  Si8  1  0.92585600  0.75000000  0.40385100  1
  Si  Si9  1  0.57414400  0.75000000  0.90385100  1
  Si  Si10  1  0.07414400  0.25000000  0.59614900  1
  Si  Si11  1  0.42585600  0.25000000  0.09614900  1
  O  O12  1  0.26377500  0.75000000  0.40418400  1
  O  O13  1  0.23622500  0.75000000  0.90418400  1
  O  O14  1  0.73622500  0.25000000  0.59581600  1
  O  O15  1  0.76377500  0.25000000  0.09581600  1
  O  O16  1  0.70716400  0.75000000  0.05165200  1
  O  O17  1  0.79283600  0.75000000  0.55165200  1
  O  O18  1  0.29283600  0.25000000  0.94834800  1
  O  O19  1  0.20716400  0.25000000  0.44834800  1
  O  O20  1  0.78269300  0.96548000  0.33418900  1
  O  O21  1  0.71730700  0.53452000  0.83418900  1
  O  O22  1  0.21730700  0.46548000  0.66581100  1
  O  O23  1  0.28269300  0.03452000  0.16581100  1
  O  O24  1  0.21730700  0.03452000  0.66581100  1
  O  O25  1  0.28269300  0.46548000  0.16581100  1
  O  O26  1  0.78269300  0.53452000  0.33418900  1
  O  O27  1  0.71730700  0.96548000  0.83418900  1
