# generated using pymatgen
data_Cd(NO5)2
_symmetry_space_group_name_H-M   'P 1'
_cell_length_a   13.56665548
_cell_length_b   12.43019727
_cell_length_c   6.77116128
_cell_angle_alpha   84.44179332
_cell_angle_beta   65.77255844
_cell_angle_gamma   29.78564824
_symmetry_Int_Tables_number   1
_chemical_formula_structural   Cd(NO5)2
_chemical_formula_sum   'Cd2 N4 O20'
_cell_volume   424.15447738
_cell_formula_units_Z   2
loop_
 _symmetry_equiv_pos_site_id
 _symmetry_equiv_pos_as_xyz
  1  'x, y, z'
loop_
 _atom_site_type_symbol
 _atom_site_label
 _atom_site_symmetry_multiplicity
 _atom_site_fract_x
 _atom_site_fract_y
 _atom_site_fract_z
 _atom_site_occupancy
  Cd  Cd0  1  0.24702700  0.25297300  0.24702700  1
  Cd  Cd1  1  0.99702700  0.00297300  0.99702700  1
  N  N2  1  0.87286400  0.45113600  0.62743300  1
  N  N3  1  0.62743300  0.04856700  0.87286400  1
  N  N4  1  0.20143300  0.62256700  0.79886400  1
  N  N5  1  0.79886400  0.37713600  0.20143300  1
  O  O6  1  0.81895600  0.59851400  0.58860900  1
  O  O7  1  0.58860900  0.99392100  0.81895600  1
  O  O8  1  0.25607900  0.66139100  0.65148600  1
  O  O9  1  0.65148600  0.43104400  0.25607900  1
  O  O10  1  0.12184800  0.19821600  0.46742400  1
  O  O11  1  0.46742400  0.21251300  0.12184800  1
  O  O12  1  0.03748700  0.78257600  0.05178400  1
  O  O13  1  0.05178400  0.12815200  0.03748700  1
  O  O14  1  0.69935000  0.54697700  0.80487700  1
  O  O15  1  0.80487700  0.94879600  0.69935000  1
  O  O16  1  0.30120400  0.44512300  0.70302300  1
  O  O17  1  0.70302300  0.55065000  0.30120400  1
  O  O18  1  0.21447500  0.29070100  0.70418100  1
  O  O19  1  0.70418100  0.79064400  0.21447500  1
  O  O20  1  0.45935600  0.54581900  0.95929900  1
  O  O21  1  0.95929900  0.03552500  0.45935600  1
  O  O22  1  0.83123400  0.73895800  0.22092400  1
  O  O23  1  0.22092400  0.20888500  0.83123400  1
  O  O24  1  0.04111500  0.02907600  0.51104200  1
  O  O25  1  0.51104200  0.41876600  0.04111500  1
