# generated using pymatgen
data_Cu(CO2)4
_symmetry_space_group_name_H-M   'P 1'
_cell_length_a   8.43417600
_cell_length_b   8.28137100
_cell_length_c   8.47280834
_cell_angle_alpha   66.21810592
_cell_angle_beta   90.00000000
_cell_angle_gamma   90.00000000
_symmetry_Int_Tables_number   1
_chemical_formula_structural   Cu(CO2)4
_chemical_formula_sum   'Cu2 C8 O16'
_cell_volume   541.54523383
_cell_formula_units_Z   2
loop_
 _symmetry_equiv_pos_site_id
 _symmetry_equiv_pos_as_xyz
  1  'x, y, z'
loop_
 _atom_site_type_symbol
 _atom_site_label
 _atom_site_symmetry_multiplicity
 _atom_site_fract_x
 _atom_site_fract_y
 _atom_site_fract_z
 _atom_site_occupancy
  Cu  Cu0  1  0.50000000  0.50000000  0.50000000  1
  Cu  Cu1  1  0.00000000  0.50000000  0.00000000  1
  C  C2  1  0.70141300  0.46026400  0.80789500  1
  C  C3  1  0.20141300  0.53973600  0.69210500  1
  C  C4  1  0.29858700  0.53973600  0.19210500  1
  C  C5  1  0.79858700  0.46026400  0.30789500  1
  C  C6  1  0.58858400  0.97297200  0.31880500  1
  C  C7  1  0.08858400  0.02702800  0.18119500  1
  C  C8  1  0.41141600  0.02702800  0.68119500  1
  C  C9  1  0.91141600  0.97297200  0.81880500  1
  O  O10  1  0.57300000  0.44184200  0.75032600  1
  O  O11  1  0.07300000  0.55815800  0.74967400  1
  O  O12  1  0.42700000  0.55815800  0.24967400  1
  O  O13  1  0.92700000  0.44184200  0.25032600  1
  O  O14  1  0.26944300  0.54900100  0.56173000  1
  O  O15  1  0.76944300  0.45099900  0.93827000  1
  O  O16  1  0.73055700  0.45099900  0.43827000  1
  O  O17  1  0.23055700  0.54900100  0.06173000  1
  O  O18  1  0.57821900  0.82167700  0.40884400  1
  O  O19  1  0.07821900  0.17832300  0.09115600  1
  O  O20  1  0.42178100  0.17832300  0.59115600  1
  O  O21  1  0.92178100  0.82167700  0.90884400  1
  O  O22  1  0.59911400  0.12440000  0.22983500  1
  O  O23  1  0.09911400  0.87560000  0.27016500  1
  O  O24  1  0.40088600  0.87560000  0.77016500  1
  O  O25  1  0.90088600  0.12440000  0.72983500  1
