# generated using pymatgen
data_V2CdO10
_symmetry_space_group_name_H-M   'P 1'
_cell_length_a   7.08713984
_cell_length_b   8.50990762
_cell_length_c   8.50990762
_cell_angle_alpha   72.64318910
_cell_angle_beta   72.68523010
_cell_angle_gamma   72.68523010
_symmetry_Int_Tables_number   1
_chemical_formula_structural   V2CdO10
_chemical_formula_sum   'V4 Cd2 O20'
_cell_volume   455.22337538
_cell_formula_units_Z   2
loop_
 _symmetry_equiv_pos_site_id
 _symmetry_equiv_pos_as_xyz
  1  'x, y, z'
loop_
 _atom_site_type_symbol
 _atom_site_label
 _atom_site_symmetry_multiplicity
 _atom_site_fract_x
 _atom_site_fract_y
 _atom_site_fract_z
 _atom_site_occupancy
  V  V0  1  0.54958900  0.38640500  0.32614600  1
  V  V1  1  0.04958900  0.32614600  0.38640500  1
  V  V2  1  0.93405200  0.12207000  0.18239100  1
  V  V3  1  0.43405200  0.18239100  0.12207000  1
  Cd  Cd4  1  0.74535500  0.75362900  0.25071900  1
  Cd  Cd5  1  0.24535500  0.25071900  0.75362900  1
  O  O6  1  0.56703400  0.58604600  0.22744700  1
  O  O7  1  0.06703400  0.22744700  0.58604600  1
  O  O8  1  0.93702500  0.53362700  0.38048000  1
  O  O9  1  0.43702500  0.38048000  0.53362700  1
  O  O10  1  0.66299000  0.23349300  0.15975500  1
  O  O11  1  0.16299000  0.15975500  0.23349300  1
  O  O12  1  0.82058300  0.27569700  0.34843000  1
  O  O13  1  0.32058300  0.34843000  0.27569700  1
  O  O14  1  0.54714300  0.97536700  0.12721500  1
  O  O15  1  0.04714300  0.12721500  0.97536700  1
  O  O16  1  0.91614900  0.92247000  0.28051800  1
  O  O17  1  0.41614900  0.28051800  0.92247000  1
  O  O18  1  0.96707900  0.78830900  0.90769600  1
  O  O19  1  0.46707900  0.90769600  0.78830900  1
  O  O20  1  0.39726200  0.82160900  0.51633800  1
  O  O21  1  0.89726200  0.51633800  0.82160900  1
  O  O22  1  0.88132300  0.88078400  0.79511600  1
  O  O23  1  0.38132300  0.79511600  0.88078400  1
  O  O24  1  0.72541600  0.53367300  0.80457000  1
  O  O25  1  0.22541600  0.80457000  0.53367300  1
