# generated using pymatgen
data_Bi3(AsO5)2
_symmetry_space_group_name_H-M   'P 1'
_cell_length_a   7.05289500
_cell_length_b   7.36888090
_cell_length_c   9.55780453
_cell_angle_alpha   110.37384773
_cell_angle_beta   106.78816272
_cell_angle_gamma   91.90552698
_symmetry_Int_Tables_number   1
_chemical_formula_structural   Bi3(AsO5)2
_chemical_formula_sum   'Bi6 As4 O20'
_cell_volume   440.83266954
_cell_formula_units_Z   2
loop_
 _symmetry_equiv_pos_site_id
 _symmetry_equiv_pos_as_xyz
  1  'x, y, z'
loop_
 _atom_site_type_symbol
 _atom_site_label
 _atom_site_symmetry_multiplicity
 _atom_site_fract_x
 _atom_site_fract_y
 _atom_site_fract_z
 _atom_site_occupancy
  Bi  Bi0  1  0.22781500  0.59002100  0.47781100  1
  Bi  Bi1  1  0.77218500  0.40997900  0.52218900  1
  Bi  Bi2  1  0.26789300  0.24251600  0.69978900  1
  Bi  Bi3  1  0.73210700  0.75748400  0.30021100  1
  Bi  Bi4  1  0.20584400  0.83398400  0.92442400  1
  Bi  Bi5  1  0.79415600  0.16601600  0.07557600  1
  As  As6  1  0.22727300  0.97929100  0.30311800  1
  As  As7  1  0.77272700  0.02070900  0.69688200  1
  As  As8  1  0.69304700  0.62646600  0.90447700  1
  As  As9  1  0.30695300  0.37353400  0.09552300  1
  O  O10  1  0.10215800  0.46998100  0.62822700  1
  O  O11  1  0.89784200  0.53001900  0.37177300  1
  O  O12  1  0.20004500  0.83376900  0.68616800  1
  O  O13  1  0.79995500  0.16623100  0.31383200  1
  O  O14  1  0.04405700  0.96667200  0.13127800  1
  O  O15  1  0.95594300  0.03332800  0.86872200  1
  O  O16  1  0.31570300  0.20807900  0.45025300  1
  O  O17  1  0.68429700  0.79192100  0.54974700  1
  O  O18  1  0.12233200  0.84429100  0.38515000  1
  O  O19  1  0.87766800  0.15570900  0.61485000  1
  O  O20  1  0.41081700  0.88451500  0.22787100  1
  O  O21  1  0.58918300  0.11548500  0.77212900  1
  O  O22  1  0.50097500  0.48370700  0.73551600  1
  O  O23  1  0.49902500  0.51629300  0.26448400  1
  O  O24  1  0.73787800  0.53738700  0.05412400  1
  O  O25  1  0.26212200  0.46261300  0.94587600  1
  O  O26  1  0.61015100  0.84934300  0.97632900  1
  O  O27  1  0.38984900  0.15065700  0.02367100  1
  O  O28  1  0.88490300  0.62839600  0.82863900  1
  O  O29  1  0.11509700  0.37160400  0.17136100  1
