# generated using pymatgen
data_Cs2CoI4
_symmetry_space_group_name_H-M   'P 1'
_cell_length_a   8.36564600
_cell_length_b   11.13107200
_cell_length_c   14.64496000
_cell_angle_alpha   90.00000000
_cell_angle_beta   90.00000000
_cell_angle_gamma   90.00000000
_symmetry_Int_Tables_number   1
_chemical_formula_structural   Cs2CoI4
_chemical_formula_sum   'Cs8 Co4 I16'
_cell_volume   1363.71828872
_cell_formula_units_Z   4
loop_
 _symmetry_equiv_pos_site_id
 _symmetry_equiv_pos_as_xyz
  1  'x, y, z'
loop_
 _atom_site_type_symbol
 _atom_site_label
 _atom_site_symmetry_multiplicity
 _atom_site_fract_x
 _atom_site_fract_y
 _atom_site_fract_z
 _atom_site_occupancy
  Cs  Cs0  1  0.25000000  0.52280400  0.33647000  1
  Cs  Cs1  1  0.25000000  0.02280400  0.16353000  1
  Cs  Cs2  1  0.75000000  0.47719600  0.66353000  1
  Cs  Cs3  1  0.75000000  0.97719600  0.83647000  1
  Cs  Cs4  1  0.25000000  0.86836600  0.60197800  1
  Cs  Cs5  1  0.25000000  0.36836600  0.89802200  1
  Cs  Cs6  1  0.75000000  0.13163400  0.39802200  1
  Cs  Cs7  1  0.75000000  0.63163400  0.10197800  1
  Co  Co8  1  0.25000000  0.26118100  0.57757100  1
  Co  Co9  1  0.25000000  0.76118100  0.92242900  1
  Co  Co10  1  0.75000000  0.73881900  0.42242900  1
  Co  Co11  1  0.75000000  0.23881900  0.07757100  1
  I  I12  1  0.25000000  0.49220000  0.60248900  1
  I  I13  1  0.25000000  0.99220000  0.89751100  1
  I  I14  1  0.75000000  0.50780000  0.39751100  1
  I  I15  1  0.75000000  0.00780000  0.10248900  1
  I  I16  1  0.25000000  0.18846700  0.40929900  1
  I  I17  1  0.25000000  0.68846700  0.09070100  1
  I  I18  1  0.75000000  0.81153300  0.59070100  1
  I  I19  1  0.75000000  0.31153300  0.90929900  1
  I  I20  1  0.50335700  0.17135700  0.65111100  1
  I  I21  1  0.99664300  0.67135700  0.84888900  1
  I  I22  1  0.00335700  0.82864300  0.34888900  1
  I  I23  1  0.49664300  0.32864300  0.15111100  1
  I  I24  1  0.49664300  0.82864300  0.34888900  1
  I  I25  1  0.00335700  0.32864300  0.15111100  1
  I  I26  1  0.99664300  0.17135700  0.65111100  1
  I  I27  1  0.50335700  0.67135700  0.84888900  1
