# generated using pymatgen
data_Ba(CO2)2
_symmetry_space_group_name_H-M   'P 1'
_cell_length_a   6.86059600
_cell_length_b   8.48190800
_cell_length_c   8.74169000
_cell_angle_alpha   90.00000000
_cell_angle_beta   90.00000000
_cell_angle_gamma   90.00000000
_symmetry_Int_Tables_number   1
_chemical_formula_structural   Ba(CO2)2
_chemical_formula_sum   'Ba4 C8 O16'
_cell_volume   508.68719410
_cell_formula_units_Z   4
loop_
 _symmetry_equiv_pos_site_id
 _symmetry_equiv_pos_as_xyz
  1  'x, y, z'
loop_
 _atom_site_type_symbol
 _atom_site_label
 _atom_site_symmetry_multiplicity
 _atom_site_fract_x
 _atom_site_fract_y
 _atom_site_fract_z
 _atom_site_occupancy
  Ba  Ba0  1  0.45944500  0.91065300  0.59712600  1
  Ba  Ba1  1  0.95944500  0.58934700  0.40287400  1
  Ba  Ba2  1  0.54055500  0.41065300  0.90287400  1
  Ba  Ba3  1  0.04055500  0.08934700  0.09712600  1
  C  C4  1  0.15019500  0.73883400  0.86979100  1
  C  C5  1  0.65019500  0.76116600  0.13020900  1
  C  C6  1  0.84980500  0.23883400  0.63020900  1
  C  C7  1  0.34980500  0.26116600  0.36979100  1
  C  C8  1  0.59983900  0.57404600  0.55663500  1
  C  C9  1  0.09983900  0.92595400  0.44336500  1
  C  C10  1  0.40016100  0.07404600  0.94336500  1
  C  C11  1  0.90016100  0.42595400  0.05663500  1
  O  O12  1  0.01054100  0.80291500  0.82418600  1
  O  O13  1  0.51054100  0.69708500  0.17581400  1
  O  O14  1  0.98945900  0.30291500  0.67581400  1
  O  O15  1  0.48945900  0.19708500  0.32418600  1
  O  O16  1  0.29732000  0.68168200  0.91109400  1
  O  O17  1  0.79732000  0.81831800  0.08890600  1
  O  O18  1  0.70268000  0.18168200  0.58890600  1
  O  O19  1  0.20268000  0.31831800  0.41109400  1
  O  O20  1  0.72830000  0.59636300  0.66667000  1
  O  O21  1  0.22830000  0.90363700  0.33333000  1
  O  O22  1  0.27170000  0.09636300  0.83333000  1
  O  O23  1  0.77170000  0.40363700  0.16667000  1
  O  O24  1  0.41718400  0.57561700  0.59932200  1
  O  O25  1  0.91718400  0.92438300  0.40067800  1
  O  O26  1  0.58281600  0.07561700  0.90067800  1
  O  O27  1  0.08281600  0.42438300  0.09932200  1
