# generated using pymatgen
data_Sm4FeS7
_symmetry_space_group_name_H-M   'P 1'
_cell_length_a   9.70238485
_cell_length_b   9.70238485
_cell_length_c   6.83710100
_cell_angle_alpha   90.00000000
_cell_angle_beta   90.00000000
_cell_angle_gamma   120.00000578
_symmetry_Int_Tables_number   1
_chemical_formula_structural   Sm4FeS7
_chemical_formula_sum   'Sm8 Fe2 S14'
_cell_volume   557.39054301
_cell_formula_units_Z   2
loop_
 _symmetry_equiv_pos_site_id
 _symmetry_equiv_pos_as_xyz
  1  'x, y, z'
loop_
 _atom_site_type_symbol
 _atom_site_label
 _atom_site_symmetry_multiplicity
 _atom_site_fract_x
 _atom_site_fract_y
 _atom_site_fract_z
 _atom_site_occupancy
  Sm  Sm0  1  0.77684700  0.15148700  0.72396400  1
  Sm  Sm1  1  0.37464000  0.22315300  0.72396400  1
  Sm  Sm2  1  0.84851300  0.62536000  0.72396400  1
  Sm  Sm3  1  0.22315300  0.84851300  0.22396400  1
  Sm  Sm4  1  0.62536000  0.77684700  0.22396400  1
  Sm  Sm5  1  0.15148700  0.37464000  0.22396400  1
  Sm  Sm6  1  0.66666700  0.33333300  0.17584800  1
  Sm  Sm7  1  0.33333300  0.66666700  0.67584800  1
  Fe  Fe8  1  0.00000000  0.00000000  0.55885600  1
  Fe  Fe9  1  0.00000000  0.00000000  0.05885600  1
  S  S10  1  0.86888700  0.09906600  0.32941300  1
  S  S11  1  0.23017900  0.13111300  0.32941300  1
  S  S12  1  0.90093400  0.76982100  0.32941300  1
  S  S13  1  0.13111300  0.90093400  0.82941300  1
  S  S14  1  0.76982100  0.86888700  0.82941300  1
  S  S15  1  0.09906600  0.23017900  0.82941300  1
  S  S16  1  0.92824000  0.43691800  0.95886800  1
  S  S17  1  0.50867800  0.07176000  0.95886800  1
  S  S18  1  0.56308200  0.49132200  0.95886800  1
  S  S19  1  0.07176000  0.56308200  0.45886800  1
  S  S20  1  0.49132200  0.92824000  0.45886800  1
  S  S21  1  0.43691800  0.50867800  0.45886800  1
  S  S22  1  0.66666700  0.33333300  0.56141200  1
  S  S23  1  0.33333300  0.66666700  0.06141200  1
