# generated using pymatgen
data_YbI3O11
_symmetry_space_group_name_H-M   'P 1'
_cell_length_a   7.20613700
_cell_length_b   7.47614285
_cell_length_c   9.56656100
_cell_angle_alpha   79.82747516
_cell_angle_beta   84.84718412
_cell_angle_gamma   69.69157095
_symmetry_Int_Tables_number   1
_chemical_formula_structural   YbI3O11
_chemical_formula_sum   'Yb2 I6 O22'
_cell_volume   475.52708836
_cell_formula_units_Z   2
loop_
 _symmetry_equiv_pos_site_id
 _symmetry_equiv_pos_as_xyz
  1  'x, y, z'
loop_
 _atom_site_type_symbol
 _atom_site_label
 _atom_site_symmetry_multiplicity
 _atom_site_fract_x
 _atom_site_fract_y
 _atom_site_fract_z
 _atom_site_occupancy
  Yb  Yb0  1  0.76848900  0.34616300  0.83576000  1
  Yb  Yb1  1  0.23151100  0.65383700  0.16424000  1
  I  I2  1  0.84253000  0.74355600  0.50797200  1
  I  I3  1  0.15747000  0.25644400  0.49202800  1
  I  I4  1  0.36802500  0.85888700  0.80199900  1
  I  I5  1  0.63197500  0.14111300  0.19800100  1
  I  I6  1  0.24393300  0.38960800  0.86395300  1
  I  I7  1  0.75606700  0.61039200  0.13604700  1
  O  O8  1  0.91846300  0.50810800  0.63941800  1
  O  O9  1  0.08153700  0.49189200  0.36058200  1
  O  O10  1  0.65605900  0.70612800  0.41558800  1
  O  O11  1  0.34394100  0.29387200  0.58441200  1
  O  O12  1  0.69318400  0.89055500  0.64414800  1
  O  O13  1  0.30681600  0.10944500  0.35585200  1
  O  O14  1  0.48281100  0.60958000  0.76779700  1
  O  O15  1  0.51718900  0.39042000  0.23220300  1
  O  O16  1  0.18584000  0.80676100  0.92991500  1
  O  O17  1  0.81416000  0.19323900  0.07008500  1
  O  O18  1  0.21035800  0.95223500  0.64261800  1
  O  O19  1  0.78964200  0.04776500  0.35738200  1
  O  O20  1  0.50138100  0.22593900  0.88311300  1
  O  O21  1  0.49861900  0.77406100  0.11688700  1
  O  O22  1  0.12259700  0.21156500  0.85901000  1
  O  O23  1  0.87740300  0.78843500  0.14099000  1
  O  O24  1  0.20427200  0.41342600  0.05220100  1
  O  O25  1  0.79572800  0.58657400  0.94779900  1
  O  O26  1  0.80340000  0.25772700  0.59086600  1
  O  O27  1  0.19660000  0.74227300  0.40913400  1
  O  O28  1  0.84724900  0.01742700  0.75996900  1
  O  O29  1  0.15275100  0.98257300  0.24003100  1
