# generated using pymatgen
data_Cr3(PO4)2
_symmetry_space_group_name_H-M   'P 1'
_cell_length_a   4.83687353
_cell_length_b   7.99944735
_cell_length_c   10.78228600
_cell_angle_alpha   90.00000000
_cell_angle_beta   90.00000000
_cell_angle_gamma   98.04748127
_symmetry_Int_Tables_number   1
_chemical_formula_structural   Cr3(PO4)2
_chemical_formula_sum   'Cr6 P4 O16'
_cell_volume   413.08326960
_cell_formula_units_Z   2
loop_
 _symmetry_equiv_pos_site_id
 _symmetry_equiv_pos_as_xyz
  1  'x, y, z'
loop_
 _atom_site_type_symbol
 _atom_site_label
 _atom_site_symmetry_multiplicity
 _atom_site_fract_x
 _atom_site_fract_y
 _atom_site_fract_z
 _atom_site_occupancy
  Cr  Cr0  1  0.47915800  0.45534200  0.81821900  1
  Cr  Cr1  1  0.97915800  0.95534200  0.68178100  1
  Cr  Cr2  1  0.52084200  0.54465800  0.18178100  1
  Cr  Cr3  1  0.02084200  0.04465800  0.31821900  1
  Cr  Cr4  1  0.50000000  0.50000000  0.50000000  1
  Cr  Cr5  1  0.00000000  0.00000000  0.00000000  1
  P  P6  1  0.05560800  0.58791400  0.68136100  1
  P  P7  1  0.55560800  0.08791400  0.81863900  1
  P  P8  1  0.94439200  0.41208600  0.31863900  1
  P  P9  1  0.44439200  0.91208600  0.18136100  1
  O  O10  1  0.72445200  0.55887100  0.67292800  1
  O  O11  1  0.22445200  0.05887100  0.82707200  1
  O  O12  1  0.27554800  0.44112900  0.32707200  1
  O  O13  1  0.77554800  0.94112900  0.17292800  1
  O  O14  1  0.17168200  0.44293000  0.61235200  1
  O  O15  1  0.67168200  0.94293000  0.88764800  1
  O  O16  1  0.82831800  0.55707000  0.38764800  1
  O  O17  1  0.32831800  0.05707000  0.11235200  1
  O  O18  1  0.16274500  0.76192900  0.62237500  1
  O  O19  1  0.66274500  0.26192900  0.87762500  1
  O  O20  1  0.83725500  0.23807100  0.37762500  1
  O  O21  1  0.33725500  0.73807100  0.12237500  1
  O  O22  1  0.14772300  0.58386700  0.81927800  1
  O  O23  1  0.64772300  0.08386700  0.68072200  1
  O  O24  1  0.85227700  0.41613300  0.18072200  1
  O  O25  1  0.35227700  0.91613300  0.31927800  1
