# generated using pymatgen
data_SmI3O10
_symmetry_space_group_name_H-M   'P 1'
_cell_length_a   6.68601500
_cell_length_b   7.46633400
_cell_length_c   10.14485786
_cell_angle_alpha   69.77163590
_cell_angle_beta   90.00000000
_cell_angle_gamma   90.00000000
_symmetry_Int_Tables_number   1
_chemical_formula_structural   SmI3O10
_chemical_formula_sum   'Sm2 I6 O20'
_cell_volume   475.19581959
_cell_formula_units_Z   2
loop_
 _symmetry_equiv_pos_site_id
 _symmetry_equiv_pos_as_xyz
  1  'x, y, z'
loop_
 _atom_site_type_symbol
 _atom_site_label
 _atom_site_symmetry_multiplicity
 _atom_site_fract_x
 _atom_site_fract_y
 _atom_site_fract_z
 _atom_site_occupancy
  Sm  Sm0  1  0.00049500  0.26529800  0.81117200  1
  Sm  Sm1  1  0.50049500  0.73470200  0.18882800  1
  I  I2  1  0.47442600  0.03153900  0.77579100  1
  I  I3  1  0.97442600  0.96846100  0.22420900  1
  I  I4  1  0.02633700  0.66796100  0.96109400  1
  I  I5  1  0.52633700  0.33203900  0.03890600  1
  I  I6  1  0.12859400  0.39386600  0.41830800  1
  I  I7  1  0.62859400  0.60613400  0.58169200  1
  O  O8  1  0.36060400  0.20491300  0.84872200  1
  O  O9  1  0.86060400  0.79508700  0.15127800  1
  O  O10  1  0.71258500  0.15508000  0.72280500  1
  O  O11  1  0.21258500  0.84492000  0.27719500  1
  O  O12  1  0.55202400  0.84833500  0.93935200  1
  O  O13  1  0.05202400  0.15166500  0.06064800  1
  O  O14  1  0.14061000  0.54506100  0.85071100  1
  O  O15  1  0.64061000  0.45493900  0.14928900  1
  O  O16  1  0.09814400  0.91428500  0.86004600  1
  O  O17  1  0.59814400  0.08571500  0.13995400  1
  O  O18  1  0.21782700  0.59777500  0.09943100  1
  O  O19  1  0.71782700  0.40222500  0.90056900  1
  O  O20  1  0.39443700  0.46377700  0.38987100  1
  O  O21  1  0.89443700  0.53622300  0.61012900  1
  O  O22  1  0.14066900  0.20249600  0.34000000  1
  O  O23  1  0.64066900  0.79750400  0.66000000  1
  O  O24  1  0.15809200  0.24685800  0.60367100  1
  O  O25  1  0.65809200  0.75314200  0.39632900  1
  O  O26  1  0.83592800  0.22330000  0.41238900  1
  O  O27  1  0.33592800  0.77670000  0.58761100  1
