# generated using pymatgen
data_MnV2Pb2O9
_symmetry_space_group_name_H-M   'P 1'
_cell_length_a   5.93204400
_cell_length_b   8.24245122
_cell_length_c   9.09674285
_cell_angle_alpha   113.03762710
_cell_angle_beta   90.00000000
_cell_angle_gamma   90.00000000
_symmetry_Int_Tables_number   1
_chemical_formula_structural   MnV2Pb2O9
_chemical_formula_sum   'Mn2 V4 Pb4 O18'
_cell_volume   409.30926562
_cell_formula_units_Z   2
loop_
 _symmetry_equiv_pos_site_id
 _symmetry_equiv_pos_as_xyz
  1  'x, y, z'
loop_
 _atom_site_type_symbol
 _atom_site_label
 _atom_site_symmetry_multiplicity
 _atom_site_fract_x
 _atom_site_fract_y
 _atom_site_fract_z
 _atom_site_occupancy
  Mn  Mn0  1  0.50000000  0.00000000  0.00000000  1
  Mn  Mn1  1  0.00000000  0.00000000  0.00000000  1
  V  V2  1  0.25000000  0.41478500  0.17398200  1
  V  V3  1  0.75000000  0.58521500  0.82601800  1
  V  V4  1  0.25000000  0.02114200  0.32306200  1
  V  V5  1  0.75000000  0.97885800  0.67693800  1
  Pb  Pb6  1  0.25000000  0.70965200  0.63318300  1
  Pb  Pb7  1  0.75000000  0.29034800  0.36681700  1
  Pb  Pb8  1  0.25000000  0.29165000  0.73062900  1
  Pb  Pb9  1  0.75000000  0.70835000  0.26937100  1
  O  O10  1  0.49078300  0.49020500  0.29125500  1
  O  O11  1  0.99078300  0.50979500  0.70874500  1
  O  O12  1  0.50921700  0.50979500  0.70874500  1
  O  O13  1  0.00921700  0.49020500  0.29125500  1
  O  O14  1  0.25000000  0.48952800  0.02855200  1
  O  O15  1  0.75000000  0.51047200  0.97144800  1
  O  O16  1  0.25000000  0.16875500  0.07992200  1
  O  O17  1  0.75000000  0.83124500  0.92007800  1
  O  O18  1  0.25000000  0.24367300  0.44207400  1
  O  O19  1  0.75000000  0.75632700  0.55792600  1
  O  O20  1  0.50138400  0.03153800  0.79945900  1
  O  O21  1  0.00138400  0.96846200  0.20054100  1
  O  O22  1  0.49861600  0.96846200  0.20054100  1
  O  O23  1  0.99861600  0.03153800  0.79945900  1
  O  O24  1  0.25000000  0.90664300  0.44106000  1
  O  O25  1  0.75000000  0.09335700  0.55894000  1
  O  O26  1  0.25000000  0.84147500  0.92142500  1
  O  O27  1  0.75000000  0.15852500  0.07857500  1
