# generated using pymatgen
data_Yb2PbS4
_symmetry_space_group_name_H-M   'P 1'
_cell_length_a   4.03450400
_cell_length_b   12.62557600
_cell_length_c   14.03292400
_cell_angle_alpha   90.00000000
_cell_angle_beta   90.00000000
_cell_angle_gamma   90.00000000
_symmetry_Int_Tables_number   1
_chemical_formula_structural   Yb2PbS4
_chemical_formula_sum   'Yb8 Pb4 S16'
_cell_volume   714.80819687
_cell_formula_units_Z   4
loop_
 _symmetry_equiv_pos_site_id
 _symmetry_equiv_pos_as_xyz
  1  'x, y, z'
loop_
 _atom_site_type_symbol
 _atom_site_label
 _atom_site_symmetry_multiplicity
 _atom_site_fract_x
 _atom_site_fract_y
 _atom_site_fract_z
 _atom_site_occupancy
  Yb  Yb0  1  0.25000000  0.54580600  0.88499200  1
  Yb  Yb1  1  0.25000000  0.04580600  0.61500800  1
  Yb  Yb2  1  0.75000000  0.45419400  0.11500800  1
  Yb  Yb3  1  0.75000000  0.95419400  0.38499200  1
  Yb  Yb4  1  0.25000000  0.66179300  0.38513300  1
  Yb  Yb5  1  0.25000000  0.16179300  0.11486700  1
  Yb  Yb6  1  0.75000000  0.33820700  0.61486700  1
  Yb  Yb7  1  0.75000000  0.83820700  0.88513300  1
  Pb  Pb8  1  0.25000000  0.72049800  0.14442900  1
  Pb  Pb9  1  0.25000000  0.22049800  0.35557100  1
  Pb  Pb10  1  0.75000000  0.27950200  0.85557100  1
  Pb  Pb11  1  0.75000000  0.77950200  0.64442900  1
  S  S12  1  0.25000000  0.85133600  0.50274600  1
  S  S13  1  0.25000000  0.35133600  0.99725400  1
  S  S14  1  0.75000000  0.14866400  0.49725400  1
  S  S15  1  0.75000000  0.64866400  0.00274600  1
  S  S16  1  0.25000000  0.73485000  0.79072000  1
  S  S17  1  0.25000000  0.23485000  0.70928000  1
  S  S18  1  0.75000000  0.26515000  0.20928000  1
  S  S19  1  0.75000000  0.76515000  0.29072000  1
  S  S20  1  0.25000000  0.51328500  0.53638300  1
  S  S21  1  0.25000000  0.01328500  0.96361700  1
  S  S22  1  0.75000000  0.48671500  0.46361700  1
  S  S23  1  0.75000000  0.98671500  0.03638300  1
  S  S24  1  0.25000000  0.53226900  0.22490900  1
  S  S25  1  0.25000000  0.03226900  0.27509100  1
  S  S26  1  0.75000000  0.46773100  0.77509100  1
  S  S27  1  0.75000000  0.96773100  0.72490900  1
