# generated using pymatgen
data_Fe(WCl5)2
_symmetry_space_group_name_H-M   'P 1'
_cell_length_a   9.02911211
_cell_length_b   9.02911211
_cell_length_c   12.92983985
_cell_angle_alpha   86.87735478
_cell_angle_beta   86.87735478
_cell_angle_gamma   139.15825283
_symmetry_Int_Tables_number   1
_chemical_formula_structural   Fe(WCl5)2
_chemical_formula_sum   'Fe2 W4 Cl20'
_cell_volume   680.90100549
_cell_formula_units_Z   2
loop_
 _symmetry_equiv_pos_site_id
 _symmetry_equiv_pos_as_xyz
  1  'x, y, z'
loop_
 _atom_site_type_symbol
 _atom_site_label
 _atom_site_symmetry_multiplicity
 _atom_site_fract_x
 _atom_site_fract_y
 _atom_site_fract_z
 _atom_site_occupancy
  Fe  Fe0  1  0.05725600  0.94274400  0.75000000  1
  Fe  Fe1  1  0.94274400  0.05725600  0.25000000  1
  W  W2  1  0.42900800  0.57099200  0.75000000  1
  W  W3  1  0.57099200  0.42900800  0.25000000  1
  W  W4  1  0.27200500  0.72799500  0.75000000  1
  W  W5  1  0.72799500  0.27200500  0.25000000  1
  Cl  Cl6  1  0.77637100  0.47678600  0.38000500  1
  Cl  Cl7  1  0.52321400  0.22362900  0.11999500  1
  Cl  Cl8  1  0.22362900  0.52321400  0.61999500  1
  Cl  Cl9  1  0.47678600  0.77637100  0.88000500  1
  Cl  Cl10  1  0.89473500  0.78801900  0.14641500  1
  Cl  Cl11  1  0.21198100  0.10526500  0.35358500  1
  Cl  Cl12  1  0.10526500  0.21198100  0.85358500  1
  Cl  Cl13  1  0.78801900  0.89473500  0.64641500  1
  Cl  Cl14  1  0.07626400  0.59069700  0.14914400  1
  Cl  Cl15  1  0.40930300  0.92373600  0.35085600  1
  Cl  Cl16  1  0.92373600  0.40930300  0.85085600  1
  Cl  Cl17  1  0.59069700  0.07626400  0.64914400  1
  Cl  Cl18  1  0.60910500  0.68047000  0.35207400  1
  Cl  Cl19  1  0.31953000  0.39089500  0.14792600  1
  Cl  Cl20  1  0.39089500  0.31953000  0.64792600  1
  Cl  Cl21  1  0.68047000  0.60910500  0.85207500  1
  Cl  Cl22  1  0.94483100  0.26519500  0.35817300  1
  Cl  Cl23  1  0.73480500  0.05516900  0.14182700  1
  Cl  Cl24  1  0.05516900  0.73480500  0.64182700  1
  Cl  Cl25  1  0.26519500  0.94483100  0.85817300  1
