# generated using pymatgen
data_Hg2PO4
_symmetry_space_group_name_H-M   'P 1'
_cell_length_a   7.95793666
_cell_length_b   7.95793666
_cell_length_c   8.18521434
_cell_angle_alpha   77.07723883
_cell_angle_beta   77.07723883
_cell_angle_gamma   105.62242332
_symmetry_Int_Tables_number   1
_chemical_formula_structural   Hg2PO4
_chemical_formula_sum   'Hg8 P4 O16'
_cell_volume   463.78396463
_cell_formula_units_Z   4
loop_
 _symmetry_equiv_pos_site_id
 _symmetry_equiv_pos_as_xyz
  1  'x, y, z'
loop_
 _atom_site_type_symbol
 _atom_site_label
 _atom_site_symmetry_multiplicity
 _atom_site_fract_x
 _atom_site_fract_y
 _atom_site_fract_z
 _atom_site_occupancy
  Hg  Hg0  1  0.76347400  0.55862700  0.05028500  1
  Hg  Hg1  1  0.44137300  0.23652600  0.44971500  1
  Hg  Hg2  1  0.23652600  0.44137300  0.94971500  1
  Hg  Hg3  1  0.55862700  0.76347400  0.55028500  1
  Hg  Hg4  1  0.92539700  0.56625200  0.29802600  1
  Hg  Hg5  1  0.43374800  0.07460300  0.20197400  1
  Hg  Hg6  1  0.07460300  0.43374800  0.70197400  1
  Hg  Hg7  1  0.56625200  0.92539700  0.79802600  1
  P  P8  1  0.05020700  0.94979300  0.75000000  1
  P  P9  1  0.94979300  0.05020700  0.25000000  1
  P  P10  1  0.36296100  0.63703900  0.25000000  1
  P  P11  1  0.63703900  0.36296100  0.75000000  1
  O  O12  1  0.40741200  0.82411300  0.11110500  1
  O  O13  1  0.17588700  0.59258800  0.38889500  1
  O  O14  1  0.59258800  0.17588700  0.88889500  1
  O  O15  1  0.82411300  0.40741200  0.61110500  1
  O  O16  1  0.36491700  0.48890900  0.15453300  1
  O  O17  1  0.51109100  0.63508300  0.34546700  1
  O  O18  1  0.63508300  0.51109100  0.84546700  1
  O  O19  1  0.48890900  0.36491700  0.65453300  1
  O  O20  1  0.84918700  0.89282300  0.87301200  1
  O  O21  1  0.10717700  0.15081300  0.62698800  1
  O  O22  1  0.15081300  0.10717700  0.12698800  1
  O  O23  1  0.89282300  0.84918700  0.37301200  1
  O  O24  1  0.18018300  0.93179800  0.86192300  1
  O  O25  1  0.06820200  0.81981700  0.63807700  1
  O  O26  1  0.81981700  0.06820200  0.13807700  1
  O  O27  1  0.93179800  0.18018300  0.36192300  1
