# generated using pymatgen
data_BeCuO5F4
_symmetry_space_group_name_H-M   'P 1'
_cell_length_a   4.96695400
_cell_length_b   6.52161938
_cell_length_c   9.14710310
_cell_angle_alpha   95.01788106
_cell_angle_beta   90.17138455
_cell_angle_gamma   103.74745916
_symmetry_Int_Tables_number   1
_chemical_formula_structural   BeCuO5F4
_chemical_formula_sum   'Be2 Cu2 O10 F8'
_cell_volume   286.62050987
_cell_formula_units_Z   2
loop_
 _symmetry_equiv_pos_site_id
 _symmetry_equiv_pos_as_xyz
  1  'x, y, z'
loop_
 _atom_site_type_symbol
 _atom_site_label
 _atom_site_symmetry_multiplicity
 _atom_site_fract_x
 _atom_site_fract_y
 _atom_site_fract_z
 _atom_site_occupancy
  Be  Be0  1  0.58303200  0.96616100  0.25772400  1
  Be  Be1  1  0.41696800  0.03383900  0.74227600  1
  Cu  Cu2  1  0.00000000  0.00000000  0.00000000  1
  Cu  Cu3  1  0.00000000  0.50000000  0.50000000  1
  O  O4  1  0.72285400  0.36576700  0.03787900  1
  O  O5  1  0.27714600  0.63423300  0.96212100  1
  O  O6  1  0.00493000  0.25265700  0.10418500  1
  O  O7  1  0.99507000  0.74734300  0.89581500  1
  O  O8  1  0.33603000  0.48376500  0.42310300  1
  O  O9  1  0.66397000  0.51623500  0.57689700  1
  O  O10  1  0.98866300  0.26947400  0.59061000  1
  O  O11  1  0.01133700  0.73052600  0.40939000  1
  O  O12  1  0.58834700  0.41746200  0.13788200  1
  O  O13  1  0.41165300  0.58253800  0.86211800  1
  F  F14  1  0.74363900  0.85321500  0.12188900  1
  F  F15  1  0.25636100  0.14678500  0.87811100  1
  F  F16  1  0.79195800  0.19128400  0.29530500  1
  F  F17  1  0.20804200  0.80871600  0.70469500  1
  F  F18  1  0.56611700  0.82716500  0.38523000  1
  F  F19  1  0.43388300  0.17283500  0.61477000  1
  F  F20  1  0.31641700  0.98285900  0.18513700  1
  F  F21  1  0.68358300  0.01714100  0.81486300  1
