# generated using pymatgen
data_InH4CSeO7
_symmetry_space_group_name_H-M   'P 1'
_cell_length_a   5.39779723
_cell_length_b   7.25114709
_cell_length_c   9.47936032
_cell_angle_alpha   99.55227477
_cell_angle_beta   102.09685243
_cell_angle_gamma   105.87047492
_symmetry_Int_Tables_number   1
_chemical_formula_structural   InH4CSeO7
_chemical_formula_sum   'In2 H8 C2 Se2 O14'
_cell_volume   338.98328099
_cell_formula_units_Z   2
loop_
 _symmetry_equiv_pos_site_id
 _symmetry_equiv_pos_as_xyz
  1  'x, y, z'
loop_
 _atom_site_type_symbol
 _atom_site_label
 _atom_site_symmetry_multiplicity
 _atom_site_fract_x
 _atom_site_fract_y
 _atom_site_fract_z
 _atom_site_occupancy
  In  In0  1  0.88299800  0.95534700  0.67160300  1
  In  In1  1  0.11700200  0.04465300  0.32839700  1
  H  H2  1  0.20572300  0.72471400  0.61531500  1
  H  H3  1  0.79427700  0.27528600  0.38468500  1
  H  H4  1  0.11916700  0.68139100  0.76313700  1
  H  H5  1  0.88083300  0.31860900  0.23686300  1
  H  H6  1  0.61001100  0.30988700  0.02147500  1
  H  H7  1  0.38998900  0.69011300  0.97852500  1
  H  H8  1  0.84097900  0.51512400  0.07846400  1
  H  H9  1  0.15902100  0.48487600  0.92153600  1
  C  C10  1  0.13477100  0.08096300  0.01275000  1
  C  C11  1  0.86522900  0.91903700  0.98725000  1
  Se  Se12  1  0.47615200  0.69702700  0.36738700  1
  Se  Se13  1  0.52384800  0.30297300  0.63261300  1
  O  O14  1  0.05601800  0.71342800  0.66500900  1
  O  O15  1  0.94398200  0.28657200  0.33499100  1
  O  O16  1  0.46950100  0.73643900  0.55164300  1
  O  O17  1  0.53049900  0.26356100  0.44835700  1
  O  O18  1  0.20150400  0.12702100  0.89905600  1
  O  O19  1  0.79849600  0.87297900  0.10094400  1
  O  O20  1  0.72542300  0.84170000  0.85481500  1
  O  O21  1  0.27457700  0.15830000  0.14518500  1
  O  O22  1  0.74859400  0.20463600  0.71999900  1
  O  O23  1  0.25140600  0.79536400  0.28000100  1
  O  O24  1  0.79132400  0.87822600  0.41423000  1
  O  O25  1  0.20867600  0.12177400  0.58577000  1
  O  O26  1  0.79875100  0.37405500  0.07545100  1
  O  O27  1  0.20124900  0.62594500  0.92454900  1
