# generated using pymatgen
data_ZrP2N3O8F
_symmetry_space_group_name_H-M   'P 1'
_cell_length_a   9.10344151
_cell_length_b   9.10344151
_cell_length_c   10.07671116
_cell_angle_alpha   62.30204134
_cell_angle_beta   62.30204134
_cell_angle_gamma   43.77728392
_symmetry_Int_Tables_number   1
_chemical_formula_structural   ZrP2N3O8F
_chemical_formula_sum   'Zr2 P4 N6 O16 F2'
_cell_volume   500.04564608
_cell_formula_units_Z   2
loop_
 _symmetry_equiv_pos_site_id
 _symmetry_equiv_pos_as_xyz
  1  'x, y, z'
loop_
 _atom_site_type_symbol
 _atom_site_label
 _atom_site_symmetry_multiplicity
 _atom_site_fract_x
 _atom_site_fract_y
 _atom_site_fract_z
 _atom_site_occupancy
  Zr  Zr0  1  0.45040800  0.81512800  0.69224400  1
  Zr  Zr1  1  0.18487200  0.54959200  0.30775600  1
  P  P2  1  0.96907000  0.31622000  0.59095700  1
  P  P3  1  0.68378000  0.03093000  0.40904300  1
  P  P4  1  0.52201200  0.67804300  0.05925400  1
  P  P5  1  0.32195700  0.47798800  0.94074600  1
  N  N6  1  0.84168400  0.15831600  0.00000000  1
  N  N7  1  0.59811700  0.87175200  0.13607000  1
  N  N8  1  0.12824800  0.40188300  0.86393000  1
  N  N9  1  0.82710700  0.10301800  0.65764300  1
  N  N10  1  0.89698200  0.17289300  0.34235700  1
  N  N11  1  0.43823800  0.56176200  0.50000000  1
  O  O12  1  0.45338400  0.90394900  0.11850300  1
  O  O13  1  0.09605100  0.54661600  0.88149700  1
  O  O14  1  0.74618400  0.48977900  0.07965400  1
  O  O15  1  0.51022100  0.25381600  0.92034600  1
  O  O16  1  0.47324500  0.80149900  0.89900500  1
  O  O17  1  0.19850100  0.52675500  0.10099500  1
  O  O18  1  0.05222300  0.38856800  0.42682100  1
  O  O19  1  0.61143200  0.94777700  0.57317900  1
  O  O20  1  0.13612300  0.12962600  0.68971000  1
  O  O21  1  0.87037400  0.86387700  0.31029000  1
  O  O22  1  0.75666400  0.49448700  0.67243400  1
  O  O23  1  0.50551300  0.24333600  0.32756600  1
  O  O24  1  0.90280300  0.19172300  0.55683800  1
  O  O25  1  0.80827700  0.09719700  0.44316200  1
  O  O26  1  0.33287000  0.68720600  0.17522800  1
  O  O27  1  0.31279400  0.66713000  0.82477200  1
  F  F28  1  0.43924400  0.85457800  0.48755800  1
  F  F29  1  0.14542200  0.56075600  0.51244200  1
