# generated using pymatgen
data_Ba(CO2)2
_symmetry_space_group_name_H-M   'P 1'
_cell_length_a   6.98078100
_cell_length_b   7.84013700
_cell_length_c   9.01260700
_cell_angle_alpha   90.00000000
_cell_angle_beta   90.00000000
_cell_angle_gamma   90.00000000
_symmetry_Int_Tables_number   1
_chemical_formula_structural   Ba(CO2)2
_chemical_formula_sum   'Ba4 C8 O16'
_cell_volume   493.26249930
_cell_formula_units_Z   4
loop_
 _symmetry_equiv_pos_site_id
 _symmetry_equiv_pos_as_xyz
  1  'x, y, z'
loop_
 _atom_site_type_symbol
 _atom_site_label
 _atom_site_symmetry_multiplicity
 _atom_site_fract_x
 _atom_site_fract_y
 _atom_site_fract_z
 _atom_site_occupancy
  Ba  Ba0  1  0.08762400  0.79239200  0.17366100  1
  Ba  Ba1  1  0.91237600  0.29239200  0.32633900  1
  Ba  Ba2  1  0.58762400  0.70760800  0.82633900  1
  Ba  Ba3  1  0.41237600  0.20760800  0.67366100  1
  C  C4  1  0.58264700  0.63237700  0.20484000  1
  C  C5  1  0.41735300  0.13237700  0.29516000  1
  C  C6  1  0.08264700  0.86762300  0.79516000  1
  C  C7  1  0.91735300  0.36762300  0.70484000  1
  C  C8  1  0.24868900  0.36453100  0.00918900  1
  C  C9  1  0.75131100  0.86453100  0.49081100  1
  C  C10  1  0.74868900  0.13546900  0.99081100  1
  C  C11  1  0.25131100  0.63546900  0.50918900  1
  O  O12  1  0.74868400  0.57996400  0.17627900  1
  O  O13  1  0.25131600  0.07996400  0.32372100  1
  O  O14  1  0.24868400  0.92003600  0.82372100  1
  O  O15  1  0.75131600  0.42003600  0.67627900  1
  O  O16  1  0.47625000  0.73186600  0.13461600  1
  O  O17  1  0.52375000  0.23186600  0.36538400  1
  O  O18  1  0.97625000  0.76813400  0.86538400  1
  O  O19  1  0.02375000  0.26813400  0.63461600  1
  O  O20  1  0.36854500  0.42138000  0.91779300  1
  O  O21  1  0.63145500  0.92138000  0.58220700  1
  O  O22  1  0.86854500  0.07862000  0.08220700  1
  O  O23  1  0.13145500  0.57862000  0.41779300  1
  O  O24  1  0.15027000  0.43513400  0.10739000  1
  O  O25  1  0.84973000  0.93513400  0.39261000  1
  O  O26  1  0.65027000  0.06486600  0.89261000  1
  O  O27  1  0.34973000  0.56486600  0.60739000  1
