# generated using pymatgen
data_Ca13Al14
_symmetry_space_group_name_H-M   'P 1'
_cell_length_a   9.12885968
_cell_length_b   9.12885968
_cell_length_c   9.68928035
_cell_angle_alpha   74.85216155
_cell_angle_beta   74.85216155
_cell_angle_gamma   65.29638678
_symmetry_Int_Tables_number   1
_chemical_formula_structural   Ca13Al14
_chemical_formula_sum   'Ca13 Al14'
_cell_volume   697.34795931
_cell_formula_units_Z   1
loop_
 _symmetry_equiv_pos_site_id
 _symmetry_equiv_pos_as_xyz
  1  'x, y, z'
loop_
 _atom_site_type_symbol
 _atom_site_label
 _atom_site_symmetry_multiplicity
 _atom_site_fract_x
 _atom_site_fract_y
 _atom_site_fract_z
 _atom_site_occupancy
  Ca  Ca0  1  0.94312700  0.34925000  0.63458300  1
  Ca  Ca1  1  0.34925000  0.94312700  0.63458300  1
  Ca  Ca2  1  0.05687300  0.65075000  0.36541700  1
  Ca  Ca3  1  0.65075000  0.05687300  0.36541700  1
  Ca  Ca4  1  0.08088700  0.64317300  0.77284000  1
  Ca  Ca5  1  0.64317300  0.08088700  0.77284000  1
  Ca  Ca6  1  0.91911300  0.35682700  0.22716000  1
  Ca  Ca7  1  0.35682700  0.91911300  0.22716000  1
  Ca  Ca8  1  0.19679700  0.19679700  0.91586200  1
  Ca  Ca9  1  0.80320300  0.80320300  0.08413800  1
  Ca  Ca10  1  0.50297500  0.50297500  0.79688400  1
  Ca  Ca11  1  0.49702500  0.49702500  0.20311600  1
  Ca  Ca12  1  0.00000000  0.00000000  0.50000000  1
  Al  Al13  1  0.79514200  0.52287100  0.91717100  1
  Al  Al14  1  0.52287100  0.79514200  0.91717100  1
  Al  Al15  1  0.20485800  0.47712900  0.08282900  1
  Al  Al16  1  0.47712900  0.20485800  0.08282900  1
  Al  Al17  1  0.00209600  0.00209600  0.84208500  1
  Al  Al18  1  0.99790400  0.99790400  0.15791500  1
  Al  Al19  1  0.25992500  0.25992500  0.34288100  1
  Al  Al20  1  0.74007500  0.74007500  0.65711900  1
  Al  Al21  1  0.33937000  0.33937000  0.56906800  1
  Al  Al22  1  0.66063000  0.66063000  0.43093200  1
  Al  Al23  1  0.64635200  0.35364800  0.50000000  1
  Al  Al24  1  0.35364800  0.64635200  0.50000000  1
  Al  Al25  1  0.77506000  0.22494000  0.00000000  1
  Al  Al26  1  0.22494000  0.77506000  0.00000000  1
