# generated using pymatgen
data_Sb2C4O
_symmetry_space_group_name_H-M   'P 1'
_cell_length_a   4.18352800
_cell_length_b   9.24473700
_cell_length_c   15.09691300
_cell_angle_alpha   90.00000000
_cell_angle_beta   90.00000000
_cell_angle_gamma   90.00000000
_symmetry_Int_Tables_number   1
_chemical_formula_structural   Sb2C4O
_chemical_formula_sum   'Sb8 C16 O4'
_cell_volume   583.88241136
_cell_formula_units_Z   4
loop_
 _symmetry_equiv_pos_site_id
 _symmetry_equiv_pos_as_xyz
  1  'x, y, z'
loop_
 _atom_site_type_symbol
 _atom_site_label
 _atom_site_symmetry_multiplicity
 _atom_site_fract_x
 _atom_site_fract_y
 _atom_site_fract_z
 _atom_site_occupancy
  Sb  Sb0  1  0.61276200  0.31996400  0.57390500  1
  Sb  Sb1  1  0.88723800  0.68003600  0.07390500  1
  Sb  Sb2  1  0.11276200  0.18003600  0.42609500  1
  Sb  Sb3  1  0.38723800  0.81996400  0.92609500  1
  Sb  Sb4  1  0.30986300  0.24840500  0.84372300  1
  Sb  Sb5  1  0.19013700  0.75159500  0.34372300  1
  Sb  Sb6  1  0.80986300  0.25159500  0.15627700  1
  Sb  Sb7  1  0.69013700  0.74840500  0.65627700  1
  C  C8  1  0.35551900  0.74651700  0.54164100  1
  C  C9  1  0.14448100  0.25348300  0.04164100  1
  C  C10  1  0.85551900  0.75348300  0.45835900  1
  C  C11  1  0.64448100  0.24651700  0.95835900  1
  C  C12  1  0.02542100  0.74783400  0.54144700  1
  C  C13  1  0.47457900  0.25216600  0.04144700  1
  C  C14  1  0.52542100  0.75216600  0.45855300  1
  C  C15  1  0.97457900  0.24783400  0.95855300  1
  C  C16  1  0.62893400  0.11136200  0.62765700  1
  C  C17  1  0.87106600  0.88863800  0.12765700  1
  C  C18  1  0.12893400  0.38863800  0.37234300  1
  C  C19  1  0.37106600  0.61136200  0.87234300  1
  C  C20  1  0.66522400  0.97948300  0.63677900  1
  C  C21  1  0.83477600  0.02051700  0.13677900  1
  C  C22  1  0.16522400  0.52051700  0.36322100  1
  C  C23  1  0.33477600  0.47948300  0.86322100  1
  O  O24  1  0.60501500  0.44412200  0.67240800  1
  O  O25  1  0.89498500  0.55587800  0.17240800  1
  O  O26  1  0.10501500  0.05587800  0.32759200  1
  O  O27  1  0.39498500  0.94412200  0.82759200  1
