# generated using pymatgen
data_U(C2O5)2
_symmetry_space_group_name_H-M   'P 1'
_cell_length_a   6.66545590
_cell_length_b   6.66545590
_cell_length_c   10.52369700
_cell_angle_alpha   90.00000000
_cell_angle_beta   90.00000000
_cell_angle_gamma   90.19133090
_symmetry_Int_Tables_number   1
_chemical_formula_structural   U(C2O5)2
_chemical_formula_sum   'U2 C8 O20'
_cell_volume   467.54738595
_cell_formula_units_Z   2
loop_
 _symmetry_equiv_pos_site_id
 _symmetry_equiv_pos_as_xyz
  1  'x, y, z'
loop_
 _atom_site_type_symbol
 _atom_site_label
 _atom_site_symmetry_multiplicity
 _atom_site_fract_x
 _atom_site_fract_y
 _atom_site_fract_z
 _atom_site_occupancy
  U  U0  1  0.50000000  0.50000000  0.50000000  1
  U  U1  1  0.00000000  0.00000000  0.00000000  1
  C  C2  1  0.72952000  0.87785700  0.29638400  1
  C  C3  1  0.62214300  0.77048000  0.79638400  1
  C  C4  1  0.37785700  0.22952000  0.79638400  1
  C  C5  1  0.27048000  0.12214300  0.29638400  1
  C  C6  1  0.77048000  0.62214300  0.20361600  1
  C  C7  1  0.87785700  0.72952000  0.70361600  1
  C  C8  1  0.12214300  0.27048000  0.70361600  1
  C  C9  1  0.22952000  0.37785700  0.20361600  1
  O  O10  1  0.65102800  0.83603600  0.39732600  1
  O  O11  1  0.66396400  0.84897200  0.89732600  1
  O  O12  1  0.33603600  0.15102800  0.89732600  1
  O  O13  1  0.34897200  0.16396400  0.39732600  1
  O  O14  1  0.84897200  0.66396400  0.10267400  1
  O  O15  1  0.83603600  0.65102800  0.60267400  1
  O  O16  1  0.16396400  0.34897200  0.60267400  1
  O  O17  1  0.15102800  0.33603600  0.10267400  1
  O  O18  1  0.79159800  0.01212200  0.22853000  1
  O  O19  1  0.48787800  0.70840200  0.72853000  1
  O  O20  1  0.51212200  0.29159800  0.72853000  1
  O  O21  1  0.20840200  0.98787800  0.22853000  1
  O  O22  1  0.70840200  0.48787800  0.27147000  1
  O  O23  1  0.01212200  0.79159800  0.77147000  1
  O  O24  1  0.98787800  0.20840200  0.77147000  1
  O  O25  1  0.29159800  0.51212200  0.27147000  1
  O  O26  1  0.68834000  0.31166000  0.50000000  1
  O  O27  1  0.18834000  0.81166000  0.00000000  1
  O  O28  1  0.81166000  0.18834000  0.00000000  1
  O  O29  1  0.31166000  0.68834000  0.50000000  1
