# generated using pymatgen
data_Eu(BiSe2)2
_symmetry_space_group_name_H-M   'P 1'
_cell_length_a   4.24958700
_cell_length_b   12.51262500
_cell_length_c   15.45148100
_cell_angle_alpha   90.00000000
_cell_angle_beta   90.00000000
_cell_angle_gamma   90.00000000
_symmetry_Int_Tables_number   1
_chemical_formula_structural   Eu(BiSe2)2
_chemical_formula_sum   'Eu4 Bi8 Se16'
_cell_volume   821.60914782
_cell_formula_units_Z   4
loop_
 _symmetry_equiv_pos_site_id
 _symmetry_equiv_pos_as_xyz
  1  'x, y, z'
loop_
 _atom_site_type_symbol
 _atom_site_label
 _atom_site_symmetry_multiplicity
 _atom_site_fract_x
 _atom_site_fract_y
 _atom_site_fract_z
 _atom_site_occupancy
  Eu  Eu0  1  0.75000000  0.25429900  0.16162100  1
  Eu  Eu1  1  0.75000000  0.75429900  0.33837900  1
  Eu  Eu2  1  0.25000000  0.74570100  0.83837900  1
  Eu  Eu3  1  0.25000000  0.24570100  0.66162100  1
  Bi  Bi4  1  0.75000000  0.42917500  0.89996100  1
  Bi  Bi5  1  0.75000000  0.92917500  0.60003900  1
  Bi  Bi6  1  0.25000000  0.57082500  0.10003900  1
  Bi  Bi7  1  0.25000000  0.07082500  0.39996100  1
  Bi  Bi8  1  0.75000000  0.42109400  0.39036800  1
  Bi  Bi9  1  0.75000000  0.92109400  0.10963200  1
  Bi  Bi10  1  0.25000000  0.57890600  0.60963200  1
  Bi  Bi11  1  0.25000000  0.07890600  0.89036800  1
  Se  Se12  1  0.75000000  0.14704800  0.52928400  1
  Se  Se13  1  0.75000000  0.64704800  0.97071600  1
  Se  Se14  1  0.25000000  0.85295200  0.47071600  1
  Se  Se15  1  0.25000000  0.35295200  0.02928400  1
  Se  Se16  1  0.75000000  0.21907000  0.81394100  1
  Se  Se17  1  0.75000000  0.71907000  0.68605900  1
  Se  Se18  1  0.25000000  0.78093000  0.18605900  1
  Se  Se19  1  0.25000000  0.28093000  0.31394100  1
  Se  Se20  1  0.75000000  0.41683700  0.58454300  1
  Se  Se21  1  0.75000000  0.91683700  0.91545700  1
  Se  Se22  1  0.25000000  0.58316300  0.41545700  1
  Se  Se23  1  0.25000000  0.08316300  0.08454300  1
  Se  Se24  1  0.75000000  0.50561000  0.21241600  1
  Se  Se25  1  0.75000000  0.00561000  0.28758400  1
  Se  Se26  1  0.25000000  0.49439000  0.78758400  1
  Se  Se27  1  0.25000000  0.99439000  0.71241600  1
