# generated using pymatgen
data_Hf6Ga16Rh7
_symmetry_space_group_name_H-M   'P 1'
_cell_length_a   8.74306281
_cell_length_b   8.74306281
_cell_length_c   8.74306281
_cell_angle_alpha   60.00000000
_cell_angle_beta   60.00000000
_cell_angle_gamma   60.00000000
_symmetry_Int_Tables_number   1
_chemical_formula_structural   Hf6Ga16Rh7
_chemical_formula_sum   'Hf6 Ga16 Rh7'
_cell_volume   472.58049949
_cell_formula_units_Z   1
loop_
 _symmetry_equiv_pos_site_id
 _symmetry_equiv_pos_as_xyz
  1  'x, y, z'
loop_
 _atom_site_type_symbol
 _atom_site_label
 _atom_site_symmetry_multiplicity
 _atom_site_fract_x
 _atom_site_fract_y
 _atom_site_fract_z
 _atom_site_occupancy
  Hf  Hf0  1  0.69082300  0.69082300  0.30917700  1
  Hf  Hf1  1  0.30917700  0.69082300  0.30917700  1
  Hf  Hf2  1  0.69082300  0.30917700  0.30917700  1
  Hf  Hf3  1  0.30917700  0.30917700  0.69082300  1
  Hf  Hf4  1  0.69082300  0.30917700  0.69082300  1
  Hf  Hf5  1  0.30917700  0.69082300  0.69082300  1
  Ga  Ga6  1  0.87821200  0.87821200  0.36536500  1
  Ga  Ga7  1  0.87821200  0.36536500  0.87821200  1
  Ga  Ga8  1  0.36536500  0.87821200  0.87821200  1
  Ga  Ga9  1  0.87821200  0.87821200  0.87821200  1
  Ga  Ga10  1  0.12178800  0.12178800  0.63463500  1
  Ga  Ga11  1  0.12178800  0.63463500  0.12178800  1
  Ga  Ga12  1  0.63463500  0.12178800  0.12178800  1
  Ga  Ga13  1  0.12178800  0.12178800  0.12178800  1
  Ga  Ga14  1  0.65638000  0.65638000  0.03086000  1
  Ga  Ga15  1  0.65638000  0.03086000  0.65638000  1
  Ga  Ga16  1  0.03086000  0.65638000  0.65638000  1
  Ga  Ga17  1  0.65638000  0.65638000  0.65638000  1
  Ga  Ga18  1  0.34362000  0.34362000  0.96914000  1
  Ga  Ga19  1  0.34362000  0.96914000  0.34362000  1
  Ga  Ga20  1  0.96914000  0.34362000  0.34362000  1
  Ga  Ga21  1  0.34362000  0.34362000  0.34362000  1
  Rh  Rh22  1  0.00000000  0.00000000  0.00000000  1
  Rh  Rh23  1  0.00000000  0.00000000  0.50000000  1
  Rh  Rh24  1  0.50000000  0.00000000  0.50000000  1
  Rh  Rh25  1  0.00000000  0.50000000  0.50000000  1
  Rh  Rh26  1  0.50000000  0.50000000  0.00000000  1
  Rh  Rh27  1  0.00000000  0.50000000  0.00000000  1
  Rh  Rh28  1  0.50000000  0.00000000  0.00000000  1
