# generated using pymatgen
data_Yb(TmSe2)2
_symmetry_space_group_name_H-M   'P 1'
_cell_length_a   4.00311300
_cell_length_b   13.39547700
_cell_length_c   13.69015500
_cell_angle_alpha   90.00000000
_cell_angle_beta   90.00000000
_cell_angle_gamma   90.00000000
_symmetry_Int_Tables_number   1
_chemical_formula_structural   Yb(TmSe2)2
_chemical_formula_sum   'Yb4 Tm8 Se16'
_cell_volume   734.11550682
_cell_formula_units_Z   4
loop_
 _symmetry_equiv_pos_site_id
 _symmetry_equiv_pos_as_xyz
  1  'x, y, z'
loop_
 _atom_site_type_symbol
 _atom_site_label
 _atom_site_symmetry_multiplicity
 _atom_site_fract_x
 _atom_site_fract_y
 _atom_site_fract_z
 _atom_site_occupancy
  Yb  Yb0  1  0.25000000  0.37056800  0.58211000  1
  Yb  Yb1  1  0.25000000  0.87056800  0.91789000  1
  Yb  Yb2  1  0.75000000  0.62943200  0.41789000  1
  Yb  Yb3  1  0.75000000  0.12943200  0.08211000  1
  Tm  Tm4  1  0.25000000  0.10798200  0.41780600  1
  Tm  Tm5  1  0.25000000  0.60798200  0.08219400  1
  Tm  Tm6  1  0.75000000  0.89201800  0.58219400  1
  Tm  Tm7  1  0.75000000  0.39201800  0.91780600  1
  Tm  Tm8  1  0.25000000  0.14842400  0.79623700  1
  Tm  Tm9  1  0.25000000  0.64842400  0.70376300  1
  Tm  Tm10  1  0.75000000  0.85157600  0.20376300  1
  Tm  Tm11  1  0.75000000  0.35157600  0.29623700  1
  Se  Se12  1  0.25000000  0.21454700  0.23620200  1
  Se  Se13  1  0.25000000  0.71454700  0.26379800  1
  Se  Se14  1  0.75000000  0.78545300  0.76379800  1
  Se  Se15  1  0.75000000  0.28545300  0.73620200  1
  Se  Se16  1  0.25000000  0.25594600  0.97437800  1
  Se  Se17  1  0.25000000  0.75594600  0.52562200  1
  Se  Se18  1  0.75000000  0.74405400  0.02562200  1
  Se  Se19  1  0.75000000  0.24405400  0.47437800  1
  Se  Se20  1  0.25000000  0.46957300  0.38230900  1
  Se  Se21  1  0.25000000  0.96957300  0.11769100  1
  Se  Se22  1  0.75000000  0.53042700  0.61769100  1
  Se  Se23  1  0.75000000  0.03042700  0.88230900  1
  Se  Se24  1  0.25000000  0.03477500  0.61816700  1
  Se  Se25  1  0.25000000  0.53477500  0.88183300  1
  Se  Se26  1  0.75000000  0.96522500  0.38183300  1
  Se  Se27  1  0.75000000  0.46522500  0.11816700  1
