# generated using pymatgen
data_Mn20(WC2)3
_symmetry_space_group_name_H-M   'P 1'
_cell_length_a   7.44630110
_cell_length_b   7.44630110
_cell_length_c   7.44630110
_cell_angle_alpha   60.00000000
_cell_angle_beta   60.00000000
_cell_angle_gamma   60.00000000
_symmetry_Int_Tables_number   1
_chemical_formula_structural   Mn20(WC2)3
_chemical_formula_sum   'Mn20 W3 C6'
_cell_volume   291.94885874
_cell_formula_units_Z   1
loop_
 _symmetry_equiv_pos_site_id
 _symmetry_equiv_pos_as_xyz
  1  'x, y, z'
loop_
 _atom_site_type_symbol
 _atom_site_label
 _atom_site_symmetry_multiplicity
 _atom_site_fract_x
 _atom_site_fract_y
 _atom_site_fract_z
 _atom_site_occupancy
  Mn  Mn0  1  0.84691600  0.38436100  0.38436100  1
  Mn  Mn1  1  0.38436100  0.84691600  0.38436100  1
  Mn  Mn2  1  0.38436100  0.38436100  0.84691600  1
  Mn  Mn3  1  0.38436100  0.38436100  0.38436100  1
  Mn  Mn4  1  0.15308400  0.61563900  0.61563900  1
  Mn  Mn5  1  0.61563900  0.15308400  0.61563900  1
  Mn  Mn6  1  0.61563900  0.61563900  0.15308400  1
  Mn  Mn7  1  0.61563900  0.61563900  0.61563900  1
  Mn  Mn8  1  0.65877500  0.00000000  0.00000000  1
  Mn  Mn9  1  0.65877500  0.00000000  0.34122500  1
  Mn  Mn10  1  0.65877500  0.34122500  0.00000000  1
  Mn  Mn11  1  0.00000000  0.65877500  0.34122500  1
  Mn  Mn12  1  0.00000000  0.65877500  0.00000000  1
  Mn  Mn13  1  0.34122500  0.65877500  0.00000000  1
  Mn  Mn14  1  0.00000000  0.34122500  0.65877500  1
  Mn  Mn15  1  0.34122500  0.00000000  0.65877500  1
  Mn  Mn16  1  0.00000000  0.00000000  0.65877500  1
  Mn  Mn17  1  0.34122500  0.00000000  0.00000000  1
  Mn  Mn18  1  0.00000000  0.34122500  0.00000000  1
  Mn  Mn19  1  0.00000000  0.00000000  0.34122500  1
  W  W20  1  0.00000000  0.00000000  0.00000000  1
  W  W21  1  0.25000000  0.25000000  0.25000000  1
  W  W22  1  0.75000000  0.75000000  0.75000000  1
  C  C23  1  0.72598800  0.27401200  0.27401200  1
  C  C24  1  0.72598800  0.27401200  0.72598800  1
  C  C25  1  0.72598800  0.72598800  0.27401200  1
  C  C26  1  0.27401200  0.72598800  0.72598800  1
  C  C27  1  0.27401200  0.72598800  0.27401200  1
  C  C28  1  0.27401200  0.27401200  0.72598800  1
