# generated using pymatgen
data_Bi(MoO5)2
_symmetry_space_group_name_H-M   'P 1'
_cell_length_a   5.69102375
_cell_length_b   5.96380712
_cell_length_c   11.55091700
_cell_angle_alpha   90.00000000
_cell_angle_beta   90.00000000
_cell_angle_gamma   109.04417192
_symmetry_Int_Tables_number   1
_chemical_formula_structural   Bi(MoO5)2
_chemical_formula_sum   'Bi2 Mo4 O20'
_cell_volume   370.58265195
_cell_formula_units_Z   2
loop_
 _symmetry_equiv_pos_site_id
 _symmetry_equiv_pos_as_xyz
  1  'x, y, z'
loop_
 _atom_site_type_symbol
 _atom_site_label
 _atom_site_symmetry_multiplicity
 _atom_site_fract_x
 _atom_site_fract_y
 _atom_site_fract_z
 _atom_site_occupancy
  Bi  Bi0  1  0.62853400  0.26338700  0.25000000  1
  Bi  Bi1  1  0.37146600  0.73661300  0.75000000  1
  Mo  Mo2  1  0.19264800  0.65122800  0.40388000  1
  Mo  Mo3  1  0.80735200  0.34877200  0.90388000  1
  Mo  Mo4  1  0.80735200  0.34877200  0.59612000  1
  Mo  Mo5  1  0.19264800  0.65122800  0.09612000  1
  O  O6  1  0.90133300  0.05891200  0.25000000  1
  O  O7  1  0.09866700  0.94108800  0.75000000  1
  O  O8  1  0.02526400  0.59028600  0.25000000  1
  O  O9  1  0.97473600  0.40971400  0.75000000  1
  O  O10  1  0.84602300  0.37468500  0.43214300  1
  O  O11  1  0.15397700  0.62531500  0.93214300  1
  O  O12  1  0.15397700  0.62531500  0.56785700  1
  O  O13  1  0.84602300  0.37468500  0.06785700  1
  O  O14  1  0.94872900  0.88783000  0.41641800  1
  O  O15  1  0.05127100  0.11217000  0.91641800  1
  O  O16  1  0.05127100  0.11217000  0.58358200  1
  O  O17  1  0.94872900  0.88783000  0.08358200  1
  O  O18  1  0.40004200  0.49746000  0.37635300  1
  O  O19  1  0.59995800  0.50254000  0.87635300  1
  O  O20  1  0.59995800  0.50254000  0.62364700  1
  O  O21  1  0.40004200  0.49746000  0.12364700  1
  O  O22  1  0.38215600  0.95397200  0.37945600  1
  O  O23  1  0.61784400  0.04602800  0.87945600  1
  O  O24  1  0.61784400  0.04602800  0.62054400  1
  O  O25  1  0.38215600  0.95397200  0.12054400  1
