# generated using pymatgen
data_FeH12C4(S2O3)2
_symmetry_space_group_name_H-M   'P 1'
_cell_length_a   7.06402035
_cell_length_b   7.40709962
_cell_length_c   7.64435352
_cell_angle_alpha   69.79230481
_cell_angle_beta   69.36559752
_cell_angle_gamma   76.12036915
_symmetry_Int_Tables_number   1
_chemical_formula_structural   FeH12C4(S2O3)2
_chemical_formula_sum   'Fe1 H12 C4 S4 O6'
_cell_volume   348.08841243
_cell_formula_units_Z   1
loop_
 _symmetry_equiv_pos_site_id
 _symmetry_equiv_pos_as_xyz
  1  'x, y, z'
loop_
 _atom_site_type_symbol
 _atom_site_label
 _atom_site_symmetry_multiplicity
 _atom_site_fract_x
 _atom_site_fract_y
 _atom_site_fract_z
 _atom_site_occupancy
  Fe  Fe0  1  0.00000000  0.00000000  0.00000000  1
  H  H1  1  0.82844000  0.68369200  0.03552100  1
  H  H2  1  0.17156000  0.31630800  0.96447900  1
  H  H3  1  0.80033300  0.69111400  0.25533700  1
  H  H4  1  0.19966700  0.30888600  0.74466300  1
  H  H5  1  0.26248300  0.37275200  0.21422200  1
  H  H6  1  0.73751700  0.62724800  0.78577800  1
  H  H7  1  0.11971100  0.53654200  0.10884800  1
  H  H8  1  0.88028900  0.46345800  0.89115200  1
  H  H9  1  0.45171500  0.28859000  0.45108200  1
  H  H10  1  0.54828500  0.71141000  0.54891800  1
  H  H11  1  0.34508200  0.50452600  0.42358900  1
  H  H12  1  0.65491800  0.49547400  0.57641100  1
  C  C13  1  0.10273100  0.94335700  0.39078400  1
  C  C14  1  0.89726900  0.05664300  0.60921600  1
  C  C15  1  0.89683800  0.05009000  0.42102700  1
  C  C16  1  0.10316200  0.94991000  0.57897300  1
  S  S17  1  0.25874400  0.85826300  0.20830000  1
  S  S18  1  0.74125600  0.14173600  0.79170000  1
  S  S19  1  0.74070700  0.12413200  0.28374500  1
  S  S20  1  0.25929300  0.87586800  0.71625500  1
  O  O21  1  0.88861400  0.72313600  0.11681100  1
  O  O22  1  0.11138600  0.27686400  0.88318900  1
  O  O23  1  0.22780900  0.42579500  0.09161100  1
  O  O24  1  0.77219100  0.57420500  0.90838900  1
  O  O25  1  0.31969100  0.36968500  0.49052400  1
  O  O26  1  0.68030900  0.63031500  0.50947600  1
