# generated using pymatgen
data_Sc(SeO3)3
_symmetry_space_group_name_H-M   'P 1'
_cell_length_a   7.67269966
_cell_length_b   7.67269966
_cell_length_c   7.73330941
_cell_angle_alpha   83.79947508
_cell_angle_beta   83.79947508
_cell_angle_gamma   78.90522754
_symmetry_Int_Tables_number   1
_chemical_formula_structural   Sc(SeO3)3
_chemical_formula_sum   'Sc2 Se6 O18'
_cell_volume   442.36136839
_cell_formula_units_Z   2
loop_
 _symmetry_equiv_pos_site_id
 _symmetry_equiv_pos_as_xyz
  1  'x, y, z'
loop_
 _atom_site_type_symbol
 _atom_site_label
 _atom_site_symmetry_multiplicity
 _atom_site_fract_x
 _atom_site_fract_y
 _atom_site_fract_z
 _atom_site_occupancy
  Sc  Sc0  1  0.24049100  0.74658100  0.97110000  1
  Sc  Sc1  1  0.74658100  0.24049100  0.47110000  1
  Se  Se2  1  0.17875200  0.36250800  0.26466200  1
  Se  Se3  1  0.36250800  0.17875200  0.76466200  1
  Se  Se4  1  0.06338600  0.83335400  0.56317100  1
  Se  Se5  1  0.83335400  0.06338600  0.06317100  1
  Se  Se6  1  0.68498900  0.56659600  0.79963700  1
  Se  Se7  1  0.56659600  0.68498900  0.29963700  1
  O  O8  1  0.14902700  0.51784800  0.08993900  1
  O  O9  1  0.51784800  0.14902700  0.58993900  1
  O  O10  1  0.97705700  0.30257100  0.32317600  1
  O  O11  1  0.30257100  0.97705700  0.82317600  1
  O  O12  1  0.32143000  0.18530200  0.19907600  1
  O  O13  1  0.18530200  0.32143000  0.69907600  1
  O  O14  1  0.08764700  0.72762200  0.76599700  1
  O  O15  1  0.72762200  0.08764700  0.26599700  1
  O  O16  1  0.90381700  0.01626200  0.59784000  1
  O  O17  1  0.01626200  0.90381700  0.09784000  1
  O  O18  1  0.99376000  0.69625100  0.44408400  1
  O  O19  1  0.69625100  0.99376000  0.94408400  1
  O  O20  1  0.46025600  0.58314000  0.84223100  1
  O  O21  1  0.58314000  0.46025600  0.34223100  1
  O  O22  1  0.75011700  0.38408000  0.68661600  1
  O  O23  1  0.38408000  0.75011700  0.18661600  1
  O  O24  1  0.77500400  0.52115500  0.99127000  1
  O  O25  1  0.52115500  0.77500400  0.49127000  1
