# generated using pymatgen
data_Mo2Ru
_symmetry_space_group_name_H-M   'P 1'
_cell_length_a   9.63780100
_cell_length_b   9.63780100
_cell_length_c   4.97738700
_cell_angle_alpha   90.00000000
_cell_angle_beta   90.00000000
_cell_angle_gamma   90.00000000
_symmetry_Int_Tables_number   1
_chemical_formula_structural   Mo2Ru
_chemical_formula_sum   'Mo20 Ru10'
_cell_volume   462.33558214
_cell_formula_units_Z   10
loop_
 _symmetry_equiv_pos_site_id
 _symmetry_equiv_pos_as_xyz
  1  'x, y, z'
loop_
 _atom_site_type_symbol
 _atom_site_label
 _atom_site_symmetry_multiplicity
 _atom_site_fract_x
 _atom_site_fract_y
 _atom_site_fract_z
 _atom_site_occupancy
  Mo  Mo0  1  0.10760800  0.89239200  0.50000000  1
  Mo  Mo1  1  0.89239200  0.10760800  0.50000000  1
  Mo  Mo2  1  0.39239200  0.39239200  0.00000000  1
  Mo  Mo3  1  0.60760800  0.60760800  0.00000000  1
  Mo  Mo4  1  0.37041500  0.96045800  0.50000000  1
  Mo  Mo5  1  0.62958500  0.03954200  0.50000000  1
  Mo  Mo6  1  0.12958500  0.46045800  0.00000000  1
  Mo  Mo7  1  0.87041500  0.53954200  0.00000000  1
  Mo  Mo8  1  0.96045800  0.37041500  0.50000000  1
  Mo  Mo9  1  0.03954200  0.62958500  0.50000000  1
  Mo  Mo10  1  0.46045800  0.12958500  0.00000000  1
  Mo  Mo11  1  0.53954200  0.87041500  0.00000000  1
  Mo  Mo12  1  0.32234100  0.67765900  0.24393800  1
  Mo  Mo13  1  0.67765900  0.32234100  0.24393800  1
  Mo  Mo14  1  0.17765900  0.17765900  0.74393800  1
  Mo  Mo15  1  0.82234100  0.82234100  0.74393800  1
  Mo  Mo16  1  0.67765900  0.32234100  0.75606200  1
  Mo  Mo17  1  0.32234100  0.67765900  0.75606200  1
  Mo  Mo18  1  0.82234100  0.82234100  0.25606200  1
  Mo  Mo19  1  0.17765900  0.17765900  0.25606200  1
  Ru  Ru20  1  0.50000000  0.50000000  0.50000000  1
  Ru  Ru21  1  0.00000000  0.00000000  0.00000000  1
  Ru  Ru22  1  0.43337100  0.23449200  0.50000000  1
  Ru  Ru23  1  0.56662900  0.76550800  0.50000000  1
  Ru  Ru24  1  0.06662900  0.73449200  0.00000000  1
  Ru  Ru25  1  0.93337100  0.26550800  0.00000000  1
  Ru  Ru26  1  0.23449200  0.43337100  0.50000000  1
  Ru  Ru27  1  0.76550800  0.56662900  0.50000000  1
  Ru  Ru28  1  0.73449200  0.06662900  0.00000000  1
  Ru  Ru29  1  0.26550800  0.93337100  0.00000000  1
