# generated using pymatgen
data_HgC6(S2N)2
_symmetry_space_group_name_H-M   'P 1'
_cell_length_a   9.94335499
_cell_length_b   9.94335499
_cell_length_c   10.25562030
_cell_angle_alpha   67.92769009
_cell_angle_beta   67.92769009
_cell_angle_gamma   45.65354759
_symmetry_Int_Tables_number   1
_chemical_formula_structural   HgC6(S2N)2
_chemical_formula_sum   'Hg2 C12 S8 N4'
_cell_volume   662.11728411
_cell_formula_units_Z   2
loop_
 _symmetry_equiv_pos_site_id
 _symmetry_equiv_pos_as_xyz
  1  'x, y, z'
loop_
 _atom_site_type_symbol
 _atom_site_label
 _atom_site_symmetry_multiplicity
 _atom_site_fract_x
 _atom_site_fract_y
 _atom_site_fract_z
 _atom_site_occupancy
  Hg  Hg0  1  0.00000000  0.00000000  0.50000000  1
  Hg  Hg1  1  0.00000000  0.00000000  0.00000000  1
  C  C2  1  0.09067000  0.69421500  0.39072900  1
  C  C3  1  0.30578500  0.90933000  0.10927100  1
  C  C4  1  0.90933000  0.30578500  0.60927100  1
  C  C5  1  0.69421500  0.09067000  0.89072900  1
  C  C6  1  0.34697700  0.34125600  0.33243300  1
  C  C7  1  0.65874400  0.65302300  0.16756700  1
  C  C8  1  0.65302300  0.65874400  0.66756700  1
  C  C9  1  0.34125600  0.34697700  0.83243300  1
  C  C10  1  0.16358000  0.43510000  0.28808100  1
  C  C11  1  0.56490000  0.83642000  0.21191900  1
  C  C12  1  0.83642000  0.56490000  0.71191900  1
  C  C13  1  0.43510000  0.16358000  0.78808100  1
  S  S14  1  0.23481700  0.66406900  0.47100700  1
  S  S15  1  0.33593100  0.76518300  0.02899300  1
  S  S16  1  0.76518300  0.33593100  0.52899300  1
  S  S17  1  0.66406900  0.23481700  0.97100700  1
  S  S18  1  0.87227300  0.88409900  0.35898500  1
  S  S19  1  0.11590100  0.12772700  0.14101500  1
  S  S20  1  0.12772700  0.11590100  0.64101500  1
  S  S21  1  0.88409900  0.87227300  0.85898500  1
  N  N22  1  0.18293200  0.52122700  0.34615000  1
  N  N23  1  0.47877300  0.81706800  0.15385000  1
  N  N24  1  0.81706800  0.47877300  0.65385000  1
  N  N25  1  0.52122700  0.18293200  0.84615000  1
