# generated using pymatgen
data_Ho2ZnS4
_symmetry_space_group_name_H-M   'P 1'
_cell_length_a   6.34019900
_cell_length_b   7.85105200
_cell_length_c   13.51692900
_cell_angle_alpha   90.00000000
_cell_angle_beta   90.00000000
_cell_angle_gamma   90.00000000
_symmetry_Int_Tables_number   1
_chemical_formula_structural   Ho2ZnS4
_chemical_formula_sum   'Ho8 Zn4 S16'
_cell_volume   672.83531129
_cell_formula_units_Z   4
loop_
 _symmetry_equiv_pos_site_id
 _symmetry_equiv_pos_as_xyz
  1  'x, y, z'
loop_
 _atom_site_type_symbol
 _atom_site_label
 _atom_site_symmetry_multiplicity
 _atom_site_fract_x
 _atom_site_fract_y
 _atom_site_fract_z
 _atom_site_occupancy
  Ho  Ho0  1  0.00000000  0.50000000  0.00000000  1
  Ho  Ho1  1  0.50000000  0.00000000  0.50000000  1
  Ho  Ho2  1  0.00000000  0.00000000  0.00000000  1
  Ho  Ho3  1  0.50000000  0.50000000  0.50000000  1
  Ho  Ho4  1  0.50081100  0.75000000  0.23318600  1
  Ho  Ho5  1  0.99918900  0.75000000  0.73318600  1
  Ho  Ho6  1  0.49918900  0.25000000  0.76681400  1
  Ho  Ho7  1  0.00081100  0.25000000  0.26681400  1
  Zn  Zn8  1  0.91561900  0.75000000  0.40459300  1
  Zn  Zn9  1  0.58438100  0.75000000  0.90459300  1
  Zn  Zn10  1  0.08438100  0.25000000  0.59540700  1
  Zn  Zn11  1  0.41561900  0.25000000  0.09540700  1
  S  S12  1  0.74532400  0.51241100  0.33146100  1
  S  S13  1  0.75467600  0.98758900  0.83146100  1
  S  S14  1  0.25467600  0.01241100  0.66853900  1
  S  S15  1  0.24532400  0.48758900  0.16853900  1
  S  S16  1  0.25467600  0.48758900  0.66853900  1
  S  S17  1  0.24532400  0.01241100  0.16853900  1
  S  S18  1  0.74532400  0.98758900  0.33146100  1
  S  S19  1  0.75467600  0.51241100  0.83146100  1
  S  S20  1  0.27819300  0.75000000  0.40815500  1
  S  S21  1  0.22180700  0.75000000  0.90815500  1
  S  S22  1  0.72180700  0.25000000  0.59184500  1
  S  S23  1  0.77819300  0.25000000  0.09184500  1
  S  S24  1  0.75872500  0.75000000  0.56729200  1
  S  S25  1  0.74127500  0.75000000  0.06729200  1
  S  S26  1  0.24127500  0.25000000  0.43270800  1
  S  S27  1  0.25872500  0.25000000  0.93270800  1
