# generated using pymatgen
data_Mn3ZnO10
_symmetry_space_group_name_H-M   'P 1'
_cell_length_a   9.06504109
_cell_length_b   9.06504109
_cell_length_c   9.06504065
_cell_angle_alpha   50.69033465
_cell_angle_beta   50.69033465
_cell_angle_gamma   50.69033341
_symmetry_Int_Tables_number   1
_chemical_formula_structural   Mn3ZnO10
_chemical_formula_sum   'Mn6 Zn2 O20'
_cell_volume   411.05289776
_cell_formula_units_Z   2
loop_
 _symmetry_equiv_pos_site_id
 _symmetry_equiv_pos_as_xyz
  1  'x, y, z'
loop_
 _atom_site_type_symbol
 _atom_site_label
 _atom_site_symmetry_multiplicity
 _atom_site_fract_x
 _atom_site_fract_y
 _atom_site_fract_z
 _atom_site_occupancy
  Mn  Mn0  1  0.57037700  0.28206800  0.14807900  1
  Mn  Mn1  1  0.42962300  0.71793200  0.85192100  1
  Mn  Mn2  1  0.14807900  0.57037700  0.28206800  1
  Mn  Mn3  1  0.85192100  0.42962300  0.71793200  1
  Mn  Mn4  1  0.71793200  0.85192100  0.42962300  1
  Mn  Mn5  1  0.28206800  0.14807900  0.57037700  1
  Zn  Zn6  1  0.93645100  0.93645100  0.93645100  1
  Zn  Zn7  1  0.06354900  0.06354900  0.06354900  1
  O  O8  1  0.57666100  0.43080200  0.86948300  1
  O  O9  1  0.42333900  0.56919800  0.13051700  1
  O  O10  1  0.68917800  0.00594900  0.17016400  1
  O  O11  1  0.31082200  0.99405100  0.82983600  1
  O  O12  1  0.17016400  0.68917800  0.00594900  1
  O  O13  1  0.82983600  0.31082200  0.99405100  1
  O  O14  1  0.29323300  0.29323300  0.29323300  1
  O  O15  1  0.70676700  0.70676700  0.70676700  1
  O  O16  1  0.86948300  0.57666100  0.43080200  1
  O  O17  1  0.13051700  0.42333900  0.56919800  1
  O  O18  1  0.43080200  0.86948300  0.57666100  1
  O  O19  1  0.56919800  0.13051700  0.42333900  1
  O  O20  1  0.00594900  0.17016400  0.68917800  1
  O  O21  1  0.99405100  0.82983600  0.31082200  1
  O  O22  1  0.01091800  0.91260100  0.57901800  1
  O  O23  1  0.98908200  0.08739900  0.42098200  1
  O  O24  1  0.57901800  0.01091800  0.91260100  1
  O  O25  1  0.42098200  0.98908200  0.08739900  1
  O  O26  1  0.08739900  0.42098200  0.98908200  1
  O  O27  1  0.91260100  0.57901800  0.01091800  1
