# generated using pymatgen
data_Ag2Te(H2O3)2
_symmetry_space_group_name_H-M   'P 1'
_cell_length_a   10.43772863
_cell_length_b   9.94398212
_cell_length_c   5.60553889
_cell_angle_alpha   78.95457498
_cell_angle_beta   69.23587815
_cell_angle_gamma   31.80954688
_symmetry_Int_Tables_number   1
_chemical_formula_structural   Ag2Te(H2O3)2
_chemical_formula_sum   'Ag4 Te2 H8 O12'
_cell_volume   279.56180569
_cell_formula_units_Z   2
loop_
 _symmetry_equiv_pos_site_id
 _symmetry_equiv_pos_as_xyz
  1  'x, y, z'
loop_
 _atom_site_type_symbol
 _atom_site_label
 _atom_site_symmetry_multiplicity
 _atom_site_fract_x
 _atom_site_fract_y
 _atom_site_fract_z
 _atom_site_occupancy
  Ag  Ag0  1  0.66017200  0.18439800  0.86880200  1
  Ag  Ag1  1  0.86880200  0.28662800  0.66017200  1
  Ag  Ag2  1  0.06560200  0.58982800  0.96337200  1
  Ag  Ag3  1  0.96337200  0.38119800  0.06560200  1
  Te  Te4  1  0.24737300  0.75262700  0.24737300  1
  Te  Te5  1  0.49737300  0.00262700  0.49737300  1
  H  H6  1  0.22450800  0.75522900  0.80278700  1
  H  H7  1  0.80278700  0.21747500  0.22450800  1
  H  H8  1  0.49477100  0.02549200  0.03252500  1
  H  H9  1  0.03252500  0.44721300  0.49477100  1
  H  H10  1  0.93656800  0.80251800  0.45521000  1
  H  H11  1  0.45521000  0.80570400  0.93656800  1
  H  H12  1  0.44748200  0.31343200  0.44429600  1
  H  H13  1  0.44429600  0.79479000  0.44748200  1
  O  O14  1  0.52637800  0.38900300  0.24855100  1
  O  O15  1  0.24855100  0.83606800  0.52637800  1
  O  O16  1  0.86099700  0.72362200  0.41393200  1
  O  O17  1  0.41393200  0.00144900  0.86099700  1
  O  O18  1  0.20735700  0.70081400  0.96858100  1
  O  O19  1  0.96858100  0.12324800  0.20735700  1
  O  O20  1  0.54918600  0.04264300  0.12675200  1
  O  O21  1  0.12675200  0.28141900  0.54918600  1
  O  O22  1  0.97679900  0.85375500  0.51073400  1
  O  O23  1  0.51073400  0.65871200  0.97679900  1
  O  O24  1  0.39624500  0.27320100  0.59128800  1
  O  O25  1  0.59128800  0.73926600  0.39624500  1
