# generated using pymatgen
data_Mg2SnS4
_symmetry_space_group_name_H-M   'P 1'
_cell_length_a   6.26708200
_cell_length_b   7.62729400
_cell_length_c   13.10737400
_cell_angle_alpha   90.00000000
_cell_angle_beta   90.00000000
_cell_angle_gamma   90.00000000
_symmetry_Int_Tables_number   1
_chemical_formula_structural   Mg2SnS4
_chemical_formula_sum   'Mg8 Sn4 S16'
_cell_volume   626.54397153
_cell_formula_units_Z   4
loop_
 _symmetry_equiv_pos_site_id
 _symmetry_equiv_pos_as_xyz
  1  'x, y, z'
loop_
 _atom_site_type_symbol
 _atom_site_label
 _atom_site_symmetry_multiplicity
 _atom_site_fract_x
 _atom_site_fract_y
 _atom_site_fract_z
 _atom_site_occupancy
  Mg  Mg0  1  0.50000000  0.00000000  0.50000000  1
  Mg  Mg1  1  0.00000000  0.50000000  0.00000000  1
  Mg  Mg2  1  0.50000000  0.50000000  0.50000000  1
  Mg  Mg3  1  0.00000000  0.00000000  0.00000000  1
  Mg  Mg4  1  0.00529800  0.75000000  0.27028300  1
  Mg  Mg5  1  0.49470200  0.75000000  0.77028300  1
  Mg  Mg6  1  0.99470200  0.25000000  0.72971700  1
  Mg  Mg7  1  0.50529800  0.25000000  0.22971700  1
  Sn  Sn8  1  0.57759300  0.75000000  0.09072000  1
  Sn  Sn9  1  0.92240700  0.75000000  0.59072000  1
  Sn  Sn10  1  0.42240700  0.25000000  0.90928000  1
  Sn  Sn11  1  0.07759300  0.25000000  0.40928000  1
  S  S12  1  0.19727100  0.75000000  0.09242100  1
  S  S13  1  0.30272900  0.75000000  0.59242100  1
  S  S14  1  0.80272900  0.25000000  0.90757900  1
  S  S15  1  0.69727100  0.25000000  0.40757900  1
  S  S16  1  0.75259000  0.75000000  0.92527200  1
  S  S17  1  0.74741000  0.75000000  0.42527200  1
  S  S18  1  0.24741000  0.25000000  0.07472800  1
  S  S19  1  0.25259000  0.25000000  0.57472800  1
  S  S20  1  0.76133600  0.99405900  0.16961400  1
  S  S21  1  0.73866400  0.50594100  0.66961400  1
  S  S22  1  0.23866400  0.49405900  0.83038600  1
  S  S23  1  0.26133600  0.00594100  0.33038600  1
  S  S24  1  0.23866400  0.00594100  0.83038600  1
  S  S25  1  0.26133600  0.49405900  0.33038600  1
  S  S26  1  0.76133600  0.50594100  0.16961400  1
  S  S27  1  0.73866400  0.99405900  0.66961400  1
