# generated using pymatgen
data_Cs2U(PO5)2
_symmetry_space_group_name_H-M   'P 1'
_cell_length_a   9.34191500
_cell_length_b   6.39276500
_cell_length_c   10.04484811
_cell_angle_alpha   82.24389287
_cell_angle_beta   90.00000000
_cell_angle_gamma   90.00000000
_symmetry_Int_Tables_number   1
_chemical_formula_structural   Cs2U(PO5)2
_chemical_formula_sum   'Cs4 U2 P4 O20'
_cell_volume   594.39699422
_cell_formula_units_Z   2
loop_
 _symmetry_equiv_pos_site_id
 _symmetry_equiv_pos_as_xyz
  1  'x, y, z'
loop_
 _atom_site_type_symbol
 _atom_site_label
 _atom_site_symmetry_multiplicity
 _atom_site_fract_x
 _atom_site_fract_y
 _atom_site_fract_z
 _atom_site_occupancy
  Cs  Cs0  1  0.69192900  0.49982200  0.14677600  1
  Cs  Cs1  1  0.19192900  0.50017800  0.35322400  1
  Cs  Cs2  1  0.30807100  0.50017800  0.85322400  1
  Cs  Cs3  1  0.80807100  0.49982200  0.64677600  1
  U  U4  1  0.50000000  0.00000000  0.50000000  1
  U  U5  1  0.00000000  0.00000000  0.00000000  1
  P  P6  1  0.65019400  0.97532500  0.84022900  1
  P  P7  1  0.15019400  0.02467500  0.65977100  1
  P  P8  1  0.34980600  0.02467500  0.15977100  1
  P  P9  1  0.84980600  0.97532500  0.34022900  1
  O  O10  1  0.64359200  0.99966300  0.68292600  1
  O  O11  1  0.14359200  0.00033700  0.81707400  1
  O  O12  1  0.35640800  0.00033700  0.31707400  1
  O  O13  1  0.85640800  0.99966300  0.18292600  1
  O  O14  1  0.69240800  0.90906400  0.38262700  1
  O  O15  1  0.19240800  0.09093600  0.11737300  1
  O  O16  1  0.30759200  0.09093600  0.61737300  1
  O  O17  1  0.80759200  0.90906400  0.88262700  1
  O  O18  1  0.44813500  0.20566900  0.10202500  1
  O  O19  1  0.94813500  0.79433100  0.39797500  1
  O  O20  1  0.55186500  0.79433100  0.89797500  1
  O  O21  1  0.05186500  0.20566900  0.60202500  1
  O  O22  1  0.61492100  0.18880800  0.88476500  1
  O  O23  1  0.11492100  0.81119200  0.61523500  1
  O  O24  1  0.38507900  0.81119200  0.11523500  1
  O  O25  1  0.88507900  0.18880800  0.38476500  1
  O  O26  1  0.53950100  0.27786400  0.44371600  1
  O  O27  1  0.03950100  0.72213600  0.05628400  1
  O  O28  1  0.46049900  0.72213600  0.55628400  1
  O  O29  1  0.96049900  0.27786400  0.94371600  1
