# generated using pymatgen
data_NaCr2FeO10
_symmetry_space_group_name_H-M   'P 1'
_cell_length_a   7.64650728
_cell_length_b   7.64650728
_cell_length_c   10.72818916
_cell_angle_alpha   72.14267351
_cell_angle_beta   72.14267351
_cell_angle_gamma   42.55578317
_symmetry_Int_Tables_number   1
_chemical_formula_structural   NaCr2FeO10
_chemical_formula_sum   'Na2 Cr4 Fe2 O20'
_cell_volume   400.59707168
_cell_formula_units_Z   2
loop_
 _symmetry_equiv_pos_site_id
 _symmetry_equiv_pos_as_xyz
  1  'x, y, z'
loop_
 _atom_site_type_symbol
 _atom_site_label
 _atom_site_symmetry_multiplicity
 _atom_site_fract_x
 _atom_site_fract_y
 _atom_site_fract_z
 _atom_site_occupancy
  Na  Na0  1  0.79271600  0.20728400  0.25000000  1
  Na  Na1  1  0.20728400  0.79271600  0.75000000  1
  Cr  Cr2  1  0.36471000  0.83222100  0.03840500  1
  Cr  Cr3  1  0.16777900  0.63529000  0.46159500  1
  Cr  Cr4  1  0.63529000  0.16777900  0.96159500  1
  Cr  Cr5  1  0.83222100  0.36471000  0.53840500  1
  Fe  Fe6  1  0.00000000  0.50000000  0.00000000  1
  Fe  Fe7  1  0.50000000  0.00000000  0.50000000  1
  O  O8  1  0.12976400  0.19859400  0.57406600  1
  O  O9  1  0.80140600  0.87023600  0.92593400  1
  O  O10  1  0.87023600  0.80140600  0.42593400  1
  O  O11  1  0.19859400  0.12976400  0.07406600  1
  O  O12  1  0.67855800  0.58966500  0.08353100  1
  O  O13  1  0.41033500  0.32144200  0.41646900  1
  O  O14  1  0.32144200  0.41033500  0.91646900  1
  O  O15  1  0.58966500  0.67855800  0.58353100  1
  O  O16  1  0.84427500  0.37331900  0.38321400  1
  O  O17  1  0.62668100  0.15572500  0.11678600  1
  O  O18  1  0.15572500  0.62668100  0.61678600  1
  O  O19  1  0.37331900  0.84427500  0.88321400  1
  O  O20  1  0.20855100  0.75660600  0.12486900  1
  O  O21  1  0.24339400  0.79144900  0.37513100  1
  O  O22  1  0.79144900  0.24339400  0.87513100  1
  O  O23  1  0.75660600  0.20855100  0.62486900  1
  O  O24  1  0.01538100  0.54839600  0.15284200  1
  O  O25  1  0.45160400  0.98461900  0.34715800  1
  O  O26  1  0.98461900  0.45160400  0.84715800  1
  O  O27  1  0.54839600  0.01538100  0.65284200  1
