# generated using pymatgen
data_CrBiO5
_symmetry_space_group_name_H-M   'P 1'
_cell_length_a   9.82467200
_cell_length_b   5.74534300
_cell_length_c   7.47164762
_cell_angle_alpha   85.90396482
_cell_angle_beta   90.00000000
_cell_angle_gamma   90.00000000
_symmetry_Int_Tables_number   1
_chemical_formula_structural   CrBiO5
_chemical_formula_sum   'Cr4 Bi4 O20'
_cell_volume   420.66819462
_cell_formula_units_Z   4
loop_
 _symmetry_equiv_pos_site_id
 _symmetry_equiv_pos_as_xyz
  1  'x, y, z'
loop_
 _atom_site_type_symbol
 _atom_site_label
 _atom_site_symmetry_multiplicity
 _atom_site_fract_x
 _atom_site_fract_y
 _atom_site_fract_z
 _atom_site_occupancy
  Cr  Cr0  1  0.58551300  0.72466300  0.16572800  1
  Cr  Cr1  1  0.08551300  0.27533700  0.33427200  1
  Cr  Cr2  1  0.41448700  0.27533700  0.83427200  1
  Cr  Cr3  1  0.91448700  0.72466300  0.66572800  1
  Bi  Bi4  1  0.17738400  0.83370100  0.00908700  1
  Bi  Bi5  1  0.67738400  0.16629900  0.49091300  1
  Bi  Bi6  1  0.82261600  0.16629900  0.99091300  1
  Bi  Bi7  1  0.32261600  0.83370100  0.50908700  1
  O  O8  1  0.15678800  0.52372800  0.25202300  1
  O  O9  1  0.65678800  0.47627200  0.24797700  1
  O  O10  1  0.84321200  0.47627200  0.74797700  1
  O  O11  1  0.34321200  0.52372800  0.75202300  1
  O  O12  1  0.09170700  0.26643000  0.54943600  1
  O  O13  1  0.59170700  0.73357000  0.95056400  1
  O  O14  1  0.90829300  0.73357000  0.45056400  1
  O  O15  1  0.40829300  0.26643000  0.04943600  1
  O  O16  1  0.18065300  0.03579300  0.27617700  1
  O  O17  1  0.68065300  0.96420700  0.22382300  1
  O  O18  1  0.81934700  0.96420700  0.72382300  1
  O  O19  1  0.31934700  0.03579300  0.77617700  1
  O  O20  1  0.92085400  0.25552800  0.27120700  1
  O  O21  1  0.42085400  0.74447200  0.22879300  1
  O  O22  1  0.07914600  0.74447200  0.72879300  1
  O  O23  1  0.57914600  0.25552800  0.77120700  1
  O  O24  1  0.05100800  0.15974400  0.95643000  1
  O  O25  1  0.55100800  0.84025600  0.54357000  1
  O  O26  1  0.94899200  0.84025600  0.04357000  1
  O  O27  1  0.44899200  0.15974400  0.45643000  1
