# generated using pymatgen
data_VAsO5
_symmetry_space_group_name_H-M   'P 1'
_cell_length_a   8.73628100
_cell_length_b   6.42412600
_cell_length_c   9.08166443
_cell_angle_alpha   45.19185899
_cell_angle_beta   90.00000000
_cell_angle_gamma   90.00000000
_symmetry_Int_Tables_number   1
_chemical_formula_structural   VAsO5
_chemical_formula_sum   'V4 As4 O20'
_cell_volume   361.61006056
_cell_formula_units_Z   4
loop_
 _symmetry_equiv_pos_site_id
 _symmetry_equiv_pos_as_xyz
  1  'x, y, z'
loop_
 _atom_site_type_symbol
 _atom_site_label
 _atom_site_symmetry_multiplicity
 _atom_site_fract_x
 _atom_site_fract_y
 _atom_site_fract_z
 _atom_site_occupancy
  V  V0  1  0.67507200  0.12315600  0.34176800  1
  V  V1  1  0.82492800  0.12315600  0.84176800  1
  V  V2  1  0.32492800  0.87684400  0.65823200  1
  V  V3  1  0.17507200  0.87684400  0.15823200  1
  As  As4  1  0.74742800  0.62348100  0.84082500  1
  As  As5  1  0.75257200  0.62348100  0.34082500  1
  As  As6  1  0.25257200  0.37651900  0.15917500  1
  As  As7  1  0.24742800  0.37651900  0.65917500  1
  O  O8  1  0.38041600  0.12763800  0.36138900  1
  O  O9  1  0.11958400  0.12763800  0.86138900  1
  O  O10  1  0.61958400  0.87236200  0.63861100  1
  O  O11  1  0.88041600  0.87236200  0.13861100  1
  O  O12  1  0.85750400  0.10870000  0.35992100  1
  O  O13  1  0.64249600  0.10870000  0.85992100  1
  O  O14  1  0.14249600  0.89130000  0.64007900  1
  O  O15  1  0.35750400  0.89130000  0.14007900  1
  O  O16  1  0.86408600  0.46666200  0.78851000  1
  O  O17  1  0.63591400  0.46666200  0.28851000  1
  O  O18  1  0.13591400  0.53333800  0.21149000  1
  O  O19  1  0.36408600  0.53333800  0.71149000  1
  O  O20  1  0.63423600  0.78421000  0.38811700  1
  O  O21  1  0.86576400  0.78421000  0.88811700  1
  O  O22  1  0.36576400  0.21579000  0.61188300  1
  O  O23  1  0.13423600  0.21579000  0.11188300  1
  O  O24  1  0.63923700  0.35199900  0.05610500  1
  O  O25  1  0.86076300  0.35199900  0.55610500  1
  O  O26  1  0.36076300  0.64800100  0.94389500  1
  O  O27  1  0.13923700  0.64800100  0.44389500  1
