# generated using pymatgen
data_MgAsNO10
_symmetry_space_group_name_H-M   'P 1'
_cell_length_a   4.90330200
_cell_length_b   6.10865200
_cell_length_c   12.86012600
_cell_angle_alpha   90.00000000
_cell_angle_beta   90.00000000
_cell_angle_gamma   90.00000000
_symmetry_Int_Tables_number   1
_chemical_formula_structural   MgAsNO10
_chemical_formula_sum   'Mg2 As2 N2 O20'
_cell_volume   385.19376724
_cell_formula_units_Z   2
loop_
 _symmetry_equiv_pos_site_id
 _symmetry_equiv_pos_as_xyz
  1  'x, y, z'
loop_
 _atom_site_type_symbol
 _atom_site_label
 _atom_site_symmetry_multiplicity
 _atom_site_fract_x
 _atom_site_fract_y
 _atom_site_fract_z
 _atom_site_occupancy
  Mg  Mg0  1  0.98195600  0.00000000  0.11337700  1
  Mg  Mg1  1  0.01804400  0.50000000  0.61337700  1
  As  As2  1  0.55447900  0.00000000  0.71370000  1
  As  As3  1  0.44552100  0.50000000  0.21370000  1
  N  N4  1  0.04399800  0.00000000  0.49280500  1
  N  N5  1  0.95600200  0.50000000  0.99280500  1
  O  O6  1  0.73890200  0.77284000  0.79354800  1
  O  O7  1  0.73890200  0.22716000  0.79354800  1
  O  O8  1  0.26109800  0.72716000  0.29354800  1
  O  O9  1  0.26109800  0.27284000  0.29354800  1
  O  O10  1  0.23811200  0.00000000  0.76182900  1
  O  O11  1  0.76188800  0.50000000  0.26182900  1
  O  O12  1  0.63995400  0.00000000  0.58901200  1
  O  O13  1  0.36004600  0.50000000  0.08901200  1
  O  O14  1  0.03883200  0.81862000  0.25246900  1
  O  O15  1  0.03883200  0.18138000  0.25246900  1
  O  O16  1  0.96116800  0.68138000  0.75246900  1
  O  O17  1  0.96116800  0.31862000  0.75246900  1
  O  O18  1  0.86519200  0.68057300  0.01383800  1
  O  O19  1  0.86519200  0.31942700  0.01383800  1
  O  O20  1  0.13480800  0.81942700  0.51383800  1
  O  O21  1  0.13480800  0.18057300  0.51383800  1
  O  O22  1  0.56007900  0.00000000  0.13525400  1
  O  O23  1  0.43992100  0.50000000  0.63525400  1
  O  O24  1  0.37963600  0.00000000  0.05731400  1
  O  O25  1  0.62036400  0.50000000  0.55731400  1
