# generated using pymatgen
data_BaCaFe4O7
_symmetry_space_group_name_H-M   'P 1'
_cell_length_a   6.59081992
_cell_length_b   6.45646073
_cell_length_c   10.49199085
_cell_angle_alpha   89.59599097
_cell_angle_beta   90.79156536
_cell_angle_gamma   120.69081107
_symmetry_Int_Tables_number   1
_chemical_formula_structural   BaCaFe4O7
_chemical_formula_sum   'Ba2 Ca2 Fe8 O14'
_cell_volume   383.89778542
_cell_formula_units_Z   2
loop_
 _symmetry_equiv_pos_site_id
 _symmetry_equiv_pos_as_xyz
  1  'x, y, z'
loop_
 _atom_site_type_symbol
 _atom_site_label
 _atom_site_symmetry_multiplicity
 _atom_site_fract_x
 _atom_site_fract_y
 _atom_site_fract_z
 _atom_site_occupancy
  Ba  Ba0  1  0.67233900  0.33525600  0.99691900  1
  Ba  Ba1  1  0.33708300  0.66474400  0.49691900  1
  Ca  Ca2  1  0.66835100  0.33173500  0.62108400  1
  Ca  Ca3  1  0.33661600  0.66826500  0.12108400  1
  Fe  Fe4  1  0.99826100  0.99735300  0.05626600  1
  Fe  Fe5  1  0.00090700  0.00264700  0.55626600  1
  Fe  Fe6  1  0.14529700  0.80546600  0.81454800  1
  Fe  Fe7  1  0.63000300  0.84235600  0.82467800  1
  Fe  Fe8  1  0.20085900  0.33873700  0.81372500  1
  Fe  Fe9  1  0.33983100  0.19453400  0.31454800  1
  Fe  Fe10  1  0.78764800  0.15764400  0.32467800  1
  Fe  Fe11  1  0.86212300  0.66126300  0.31372500  1
  O  O12  1  0.51038400  0.51853000  0.74558700  1
  O  O13  1  0.01067200  0.47576800  0.75940000  1
  O  O14  1  0.46082400  0.99906900  0.76043300  1
  O  O15  1  0.99185300  0.48147000  0.24558700  1
  O  O16  1  0.53490400  0.52423200  0.25940000  1
  O  O17  1  0.46175500  0.00093100  0.26043300  1
  O  O18  1  0.09761700  0.76881800  0.99275800  1
  O  O19  1  0.67901100  0.92659100  0.00610300  1
  O  O20  1  0.25292700  0.32848600  0.99167700  1
  O  O21  1  0.32880000  0.23118200  0.49275800  1
  O  O22  1  0.75242000  0.07340900  0.50610300  1
  O  O23  1  0.92444100  0.67151400  0.49167700  1
  O  O24  1  0.00930700  0.00334400  0.25882100  1
  O  O25  1  0.00596400  0.99665600  0.75882100  1
