# generated using pymatgen
data_Yb2PbS4
_symmetry_space_group_name_H-M   'P 1'
_cell_length_a   4.35561600
_cell_length_b   10.74195400
_cell_length_c   14.92065000
_cell_angle_alpha   90.00000000
_cell_angle_beta   90.00000000
_cell_angle_gamma   90.00000000
_symmetry_Int_Tables_number   1
_chemical_formula_structural   Yb2PbS4
_chemical_formula_sum   'Yb8 Pb4 S16'
_cell_volume   698.10478666
_cell_formula_units_Z   4
loop_
 _symmetry_equiv_pos_site_id
 _symmetry_equiv_pos_as_xyz
  1  'x, y, z'
loop_
 _atom_site_type_symbol
 _atom_site_label
 _atom_site_symmetry_multiplicity
 _atom_site_fract_x
 _atom_site_fract_y
 _atom_site_fract_z
 _atom_site_occupancy
  Yb  Yb0  1  0.25000000  0.44932800  0.38810400  1
  Yb  Yb1  1  0.25000000  0.94932800  0.11189600  1
  Yb  Yb2  1  0.75000000  0.55067200  0.61189600  1
  Yb  Yb3  1  0.75000000  0.05067200  0.88810400  1
  Yb  Yb4  1  0.25000000  0.39886800  0.89566500  1
  Yb  Yb5  1  0.25000000  0.89886800  0.60433500  1
  Yb  Yb6  1  0.75000000  0.60113200  0.10433500  1
  Yb  Yb7  1  0.75000000  0.10113200  0.39566500  1
  Pb  Pb8  1  0.25000000  0.76696300  0.30407500  1
  Pb  Pb9  1  0.25000000  0.26696300  0.19592500  1
  Pb  Pb10  1  0.75000000  0.23303700  0.69592500  1
  Pb  Pb11  1  0.75000000  0.73303700  0.80407500  1
  S  S12  1  0.25000000  0.17459100  0.81765800  1
  S  S13  1  0.25000000  0.67459100  0.68234200  1
  S  S14  1  0.75000000  0.82540900  0.18234200  1
  S  S15  1  0.75000000  0.32540900  0.31765800  1
  S  S16  1  0.25000000  0.19584900  0.50620100  1
  S  S17  1  0.25000000  0.69584900  0.99379900  1
  S  S18  1  0.75000000  0.80415100  0.49379900  1
  S  S19  1  0.75000000  0.30415100  0.00620100  1
  S  S20  1  0.25000000  0.03937700  0.29502300  1
  S  S21  1  0.25000000  0.53937700  0.20497700  1
  S  S22  1  0.75000000  0.96062300  0.70497700  1
  S  S23  1  0.75000000  0.46062300  0.79502300  1
  S  S24  1  0.25000000  0.37299400  0.57142000  1
  S  S25  1  0.25000000  0.87299400  0.92858000  1
  S  S26  1  0.75000000  0.62700600  0.42858000  1
  S  S27  1  0.75000000  0.12700600  0.07142000  1
