# generated using pymatgen
data_Mn6C
_symmetry_space_group_name_H-M   'P 1'
_cell_length_a   7.41882010
_cell_length_b   7.41882010
_cell_length_c   7.41882010
_cell_angle_alpha   60.00000000
_cell_angle_beta   60.00000000
_cell_angle_gamma   60.00000000
_symmetry_Int_Tables_number   1
_chemical_formula_structural   Mn6C
_chemical_formula_sum   'Mn24 C4'
_cell_volume   288.72841164
_cell_formula_units_Z   4
loop_
 _symmetry_equiv_pos_site_id
 _symmetry_equiv_pos_as_xyz
  1  'x, y, z'
loop_
 _atom_site_type_symbol
 _atom_site_label
 _atom_site_symmetry_multiplicity
 _atom_site_fract_x
 _atom_site_fract_y
 _atom_site_fract_z
 _atom_site_occupancy
  Mn  Mn0  1  0.62500000  0.62500000  0.12500000  1
  Mn  Mn1  1  0.62500000  0.12500000  0.62500000  1
  Mn  Mn2  1  0.12500000  0.62500000  0.62500000  1
  Mn  Mn3  1  0.62500000  0.62500000  0.62500000  1
  Mn  Mn4  1  0.41394000  0.41394000  0.75818100  1
  Mn  Mn5  1  0.41394000  0.75818100  0.41394000  1
  Mn  Mn6  1  0.75818100  0.41394000  0.41394000  1
  Mn  Mn7  1  0.41394000  0.41394000  0.41394000  1
  Mn  Mn8  1  0.83606000  0.83606000  0.49181900  1
  Mn  Mn9  1  0.83606000  0.49181900  0.83606000  1
  Mn  Mn10  1  0.49181900  0.83606000  0.83606000  1
  Mn  Mn11  1  0.83606000  0.83606000  0.83606000  1
  Mn  Mn12  1  0.05534500  0.05534500  0.44465500  1
  Mn  Mn13  1  0.44465500  0.05534500  0.44465500  1
  Mn  Mn14  1  0.05534500  0.44465500  0.44465500  1
  Mn  Mn15  1  0.44465500  0.44465500  0.05534500  1
  Mn  Mn16  1  0.05534500  0.44465500  0.05534500  1
  Mn  Mn17  1  0.44465500  0.05534500  0.05534500  1
  Mn  Mn18  1  0.19465500  0.19465500  0.80534500  1
  Mn  Mn19  1  0.80534500  0.19465500  0.80534500  1
  Mn  Mn20  1  0.19465500  0.80534500  0.80534500  1
  Mn  Mn21  1  0.80534500  0.80534500  0.19465500  1
  Mn  Mn22  1  0.19465500  0.80534500  0.19465500  1
  Mn  Mn23  1  0.80534500  0.19465500  0.19465500  1
  C  C24  1  0.12500000  0.12500000  0.62500000  1
  C  C25  1  0.12500000  0.62500000  0.12500000  1
  C  C26  1  0.62500000  0.12500000  0.12500000  1
  C  C27  1  0.12500000  0.12500000  0.12500000  1
