# generated using pymatgen
data_V2CuH3O7
_symmetry_space_group_name_H-M   'P 1'
_cell_length_a   5.23358300
_cell_length_b   5.38373264
_cell_length_c   10.45799055
_cell_angle_alpha   99.45212188
_cell_angle_beta   100.65304751
_cell_angle_gamma   102.16231608
_symmetry_Int_Tables_number   1
_chemical_formula_structural   V2CuH3O7
_chemical_formula_sum   'V4 Cu2 H6 O14'
_cell_volume   276.68516622
_cell_formula_units_Z   2
loop_
 _symmetry_equiv_pos_site_id
 _symmetry_equiv_pos_as_xyz
  1  'x, y, z'
loop_
 _atom_site_type_symbol
 _atom_site_label
 _atom_site_symmetry_multiplicity
 _atom_site_fract_x
 _atom_site_fract_y
 _atom_site_fract_z
 _atom_site_occupancy
  V  V0  1  0.18224700  0.07471400  0.66968000  1
  V  V1  1  0.81775300  0.92528600  0.33032000  1
  V  V2  1  0.63928200  0.66630400  0.71772400  1
  V  V3  1  0.36071800  0.33369600  0.28227600  1
  Cu  Cu4  1  0.50000000  0.50000000  0.00000000  1
  Cu  Cu5  1  0.00000000  0.50000000  0.50000000  1
  H  H6  1  0.71388100  0.15497500  0.58696400  1
  H  H7  1  0.28611900  0.84502500  0.41303600  1
  H  H8  1  0.90149100  0.28273900  0.05708900  1
  H  H9  1  0.09850900  0.71726100  0.94291100  1
  H  H10  1  0.68275700  0.10403200  0.93292700  1
  H  H11  1  0.31724300  0.89596800  0.06707300  1
  O  O12  1  0.72239800  0.64861700  0.88269800  1
  O  O13  1  0.27760200  0.35138300  0.11730200  1
  O  O14  1  0.49844700  0.92947700  0.70454500  1
  O  O15  1  0.50155300  0.07052300  0.29545500  1
  O  O16  1  0.42048700  0.37745100  0.62473700  1
  O  O17  1  0.57951300  0.62254900  0.37526300  1
  O  O18  1  0.93922900  0.71492700  0.65543100  1
  O  O19  1  0.06077100  0.28507300  0.34456900  1
  O  O20  1  0.15860400  0.21537300  0.81791200  1
  O  O21  1  0.84139600  0.78462700  0.18208800  1
  O  O22  1  0.87057700  0.16141000  0.54707600  1
  O  O23  1  0.12942300  0.83859000  0.45292400  1
  O  O24  1  0.70575200  0.22609100  0.01734500  1
  O  O25  1  0.29424800  0.77390900  0.98265400  1
