# generated using pymatgen
data_Te2W(NO4)2
_symmetry_space_group_name_H-M   'P 1'
_cell_length_a   7.51115000
_cell_length_b   7.08849500
_cell_length_c   9.24459670
_cell_angle_alpha   75.63996140
_cell_angle_beta   90.00000000
_cell_angle_gamma   90.00000000
_symmetry_Int_Tables_number   1
_chemical_formula_structural   Te2W(NO4)2
_chemical_formula_sum   'Te4 W2 N4 O16'
_cell_volume   476.82939023
_cell_formula_units_Z   2
loop_
 _symmetry_equiv_pos_site_id
 _symmetry_equiv_pos_as_xyz
  1  'x, y, z'
loop_
 _atom_site_type_symbol
 _atom_site_label
 _atom_site_symmetry_multiplicity
 _atom_site_fract_x
 _atom_site_fract_y
 _atom_site_fract_z
 _atom_site_occupancy
  Te  Te0  1  0.26331800  0.54698400  0.01161300  1
  Te  Te1  1  0.76331800  0.45301600  0.98838700  1
  Te  Te2  1  0.96640200  0.57611600  0.35219800  1
  Te  Te3  1  0.46640200  0.42388400  0.64780200  1
  W  W4  1  0.07524100  0.35570100  0.75548300  1
  W  W5  1  0.57524100  0.64429900  0.24451700  1
  N  N6  1  0.55956000  0.05593600  0.85402600  1
  N  N7  1  0.05956000  0.94406400  0.14597400  1
  N  N8  1  0.00711800  0.94520800  0.53004000  1
  N  N9  1  0.50711800  0.05479200  0.46996000  1
  O  O10  1  0.26557200  0.22968800  0.66904700  1
  O  O11  1  0.76557200  0.77031200  0.33095300  1
  O  O12  1  0.93496400  0.15886500  0.83451600  1
  O  O13  1  0.43496400  0.84113500  0.16548400  1
  O  O14  1  0.94660100  0.45241700  0.57272600  1
  O  O15  1  0.44660100  0.54758300  0.42727400  1
  O  O16  1  0.22860900  0.31486500  0.94566500  1
  O  O17  1  0.72860900  0.68513500  0.05433500  1
  O  O18  1  0.27938900  0.58652000  0.68146100  1
  O  O19  1  0.77938900  0.41348000  0.31853900  1
  O  O20  1  0.95561900  0.55489800  0.84557000  1
  O  O21  1  0.45561900  0.44510200  0.15443000  1
  O  O22  1  0.07877200  0.48447100  0.15612800  1
  O  O23  1  0.57877200  0.51552900  0.84387200  1
  O  O24  1  0.07133300  0.05314900  0.42833600  1
  O  O25  1  0.57133300  0.94685100  0.57166400  1
