# generated using pymatgen
data_CsTl(SO5)2
_symmetry_space_group_name_H-M   'P 1'
_cell_length_a   8.97052709
_cell_length_b   8.97052709
_cell_length_c   7.29816924
_cell_angle_alpha   81.00984452
_cell_angle_beta   81.00984452
_cell_angle_gamma   116.16298733
_symmetry_Int_Tables_number   1
_chemical_formula_structural   CsTl(SO5)2
_chemical_formula_sum   'Cs2 Tl2 S4 O20'
_cell_volume   503.56609356
_cell_formula_units_Z   2
loop_
 _symmetry_equiv_pos_site_id
 _symmetry_equiv_pos_as_xyz
  1  'x, y, z'
loop_
 _atom_site_type_symbol
 _atom_site_label
 _atom_site_symmetry_multiplicity
 _atom_site_fract_x
 _atom_site_fract_y
 _atom_site_fract_z
 _atom_site_occupancy
  Cs  Cs0  1  0.38746000  0.61254000  0.25000000  1
  Cs  Cs1  1  0.61254000  0.38746000  0.75000000  1
  Tl  Tl2  1  0.80810100  0.19189900  0.25000000  1
  Tl  Tl3  1  0.19189900  0.80810100  0.75000000  1
  S  S4  1  0.89630700  0.60929200  0.18870300  1
  S  S5  1  0.39070800  0.10369300  0.31129700  1
  S  S6  1  0.10369300  0.39070800  0.81129700  1
  S  S7  1  0.60929200  0.89630700  0.68870300  1
  O  O8  1  0.78271600  0.58477400  0.05911200  1
  O  O9  1  0.41522600  0.21728400  0.44088800  1
  O  O10  1  0.21728400  0.41522600  0.94088800  1
  O  O11  1  0.58477400  0.78271600  0.55911200  1
  O  O12  1  0.08055400  0.68060400  0.07850200  1
  O  O13  1  0.31939600  0.91944600  0.42149800  1
  O  O14  1  0.91944600  0.31939600  0.92149800  1
  O  O15  1  0.68060400  0.08055400  0.57850200  1
  O  O16  1  0.87811100  0.71578900  0.31637600  1
  O  O17  1  0.28421100  0.12188900  0.18362400  1
  O  O18  1  0.12188900  0.28421100  0.68362400  1
  O  O19  1  0.71578900  0.87811100  0.81637600  1
  O  O20  1  0.85124200  0.43916300  0.32532400  1
  O  O21  1  0.56083700  0.14875800  0.17467600  1
  O  O22  1  0.14875800  0.56083700  0.67467600  1
  O  O23  1  0.43916300  0.85124200  0.82532400  1
  O  O24  1  0.03698900  0.19865500  0.33988200  1
  O  O25  1  0.80134500  0.96301100  0.16011800  1
  O  O26  1  0.96301100  0.80134500  0.66011800  1
  O  O27  1  0.19865500  0.03698900  0.83988200  1
