# generated using pymatgen
data_K4V2O9
_symmetry_space_group_name_H-M   'P 1'
_cell_length_a   8.40128472
_cell_length_b   8.40128472
_cell_length_c   8.10864900
_cell_angle_alpha   90.00000000
_cell_angle_beta   90.00000000
_cell_angle_gamma   96.43690024
_symmetry_Int_Tables_number   1
_chemical_formula_structural   K4V2O9
_chemical_formula_sum   'K8 V4 O18'
_cell_volume   568.71334117
_cell_formula_units_Z   2
loop_
 _symmetry_equiv_pos_site_id
 _symmetry_equiv_pos_as_xyz
  1  'x, y, z'
loop_
 _atom_site_type_symbol
 _atom_site_label
 _atom_site_symmetry_multiplicity
 _atom_site_fract_x
 _atom_site_fract_y
 _atom_site_fract_z
 _atom_site_occupancy
  K  K0  1  0.46465700  0.53534300  0.25000000  1
  K  K1  1  0.53534300  0.46465700  0.75000000  1
  K  K2  1  0.98642900  0.01357100  0.25000000  1
  K  K3  1  0.01357100  0.98642900  0.75000000  1
  K  K4  1  0.91763200  0.53008600  0.25000000  1
  K  K5  1  0.53008600  0.91763200  0.75000000  1
  K  K6  1  0.08236800  0.46991400  0.75000000  1
  K  K7  1  0.46991400  0.08236800  0.25000000  1
  V  V8  1  0.22553100  0.77446900  0.47634800  1
  V  V9  1  0.77446900  0.22553100  0.52365200  1
  V  V10  1  0.22553100  0.77446900  0.02365200  1
  V  V11  1  0.77446900  0.22553100  0.97634800  1
  O  O12  1  0.03066900  0.71758800  0.53471400  1
  O  O13  1  0.71758800  0.03066900  0.46528600  1
  O  O14  1  0.03066900  0.71758800  0.96528600  1
  O  O15  1  0.71758800  0.03066900  0.03471400  1
  O  O16  1  0.96933100  0.28241200  0.46528600  1
  O  O17  1  0.28241200  0.96933100  0.53471400  1
  O  O18  1  0.96933100  0.28241200  0.03471400  1
  O  O19  1  0.28241200  0.96933100  0.96528600  1
  O  O20  1  0.35153400  0.64846600  0.55507000  1
  O  O21  1  0.64846600  0.35153400  0.44493000  1
  O  O22  1  0.35153400  0.64846600  0.94493000  1
  O  O23  1  0.64846600  0.35153400  0.05507000  1
  O  O24  1  0.23253800  0.76746200  0.25000000  1
  O  O25  1  0.76746200  0.23253800  0.75000000  1
  O  O26  1  0.16046000  0.30433100  0.25000000  1
  O  O27  1  0.30433100  0.16046000  0.75000000  1
  O  O28  1  0.83954000  0.69566900  0.75000000  1
  O  O29  1  0.69566900  0.83954000  0.25000000  1
