# generated using pymatgen
data_K2CS3O
_symmetry_space_group_name_H-M   'P 1'
_cell_length_a   16.09296200
_cell_length_b   6.61643200
_cell_length_c   9.18216074
_cell_angle_alpha   47.95891710
_cell_angle_beta   90.00000000
_cell_angle_gamma   90.00000000
_symmetry_Int_Tables_number   1
_chemical_formula_structural   K2CS3O
_chemical_formula_sum   'K8 C4 S12 O4'
_cell_volume   726.10194140
_cell_formula_units_Z   4
loop_
 _symmetry_equiv_pos_site_id
 _symmetry_equiv_pos_as_xyz
  1  'x, y, z'
loop_
 _atom_site_type_symbol
 _atom_site_label
 _atom_site_symmetry_multiplicity
 _atom_site_fract_x
 _atom_site_fract_y
 _atom_site_fract_z
 _atom_site_occupancy
  K  K0  1  0.19871800  0.04107600  0.06386300  1
  K  K1  1  0.30128200  0.04107600  0.56386300  1
  K  K2  1  0.80128200  0.95892400  0.93613700  1
  K  K3  1  0.69871800  0.95892400  0.43613700  1
  K  K4  1  0.94342400  0.90297400  0.32241500  1
  K  K5  1  0.55657600  0.90297400  0.82241500  1
  K  K6  1  0.05657600  0.09702600  0.67758500  1
  K  K7  1  0.44342400  0.09702600  0.17758500  1
  C  C8  1  0.13035100  0.36937700  0.22078100  1
  C  C9  1  0.36964900  0.36937700  0.72078100  1
  C  C10  1  0.86964900  0.63062300  0.77921900  1
  C  C11  1  0.63035100  0.63062300  0.27921900  1
  S  S12  1  0.21992800  0.52492100  0.08476200  1
  S  S13  1  0.28007200  0.52492100  0.58476200  1
  S  S14  1  0.78007200  0.47507900  0.91523800  1
  S  S15  1  0.71992800  0.47507900  0.41523800  1
  S  S16  1  0.37505500  0.02231000  0.89868900  1
  S  S17  1  0.12494500  0.02231000  0.39868900  1
  S  S18  1  0.62494500  0.97769000  0.10131100  1
  S  S19  1  0.87505500  0.97769000  0.60131100  1
  S  S20  1  0.05308800  0.59643900  0.15911000  1
  S  S21  1  0.44691200  0.59643900  0.65911000  1
  S  S22  1  0.94691200  0.40356100  0.84089000  1
  S  S23  1  0.55308800  0.40356100  0.34089000  1
  O  O24  1  0.79007600  0.68645500  0.34396600  1
  O  O25  1  0.70992400  0.68645500  0.84396600  1
  O  O26  1  0.20992400  0.31354500  0.65603400  1
  O  O27  1  0.29007600  0.31354500  0.15603400  1
