# generated using pymatgen
data_Np2Se5
_symmetry_space_group_name_H-M   'P 1'
_cell_length_a   7.72538300
_cell_length_b   7.74173100
_cell_length_c   10.72896700
_cell_angle_alpha   90.00000000
_cell_angle_beta   90.00000000
_cell_angle_gamma   90.00000000
_symmetry_Int_Tables_number   1
_chemical_formula_structural   Np2Se5
_chemical_formula_sum   'Np8 Se20'
_cell_volume   641.67631014
_cell_formula_units_Z   4
loop_
 _symmetry_equiv_pos_site_id
 _symmetry_equiv_pos_as_xyz
  1  'x, y, z'
loop_
 _atom_site_type_symbol
 _atom_site_label
 _atom_site_symmetry_multiplicity
 _atom_site_fract_x
 _atom_site_fract_y
 _atom_site_fract_z
 _atom_site_occupancy
  Np  Np0  1  0.75359400  0.49947600  0.15149700  1
  Np  Np1  1  0.74640600  0.99947600  0.34850300  1
  Np  Np2  1  0.25359400  0.50052400  0.34850300  1
  Np  Np3  1  0.24640600  0.00052400  0.15149700  1
  Np  Np4  1  0.24640600  0.50052400  0.84850300  1
  Np  Np5  1  0.25359400  0.00052400  0.65149700  1
  Np  Np6  1  0.74640600  0.49947600  0.65149700  1
  Np  Np7  1  0.75359400  0.99947600  0.84850300  1
  Se  Se8  1  0.62337200  0.12659300  0.60356300  1
  Se  Se9  1  0.87662800  0.62659300  0.89643700  1
  Se  Se10  1  0.12337200  0.87340700  0.89643700  1
  Se  Se11  1  0.37662800  0.37340700  0.60356300  1
  Se  Se12  1  0.37662800  0.87340700  0.39643700  1
  Se  Se13  1  0.12337200  0.37340700  0.10356300  1
  Se  Se14  1  0.87662800  0.12659300  0.10356300  1
  Se  Se15  1  0.62337200  0.62659300  0.39643700  1
  Se  Se16  1  0.12022000  0.62983100  0.60148700  1
  Se  Se17  1  0.37978000  0.12983100  0.89851300  1
  Se  Se18  1  0.62022000  0.37016900  0.89851300  1
  Se  Se19  1  0.87978000  0.87016900  0.60148700  1
  Se  Se20  1  0.87978000  0.37016900  0.39851300  1
  Se  Se21  1  0.62022000  0.87016900  0.10148700  1
  Se  Se22  1  0.37978000  0.62983100  0.10148700  1
  Se  Se23  1  0.12022000  0.12983100  0.39851300  1
  Se  Se24  1  0.00000000  0.25000000  0.74821200  1
  Se  Se25  1  0.50000000  0.75000000  0.75178800  1
  Se  Se26  1  0.00000000  0.75000000  0.25178800  1
  Se  Se27  1  0.50000000  0.25000000  0.24821200  1
