# generated using pymatgen
data_NaCd2(SiO3)3
_symmetry_space_group_name_H-M   'P 1'
_cell_length_a   7.03397500
_cell_length_b   7.06093862
_cell_length_c   7.95296607
_cell_angle_alpha   95.04531648
_cell_angle_beta   102.34683799
_cell_angle_gamma   90.49227854
_symmetry_Int_Tables_number   1
_chemical_formula_structural   NaCd2(SiO3)3
_chemical_formula_sum   'Na2 Cd4 Si6 O18'
_cell_volume   384.21250068
_cell_formula_units_Z   2
loop_
 _symmetry_equiv_pos_site_id
 _symmetry_equiv_pos_as_xyz
  1  'x, y, z'
loop_
 _atom_site_type_symbol
 _atom_site_label
 _atom_site_symmetry_multiplicity
 _atom_site_fract_x
 _atom_site_fract_y
 _atom_site_fract_z
 _atom_site_occupancy
  Na  Na0  1  0.26270000  0.35143300  0.56637900  1
  Na  Na1  1  0.73730000  0.64856700  0.43362100  1
  Cd  Cd2  1  0.58924000  0.14831100  0.85410400  1
  Cd  Cd3  1  0.41076000  0.85168900  0.14589600  1
  Cd  Cd4  1  0.08559100  0.13375700  0.84867100  1
  Cd  Cd5  1  0.91440900  0.86624300  0.15132900  1
  Si  Si6  1  0.59496800  0.66092600  0.78288500  1
  Si  Si7  1  0.40503200  0.33907400  0.21711500  1
  Si  Si8  1  0.04742300  0.65260400  0.78728500  1
  Si  Si9  1  0.95257700  0.34739600  0.21271500  1
  Si  Si10  1  0.26515400  0.85257000  0.54796400  1
  Si  Si11  1  0.73484600  0.14743000  0.45203600  1
  O  O12  1  0.61039900  0.83162100  0.93648900  1
  O  O13  1  0.38960100  0.16837900  0.06351100  1
  O  O14  1  0.10749000  0.82182400  0.94436100  1
  O  O15  1  0.89251000  0.17817600  0.05563900  1
  O  O16  1  0.46605000  0.72602900  0.59669900  1
  O  O17  1  0.53395000  0.27397100  0.40330100  1
  O  O18  1  0.09291000  0.71962100  0.60393300  1
  O  O19  1  0.90709000  0.28037900  0.39606700  1
  O  O20  1  0.78883400  0.12498700  0.65774300  1
  O  O21  1  0.21116600  0.87501300  0.34225700  1
  O  O22  1  0.29278800  0.05369500  0.66951900  1
  O  O23  1  0.70721200  0.94630500  0.33048100  1
  O  O24  1  0.50363600  0.45381000  0.81025100  1
  O  O25  1  0.49636400  0.54619000  0.18974900  1
  O  O26  1  0.14875900  0.44958600  0.82404800  1
  O  O27  1  0.85124100  0.55041400  0.17595200  1
  O  O28  1  0.80880900  0.61599600  0.73705500  1
  O  O29  1  0.19119100  0.38400400  0.26294500  1
