# generated using pymatgen
data_Cs3Sm2N9
_symmetry_space_group_name_H-M   'P 1'
_cell_length_a   8.96134546
_cell_length_b   8.96134546
_cell_length_c   8.96134584
_cell_angle_alpha   90.78620166
_cell_angle_beta   90.78620166
_cell_angle_gamma   90.78620790
_symmetry_Int_Tables_number   1
_chemical_formula_structural   Cs3Sm2N9
_chemical_formula_sum   'Cs6 Sm4 N18'
_cell_volume   719.44213384
_cell_formula_units_Z   2
loop_
 _symmetry_equiv_pos_site_id
 _symmetry_equiv_pos_as_xyz
  1  'x, y, z'
loop_
 _atom_site_type_symbol
 _atom_site_label
 _atom_site_symmetry_multiplicity
 _atom_site_fract_x
 _atom_site_fract_y
 _atom_site_fract_z
 _atom_site_occupancy
  Cs  Cs0  1  0.91852200  0.58147800  0.25000000  1
  Cs  Cs1  1  0.25000000  0.91852200  0.58147800  1
  Cs  Cs2  1  0.58147800  0.25000000  0.91852200  1
  Cs  Cs3  1  0.75000000  0.08147800  0.41852200  1
  Cs  Cs4  1  0.41852200  0.75000000  0.08147800  1
  Cs  Cs5  1  0.08147800  0.41852200  0.75000000  1
  Sm  Sm6  1  0.36058000  0.36058000  0.36058000  1
  Sm  Sm7  1  0.86058000  0.86058000  0.86058000  1
  Sm  Sm8  1  0.63942000  0.63942000  0.63942000  1
  Sm  Sm9  1  0.13942000  0.13942000  0.13942000  1
  N  N10  1  0.38056600  0.11943400  0.25000000  1
  N  N11  1  0.25000000  0.38056600  0.11943400  1
  N  N12  1  0.11943400  0.25000000  0.38056600  1
  N  N13  1  0.75000000  0.61943400  0.88056600  1
  N  N14  1  0.88056600  0.75000000  0.61943400  1
  N  N15  1  0.61943400  0.88056600  0.75000000  1
  N  N16  1  0.74224800  0.92450300  0.09158000  1
  N  N17  1  0.09158000  0.74224800  0.92450300  1
  N  N18  1  0.92450200  0.09158000  0.74224800  1
  N  N19  1  0.59158000  0.42450200  0.24224800  1
  N  N20  1  0.24224800  0.59158000  0.42450200  1
  N  N21  1  0.42450200  0.24224800  0.59158000  1
  N  N22  1  0.25775200  0.07549800  0.90842000  1
  N  N23  1  0.90842000  0.25775200  0.07549800  1
  N  N24  1  0.07549800  0.90842000  0.25775200  1
  N  N25  1  0.40842000  0.57549800  0.75775200  1
  N  N26  1  0.75775200  0.40842000  0.57549800  1
  N  N27  1  0.57549700  0.75775200  0.40842000  1
