# generated using pymatgen
data_Fe3Si2O9
_symmetry_space_group_name_H-M   'P 1'
_cell_length_a   5.29336253
_cell_length_b   5.29336253
_cell_length_c   14.47968119
_cell_angle_alpha   89.37314443
_cell_angle_beta   89.37314443
_cell_angle_gamma   119.26640457
_symmetry_Int_Tables_number   1
_chemical_formula_structural   Fe3Si2O9
_chemical_formula_sum   'Fe6 Si4 O18'
_cell_volume   353.84604042
_cell_formula_units_Z   2
loop_
 _symmetry_equiv_pos_site_id
 _symmetry_equiv_pos_as_xyz
  1  'x, y, z'
loop_
 _atom_site_type_symbol
 _atom_site_label
 _atom_site_symmetry_multiplicity
 _atom_site_fract_x
 _atom_site_fract_y
 _atom_site_fract_z
 _atom_site_occupancy
  Fe  Fe0  1  0.00000000  0.00000000  0.00000000  1
  Fe  Fe1  1  0.34375500  0.65624500  0.00000000  1
  Fe  Fe2  1  0.65624500  0.34375500  0.00000000  1
  Fe  Fe3  1  0.00000000  0.00000000  0.50000000  1
  Fe  Fe4  1  0.33386000  0.66614000  0.50000000  1
  Fe  Fe5  1  0.66614000  0.33386000  0.50000000  1
  Si  Si6  1  0.99670300  0.33276500  0.80365400  1
  Si  Si7  1  0.33276500  0.99670300  0.80365400  1
  Si  Si8  1  0.00329700  0.66723500  0.19634600  1
  Si  Si9  1  0.66723500  0.00329700  0.19634600  1
  O  O10  1  0.99164600  0.32999400  0.92028400  1
  O  O11  1  0.32999400  0.99164600  0.92028400  1
  O  O12  1  0.00835400  0.67000600  0.07971600  1
  O  O13  1  0.67000600  0.00835400  0.07971600  1
  O  O14  1  0.68437500  0.68437500  0.93333300  1
  O  O15  1  0.31562500  0.31562500  0.06666700  1
  O  O16  1  0.14823800  0.66668600  0.76824100  1
  O  O17  1  0.66668600  0.14823800  0.76824100  1
  O  O18  1  0.85176200  0.33331400  0.23175900  1
  O  O19  1  0.33331400  0.85176200  0.23175900  1
  O  O20  1  0.18601100  0.18601100  0.76912900  1
  O  O21  1  0.81398900  0.81398900  0.23087100  1
  O  O22  1  0.01227100  0.68179300  0.56559500  1
  O  O23  1  0.68179300  0.01227100  0.56559500  1
  O  O24  1  0.98772900  0.31820700  0.43440500  1
  O  O25  1  0.31820700  0.98772900  0.43440500  1
  O  O26  1  0.34614500  0.34614500  0.56635700  1
  O  O27  1  0.65385500  0.65385500  0.43364300  1
