# generated using pymatgen
data_Mg2B(PO5)2
_symmetry_space_group_name_H-M   'P 1'
_cell_length_a   6.52492621
_cell_length_b   6.52492621
_cell_length_c   8.40010328
_cell_angle_alpha   83.57119859
_cell_angle_beta   83.57119859
_cell_angle_gamma   81.69050475
_symmetry_Int_Tables_number   1
_chemical_formula_structural   Mg2B(PO5)2
_chemical_formula_sum   'Mg4 B2 P4 O20'
_cell_volume   349.97929609
_cell_formula_units_Z   2
loop_
 _symmetry_equiv_pos_site_id
 _symmetry_equiv_pos_as_xyz
  1  'x, y, z'
loop_
 _atom_site_type_symbol
 _atom_site_label
 _atom_site_symmetry_multiplicity
 _atom_site_fract_x
 _atom_site_fract_y
 _atom_site_fract_z
 _atom_site_occupancy
  Mg  Mg0  1  0.91882000  0.77523900  0.32517200  1
  Mg  Mg1  1  0.53665500  0.14125700  0.35013500  1
  Mg  Mg2  1  0.22476100  0.08118000  0.67482800  1
  Mg  Mg3  1  0.85874300  0.46334500  0.64986500  1
  B  B4  1  0.72944300  0.71773800  0.97268500  1
  B  B5  1  0.28226200  0.27055700  0.02731500  1
  P  P6  1  0.02935000  0.25385200  0.32342500  1
  P  P7  1  0.74614800  0.97065000  0.67657500  1
  P  P8  1  0.31985400  0.53939000  0.74147400  1
  P  P9  1  0.46061000  0.68014600  0.25852600  1
  O  O10  1  0.54460400  0.49595300  0.66725900  1
  O  O11  1  0.59007000  0.82469100  0.32559600  1
  O  O12  1  0.86756200  0.10422200  0.31754500  1
  O  O13  1  0.21537800  0.14782200  0.41528200  1
  O  O14  1  0.85217800  0.78462200  0.58471800  1
  O  O15  1  0.92755600  0.45463200  0.39833900  1
  O  O16  1  0.67483900  0.89246300  0.85482000  1
  O  O17  1  0.10753700  0.32516100  0.14518000  1
  O  O18  1  0.54536800  0.07244400  0.60166100  1
  O  O19  1  0.88967600  0.74739800  0.06799700  1
  O  O20  1  0.46988800  0.17910200  0.09657500  1
  O  O21  1  0.25260200  0.11032400  0.93200300  1
  O  O22  1  0.82089800  0.53011200  0.90342500  1
  O  O23  1  0.50404700  0.45539600  0.33274100  1
  O  O24  1  0.24586200  0.77060200  0.72252400  1
  O  O25  1  0.17530900  0.40993000  0.67440400  1
  O  O26  1  0.53533000  0.67802500  0.07312900  1
  O  O27  1  0.32197500  0.46467000  0.92687100  1
  O  O28  1  0.89577800  0.13243800  0.68245500  1
  O  O29  1  0.22939800  0.75413800  0.27747600  1
