# generated using pymatgen
data_CaV2O10
_symmetry_space_group_name_H-M   'P 1'
_cell_length_a   6.85686100
_cell_length_b   8.00051591
_cell_length_c   9.09213048
_cell_angle_alpha   106.94959652
_cell_angle_beta   97.44842884
_cell_angle_gamma   115.33009373
_symmetry_Int_Tables_number   1
_chemical_formula_structural   CaV2O10
_chemical_formula_sum   'Ca2 V4 O20'
_cell_volume   412.15855393
_cell_formula_units_Z   2
loop_
 _symmetry_equiv_pos_site_id
 _symmetry_equiv_pos_as_xyz
  1  'x, y, z'
loop_
 _atom_site_type_symbol
 _atom_site_label
 _atom_site_symmetry_multiplicity
 _atom_site_fract_x
 _atom_site_fract_y
 _atom_site_fract_z
 _atom_site_occupancy
  Ca  Ca0  1  0.91070900  0.64925500  0.85074900  1
  Ca  Ca1  1  0.08929100  0.35074500  0.14925100  1
  V  V2  1  0.45585500  0.10195900  0.66546000  1
  V  V3  1  0.54414500  0.89804100  0.33454000  1
  V  V4  1  0.93347800  0.04948300  0.67519500  1
  V  V5  1  0.06652200  0.95051700  0.32480500  1
  O  O6  1  0.68697900  0.06218400  0.57635600  1
  O  O7  1  0.31302100  0.93781600  0.42364400  1
  O  O8  1  0.18902800  0.12498700  0.61710800  1
  O  O9  1  0.81097200  0.87501300  0.38289200  1
  O  O10  1  0.32134000  0.55079600  0.69302600  1
  O  O11  1  0.67866000  0.44920400  0.30697400  1
  O  O12  1  0.85821900  0.82868100  0.69643400  1
  O  O13  1  0.14178100  0.17131900  0.30356600  1
  O  O14  1  0.40474000  0.96378200  0.77234200  1
  O  O15  1  0.59526000  0.03621800  0.22765800  1
  O  O16  1  0.63694300  0.34636100  0.79058000  1
  O  O17  1  0.36305700  0.65363900  0.20942000  1
  O  O18  1  0.01556000  0.23195800  0.86105700  1
  O  O19  1  0.98444000  0.76804200  0.13894300  1
  O  O20  1  0.89743600  0.97537600  0.99212000  1
  O  O21  1  0.10256400  0.02462400  0.00788000  1
  O  O22  1  0.21211900  0.56424300  0.80015900  1
  O  O23  1  0.78788100  0.43575700  0.19984100  1
  O  O24  1  0.76504800  0.46267400  0.44551100  1
  O  O25  1  0.23495200  0.53732600  0.55448900  1
