# generated using pymatgen
data_MoWSeS3
_symmetry_space_group_name_H-M   'P 1'
_cell_length_a   3.22043343
_cell_length_b   3.22043343
_cell_length_c   36.36675300
_cell_angle_alpha   90.00000000
_cell_angle_beta   90.00000000
_cell_angle_gamma   119.99998834
_symmetry_Int_Tables_number   1
_chemical_formula_structural   MoWSeS3
_chemical_formula_sum   'Mo2 W2 Se2 S6'
_cell_volume   326.63586024
_cell_formula_units_Z   2
loop_
 _symmetry_equiv_pos_site_id
 _symmetry_equiv_pos_as_xyz
  1  'x, y, z'
loop_
 _atom_site_type_symbol
 _atom_site_label
 _atom_site_symmetry_multiplicity
 _atom_site_fract_x
 _atom_site_fract_y
 _atom_site_fract_z
 _atom_site_occupancy
  Mo  Mo0  1  0.00000000  0.00000000  0.46966800  1
  Mo  Mo1  1  0.33333300  0.66666700  0.28179700  1
  W  W2  1  0.00000000  0.00000000  0.09392100  1
  W  W3  1  0.33333300  0.66666700  0.65755800  1
  Se  Se4  1  0.33333300  0.66666700  0.42261100  1
  Se  Se5  1  0.33333300  0.66666700  0.51669000  1
  S  S6  1  0.00000000  0.00000000  0.32456100  1
  S  S7  1  0.00000000  0.00000000  0.70050600  1
  S  S8  1  0.33333300  0.66666700  0.05095100  1
  S  S9  1  0.33333300  0.66666700  0.13688300  1
  S  S10  1  0.00000000  0.00000000  0.23900200  1
  S  S11  1  0.00000000  0.00000000  0.61460000  1
