# generated using pymatgen
data_MnInO3
_symmetry_space_group_name_H-M   'P 1'
_cell_length_a   6.00790713
_cell_length_b   6.00776131
_cell_length_c   11.65488637
_cell_angle_alpha   90.02436228
_cell_angle_beta   90.02414846
_cell_angle_gamma   60.02948820
_symmetry_Int_Tables_number   1
_chemical_formula_structural   MnInO3
_chemical_formula_sum   'Mn6 In6 O18'
_cell_volume   364.42106706
_cell_formula_units_Z   6
loop_
 _symmetry_equiv_pos_site_id
 _symmetry_equiv_pos_as_xyz
  1  'x, y, z'
loop_
 _atom_site_type_symbol
 _atom_site_label
 _atom_site_symmetry_multiplicity
 _atom_site_fract_x
 _atom_site_fract_y
 _atom_site_fract_z
 _atom_site_occupancy
  Mn  Mn0  1  0.33129600  0.66870900  0.75000400  1
  Mn  Mn1  1  0.33148200  0.00006700  0.24996800  1
  Mn  Mn2  1  0.99992700  0.66852100  0.25004100  1
  Mn  Mn3  1  0.00005900  0.33148600  0.74996000  1
  Mn  Mn4  1  0.66850400  0.99995300  0.75003200  1
  Mn  Mn5  1  0.66873100  0.33125900  0.25000000  1
  In  In6  1  0.99997900  0.00001200  0.49999000  1
  In  In7  1  0.99999300  0.00000100  0.00000700  1
  In  In8  1  0.66668100  0.66668300  0.01869000  1
  In  In9  1  0.66668100  0.66669500  0.51869200  1
  In  In10  1  0.33331900  0.33330100  0.98131700  1
  In  In11  1  0.33331900  0.33332700  0.48129900  1
  O  O12  1  0.99967500  0.00032200  0.75000100  1
  O  O13  1  0.00033800  0.99965800  0.24999900  1
  O  O14  1  0.66705300  0.66606700  0.22716200  1
  O  O15  1  0.66608100  0.66705600  0.72716300  1
  O  O16  1  0.33293600  0.33393300  0.77284000  1
  O  O17  1  0.33393600  0.33294600  0.27283400  1
  O  O18  1  0.02508700  0.31957200  0.58455300  1
  O  O19  1  0.65537000  0.02491400  0.58450100  1
  O  O20  1  0.31967800  0.65509800  0.58467700  1
  O  O21  1  0.31957600  0.02508600  0.08455200  1
  O  O22  1  0.65509500  0.31966700  0.08467500  1
  O  O23  1  0.02490700  0.65536900  0.08449200  1
  O  O24  1  0.97490100  0.68043600  0.41544300  1
  O  O25  1  0.34463400  0.97509600  0.41550300  1
  O  O26  1  0.68033800  0.34490200  0.41532400  1
  O  O27  1  0.68042800  0.97491500  0.91544900  1
  O  O28  1  0.34490900  0.68032000  0.91532800  1
  O  O29  1  0.97508500  0.34462900  0.91550600  1
