# generated using pymatgen
data_Rb3FeS3
_symmetry_space_group_name_H-M   'P 1'
_cell_length_a   13.21151900
_cell_length_b   8.04497600
_cell_length_c   10.54223671
_cell_angle_alpha   52.63116873
_cell_angle_beta   90.00000000
_cell_angle_gamma   90.00000000
_symmetry_Int_Tables_number   1
_chemical_formula_structural   Rb3FeS3
_chemical_formula_sum   'Rb12 Fe4 S12'
_cell_volume   890.50841316
_cell_formula_units_Z   4
loop_
 _symmetry_equiv_pos_site_id
 _symmetry_equiv_pos_as_xyz
  1  'x, y, z'
loop_
 _atom_site_type_symbol
 _atom_site_label
 _atom_site_symmetry_multiplicity
 _atom_site_fract_x
 _atom_site_fract_y
 _atom_site_fract_z
 _atom_site_occupancy
  Rb  Rb0  1  0.92419500  0.64591500  0.60851300  1
  Rb  Rb1  1  0.42419500  0.35408500  0.89148700  1
  Rb  Rb2  1  0.07580500  0.35408500  0.39148700  1
  Rb  Rb3  1  0.57580500  0.64591500  0.10851300  1
  Rb  Rb4  1  0.63342900  0.61385100  0.51876800  1
  Rb  Rb5  1  0.13342900  0.38614900  0.98123200  1
  Rb  Rb6  1  0.36657100  0.38614900  0.48123200  1
  Rb  Rb7  1  0.86657100  0.61385100  0.01876800  1
  Rb  Rb8  1  0.80838400  0.13302700  0.57846600  1
  Rb  Rb9  1  0.30838400  0.86697300  0.92153400  1
  Rb  Rb10  1  0.19161600  0.86697300  0.42153400  1
  Rb  Rb11  1  0.69161600  0.13302700  0.07846600  1
  Fe  Fe12  1  0.55659900  0.93695100  0.65597000  1
  Fe  Fe13  1  0.05659900  0.06304900  0.84403000  1
  Fe  Fe14  1  0.44340100  0.06304900  0.34403000  1
  Fe  Fe15  1  0.94340100  0.93695100  0.15597000  1
  S  S16  1  0.10565700  0.85922600  0.11529200  1
  S  S17  1  0.60565700  0.14077400  0.38470800  1
  S  S18  1  0.89434300  0.14077400  0.88470800  1
  S  S19  1  0.39434300  0.85922600  0.61529200  1
  S  S20  1  0.04749900  0.88174100  0.74530700  1
  S  S21  1  0.54749900  0.11825900  0.75469300  1
  S  S22  1  0.95250100  0.11825900  0.25469300  1
  S  S23  1  0.45250100  0.88174100  0.24530700  1
  S  S24  1  0.66161700  0.65811000  0.80347300  1
  S  S25  1  0.16161700  0.34189000  0.69652700  1
  S  S26  1  0.33838300  0.34189000  0.19652700  1
  S  S27  1  0.83838300  0.65811000  0.30347300  1
