# generated using pymatgen
data_Ho2PbS4
_symmetry_space_group_name_H-M   'P 1'
_cell_length_a   3.98169200
_cell_length_b   12.02252000
_cell_length_c   14.34538700
_cell_angle_alpha   90.00000000
_cell_angle_beta   90.00000000
_cell_angle_gamma   90.00000000
_symmetry_Int_Tables_number   1
_chemical_formula_structural   Ho2PbS4
_chemical_formula_sum   'Ho8 Pb4 S16'
_cell_volume   686.71326977
_cell_formula_units_Z   4
loop_
 _symmetry_equiv_pos_site_id
 _symmetry_equiv_pos_as_xyz
  1  'x, y, z'
loop_
 _atom_site_type_symbol
 _atom_site_label
 _atom_site_symmetry_multiplicity
 _atom_site_fract_x
 _atom_site_fract_y
 _atom_site_fract_z
 _atom_site_occupancy
  Ho  Ho0  1  0.25000000  0.43311900  0.38929500  1
  Ho  Ho1  1  0.25000000  0.93311900  0.11070500  1
  Ho  Ho2  1  0.75000000  0.56688100  0.61070500  1
  Ho  Ho3  1  0.75000000  0.06688100  0.88929500  1
  Ho  Ho4  1  0.25000000  0.41894400  0.89955200  1
  Ho  Ho5  1  0.25000000  0.91894500  0.60044800  1
  Ho  Ho6  1  0.75000000  0.58105500  0.10044800  1
  Ho  Ho7  1  0.75000000  0.08105600  0.39955200  1
  Pb  Pb8  1  0.25000000  0.75891100  0.33715700  1
  Pb  Pb9  1  0.25000000  0.25891100  0.16284300  1
  Pb  Pb10  1  0.75000000  0.24108900  0.66284300  1
  Pb  Pb11  1  0.75000000  0.74108900  0.83715700  1
  S  S12  1  0.25000000  0.20731200  0.82745200  1
  S  S13  1  0.25000000  0.70731200  0.67254800  1
  S  S14  1  0.75000000  0.79268800  0.17254800  1
  S  S15  1  0.75000000  0.29268800  0.32745200  1
  S  S16  1  0.25000000  0.12951100  0.52680400  1
  S  S17  1  0.25000000  0.62951100  0.97319600  1
  S  S18  1  0.75000000  0.87048900  0.47319600  1
  S  S19  1  0.75000000  0.37048900  0.02680400  1
  S  S20  1  0.25000000  0.02333000  0.28450500  1
  S  S21  1  0.25000000  0.52333000  0.21549500  1
  S  S22  1  0.75000000  0.97667000  0.71549500  1
  S  S23  1  0.75000000  0.47667000  0.78450500  1
  S  S24  1  0.25000000  0.41437300  0.57744300  1
  S  S25  1  0.25000000  0.91437300  0.92255700  1
  S  S26  1  0.75000000  0.58562700  0.42255700  1
  S  S27  1  0.75000000  0.08562700  0.07744300  1
