# generated using pymatgen
data_Te8IrI5
_symmetry_space_group_name_H-M   'P 1'
_cell_length_a   10.03186000
_cell_length_b   10.60196446
_cell_length_c   11.77636745
_cell_angle_alpha   102.51709766
_cell_angle_beta   112.31793214
_cell_angle_gamma   92.55208178
_symmetry_Int_Tables_number   1
_chemical_formula_structural   Te8IrI5
_chemical_formula_sum   'Te16 Ir2 I10'
_cell_volume   1119.92969915
_cell_formula_units_Z   2
loop_
 _symmetry_equiv_pos_site_id
 _symmetry_equiv_pos_as_xyz
  1  'x, y, z'
loop_
 _atom_site_type_symbol
 _atom_site_label
 _atom_site_symmetry_multiplicity
 _atom_site_fract_x
 _atom_site_fract_y
 _atom_site_fract_z
 _atom_site_occupancy
  Te  Te0  1  0.42039700  0.69179100  0.01539600  1
  Te  Te1  1  0.57960300  0.30820900  0.98460400  1
  Te  Te2  1  0.54572400  0.85971200  0.26628000  1
  Te  Te3  1  0.45427600  0.14028800  0.73372000  1
  Te  Te4  1  0.70679700  0.72958200  0.00517300  1
  Te  Te5  1  0.29320300  0.27041800  0.99482700  1
  Te  Te6  1  0.79918000  0.93956400  0.22662900  1
  Te  Te7  1  0.20082000  0.06043600  0.77337100  1
  Te  Te8  1  0.43154800  0.06190600  0.11751400  1
  Te  Te9  1  0.56845200  0.93809400  0.88248600  1
  Te  Te10  1  0.20360400  0.69606200  0.67005100  1
  Te  Te11  1  0.79639600  0.30393800  0.32994900  1
  Te  Te12  1  0.05260700  0.82640400  0.91809200  1
  Te  Te13  1  0.94739300  0.17359600  0.08190800  1
  Te  Te14  1  0.09740100  0.96862900  0.16991100  1
  Te  Te15  1  0.90259900  0.03137100  0.83008900  1
  Ir  Ir16  1  0.30870600  0.87561000  0.89446900  1
  Ir  Ir17  1  0.69129400  0.12439000  0.10553100  1
  I  I18  1  0.29303800  0.87370800  0.51786600  1
  I  I19  1  0.70696200  0.12629200  0.48213400  1
  I  I20  1  0.46964100  0.56761700  0.70492900  1
  I  I21  1  0.53035900  0.43238300  0.29507100  1
  I  I22  1  0.08276000  0.48644700  0.73919500  1
  I  I23  1  0.91724000  0.51355300  0.26080500  1
  I  I24  1  0.90325200  0.78285700  0.58428300  1
  I  I25  1  0.09674800  0.21714300  0.41571700  1
  I  I26  1  0.19673500  0.65016900  0.13448600  1
  I  I27  1  0.80326500  0.34983100  0.86551400  1
