# generated using pymatgen
data_Co(WCl5)2
_symmetry_space_group_name_H-M   'P 1'
_cell_length_a   8.88390087
_cell_length_b   8.88390087
_cell_length_c   12.40578966
_cell_angle_alpha   86.64911338
_cell_angle_beta   86.64911338
_cell_angle_gamma   139.09362292
_symmetry_Int_Tables_number   1
_chemical_formula_structural   Co(WCl5)2
_chemical_formula_sum   'Co2 W4 Cl20'
_cell_volume   632.11326381
_cell_formula_units_Z   2
loop_
 _symmetry_equiv_pos_site_id
 _symmetry_equiv_pos_as_xyz
  1  'x, y, z'
loop_
 _atom_site_type_symbol
 _atom_site_label
 _atom_site_symmetry_multiplicity
 _atom_site_fract_x
 _atom_site_fract_y
 _atom_site_fract_z
 _atom_site_occupancy
  Co  Co0  1  0.55360500  0.44639500  0.25000000  1
  Co  Co1  1  0.44639500  0.55360500  0.75000000  1
  W  W2  1  0.93444600  0.06555400  0.25000000  1
  W  W3  1  0.06555400  0.93444600  0.75000000  1
  W  W4  1  0.77211200  0.22788800  0.25000000  1
  W  W5  1  0.22788800  0.77211200  0.75000000  1
  Cl  Cl6  1  0.01767900  0.72437500  0.61606500  1
  Cl  Cl7  1  0.27562500  0.98232100  0.88393500  1
  Cl  Cl8  1  0.98232100  0.27562500  0.38393500  1
  Cl  Cl9  1  0.72437500  0.01767900  0.11606500  1
  Cl  Cl10  1  0.70072000  0.59910400  0.85979600  1
  Cl  Cl11  1  0.40089600  0.29928000  0.64020400  1
  Cl  Cl12  1  0.29928000  0.40089600  0.14020400  1
  Cl  Cl13  1  0.59910400  0.70072000  0.35979600  1
  Cl  Cl14  1  0.89897800  0.41878200  0.85686900  1
  Cl  Cl15  1  0.58121800  0.10102200  0.64313100  1
  Cl  Cl16  1  0.10102200  0.58121800  0.14313100  1
  Cl  Cl17  1  0.41878200  0.89897800  0.35686900  1
  Cl  Cl18  1  0.82682600  0.90992100  0.64174500  1
  Cl  Cl19  1  0.09007900  0.17317400  0.85825500  1
  Cl  Cl20  1  0.17317400  0.09007900  0.35825500  1
  Cl  Cl21  1  0.90992100  0.82682600  0.14174500  1
  Cl  Cl22  1  0.22651900  0.54750200  0.64127800  1
  Cl  Cl23  1  0.45249800  0.77348100  0.85872200  1
  Cl  Cl24  1  0.77348100  0.45249800  0.35872200  1
  Cl  Cl25  1  0.54750200  0.22651900  0.14127800  1
