# generated using pymatgen
data_NaFeH4SO6F
_symmetry_space_group_name_H-M   'P 1'
_cell_length_a   5.84512827
_cell_length_b   7.30439623
_cell_length_c   7.47618559
_cell_angle_alpha   89.91177607
_cell_angle_beta   89.90546758
_cell_angle_gamma   112.64027572
_symmetry_Int_Tables_number   1
_chemical_formula_structural   NaFeH4SO6F
_chemical_formula_sum   'Na2 Fe2 H8 S2 O12 F2'
_cell_volume   294.59817018
_cell_formula_units_Z   2
loop_
 _symmetry_equiv_pos_site_id
 _symmetry_equiv_pos_as_xyz
  1  'x, y, z'
loop_
 _atom_site_type_symbol
 _atom_site_label
 _atom_site_symmetry_multiplicity
 _atom_site_fract_x
 _atom_site_fract_y
 _atom_site_fract_z
 _atom_site_occupancy
  Na  Na0  1  0.86607500  0.29432600  0.75024900  1
  Na  Na1  1  0.13391700  0.70560400  0.24969300  1
  Fe  Fe2  1  0.49984800  0.50006100  0.00034500  1
  Fe  Fe3  1  0.49984200  0.50004200  0.49983000  1
  H  H4  1  0.80705800  0.87774600  0.09232500  1
  H  H5  1  0.19167800  0.12203700  0.59090600  1
  H  H6  1  0.19301600  0.12229000  0.90767300  1
  H  H7  1  0.80826000  0.87787200  0.40907600  1
  H  H8  1  0.93501800  0.80762800  0.56896900  1
  H  H9  1  0.06637500  0.19183100  0.06820700  1
  H  H10  1  0.06499500  0.19233800  0.43098800  1
  H  H11  1  0.93380900  0.80832100  0.93178600  1
  S  S12  1  0.34666400  0.80930200  0.75096900  1
  S  S13  1  0.65328600  0.19074400  0.24903200  1
  O  O14  1  0.15828500  0.90758200  0.75034900  1
  O  O15  1  0.84172100  0.09245900  0.24958400  1
  O  O16  1  0.59925200  0.96027800  0.75044200  1
  O  O17  1  0.40070700  0.03968900  0.24945200  1
  O  O18  1  0.29550900  0.67951800  0.58880800  1
  O  O19  1  0.70512700  0.31975800  0.08573100  1
  O  O20  1  0.70440400  0.32044600  0.41125100  1
  O  O21  1  0.29489000  0.68028100  0.91421400  1
  O  O22  1  0.83907700  0.76357400  0.04500800  1
  O  O23  1  0.15948800  0.23634700  0.54396600  1
  O  O24  1  0.16093600  0.23645800  0.95492200  1
  O  O25  1  0.84041800  0.76355200  0.45604500  1
  F  F26  1  0.61598700  0.46925000  0.74991700  1
  F  F27  1  0.38435700  0.53066600  0.25026200  1
