# generated using pymatgen
data_K2Mo(SO)2
_symmetry_space_group_name_H-M   'P 1'
_cell_length_a   8.40196200
_cell_length_b   6.68681800
_cell_length_c   13.91816080
_cell_angle_alpha   65.33629916
_cell_angle_beta   90.00000000
_cell_angle_gamma   90.00000000
_symmetry_Int_Tables_number   1
_chemical_formula_structural   K2Mo(SO)2
_chemical_formula_sum   'K8 Mo4 S8 O8'
_cell_volume   710.61987920
_cell_formula_units_Z   4
loop_
 _symmetry_equiv_pos_site_id
 _symmetry_equiv_pos_as_xyz
  1  'x, y, z'
loop_
 _atom_site_type_symbol
 _atom_site_label
 _atom_site_symmetry_multiplicity
 _atom_site_fract_x
 _atom_site_fract_y
 _atom_site_fract_z
 _atom_site_occupancy
  K  K0  1  0.68437500  0.67268500  0.05114200  1
  K  K1  1  0.18437500  0.32731500  0.44885800  1
  K  K2  1  0.31562500  0.32731500  0.94885800  1
  K  K3  1  0.81562500  0.67268500  0.55114200  1
  K  K4  1  0.48165300  0.84856100  0.29867500  1
  K  K5  1  0.98165300  0.15143900  0.20132500  1
  K  K6  1  0.51834700  0.15143900  0.70132500  1
  K  K7  1  0.01834700  0.84856100  0.79867500  1
  Mo  Mo8  1  0.20691200  0.72564000  0.08408900  1
  Mo  Mo9  1  0.70691200  0.27436000  0.41591100  1
  Mo  Mo10  1  0.79308800  0.27436000  0.91591100  1
  Mo  Mo11  1  0.29308800  0.72564000  0.58408900  1
  S  S12  1  0.16149700  0.84979900  0.42885000  1
  S  S13  1  0.66149700  0.15020100  0.07115000  1
  S  S14  1  0.83850300  0.15020100  0.57115000  1
  S  S15  1  0.33850300  0.84979900  0.92885000  1
  S  S16  1  0.33302400  0.42755000  0.19882000  1
  S  S17  1  0.83302400  0.57245000  0.30118000  1
  S  S18  1  0.66697600  0.57245000  0.80118000  1
  S  S19  1  0.16697600  0.42755000  0.69882000  1
  O  O20  1  0.01198600  0.65236500  0.06341800  1
  O  O21  1  0.51198600  0.34763500  0.43658200  1
  O  O22  1  0.98801400  0.34763500  0.93658200  1
  O  O23  1  0.48801400  0.65236500  0.56341800  1
  O  O24  1  0.20714300  0.93345500  0.13254200  1
  O  O25  1  0.70714300  0.06654500  0.36745800  1
  O  O26  1  0.79285700  0.06654500  0.86745800  1
  O  O27  1  0.29285700  0.93345500  0.63254200  1
