# generated using pymatgen
data_Rb2MoO4
_symmetry_space_group_name_H-M   'P 1'
_cell_length_a   6.48022700
_cell_length_b   8.27961800
_cell_length_c   11.43609800
_cell_angle_alpha   90.00000000
_cell_angle_beta   90.00000000
_cell_angle_gamma   90.00000000
_symmetry_Int_Tables_number   1
_chemical_formula_structural   Rb2MoO4
_chemical_formula_sum   'Rb8 Mo4 O16'
_cell_volume   613.59016191
_cell_formula_units_Z   4
loop_
 _symmetry_equiv_pos_site_id
 _symmetry_equiv_pos_as_xyz
  1  'x, y, z'
loop_
 _atom_site_type_symbol
 _atom_site_label
 _atom_site_symmetry_multiplicity
 _atom_site_fract_x
 _atom_site_fract_y
 _atom_site_fract_z
 _atom_site_occupancy
  Rb  Rb0  1  0.25000000  0.16970000  0.92094900  1
  Rb  Rb1  1  0.25000000  0.66970000  0.57905100  1
  Rb  Rb2  1  0.75000000  0.83030000  0.07905100  1
  Rb  Rb3  1  0.75000000  0.33030000  0.42094900  1
  Rb  Rb4  1  0.25000000  0.49909800  0.21027200  1
  Rb  Rb5  1  0.25000000  0.99909800  0.28972800  1
  Rb  Rb6  1  0.75000000  0.50090200  0.78972800  1
  Rb  Rb7  1  0.75000000  0.00090200  0.71027200  1
  Mo  Mo8  1  0.25000000  0.71916700  0.92017500  1
  Mo  Mo9  1  0.25000000  0.21916700  0.57982500  1
  Mo  Mo10  1  0.75000000  0.28083300  0.07982500  1
  Mo  Mo11  1  0.75000000  0.78083300  0.42017500  1
  O  O12  1  0.25000000  0.50343300  0.93135600  1
  O  O13  1  0.25000000  0.00343300  0.56864400  1
  O  O14  1  0.75000000  0.49656700  0.06864400  1
  O  O15  1  0.75000000  0.99656700  0.43135600  1
  O  O16  1  0.25000000  0.81178000  0.06354300  1
  O  O17  1  0.25000000  0.31178000  0.43645700  1
  O  O18  1  0.75000000  0.18822000  0.93645700  1
  O  O19  1  0.75000000  0.68822000  0.56354300  1
  O  O20  1  0.02277000  0.78406700  0.84264800  1
  O  O21  1  0.47723000  0.28406700  0.65735200  1
  O  O22  1  0.52277000  0.21593300  0.15735200  1
  O  O23  1  0.97723000  0.71593300  0.34264800  1
  O  O24  1  0.97723000  0.21593300  0.15735200  1
  O  O25  1  0.52277000  0.71593300  0.34264800  1
  O  O26  1  0.47723000  0.78406700  0.84264800  1
  O  O27  1  0.02277000  0.28406700  0.65735200  1
