# generated using pymatgen
data_ZnHNO4
_symmetry_space_group_name_H-M   'P 1'
_cell_length_a   5.72003700
_cell_length_b   7.73862800
_cell_length_c   9.13082000
_cell_angle_alpha   90.00000000
_cell_angle_beta   90.00000000
_cell_angle_gamma   90.00000000
_symmetry_Int_Tables_number   1
_chemical_formula_structural   ZnHNO4
_chemical_formula_sum   'Zn4 H4 N4 O16'
_cell_volume   404.17792490
_cell_formula_units_Z   4
loop_
 _symmetry_equiv_pos_site_id
 _symmetry_equiv_pos_as_xyz
  1  'x, y, z'
loop_
 _atom_site_type_symbol
 _atom_site_label
 _atom_site_symmetry_multiplicity
 _atom_site_fract_x
 _atom_site_fract_y
 _atom_site_fract_z
 _atom_site_occupancy
  Zn  Zn0  1  0.14964500  0.69680700  0.63951000  1
  Zn  Zn1  1  0.64964500  0.30319300  0.36049000  1
  Zn  Zn2  1  0.64964500  0.19680700  0.86049000  1
  Zn  Zn3  1  0.14964500  0.80319300  0.13951000  1
  H  H4  1  0.89504500  0.93121400  0.60049100  1
  H  H5  1  0.39504500  0.06878600  0.39950900  1
  H  H6  1  0.39504500  0.43121400  0.89950900  1
  H  H7  1  0.89504500  0.56878600  0.10049100  1
  N  N8  1  0.41845300  0.64102500  0.37802700  1
  N  N9  1  0.91845300  0.35897500  0.62197300  1
  N  N10  1  0.91845300  0.14102500  0.12197300  1
  N  N11  1  0.41845300  0.85897500  0.87802700  1
  O  O12  1  0.41923400  0.59733300  0.51240600  1
  O  O13  1  0.91923400  0.40266700  0.48759400  1
  O  O14  1  0.91923400  0.09733300  0.98759400  1
  O  O15  1  0.41923400  0.90266700  0.01240600  1
  O  O16  1  0.30895100  0.77723500  0.33947900  1
  O  O17  1  0.80895100  0.22276500  0.66052100  1
  O  O18  1  0.80895100  0.27723500  0.16052100  1
  O  O19  1  0.30895100  0.72276500  0.83947900  1
  O  O20  1  0.52386500  0.55043300  0.28449000  1
  O  O21  1  0.02386500  0.44956700  0.71551000  1
  O  O22  1  0.02386500  0.05043300  0.21551000  1
  O  O23  1  0.52386500  0.94956700  0.78449000  1
  O  O24  1  0.90240800  0.81445100  0.56111500  1
  O  O25  1  0.40240800  0.18554900  0.43888500  1
  O  O26  1  0.40240800  0.31445100  0.93888500  1
  O  O27  1  0.90240800  0.68554900  0.06111500  1
