# generated using pymatgen
data_K2MoS3O
_symmetry_space_group_name_H-M   'P 1'
_cell_length_a   7.29421000
_cell_length_b   9.33991200
_cell_length_c   11.56421900
_cell_angle_alpha   90.00000000
_cell_angle_beta   90.00000000
_cell_angle_gamma   90.00000000
_symmetry_Int_Tables_number   1
_chemical_formula_structural   K2MoS3O
_chemical_formula_sum   'K8 Mo4 S12 O4'
_cell_volume   787.83878012
_cell_formula_units_Z   4
loop_
 _symmetry_equiv_pos_site_id
 _symmetry_equiv_pos_as_xyz
  1  'x, y, z'
loop_
 _atom_site_type_symbol
 _atom_site_label
 _atom_site_symmetry_multiplicity
 _atom_site_fract_x
 _atom_site_fract_y
 _atom_site_fract_z
 _atom_site_occupancy
  K  K0  1  0.25000000  0.45210100  0.19263800  1
  K  K1  1  0.25000000  0.95210100  0.30736200  1
  K  K2  1  0.75000000  0.54789900  0.80736200  1
  K  K3  1  0.75000000  0.04789900  0.69263800  1
  K  K4  1  0.25000000  0.15974000  0.87696100  1
  K  K5  1  0.25000000  0.65974000  0.62303900  1
  K  K6  1  0.75000000  0.84026000  0.12303900  1
  K  K7  1  0.75000000  0.34026000  0.37696100  1
  Mo  Mo8  1  0.25000000  0.23928400  0.54799900  1
  Mo  Mo9  1  0.25000000  0.73928400  0.95200100  1
  Mo  Mo10  1  0.75000000  0.76071600  0.45200100  1
  Mo  Mo11  1  0.75000000  0.26071600  0.04799900  1
  S  S12  1  0.25000000  0.00998800  0.59759000  1
  S  S13  1  0.25000000  0.50998800  0.90241000  1
  S  S14  1  0.75000000  0.99001200  0.40241000  1
  S  S15  1  0.75000000  0.49001200  0.09759000  1
  S  S16  1  0.49696100  0.34382400  0.62278100  1
  S  S17  1  0.00303900  0.84382400  0.87721900  1
  S  S18  1  0.99696100  0.65617600  0.37721900  1
  S  S19  1  0.50303900  0.15617600  0.12278100  1
  S  S20  1  0.50303900  0.65617600  0.37721900  1
  S  S21  1  0.99696100  0.15617600  0.12278100  1
  S  S22  1  0.00303900  0.34382400  0.62278100  1
  S  S23  1  0.49696100  0.84382400  0.87721900  1
  O  O24  1  0.25000000  0.25671500  0.39557900  1
  O  O25  1  0.25000000  0.75671500  0.10442100  1
  O  O26  1  0.75000000  0.74328500  0.60442100  1
  O  O27  1  0.75000000  0.24328500  0.89557900  1
