# generated using pymatgen
data_MnZnGeO4
_symmetry_space_group_name_H-M   'P 1'
_cell_length_a   5.02643100
_cell_length_b   6.27943300
_cell_length_c   10.87351800
_cell_angle_alpha   90.00000000
_cell_angle_beta   90.00000000
_cell_angle_gamma   90.00000000
_symmetry_Int_Tables_number   1
_chemical_formula_structural   MnZnGeO4
_chemical_formula_sum   'Mn4 Zn4 Ge4 O16'
_cell_volume   343.20233497
_cell_formula_units_Z   4
loop_
 _symmetry_equiv_pos_site_id
 _symmetry_equiv_pos_as_xyz
  1  'x, y, z'
loop_
 _atom_site_type_symbol
 _atom_site_label
 _atom_site_symmetry_multiplicity
 _atom_site_fract_x
 _atom_site_fract_y
 _atom_site_fract_z
 _atom_site_occupancy
  Mn  Mn0  1  0.49083300  0.75000000  0.22175600  1
  Mn  Mn1  1  0.00916700  0.75000000  0.72175600  1
  Mn  Mn2  1  0.50916700  0.25000000  0.77824400  1
  Mn  Mn3  1  0.99083300  0.25000000  0.27824400  1
  Zn  Zn4  1  0.50000000  0.00000000  0.50000000  1
  Zn  Zn5  1  0.00000000  0.50000000  0.00000000  1
  Zn  Zn6  1  0.50000000  0.50000000  0.50000000  1
  Zn  Zn7  1  0.00000000  0.00000000  0.00000000  1
  Ge  Ge8  1  0.93279700  0.75000000  0.40638200  1
  Ge  Ge9  1  0.56720300  0.75000000  0.90638200  1
  Ge  Ge10  1  0.06720300  0.25000000  0.59361800  1
  Ge  Ge11  1  0.43279700  0.25000000  0.09361800  1
  O  O12  1  0.77045800  0.97321900  0.33744900  1
  O  O13  1  0.72954200  0.52678100  0.83744900  1
  O  O14  1  0.22954200  0.47321900  0.66255100  1
  O  O15  1  0.27045800  0.02678100  0.16255100  1
  O  O16  1  0.22954200  0.02678100  0.66255100  1
  O  O17  1  0.27045800  0.47321900  0.16255100  1
  O  O18  1  0.77045800  0.52678100  0.33744900  1
  O  O19  1  0.72954200  0.97321900  0.83744900  1
  O  O20  1  0.28439700  0.75000000  0.40984000  1
  O  O21  1  0.21560300  0.75000000  0.90984000  1
  O  O22  1  0.71560300  0.25000000  0.59016000  1
  O  O23  1  0.78439700  0.25000000  0.09016000  1
  O  O24  1  0.73219900  0.75000000  0.05489100  1
  O  O25  1  0.76780100  0.75000000  0.55489100  1
  O  O26  1  0.26780100  0.25000000  0.94510900  1
  O  O27  1  0.23219900  0.25000000  0.44510900  1
