# generated using pymatgen
data_Ca(C4N3)2
_symmetry_space_group_name_H-M   'P 1'
_cell_length_a   5.68887300
_cell_length_b   8.06940800
_cell_length_c   11.26608400
_cell_angle_alpha   90.00000000
_cell_angle_beta   90.00000000
_cell_angle_gamma   90.00000000
_symmetry_Int_Tables_number   1
_chemical_formula_structural   Ca(C4N3)2
_chemical_formula_sum   'Ca2 C16 N12'
_cell_volume   517.17901908
_cell_formula_units_Z   2
loop_
 _symmetry_equiv_pos_site_id
 _symmetry_equiv_pos_as_xyz
  1  'x, y, z'
loop_
 _atom_site_type_symbol
 _atom_site_label
 _atom_site_symmetry_multiplicity
 _atom_site_fract_x
 _atom_site_fract_y
 _atom_site_fract_z
 _atom_site_occupancy
  Ca  Ca0  1  0.00000000  0.50000000  0.50000000  1
  Ca  Ca1  1  0.00000000  0.00000000  0.00000000  1
  C  C2  1  0.58627000  0.00000000  0.65983700  1
  C  C3  1  0.58627000  0.50000000  0.84016300  1
  C  C4  1  0.41373000  0.00000000  0.34016300  1
  C  C5  1  0.41373000  0.50000000  0.15983700  1
  C  C6  1  0.68516300  0.14862200  0.61913300  1
  C  C7  1  0.68516300  0.35137800  0.88086700  1
  C  C8  1  0.31483700  0.14862200  0.38086700  1
  C  C9  1  0.68516300  0.64862200  0.88086700  1
  C  C10  1  0.31483700  0.85137800  0.38086700  1
  C  C11  1  0.31483700  0.64862200  0.11913300  1
  C  C12  1  0.68516300  0.85137800  0.61913300  1
  C  C13  1  0.31483700  0.35137800  0.11913300  1
  C  C14  1  0.40360600  0.00000000  0.74356500  1
  C  C15  1  0.40360600  0.50000000  0.75643500  1
  C  C16  1  0.59639400  0.00000000  0.25643500  1
  C  C17  1  0.59639400  0.50000000  0.24356500  1
  N  N18  1  0.77209500  0.27027100  0.58313100  1
  N  N19  1  0.77209500  0.22972900  0.91686900  1
  N  N20  1  0.22790500  0.27027100  0.41686900  1
  N  N21  1  0.77209500  0.77027100  0.91686900  1
  N  N22  1  0.22790500  0.72972900  0.41686900  1
  N  N23  1  0.22790500  0.77027100  0.08313100  1
  N  N24  1  0.77209500  0.72972900  0.58313100  1
  N  N25  1  0.22790500  0.22972900  0.08313100  1
  N  N26  1  0.25318700  0.00000000  0.81480600  1
  N  N27  1  0.25318700  0.50000000  0.68519400  1
  N  N28  1  0.74681300  0.00000000  0.18519400  1
  N  N29  1  0.74681300  0.50000000  0.31480600  1
