# generated using pymatgen
data_Yb(YSe2)2
_symmetry_space_group_name_H-M   'P 1'
_cell_length_a   4.06955800
_cell_length_b   13.52481200
_cell_length_c   13.80577200
_cell_angle_alpha   90.00000000
_cell_angle_beta   90.00000000
_cell_angle_gamma   90.00000000
_symmetry_Int_Tables_number   1
_chemical_formula_structural   Yb(YSe2)2
_chemical_formula_sum   'Yb4 Y8 Se16'
_cell_volume   759.86978577
_cell_formula_units_Z   4
loop_
 _symmetry_equiv_pos_site_id
 _symmetry_equiv_pos_as_xyz
  1  'x, y, z'
loop_
 _atom_site_type_symbol
 _atom_site_label
 _atom_site_symmetry_multiplicity
 _atom_site_fract_x
 _atom_site_fract_y
 _atom_site_fract_z
 _atom_site_occupancy
  Yb  Yb0  1  0.25000000  0.37130000  0.58132000  1
  Yb  Yb1  1  0.25000000  0.87130000  0.91868000  1
  Yb  Yb2  1  0.75000000  0.62870000  0.41868000  1
  Yb  Yb3  1  0.75000000  0.12870000  0.08132000  1
  Y  Y4  1  0.25000000  0.10793000  0.41760300  1
  Y  Y5  1  0.25000000  0.60793000  0.08239700  1
  Y  Y6  1  0.75000000  0.89207000  0.58239700  1
  Y  Y7  1  0.75000000  0.39207000  0.91760300  1
  Y  Y8  1  0.25000000  0.14751700  0.79711200  1
  Y  Y9  1  0.25000000  0.64751700  0.70288800  1
  Y  Y10  1  0.75000000  0.85248300  0.20288800  1
  Y  Y11  1  0.75000000  0.35248300  0.29711200  1
  Se  Se12  1  0.25000000  0.21432800  0.23521200  1
  Se  Se13  1  0.25000000  0.71432800  0.26478800  1
  Se  Se14  1  0.75000000  0.78567200  0.76478800  1
  Se  Se15  1  0.75000000  0.28567200  0.73521200  1
  Se  Se16  1  0.25000000  0.25460700  0.97631800  1
  Se  Se17  1  0.25000000  0.75460700  0.52368200  1
  Se  Se18  1  0.75000000  0.74539300  0.02368200  1
  Se  Se19  1  0.75000000  0.24539300  0.47631800  1
  Se  Se20  1  0.25000000  0.47066600  0.38450200  1
  Se  Se21  1  0.25000000  0.97066600  0.11549800  1
  Se  Se22  1  0.75000000  0.52933400  0.61549800  1
  Se  Se23  1  0.75000000  0.02933400  0.88450200  1
  Se  Se24  1  0.25000000  0.03513000  0.61826300  1
  Se  Se25  1  0.25000000  0.53513000  0.88173700  1
  Se  Se26  1  0.75000000  0.96487000  0.38173700  1
  Se  Se27  1  0.75000000  0.46487000  0.11826300  1
