# generated using pymatgen
data_FeCu4BiPbS6
_symmetry_space_group_name_H-M   'P 1'
_cell_length_a   3.88687600
_cell_length_b   10.82936400
_cell_length_c   12.11926300
_cell_angle_alpha   90.00000000
_cell_angle_beta   90.00000000
_cell_angle_gamma   90.00000000
_symmetry_Int_Tables_number   1
_chemical_formula_structural   FeCu4BiPbS6
_chemical_formula_sum   'Fe2 Cu8 Bi2 Pb2 S12'
_cell_volume   510.12880563
_cell_formula_units_Z   2
loop_
 _symmetry_equiv_pos_site_id
 _symmetry_equiv_pos_as_xyz
  1  'x, y, z'
loop_
 _atom_site_type_symbol
 _atom_site_label
 _atom_site_symmetry_multiplicity
 _atom_site_fract_x
 _atom_site_fract_y
 _atom_site_fract_z
 _atom_site_occupancy
  Fe  Fe0  1  0.00000000  0.70749000  0.18006900  1
  Fe  Fe1  1  0.00000000  0.29251000  0.68006900  1
  Cu  Cu2  1  0.50000000  0.97933700  0.77510800  1
  Cu  Cu3  1  0.50000000  0.02066300  0.27510800  1
  Cu  Cu4  1  0.00000000  0.51477300  0.57459100  1
  Cu  Cu5  1  0.00000000  0.48522700  0.07459100  1
  Cu  Cu6  1  0.50000000  0.62189500  0.33714300  1
  Cu  Cu7  1  0.50000000  0.37810500  0.83714300  1
  Cu  Cu8  1  0.50000000  0.78687600  0.04225200  1
  Cu  Cu9  1  0.50000000  0.21312400  0.54225200  1
  Bi  Bi10  1  0.00000000  0.84808300  0.49339100  1
  Bi  Bi11  1  0.00000000  0.15191700  0.99339100  1
  Pb  Pb12  1  0.50000000  0.69258800  0.77646000  1
  Pb  Pb13  1  0.50000000  0.30741200  0.27646000  1
  S  S14  1  0.50000000  0.81055600  0.23626200  1
  S  S15  1  0.50000000  0.18944400  0.73626200  1
  S  S16  1  0.50000000  0.97907600  0.96291300  1
  S  S17  1  0.50000000  0.02092400  0.46291300  1
  S  S18  1  0.00000000  0.52385400  0.26797100  1
  S  S19  1  0.00000000  0.47614600  0.76797100  1
  S  S20  1  0.00000000  0.68029500  0.99288900  1
  S  S21  1  0.00000000  0.31970500  0.49288900  1
  S  S22  1  0.00000000  0.88803100  0.70786000  1
  S  S23  1  0.00000000  0.11196900  0.20786000  1
  S  S24  1  0.50000000  0.63156200  0.53009100  1
  S  S25  1  0.50000000  0.36843800  0.03009100  1
