# generated using pymatgen
data_MnV2(PbO4)2
_symmetry_space_group_name_H-M   'P 1'
_cell_length_a   6.63760200
_cell_length_b   7.48904039
_cell_length_c   9.13010471
_cell_angle_alpha   112.51762742
_cell_angle_beta   89.99722357
_cell_angle_gamma   90.00336981
_symmetry_Int_Tables_number   1
_chemical_formula_structural   MnV2(PbO4)2
_chemical_formula_sum   'Mn2 V4 Pb4 O16'
_cell_volume   419.25004281
_cell_formula_units_Z   2
loop_
 _symmetry_equiv_pos_site_id
 _symmetry_equiv_pos_as_xyz
  1  'x, y, z'
loop_
 _atom_site_type_symbol
 _atom_site_label
 _atom_site_symmetry_multiplicity
 _atom_site_fract_x
 _atom_site_fract_y
 _atom_site_fract_z
 _atom_site_occupancy
  Mn  Mn0  1  0.49992700  0.00025600  0.99983600  1
  Mn  Mn1  1  0.99945000  0.99945100  0.00005400  1
  V  V2  1  0.25002400  0.55449400  0.84798600  1
  V  V3  1  0.74993600  0.44564000  0.15202600  1
  V  V4  1  0.24994800  0.95451000  0.66564600  1
  V  V5  1  0.74994400  0.04547900  0.33439300  1
  Pb  Pb6  1  0.25005000  0.73530000  0.26115000  1
  Pb  Pb7  1  0.74996000  0.26438400  0.73873100  1
  Pb  Pb8  1  0.25037000  0.35191100  0.47643800  1
  Pb  Pb9  1  0.75037200  0.64806200  0.52357700  1
  O  O10  1  0.24976900  0.71170300  0.54077900  1
  O  O11  1  0.74984900  0.28835900  0.45925500  1
  O  O12  1  0.25005400  0.07003900  0.53474300  1
  O  O13  1  0.74998600  0.93007300  0.46535500  1
  O  O14  1  0.25011600  0.45595200  0.98648800  1
  O  O15  1  0.74995800  0.54415600  0.01351100  1
  O  O16  1  0.24987300  0.81304400  0.95307700  1
  O  O17  1  0.74984800  0.18710400  0.04692200  1
  O  O18  1  0.47261700  0.01229400  0.78078500  1
  O  O19  1  0.52768900  0.98765900  0.21891600  1
  O  O20  1  0.97251800  0.98768500  0.21917800  1
  O  O21  1  0.02760700  0.01235700  0.78108400  1
  O  O22  1  0.45731100  0.47610300  0.71754600  1
  O  O23  1  0.54273700  0.52408200  0.28256000  1
  O  O24  1  0.95725300  0.52397700  0.28243300  1
  O  O25  1  0.04283500  0.47592500  0.71753000  1
