# generated using pymatgen
data_Na2VO4
_symmetry_space_group_name_H-M   'P 1'
_cell_length_a   6.96356400
_cell_length_b   7.31200667
_cell_length_c   8.56648500
_cell_angle_alpha   84.19020667
_cell_angle_beta   85.50425799
_cell_angle_gamma   76.01449155
_symmetry_Int_Tables_number   1
_chemical_formula_structural   Na2VO4
_chemical_formula_sum   'Na8 V4 O16'
_cell_volume   420.42375774
_cell_formula_units_Z   4
loop_
 _symmetry_equiv_pos_site_id
 _symmetry_equiv_pos_as_xyz
  1  'x, y, z'
loop_
 _atom_site_type_symbol
 _atom_site_label
 _atom_site_symmetry_multiplicity
 _atom_site_fract_x
 _atom_site_fract_y
 _atom_site_fract_z
 _atom_site_occupancy
  Na  Na0  1  0.09040000  0.97885700  0.71132000  1
  Na  Na1  1  0.90960000  0.02114300  0.28868000  1
  Na  Na2  1  0.13245500  0.49562900  0.68695600  1
  Na  Na3  1  0.86754500  0.50437100  0.31304400  1
  Na  Na4  1  0.32306900  0.68852900  0.04140800  1
  Na  Na5  1  0.67693100  0.31147100  0.95859200  1
  Na  Na6  1  0.49007500  0.87037100  0.33215100  1
  Na  Na7  1  0.50992500  0.12962900  0.66784900  1
  V  V8  1  0.81402200  0.80203900  0.95396300  1
  V  V9  1  0.18597800  0.19796100  0.04603700  1
  V  V10  1  0.58878000  0.63912900  0.69001900  1
  V  V11  1  0.41122000  0.36087100  0.30998100  1
  O  O12  1  0.79238700  0.81102700  0.15395300  1
  O  O13  1  0.20761300  0.18897300  0.84604700  1
  O  O14  1  0.75042300  0.02324200  0.85648100  1
  O  O15  1  0.24957700  0.97675800  0.14351900  1
  O  O16  1  0.05475500  0.70670100  0.89228000  1
  O  O17  1  0.94524500  0.29329900  0.10772000  1
  O  O18  1  0.64418100  0.65995500  0.89444800  1
  O  O19  1  0.35581900  0.34004500  0.10555200  1
  O  O20  1  0.80879000  0.59079600  0.57445900  1
  O  O21  1  0.19121000  0.40920400  0.42554100  1
  O  O22  1  0.48732200  0.44809500  0.70914700  1
  O  O23  1  0.51267800  0.55190500  0.29085300  1
  O  O24  1  0.42903700  0.84142200  0.61795000  1
  O  O25  1  0.57096300  0.15857800  0.38205000  1
  O  O26  1  0.96287800  0.23093400  0.50380800  1
  O  O27  1  0.03712200  0.76906600  0.49619200  1
