# generated using pymatgen
data_AgSbC2N2(ClF3)2
_symmetry_space_group_name_H-M   'P 1'
_cell_length_a   7.80500500
_cell_length_b   9.34896000
_cell_length_c   9.40586075
_cell_angle_alpha   90.00000000
_cell_angle_beta   119.60600822
_cell_angle_gamma   90.00000000
_symmetry_Int_Tables_number   1
_chemical_formula_structural   AgSbC2N2(ClF3)2
_chemical_formula_sum   'Ag2 Sb2 C4 N4 Cl4 F12'
_cell_volume   596.72771867
_cell_formula_units_Z   2
loop_
 _symmetry_equiv_pos_site_id
 _symmetry_equiv_pos_as_xyz
  1  'x, y, z'
loop_
 _atom_site_type_symbol
 _atom_site_label
 _atom_site_symmetry_multiplicity
 _atom_site_fract_x
 _atom_site_fract_y
 _atom_site_fract_z
 _atom_site_occupancy
  Ag  Ag0  1  0.00000000  0.50000000  0.50000000  1
  Ag  Ag1  1  0.00000000  0.00000000  0.00000000  1
  Sb  Sb2  1  0.00000000  0.00000000  0.50000000  1
  Sb  Sb3  1  0.00000000  0.50000000  0.00000000  1
  C  C4  1  0.39024700  0.66649400  0.55244700  1
  C  C5  1  0.39024700  0.83350600  0.05244700  1
  C  C6  1  0.60975300  0.33350600  0.44755300  1
  C  C7  1  0.60975300  0.16649400  0.94755300  1
  N  N8  1  0.26607900  0.59603200  0.55066600  1
  N  N9  1  0.26607900  0.90396800  0.05066600  1
  N  N10  1  0.73392100  0.40396800  0.44933400  1
  N  N11  1  0.73392100  0.09603200  0.94933400  1
  Cl  Cl12  1  0.56097200  0.76220700  0.55346200  1
  Cl  Cl13  1  0.56097200  0.73779300  0.05346200  1
  Cl  Cl14  1  0.43902800  0.23779300  0.44653800  1
  Cl  Cl15  1  0.43902800  0.26220700  0.94653800  1
  F  F16  1  0.08324500  0.95409800  0.34395000  1
  F  F17  1  0.08324500  0.54590200  0.84395000  1
  F  F18  1  0.91675500  0.04590200  0.65605000  1
  F  F19  1  0.91675500  0.45409800  0.15605000  1
  F  F20  1  0.25455500  0.94846300  0.67751000  1
  F  F21  1  0.25455500  0.55153700  0.17751000  1
  F  F22  1  0.74544500  0.05153700  0.32249000  1
  F  F23  1  0.74544500  0.44846300  0.82249000  1
  F  F24  1  0.90935800  0.80647500  0.48947200  1
  F  F25  1  0.90935800  0.69352500  0.98947200  1
  F  F26  1  0.09064200  0.19352500  0.51052800  1
  F  F27  1  0.09064200  0.30647500  0.01052800  1
