# generated using pymatgen
data_Dy6Fe23
_symmetry_space_group_name_H-M   'P 1'
_cell_length_a   8.51087015
_cell_length_b   8.51087015
_cell_length_c   8.51087015
_cell_angle_alpha   60.00000000
_cell_angle_beta   60.00000000
_cell_angle_gamma   60.00000000
_symmetry_Int_Tables_number   1
_chemical_formula_structural   Dy6Fe23
_chemical_formula_sum   'Dy6 Fe23'
_cell_volume   435.92010199
_cell_formula_units_Z   1
loop_
 _symmetry_equiv_pos_site_id
 _symmetry_equiv_pos_as_xyz
  1  'x, y, z'
loop_
 _atom_site_type_symbol
 _atom_site_label
 _atom_site_symmetry_multiplicity
 _atom_site_fract_x
 _atom_site_fract_y
 _atom_site_fract_z
 _atom_site_occupancy
  Dy  Dy0  1  0.71023500  0.28976500  0.28976500  1
  Dy  Dy1  1  0.71023500  0.28976500  0.71023500  1
  Dy  Dy2  1  0.71023500  0.71023500  0.28976500  1
  Dy  Dy3  1  0.28976500  0.71023500  0.71023500  1
  Dy  Dy4  1  0.28976500  0.71023500  0.28976500  1
  Dy  Dy5  1  0.28976500  0.28976500  0.71023500  1
  Fe  Fe6  1  0.00000000  0.00000000  0.00000000  1
  Fe  Fe7  1  0.50000000  0.00000000  0.00000000  1
  Fe  Fe8  1  0.50000000  0.00000000  0.50000000  1
  Fe  Fe9  1  0.50000000  0.50000000  0.00000000  1
  Fe  Fe10  1  0.00000000  0.50000000  0.50000000  1
  Fe  Fe11  1  0.00000000  0.50000000  0.00000000  1
  Fe  Fe12  1  0.00000000  0.00000000  0.50000000  1
  Fe  Fe13  1  0.63469600  0.12176800  0.12176800  1
  Fe  Fe14  1  0.12176800  0.63469600  0.12176800  1
  Fe  Fe15  1  0.12176800  0.12176800  0.63469600  1
  Fe  Fe16  1  0.12176800  0.12176800  0.12176800  1
  Fe  Fe17  1  0.36530400  0.87823200  0.87823200  1
  Fe  Fe18  1  0.87823200  0.36530400  0.87823200  1
  Fe  Fe19  1  0.87823200  0.87823200  0.36530400  1
  Fe  Fe20  1  0.87823200  0.87823200  0.87823200  1
  Fe  Fe21  1  0.02753700  0.32415400  0.32415400  1
  Fe  Fe22  1  0.32415400  0.02753700  0.32415400  1
  Fe  Fe23  1  0.32415400  0.32415400  0.02753700  1
  Fe  Fe24  1  0.32415400  0.32415400  0.32415400  1
  Fe  Fe25  1  0.97246300  0.67584600  0.67584600  1
  Fe  Fe26  1  0.67584600  0.97246300  0.67584600  1
  Fe  Fe27  1  0.67584600  0.67584600  0.97246300  1
  Fe  Fe28  1  0.67584600  0.67584600  0.67584600  1
