# generated using pymatgen
data_Zn2S2O11
_symmetry_space_group_name_H-M   'P 1'
_cell_length_a   7.06279100
_cell_length_b   8.36927802
_cell_length_c   9.32876998
_cell_angle_alpha   94.23995131
_cell_angle_beta   90.46448761
_cell_angle_gamma   90.07423081
_symmetry_Int_Tables_number   1
_chemical_formula_structural   Zn2S2O11
_chemical_formula_sum   'Zn4 S4 O22'
_cell_volume   549.89966947
_cell_formula_units_Z   2
loop_
 _symmetry_equiv_pos_site_id
 _symmetry_equiv_pos_as_xyz
  1  'x, y, z'
loop_
 _atom_site_type_symbol
 _atom_site_label
 _atom_site_symmetry_multiplicity
 _atom_site_fract_x
 _atom_site_fract_y
 _atom_site_fract_z
 _atom_site_occupancy
  Zn  Zn0  1  0.50000000  0.00000000  0.00000000  1
  Zn  Zn1  1  0.00000000  0.50000000  0.50000000  1
  Zn  Zn2  1  0.51436800  0.49074900  0.27460800  1
  Zn  Zn3  1  0.48563200  0.50925100  0.72539200  1
  S  S4  1  0.73106600  0.38066200  0.98185800  1
  S  S5  1  0.26893400  0.61933800  0.01814200  1
  S  S6  1  0.35253500  0.26578200  0.50475600  1
  S  S7  1  0.64746500  0.73421800  0.49524400  1
  O  O8  1  0.41204500  0.75131200  0.03835100  1
  O  O9  1  0.58795500  0.24868800  0.96164900  1
  O  O10  1  0.29968400  0.49882100  0.12955000  1
  O  O11  1  0.70031600  0.50117900  0.87045000  1
  O  O12  1  0.72091800  0.46653400  0.13062100  1
  O  O13  1  0.27908200  0.53346600  0.86937900  1
  O  O14  1  0.42868800  0.29158300  0.35656900  1
  O  O15  1  0.57131200  0.70841700  0.64343100  1
  O  O16  1  0.48972900  0.70530600  0.38423500  1
  O  O17  1  0.51027100  0.29469400  0.61576500  1
  O  O18  1  0.76429100  0.56627500  0.44934300  1
  O  O19  1  0.23570900  0.43372500  0.55065700  1
  O  O20  1  0.22240700  0.08449100  0.02909500  1
  O  O21  1  0.77759300  0.91550900  0.97090500  1
  O  O22  1  0.12369800  0.80564900  0.51488400  1
  O  O23  1  0.87630200  0.19435100  0.48511600  1
  O  O24  1  0.68213500  0.01337700  0.18626700  1
  O  O25  1  0.31786500  0.98662300  0.81373300  1
  O  O26  1  0.92126100  0.23771000  0.36584400  1
  O  O27  1  0.07873900  0.76229000  0.63415600  1
  O  O28  1  0.82763600  0.94948400  0.10958400  1
  O  O29  1  0.17236400  0.05051600  0.89041600  1
