# generated using pymatgen
data_Yb(HoSe2)2
_symmetry_space_group_name_H-M   'P 1'
_cell_length_a   4.04247600
_cell_length_b   13.48153200
_cell_length_c   13.77705600
_cell_angle_alpha   90.00000000
_cell_angle_beta   90.00000000
_cell_angle_gamma   90.00000000
_symmetry_Int_Tables_number   1
_chemical_formula_structural   Yb(HoSe2)2
_chemical_formula_sum   'Yb4 Ho8 Se16'
_cell_volume   750.83260007
_cell_formula_units_Z   4
loop_
 _symmetry_equiv_pos_site_id
 _symmetry_equiv_pos_as_xyz
  1  'x, y, z'
loop_
 _atom_site_type_symbol
 _atom_site_label
 _atom_site_symmetry_multiplicity
 _atom_site_fract_x
 _atom_site_fract_y
 _atom_site_fract_z
 _atom_site_occupancy
  Yb  Yb0  1  0.75000000  0.12907200  0.91839200  1
  Yb  Yb1  1  0.75000000  0.62907200  0.58160800  1
  Yb  Yb2  1  0.25000000  0.87092800  0.08160800  1
  Yb  Yb3  1  0.25000000  0.37092800  0.41839200  1
  Ho  Ho4  1  0.75000000  0.39185200  0.08247100  1
  Ho  Ho5  1  0.75000000  0.89185200  0.41752900  1
  Ho  Ho6  1  0.25000000  0.60814800  0.91752900  1
  Ho  Ho7  1  0.25000000  0.10814800  0.58247100  1
  Ho  Ho8  1  0.75000000  0.35182300  0.70325800  1
  Ho  Ho9  1  0.75000000  0.85182300  0.79674200  1
  Ho  Ho10  1  0.25000000  0.64817700  0.29674200  1
  Ho  Ho11  1  0.25000000  0.14817700  0.20325800  1
  Se  Se12  1  0.75000000  0.28563400  0.26418800  1
  Se  Se13  1  0.75000000  0.78563400  0.23581200  1
  Se  Se14  1  0.25000000  0.71436600  0.73581200  1
  Se  Se15  1  0.25000000  0.21436600  0.76418800  1
  Se  Se16  1  0.75000000  0.24478600  0.52446300  1
  Se  Se17  1  0.75000000  0.74478600  0.97553700  1
  Se  Se18  1  0.25000000  0.75521400  0.47553700  1
  Se  Se19  1  0.25000000  0.25521400  0.02446300  1
  Se  Se20  1  0.75000000  0.02970800  0.11614500  1
  Se  Se21  1  0.75000000  0.52970800  0.38385500  1
  Se  Se22  1  0.25000000  0.97029200  0.88385500  1
  Se  Se23  1  0.25000000  0.47029200  0.61614500  1
  Se  Se24  1  0.75000000  0.46487800  0.88182200  1
  Se  Se25  1  0.75000000  0.96487800  0.61817800  1
  Se  Se26  1  0.25000000  0.53512200  0.11817800  1
  Se  Se27  1  0.25000000  0.03512200  0.38182200  1
