# generated using pymatgen
data_Tl3S2O9
_symmetry_space_group_name_H-M   'P 1'
_cell_length_a   9.74580207
_cell_length_b   9.74580207
_cell_length_c   7.17206703
_cell_angle_alpha   77.33410213
_cell_angle_beta   77.33410213
_cell_angle_gamma   129.90092596
_symmetry_Int_Tables_number   1
_chemical_formula_structural   Tl3S2O9
_chemical_formula_sum   'Tl6 S4 O18'
_cell_volume   447.05706822
_cell_formula_units_Z   2
loop_
 _symmetry_equiv_pos_site_id
 _symmetry_equiv_pos_as_xyz
  1  'x, y, z'
loop_
 _atom_site_type_symbol
 _atom_site_label
 _atom_site_symmetry_multiplicity
 _atom_site_fract_x
 _atom_site_fract_y
 _atom_site_fract_z
 _atom_site_occupancy
  Tl  Tl0  1  0.11247900  0.85755800  0.73821400  1
  Tl  Tl1  1  0.85755800  0.11247900  0.23821400  1
  Tl  Tl2  1  0.71757800  0.30096000  0.72609900  1
  Tl  Tl3  1  0.30096000  0.71757800  0.22609900  1
  Tl  Tl4  1  0.48982700  0.48787100  0.50063800  1
  Tl  Tl5  1  0.48787100  0.48982700  0.00063800  1
  S  S6  1  0.90893200  0.05957700  0.74429500  1
  S  S7  1  0.05957700  0.90893200  0.24429500  1
  S  S8  1  0.31265300  0.66581800  0.74136900  1
  S  S9  1  0.66581800  0.31265300  0.24136900  1
  O  O10  1  0.93549800  0.18096000  0.54242500  1
  O  O11  1  0.18096000  0.93549800  0.04242500  1
  O  O12  1  0.48648300  0.73233200  0.55421200  1
  O  O13  1  0.73233200  0.48648300  0.05421200  1
  O  O14  1  0.38622000  0.84559000  0.76667700  1
  O  O15  1  0.84559000  0.38622000  0.26667700  1
  O  O16  1  0.81486900  0.85877200  0.76059000  1
  O  O17  1  0.85877200  0.81486900  0.26059000  1
  O  O18  1  0.10582100  0.16754400  0.74343000  1
  O  O19  1  0.16754400  0.10582100  0.24343000  1
  O  O20  1  0.13723400  0.57325500  0.70104700  1
  O  O21  1  0.57325500  0.13723400  0.20104700  1
  O  O22  1  0.77121600  0.03089700  0.93299200  1
  O  O23  1  0.03089700  0.77121600  0.43299200  1
  O  O24  1  0.25216100  0.50892900  0.94518000  1
  O  O25  1  0.50892900  0.25216100  0.44518000  1
  O  O26  1  0.53899900  0.42676800  0.75543200  1
  O  O27  1  0.42676800  0.53899900  0.25543200  1
