# generated using pymatgen
data_AlP3NO10
_symmetry_space_group_name_H-M   'P 1'
_cell_length_a   5.08562200
_cell_length_b   7.81171244
_cell_length_c   11.27419165
_cell_angle_alpha   105.80991863
_cell_angle_beta   90.00000000
_cell_angle_gamma   90.00000000
_symmetry_Int_Tables_number   1
_chemical_formula_structural   AlP3NO10
_chemical_formula_sum   'Al2 P6 N2 O20'
_cell_volume   430.95103794
_cell_formula_units_Z   2
loop_
 _symmetry_equiv_pos_site_id
 _symmetry_equiv_pos_as_xyz
  1  'x, y, z'
loop_
 _atom_site_type_symbol
 _atom_site_label
 _atom_site_symmetry_multiplicity
 _atom_site_fract_x
 _atom_site_fract_y
 _atom_site_fract_z
 _atom_site_occupancy
  Al  Al0  1  0.00000000  0.50000000  0.50000000  1
  Al  Al1  1  0.00000000  0.00000000  0.00000000  1
  P  P2  1  0.48795100  0.24562000  0.47866100  1
  P  P3  1  0.48795100  0.25438000  0.02133900  1
  P  P4  1  0.51204900  0.75438000  0.52133900  1
  P  P5  1  0.51204900  0.74562000  0.97866100  1
  P  P6  1  0.77622400  0.75000000  0.75000000  1
  P  P7  1  0.22377600  0.25000000  0.25000000  1
  N  N8  1  0.00332600  0.25000000  0.75000000  1
  N  N9  1  0.99667400  0.75000000  0.25000000  1
  O  O10  1  0.22887900  0.70175800  0.50244700  1
  O  O11  1  0.22887900  0.79824200  0.99755300  1
  O  O12  1  0.77112100  0.29824200  0.49755300  1
  O  O13  1  0.77112100  0.20175800  0.00244700  1
  O  O14  1  0.41307200  0.42271800  0.96948100  1
  O  O15  1  0.41307200  0.07728200  0.53051900  1
  O  O16  1  0.58692800  0.57728200  0.03051900  1
  O  O17  1  0.58692800  0.92271800  0.46948100  1
  O  O18  1  0.28393000  0.37811900  0.54274100  1
  O  O19  1  0.28393000  0.12188100  0.95725900  1
  O  O20  1  0.71607000  0.62188100  0.45725900  1
  O  O21  1  0.71607000  0.87811900  0.04274100  1
  O  O22  1  0.57334700  0.67453200  0.83306700  1
  O  O23  1  0.57334700  0.82546800  0.66693300  1
  O  O24  1  0.42665300  0.32546800  0.16693400  1
  O  O25  1  0.42665300  0.17453200  0.33306600  1
  O  O26  1  0.92972100  0.59814800  0.66978500  1
  O  O27  1  0.92972100  0.90185200  0.83021500  1
  O  O28  1  0.07027900  0.40185200  0.33021500  1
  O  O29  1  0.07027900  0.09814800  0.16978500  1
