# generated using pymatgen
data_Na2Co2Si8H72C24N4O
_symmetry_space_group_name_H-M   'P 1'
_cell_length_a   9.32995000
_cell_length_b   11.12344937
_cell_length_c   13.35292504
_cell_angle_alpha   96.85688885
_cell_angle_beta   108.72410943
_cell_angle_gamma   99.36282283
_symmetry_Int_Tables_number   1
_chemical_formula_structural   Na2Co2Si8H72C24N4O
_chemical_formula_sum   'Na2 Co2 Si8 H72 C24 N4 O1'
_cell_volume   1272.93118368
_cell_formula_units_Z   1
loop_
 _symmetry_equiv_pos_site_id
 _symmetry_equiv_pos_as_xyz
  1  'x, y, z'
loop_
 _atom_site_type_symbol
 _atom_site_label
 _atom_site_symmetry_multiplicity
 _atom_site_fract_x
 _atom_site_fract_y
 _atom_site_fract_z
 _atom_site_occupancy
  Na  Na0  1  0.57860600  0.71088500  0.55511900  1
  Na  Na1  1  0.42139400  0.28911500  0.44488100  1
  Co  Co2  1  0.38831200  0.51848900  0.35568300  1
  Co  Co3  1  0.61168800  0.48151100  0.64431700  1
  Si  Si4  1  0.58704200  0.74573500  0.29543900  1
  Si  Si5  1  0.41295800  0.25426500  0.70456100  1
  Si  Si6  1  0.29264800  0.78243700  0.33843300  1
  Si  Si7  1  0.70735200  0.21756300  0.66156700  1
  Si  Si8  1  0.06369700  0.31680200  0.25130200  1
  Si  Si9  1  0.93630300  0.68319800  0.74869800  1
  Si  Si10  1  0.31665500  0.29330300  0.15883700  1
  Si  Si11  1  0.68334500  0.70669700  0.84116300  1
  H  H12  1  0.71662100  0.57242400  0.35043500  1
  H  H13  1  0.28337900  0.42757600  0.64956500  1
  H  H14  1  0.61579300  0.54296300  0.20826500  1
  H  H15  1  0.38420700  0.45703700  0.79173500  1
  H  H16  1  0.79476700  0.65130600  0.26545800  1
  H  H17  1  0.20523300  0.34869400  0.73454200  1
  H  H18  1  0.49134900  0.89147500  0.17074100  1
  H  H19  1  0.50865100  0.10852500  0.82925900  1
  H  H20  1  0.62907600  0.81948600  0.13617900  1
  H  H21  1  0.37092400  0.18051400  0.86382100  1
  H  H22  1  0.43529100  0.73554500  0.10062200  1
  H  H23  1  0.56470900  0.26445500  0.89937800  1
  H  H24  1  0.79914500  0.84389800  0.47154300  1
  H  H25  1  0.20085500  0.15610200  0.52845700  1
  H  H26  1  0.84005200  0.89646400  0.36205000  1
  H  H27  1  0.15994800  0.10353600  0.63795000  1
  H  H28  1  0.70706800  0.95885200  0.41102500  1
  H  H29  1  0.29293200  0.04114800  0.58897500  1
  H  H30  1  0.37447100  0.97544400  0.27114800  1
  H  H31  1  0.62552900  0.02455600  0.72885200  1
  H  H32  1  0.25424400  0.99829400  0.34811900  1
  H  H33  1  0.74575600  0.00170600  0.65188100  1
  H  H34  1  0.45395200  0.99912700  0.41449500  1
  H  H35  1  0.54604800  0.00087300  0.58550500  1
  H  H36  1  0.06058300  0.63131100  0.20807900  1
  H  H37  1  0.93941700  0.36868900  0.79192100  1
  H  H38  1  0.02698900  0.78450800  0.21784500  1
  H  H39  1  0.97301100  0.21549200  0.78215500  1
  H  H40  1  0.14127800  0.73873700  0.14204300  1
  H  H41  1  0.85872200  0.26126300  0.85795700  1
  H  H42  1  0.32025500  0.82853100  0.53345400  1
  H  H43  1  0.67974500  0.17146900  0.46654600  1
  H  H44  1  0.12440400  0.80001400  0.44935200  1
  H  H45  1  0.87559600  0.19998600  0.55064800  1
  H  H46  1  0.21633400  0.67348500  0.47405800  1
  H  H47  1  0.78366600  0.32651500  0.52594200  1
  H  H48  1  0.03692300  0.50828900  0.35666900  1
  H  H49  1  0.96307700  0.49171100  0.64333100  1
  H  H50  1  0.92180100  0.37315900  0.37141600  1
  H  H51  1  0.07819900  0.62684100  0.62858400  1
  H  H52  1  0.12431200  0.41083600  0.44424500  1
  H  H53  1  0.87568800  0.58916400  0.55575500  1
  H  H54  1  0.89704400  0.26817800  0.05597700  1
  H  H55  1  0.10295600  0.73182200  0.94402300  1
  H  H56  1  0.81686000  0.36023100  0.13257300  1
  H  H57  1  0.18314000  0.63976900  0.86742700  1
  H  H58  1  0.97607100  0.42992600  0.09840300  1
  H  H59  1  0.02392900  0.57007400  0.90159700  1
  H  H60  1  0.04815600  0.12462000  0.33463100  1
  H  H61  1  0.95184400  0.87538000  0.66536900  1
  H  H62  1  0.86473700  0.13876100  0.24940000  1
  H  H63  1  0.13526300  0.86123900  0.75060000  1
  H  H64  1  0.99458700  0.08393400  0.19214600  1
  H  H65  1  0.00541300  0.91606600  0.80785400  1
  H  H66  1  0.36448200  0.49928500  0.10510800  1
  H  H67  1  0.63551800  0.50071500  0.89489200  1
  H  H68  1  0.38692900  0.38062200  0.01261400  1
  H  H69  1  0.61307100  0.61937800  0.98738600  1
  H  H70  1  0.19872800  0.39805300  0.00771900  1
  H  H71  1  0.80127200  0.60194700  0.99228100  1
  H  H72  1  0.51411100  0.17727200  0.25017600  1
  H  H73  1  0.48588900  0.82272800  0.74982400  1
  H  H74  1  0.56423400  0.24652200  0.15009400  1
  H  H75  1  0.43576600  0.75347800  0.84990600  1
  H  H76  1  0.59863500  0.33917000  0.27662000  1
  H  H77  1  0.40136500  0.66083000  0.72338000  1
  H  H78  1  0.07459600  0.14463200  0.03019500  1
  H  H79  1  0.92540400  0.85536800  0.96980500  1
  H  H80  1  0.24484900  0.11419400  0.01033100  1
  H  H81  1  0.75515100  0.88580600  0.98966900  1
  H  H82  1  0.19569700  0.06492100  0.11875100  1
  H  H83  1  0.80430300  0.93507900  0.88124900  1
  C  C84  1  0.68634900  0.61498100  0.27804200  1
  C  C85  1  0.31365100  0.38501900  0.72195800  1
  C  C86  1  0.52917200  0.80353200  0.16362300  1
  C  C87  1  0.47082800  0.19646800  0.83637700  1
  C  C88  1  0.74633200  0.87350400  0.39461600  1
  C  C89  1  0.25366800  0.12649600  0.60538400  1
  C  C90  1  0.35110100  0.95556200  0.34373700  1
  C  C91  1  0.64889900  0.04443800  0.65626300  1
  C  C92  1  0.11346100  0.72881300  0.21514400  1
  C  C93  1  0.88653900  0.27118700  0.78485600  1
  C  C94  1  0.23381600  0.76927400  0.46007800  1
  C  C95  1  0.76618400  0.23072600  0.53992200  1
  C  C96  1  0.03520500  0.41180400  0.36682600  1
  C  C97  1  0.96479500  0.58819600  0.63317400  1
  C  C98  1  0.92604400  0.34655900  0.12233600  1
  C  C99  1  0.07395600  0.65344100  0.87766400  1
  C  C100  1  0.98775200  0.15008700  0.25722400  1
  C  C101  1  0.01224800  0.84991300  0.74277600  1
  C  C102  1  0.31744900  0.40346300  0.06220800  1
  C  C103  1  0.68255100  0.59653700  0.93779200  1
  C  C104  1  0.51736300  0.26207500  0.21526800  1
  C  C105  1  0.48263700  0.73792500  0.78473200  1
  C  C106  1  0.19524800  0.14013900  0.07230700  1
  C  C107  1  0.80475200  0.85986100  0.92769300  1
  N  N108  1  0.43605600  0.69879900  0.34216200  1
  N  N109  1  0.56394400  0.30120100  0.65783800  1
  N  N110  1  0.25917000  0.35305000  0.26387600  1
  N  N111  1  0.74083000  0.64695000  0.73612400  1
  O  O112  1  0.50000000  0.50000000  0.50000000  1
