# generated using pymatgen
data_Sr(CO2)2
_symmetry_space_group_name_H-M   'P 1'
_cell_length_a   5.96029600
_cell_length_b   8.53296900
_cell_length_c   9.52515900
_cell_angle_alpha   90.00000000
_cell_angle_beta   90.00000000
_cell_angle_gamma   90.00000000
_symmetry_Int_Tables_number   1
_chemical_formula_structural   Sr(CO2)2
_chemical_formula_sum   'Sr4 C8 O16'
_cell_volume   484.44026160
_cell_formula_units_Z   4
loop_
 _symmetry_equiv_pos_site_id
 _symmetry_equiv_pos_as_xyz
  1  'x, y, z'
loop_
 _atom_site_type_symbol
 _atom_site_label
 _atom_site_symmetry_multiplicity
 _atom_site_fract_x
 _atom_site_fract_y
 _atom_site_fract_z
 _atom_site_occupancy
  Sr  Sr0  1  0.39421000  0.08418400  0.56796300  1
  Sr  Sr1  1  0.89421000  0.41581600  0.43203700  1
  Sr  Sr2  1  0.60579000  0.58418400  0.93203700  1
  Sr  Sr3  1  0.10579000  0.91581600  0.06796300  1
  C  C4  1  0.10837600  0.71631400  0.71485000  1
  C  C5  1  0.60837600  0.78368600  0.28515000  1
  C  C6  1  0.89162400  0.21631400  0.78515000  1
  C  C7  1  0.39162400  0.28368600  0.21485000  1
  C  C8  1  0.54099400  0.89124200  0.78691700  1
  C  C9  1  0.04099400  0.60875800  0.21308300  1
  C  C10  1  0.45900600  0.39124200  0.71308300  1
  C  C11  1  0.95900600  0.10875800  0.28691700  1
  O  O12  1  0.13187300  0.79770500  0.61610200  1
  O  O13  1  0.63187300  0.70229500  0.38389800  1
  O  O14  1  0.86812700  0.29770500  0.88389800  1
  O  O15  1  0.36812700  0.20229500  0.11610200  1
  O  O16  1  0.09569200  0.62588500  0.80786000  1
  O  O17  1  0.59569200  0.87411500  0.19214000  1
  O  O18  1  0.90430800  0.12588500  0.69214000  1
  O  O19  1  0.40430800  0.37411500  0.30786000  1
  O  O20  1  0.72234800  0.80551800  0.79092500  1
  O  O21  1  0.22234800  0.69448200  0.20907500  1
  O  O22  1  0.27765200  0.30551800  0.70907500  1
  O  O23  1  0.77765200  0.19448200  0.29092500  1
  O  O24  1  0.40029600  0.86310100  0.89237200  1
  O  O25  1  0.90029600  0.63689900  0.10762800  1
  O  O26  1  0.59970400  0.36310100  0.60762800  1
  O  O27  1  0.09970400  0.13689900  0.39237200  1
