# generated using pymatgen
data_Te2MoWS2
_symmetry_space_group_name_H-M   'P 1'
_cell_length_a   3.35863145
_cell_length_b   3.35863145
_cell_length_c   38.28926200
_cell_angle_alpha   90.00000000
_cell_angle_beta   90.00000000
_cell_angle_gamma   119.99998919
_symmetry_Int_Tables_number   1
_chemical_formula_structural   Te2MoWS2
_chemical_formula_sum   'Te4 Mo2 W2 S4'
_cell_volume   374.05233979
_cell_formula_units_Z   2
loop_
 _symmetry_equiv_pos_site_id
 _symmetry_equiv_pos_as_xyz
  1  'x, y, z'
loop_
 _atom_site_type_symbol
 _atom_site_label
 _atom_site_symmetry_multiplicity
 _atom_site_fract_x
 _atom_site_fract_y
 _atom_site_fract_z
 _atom_site_occupancy
  Te  Te0  1  0.00000000  0.00000000  0.70718300  1
  Te  Te1  1  0.33333300  0.66666700  0.04454100  1
  Te  Te2  1  0.33333300  0.66666700  0.14331900  1
  Te  Te3  1  0.00000000  0.00000000  0.60789300  1
  Mo  Mo4  1  0.00000000  0.00000000  0.09390400  1
  Mo  Mo5  1  0.33333300  0.66666700  0.28179900  1
  W  W6  1  0.00000000  0.00000000  0.46965500  1
  W  W7  1  0.33333300  0.66666700  0.65756600  1
  S  S8  1  0.00000000  0.00000000  0.32129400  1
  S  S9  1  0.33333300  0.66666700  0.42998400  1
  S  S10  1  0.33333300  0.66666700  0.50931200  1
  S  S11  1  0.00000000  0.00000000  0.24229700  1
