# generated using pymatgen
data_Nd4PClO8
_symmetry_space_group_name_H-M   'P 1'
_cell_length_a   5.84235800
_cell_length_b   5.87024400
_cell_length_c   13.10444200
_cell_angle_alpha   90.00000000
_cell_angle_beta   90.00000000
_cell_angle_gamma   90.00000000
_symmetry_Int_Tables_number   1
_chemical_formula_structural   Nd4PClO8
_chemical_formula_sum   'Nd8 P2 Cl2 O16'
_cell_volume   449.43082077
_cell_formula_units_Z   2
loop_
 _symmetry_equiv_pos_site_id
 _symmetry_equiv_pos_as_xyz
  1  'x, y, z'
loop_
 _atom_site_type_symbol
 _atom_site_label
 _atom_site_symmetry_multiplicity
 _atom_site_fract_x
 _atom_site_fract_y
 _atom_site_fract_z
 _atom_site_occupancy
  Nd  Nd0  1  0.56105600  0.98316400  0.66239800  1
  Nd  Nd1  1  0.56105600  0.98316400  0.33760200  1
  Nd  Nd2  1  0.06105600  0.01683600  0.83760200  1
  Nd  Nd3  1  0.06105600  0.01683600  0.16239800  1
  Nd  Nd4  1  0.53165600  0.48731700  0.83202800  1
  Nd  Nd5  1  0.53165600  0.48731700  0.16797200  1
  Nd  Nd6  1  0.03165600  0.51268300  0.66797200  1
  Nd  Nd7  1  0.03165600  0.51268300  0.33202800  1
  P  P8  1  0.50431400  0.45741100  0.50000000  1
  P  P9  1  0.00431400  0.54258900  0.00000000  1
  Cl  Cl10  1  0.49381800  0.05264600  0.00000000  1
  Cl  Cl11  1  0.99381800  0.94735400  0.50000000  1
  O  O12  1  0.79349100  0.24269900  0.75009600  1
  O  O13  1  0.79349100  0.24269900  0.24990400  1
  O  O14  1  0.29349100  0.75730100  0.74990400  1
  O  O15  1  0.29349100  0.75730100  0.25009600  1
  O  O16  1  0.79912600  0.75713200  0.76839900  1
  O  O17  1  0.79912600  0.75713200  0.23160100  1
  O  O18  1  0.29912600  0.24286800  0.73160100  1
  O  O19  1  0.29912600  0.24286800  0.26839900  1
  O  O20  1  0.54417200  0.19437900  0.50000000  1
  O  O21  1  0.04417200  0.80562100  0.00000000  1
  O  O22  1  0.61522400  0.56682000  0.40449800  1
  O  O23  1  0.61522400  0.56682000  0.59550200  1
  O  O24  1  0.11522400  0.43318000  0.09550200  1
  O  O25  1  0.11522400  0.43318000  0.90449800  1
  O  O26  1  0.23987000  0.49777800  0.50000000  1
  O  O27  1  0.73987000  0.50222200  0.00000000  1
