# generated using pymatgen
data_Yb3O4
_symmetry_space_group_name_H-M   'P 1'
_cell_length_a   3.40785900
_cell_length_b   8.99614500
_cell_length_c   11.82841300
_cell_angle_alpha   90.00000000
_cell_angle_beta   90.00000000
_cell_angle_gamma   90.00000000
_symmetry_Int_Tables_number   1
_chemical_formula_structural   Yb3O4
_chemical_formula_sum   'Yb12 O16'
_cell_volume   362.63067991
_cell_formula_units_Z   4
loop_
 _symmetry_equiv_pos_site_id
 _symmetry_equiv_pos_as_xyz
  1  'x, y, z'
loop_
 _atom_site_type_symbol
 _atom_site_label
 _atom_site_symmetry_multiplicity
 _atom_site_fract_x
 _atom_site_fract_y
 _atom_site_fract_z
 _atom_site_occupancy
  Yb  Yb0  1  0.25000000  0.74459000  0.33959700  1
  Yb  Yb1  1  0.25000000  0.24459000  0.16040300  1
  Yb  Yb2  1  0.75000000  0.25541000  0.66040300  1
  Yb  Yb3  1  0.75000000  0.75541000  0.83959700  1
  Yb  Yb4  1  0.25000000  0.40354500  0.39548800  1
  Yb  Yb5  1  0.25000000  0.90354500  0.10451200  1
  Yb  Yb6  1  0.75000000  0.59645500  0.60451200  1
  Yb  Yb7  1  0.75000000  0.09645500  0.89548800  1
  Yb  Yb8  1  0.25000000  0.42893300  0.88875700  1
  Yb  Yb9  1  0.25000000  0.92893300  0.61124300  1
  Yb  Yb10  1  0.75000000  0.57106700  0.11124300  1
  Yb  Yb11  1  0.75000000  0.07106700  0.38875700  1
  O  O12  1  0.25000000  0.21151600  0.79800900  1
  O  O13  1  0.25000000  0.71151600  0.70199100  1
  O  O14  1  0.75000000  0.78848400  0.20199100  1
  O  O15  1  0.75000000  0.28848400  0.29800900  1
  O  O16  1  0.25000000  0.16071100  0.51457600  1
  O  O17  1  0.25000000  0.66071100  0.98542400  1
  O  O18  1  0.75000000  0.83928900  0.48542400  1
  O  O19  1  0.75000000  0.33928900  0.01457600  1
  O  O20  1  0.25000000  0.00531000  0.28028100  1
  O  O21  1  0.25000000  0.50531000  0.21971900  1
  O  O22  1  0.75000000  0.99469000  0.71971900  1
  O  O23  1  0.75000000  0.49469000  0.78028100  1
  O  O24  1  0.25000000  0.41217600  0.58894300  1
  O  O25  1  0.25000000  0.91217600  0.91105700  1
  O  O26  1  0.75000000  0.58782400  0.41105700  1
  O  O27  1  0.75000000  0.08782400  0.08894300  1
