# generated using pymatgen
data_Co22B6Sb
_symmetry_space_group_name_H-M   'P 1'
_cell_length_a   7.44801795
_cell_length_b   7.44801795
_cell_length_c   7.44801795
_cell_angle_alpha   60.00000000
_cell_angle_beta   60.00000000
_cell_angle_gamma   60.00000000
_symmetry_Int_Tables_number   1
_chemical_formula_structural   Co22B6Sb
_chemical_formula_sum   'Co22 B6 Sb1'
_cell_volume   292.15084473
_cell_formula_units_Z   1
loop_
 _symmetry_equiv_pos_site_id
 _symmetry_equiv_pos_as_xyz
  1  'x, y, z'
loop_
 _atom_site_type_symbol
 _atom_site_label
 _atom_site_symmetry_multiplicity
 _atom_site_fract_x
 _atom_site_fract_y
 _atom_site_fract_z
 _atom_site_occupancy
  Co  Co0  1  0.75000000  0.75000000  0.75000000  1
  Co  Co1  1  0.25000000  0.25000000  0.25000000  1
  Co  Co2  1  0.61926800  0.61926800  0.14219700  1
  Co  Co3  1  0.61926800  0.14219700  0.61926800  1
  Co  Co4  1  0.14219700  0.61926800  0.61926800  1
  Co  Co5  1  0.61926800  0.61926800  0.61926800  1
  Co  Co6  1  0.38073200  0.38073200  0.85780300  1
  Co  Co7  1  0.38073200  0.85780300  0.38073200  1
  Co  Co8  1  0.85780300  0.38073200  0.38073200  1
  Co  Co9  1  0.38073200  0.38073200  0.38073200  1
  Co  Co10  1  0.00000000  0.00000000  0.34501400  1
  Co  Co11  1  0.65498600  0.00000000  0.34501400  1
  Co  Co12  1  0.00000000  0.65498600  0.34501400  1
  Co  Co13  1  0.65498600  0.34501400  0.00000000  1
  Co  Co14  1  0.00000000  0.34501400  0.00000000  1
  Co  Co15  1  0.00000000  0.34501400  0.65498600  1
  Co  Co16  1  0.34501400  0.65498600  0.00000000  1
  Co  Co17  1  0.34501400  0.00000000  0.65498600  1
  Co  Co18  1  0.34501400  0.00000000  0.00000000  1
  Co  Co19  1  0.00000000  0.00000000  0.65498600  1
  Co  Co20  1  0.00000000  0.65498600  0.00000000  1
  Co  Co21  1  0.65498600  0.00000000  0.00000000  1
  B  B22  1  0.71973300  0.71973300  0.28026700  1
  B  B23  1  0.28026700  0.71973300  0.28026700  1
  B  B24  1  0.71973300  0.28026700  0.28026700  1
  B  B25  1  0.28026700  0.28026700  0.71973300  1
  B  B26  1  0.71973300  0.28026700  0.71973300  1
  B  B27  1  0.28026700  0.71973300  0.71973300  1
  Sb  Sb28  1  0.00000000  0.00000000  0.00000000  1
