# generated using pymatgen
data_MgTi2O4
_symmetry_space_group_name_H-M   'P 1'
_cell_length_a   6.06614100
_cell_length_b   6.06614100
_cell_length_c   8.48097400
_cell_angle_alpha   90.00000000
_cell_angle_beta   90.00000000
_cell_angle_gamma   90.00000000
_symmetry_Int_Tables_number   1
_chemical_formula_structural   MgTi2O4
_chemical_formula_sum   'Mg4 Ti8 O16'
_cell_volume   312.08344636
_cell_formula_units_Z   4
loop_
 _symmetry_equiv_pos_site_id
 _symmetry_equiv_pos_as_xyz
  1  'x, y, z'
loop_
 _atom_site_type_symbol
 _atom_site_label
 _atom_site_symmetry_multiplicity
 _atom_site_fract_x
 _atom_site_fract_y
 _atom_site_fract_z
 _atom_site_occupancy
  Mg  Mg0  1  0.24525100  0.75474900  0.75000000  1
  Mg  Mg1  1  0.75474900  0.24525100  0.25000000  1
  Mg  Mg2  1  0.25474900  0.25474900  0.50000000  1
  Mg  Mg3  1  0.74525100  0.74525100  0.00000000  1
  Ti  Ti4  1  0.49119900  0.25124900  0.88039800  1
  Ti  Ti5  1  0.50880100  0.74875100  0.38039800  1
  Ti  Ti6  1  0.75124900  0.00880100  0.63039800  1
  Ti  Ti7  1  0.24875100  0.99119900  0.13039800  1
  Ti  Ti8  1  0.74875100  0.50880100  0.61960200  1
  Ti  Ti9  1  0.25124900  0.49119900  0.11960200  1
  Ti  Ti10  1  0.00880100  0.75124900  0.36960200  1
  Ti  Ti11  1  0.99119900  0.24875100  0.86960200  1
  O  O12  1  0.98470200  0.25644900  0.62939200  1
  O  O13  1  0.01529800  0.74355100  0.12939200  1
  O  O14  1  0.75644900  0.51529800  0.37939200  1
  O  O15  1  0.24355100  0.48470200  0.87939200  1
  O  O16  1  0.74355100  0.01529800  0.87060800  1
  O  O17  1  0.25644900  0.98470200  0.37060800  1
  O  O18  1  0.51529800  0.75644900  0.62060800  1
  O  O19  1  0.48470200  0.24355100  0.12060800  1
  O  O20  1  0.74506800  0.47810300  0.86668000  1
  O  O21  1  0.25493200  0.52189700  0.36668000  1
  O  O22  1  0.97810300  0.75493200  0.61668000  1
  O  O23  1  0.02189700  0.24506800  0.11668000  1
  O  O24  1  0.52189700  0.25493200  0.63332000  1
  O  O25  1  0.47810300  0.74506800  0.13332000  1
  O  O26  1  0.75493200  0.97810300  0.38332000  1
  O  O27  1  0.24506800  0.02189700  0.88332000  1
