# generated using pymatgen
data_NiH6C2(NO2)2
_symmetry_space_group_name_H-M   'P 1'
_cell_length_a   6.74516301
_cell_length_b   10.38499798
_cell_length_c   8.96696827
_cell_angle_alpha   88.93249393
_cell_angle_beta   90.00406560
_cell_angle_gamma   90.00525469
_symmetry_Int_Tables_number   1
_chemical_formula_structural   NiH6C2(NO2)2
_chemical_formula_sum   'Ni4 H24 C8 N8 O16'
_cell_volume   628.01369291
_cell_formula_units_Z   4
loop_
 _symmetry_equiv_pos_site_id
 _symmetry_equiv_pos_as_xyz
  1  'x, y, z'
loop_
 _atom_site_type_symbol
 _atom_site_label
 _atom_site_symmetry_multiplicity
 _atom_site_fract_x
 _atom_site_fract_y
 _atom_site_fract_z
 _atom_site_occupancy
  Ni  Ni0  1  0.23851300  0.99980300  0.75003100  1
  Ni  Ni1  1  0.26195800  0.50003300  0.75004800  1
  Ni  Ni2  1  0.73813800  0.50017300  0.25029700  1
  Ni  Ni3  1  0.76168100  0.99998700  0.24970000  1
  H  H4  1  0.36465400  0.79353400  0.89052600  1
  H  H5  1  0.86465900  0.29360000  0.39051900  1
  H  H6  1  0.86451900  0.70636000  0.10953300  1
  H  H7  1  0.36453200  0.20625000  0.60950100  1
  H  H8  1  0.63525300  0.20649100  0.10947600  1
  H  H9  1  0.13537500  0.70635600  0.60946800  1
  H  H10  1  0.13543200  0.29361300  0.89053900  1
  H  H11  1  0.63538300  0.79373400  0.39043700  1
  H  H12  1  0.00161000  0.30969200  0.24343200  1
  H  H13  1  0.50185400  0.80939900  0.74352800  1
  H  H14  1  0.00167800  0.69047000  0.25655900  1
  H  H15  1  0.50175200  0.19035600  0.75648100  1
  H  H16  1  0.99828800  0.69041200  0.75651000  1
  H  H17  1  0.49819600  0.19047700  0.25651700  1
  H  H18  1  0.99831100  0.30957100  0.74352700  1
  H  H19  1  0.49827700  0.80965700  0.24339200  1
  H  H20  1  0.05605600  0.39051500  0.39403900  1
  H  H21  1  0.55610600  0.89041600  0.89404200  1
  H  H22  1  0.05592000  0.60947100  0.10603900  1
  H  H23  1  0.55616200  0.10955000  0.60585600  1
  H  H24  1  0.94399500  0.60942900  0.60599800  1
  H  H25  1  0.44385500  0.10957300  0.10594500  1
  H  H26  1  0.94397400  0.39044200  0.89410600  1
  H  H27  1  0.44392100  0.89056600  0.39394600  1
  C  C28  1  0.94151900  0.94130700  0.97020500  1
  C  C29  1  0.44145500  0.44130100  0.47035800  1
  C  C30  1  0.44148100  0.55869600  0.02978700  1
  C  C31  1  0.94156400  0.05869600  0.52968400  1
  C  C32  1  0.05853500  0.05870200  0.02961600  1
  C  C33  1  0.55843900  0.55870200  0.52980000  1
  C  C34  1  0.55846800  0.44130700  0.97034200  1
  C  C35  1  0.05847600  0.94130500  0.47019300  1
  N  N36  1  0.94045000  0.36139100  0.32825000  1
  N  N37  1  0.44060900  0.86120200  0.82821700  1
  N  N38  1  0.94041600  0.63867700  0.17185900  1
  N  N39  1  0.44058900  0.13857200  0.67173500  1
  N  N40  1  0.05953500  0.63863300  0.67180000  1
  N  N41  1  0.55941000  0.13873700  0.17175500  1
  N  N42  1  0.05954700  0.36134700  0.82826700  1
  N  N43  1  0.55947900  0.86142900  0.32812900  1
  O  O44  1  0.50199700  0.39095000  0.35159400  1
  O  O45  1  0.00207900  0.89086400  0.85153100  1
  O  O46  1  0.50194400  0.60905500  0.14856300  1
  O  O47  1  0.00216900  0.10898400  0.64848600  1
  O  O48  1  0.49799300  0.60906100  0.64854100  1
  O  O49  1  0.99792000  0.10914800  0.14829900  1
  O  O50  1  0.49795600  0.39094600  0.85157300  1
  O  O51  1  0.99795400  0.89101300  0.35139300  1
  O  O52  1  0.79176300  0.90428300  0.04634900  1
  O  O53  1  0.29183500  0.40421400  0.54655600  1
  O  O54  1  0.29185300  0.59580000  0.95357000  1
  O  O55  1  0.79196200  0.09583600  0.45348200  1
  O  O56  1  0.20826900  0.09569300  0.95347100  1
  O  O57  1  0.70810000  0.59583800  0.45361900  1
  O  O58  1  0.70807500  0.40424600  0.04659600  1
  O  O59  1  0.20810600  0.90413400  0.54638800  1
