# generated using pymatgen
data_Zn3CuP2O9
_symmetry_space_group_name_H-M   'P 1'
_cell_length_a   6.40890130
_cell_length_b   6.40890130
_cell_length_c   9.91013574
_cell_angle_alpha   67.42346874
_cell_angle_beta   67.42346874
_cell_angle_gamma   78.63735521
_symmetry_Int_Tables_number   1
_chemical_formula_structural   Zn3CuP2O9
_chemical_formula_sum   'Zn6 Cu2 P4 O18'
_cell_volume   346.46477538
_cell_formula_units_Z   2
loop_
 _symmetry_equiv_pos_site_id
 _symmetry_equiv_pos_as_xyz
  1  'x, y, z'
loop_
 _atom_site_type_symbol
 _atom_site_label
 _atom_site_symmetry_multiplicity
 _atom_site_fract_x
 _atom_site_fract_y
 _atom_site_fract_z
 _atom_site_occupancy
  Zn  Zn0  1  0.70532600  0.31321500  0.16762900  1
  Zn  Zn1  1  0.31321500  0.70532600  0.16762900  1
  Zn  Zn2  1  0.29467400  0.68678500  0.83237100  1
  Zn  Zn3  1  0.68678500  0.29467400  0.83237100  1
  Zn  Zn4  1  0.84421700  0.84421700  0.11231400  1
  Zn  Zn5  1  0.15578300  0.15578300  0.88768600  1
  Cu  Cu6  1  0.80933900  0.19066100  0.50000000  1
  Cu  Cu7  1  0.19066100  0.80933900  0.50000000  1
  P  P8  1  0.29721800  0.29721800  0.50066500  1
  P  P9  1  0.70278200  0.70278200  0.49933500  1
  P  P10  1  0.23882000  0.23882000  0.14289300  1
  P  P11  1  0.76118000  0.76118000  0.85710700  1
  O  O12  1  0.82230200  0.17769800  0.00000000  1
  O  O13  1  0.17769800  0.82230200  0.00000000  1
  O  O14  1  0.26303900  0.26303900  0.66793000  1
  O  O15  1  0.73696100  0.73696100  0.33207000  1
  O  O16  1  0.24061700  0.55349200  0.41583000  1
  O  O17  1  0.55349200  0.24061700  0.41583000  1
  O  O18  1  0.75938300  0.44650800  0.58417000  1
  O  O19  1  0.44650800  0.75938300  0.58417000  1
  O  O20  1  0.14335000  0.14335000  0.49113900  1
  O  O21  1  0.85665000  0.85665000  0.50886100  1
  O  O22  1  0.37930800  0.37930800  0.17048400  1
  O  O23  1  0.62069200  0.62069200  0.82951600  1
  O  O24  1  0.98669500  0.30281000  0.21066700  1
  O  O25  1  0.30281000  0.98669500  0.21066700  1
  O  O26  1  0.01330500  0.69719000  0.78933300  1
  O  O27  1  0.69719000  0.01330500  0.78933300  1
  O  O28  1  0.31190800  0.31190800  0.95794800  1
  O  O29  1  0.68809200  0.68809200  0.04205200  1
