# generated using pymatgen
data_CdH3Cl3O
_symmetry_space_group_name_H-M   'P 1'
_cell_length_a   4.07502600
_cell_length_b   8.49162200
_cell_length_c   15.74793800
_cell_angle_alpha   90.00000000
_cell_angle_beta   90.00000000
_cell_angle_gamma   90.00000000
_symmetry_Int_Tables_number   1
_chemical_formula_structural   CdH3Cl3O
_chemical_formula_sum   'Cd4 H12 Cl12 O4'
_cell_volume   544.93503922
_cell_formula_units_Z   4
loop_
 _symmetry_equiv_pos_site_id
 _symmetry_equiv_pos_as_xyz
  1  'x, y, z'
loop_
 _atom_site_type_symbol
 _atom_site_label
 _atom_site_symmetry_multiplicity
 _atom_site_fract_x
 _atom_site_fract_y
 _atom_site_fract_z
 _atom_site_occupancy
  Cd  Cd0  1  0.25000000  0.82565700  0.55277600  1
  Cd  Cd1  1  0.25000000  0.32565700  0.94722400  1
  Cd  Cd2  1  0.75000000  0.17434300  0.44722400  1
  Cd  Cd3  1  0.75000000  0.67434300  0.05277600  1
  H  H4  1  0.95313700  0.50970200  0.68815100  1
  H  H5  1  0.54686300  0.00970200  0.81184900  1
  H  H6  1  0.45313700  0.49029800  0.31184900  1
  H  H7  1  0.04686300  0.99029800  0.18815100  1
  H  H8  1  0.04686300  0.49029800  0.31184900  1
  H  H9  1  0.45313700  0.99029800  0.18815100  1
  H  H10  1  0.54686300  0.50970200  0.68815100  1
  H  H11  1  0.95313700  0.00970200  0.81184900  1
  H  H12  1  0.75000000  0.33338700  0.68160400  1
  H  H13  1  0.75000000  0.83338700  0.81839600  1
  H  H14  1  0.25000000  0.66661300  0.31839600  1
  H  H15  1  0.25000000  0.16661300  0.18160400  1
  Cl  Cl16  1  0.25000000  0.67731800  0.71069600  1
  Cl  Cl17  1  0.25000000  0.17731800  0.78930400  1
  Cl  Cl18  1  0.75000000  0.32268200  0.28930400  1
  Cl  Cl19  1  0.75000000  0.82268200  0.21069600  1
  Cl  Cl20  1  0.75000000  0.67043300  0.49589300  1
  Cl  Cl21  1  0.75000000  0.17043300  0.00410700  1
  Cl  Cl22  1  0.25000000  0.32956700  0.50410700  1
  Cl  Cl23  1  0.25000000  0.82956700  0.99589300  1
  Cl  Cl24  1  0.75000000  0.02186400  0.60407300  1
  Cl  Cl25  1  0.75000000  0.52186400  0.89592700  1
  Cl  Cl26  1  0.25000000  0.97813600  0.39592700  1
  Cl  Cl27  1  0.25000000  0.47813600  0.10407300  1
  O  O28  1  0.75000000  0.44660400  0.66755900  1
  O  O29  1  0.75000000  0.94660400  0.83244100  1
  O  O30  1  0.25000000  0.55339600  0.33244100  1
  O  O31  1  0.25000000  0.05339600  0.16755900  1
