# generated using pymatgen
data_Zr4Os2N
_symmetry_space_group_name_H-M   'P 1'
_cell_length_a   8.80673777
_cell_length_b   8.80673777
_cell_length_c   8.80673777
_cell_angle_alpha   60.00000000
_cell_angle_beta   60.00000000
_cell_angle_gamma   60.00000000
_symmetry_Int_Tables_number   1
_chemical_formula_structural   Zr4Os2N
_chemical_formula_sum   'Zr16 Os8 N4'
_cell_volume   482.98116818
_cell_formula_units_Z   4
loop_
 _symmetry_equiv_pos_site_id
 _symmetry_equiv_pos_as_xyz
  1  'x, y, z'
loop_
 _atom_site_type_symbol
 _atom_site_label
 _atom_site_symmetry_multiplicity
 _atom_site_fract_x
 _atom_site_fract_y
 _atom_site_fract_z
 _atom_site_occupancy
  Zr  Zr0  1  0.12500000  0.62500000  0.62500000  1
  Zr  Zr1  1  0.62500000  0.12500000  0.62500000  1
  Zr  Zr2  1  0.62500000  0.62500000  0.12500000  1
  Zr  Zr3  1  0.62500000  0.62500000  0.62500000  1
  Zr  Zr4  1  0.81491900  0.81491900  0.18508100  1
  Zr  Zr5  1  0.18508100  0.18508100  0.81491900  1
  Zr  Zr6  1  0.81491900  0.18508100  0.81491900  1
  Zr  Zr7  1  0.18508100  0.81491900  0.18508100  1
  Zr  Zr8  1  0.18508100  0.81491900  0.81491900  1
  Zr  Zr9  1  0.81491900  0.18508100  0.18508100  1
  Zr  Zr10  1  0.43508100  0.43508100  0.06491900  1
  Zr  Zr11  1  0.06491900  0.06491900  0.43508100  1
  Zr  Zr12  1  0.43508100  0.06491900  0.43508100  1
  Zr  Zr13  1  0.06491900  0.43508100  0.06491900  1
  Zr  Zr14  1  0.06491900  0.43508100  0.43508100  1
  Zr  Zr15  1  0.43508100  0.06491900  0.06491900  1
  Os  Os16  1  0.75935800  0.41354700  0.41354700  1
  Os  Os17  1  0.41354700  0.75935800  0.41354700  1
  Os  Os18  1  0.41354700  0.41354700  0.75935800  1
  Os  Os19  1  0.41354700  0.41354700  0.41354700  1
  Os  Os20  1  0.49064200  0.83645300  0.83645300  1
  Os  Os21  1  0.83645300  0.49064200  0.83645300  1
  Os  Os22  1  0.83645300  0.83645300  0.49064200  1
  Os  Os23  1  0.83645300  0.83645300  0.83645300  1
  N  N24  1  0.62500000  0.12500000  0.12500000  1
  N  N25  1  0.12500000  0.62500000  0.12500000  1
  N  N26  1  0.12500000  0.12500000  0.62500000  1
  N  N27  1  0.12500000  0.12500000  0.12500000  1
