# generated using pymatgen
data_KFeCo(PO4)2
_symmetry_space_group_name_H-M   'P 1'
_cell_length_a   14.63169300
_cell_length_b   5.22111600
_cell_length_c   9.39141067
_cell_angle_alpha   75.28498849
_cell_angle_beta   90.00000000
_cell_angle_gamma   90.00000000
_symmetry_Int_Tables_number   1
_chemical_formula_structural   KFeCo(PO4)2
_chemical_formula_sum   'K4 Fe4 Co4 P8 O32'
_cell_volume   693.91391568
_cell_formula_units_Z   4
loop_
 _symmetry_equiv_pos_site_id
 _symmetry_equiv_pos_as_xyz
  1  'x, y, z'
loop_
 _atom_site_type_symbol
 _atom_site_label
 _atom_site_symmetry_multiplicity
 _atom_site_fract_x
 _atom_site_fract_y
 _atom_site_fract_z
 _atom_site_occupancy
  K  K0  1  0.32514000  0.17903400  0.18420500  1
  K  K1  1  0.82514000  0.82096600  0.31579500  1
  K  K2  1  0.67486000  0.82096600  0.81579500  1
  K  K3  1  0.17486000  0.17903400  0.68420500  1
  Fe  Fe4  1  0.12822500  0.77441000  0.38165000  1
  Fe  Fe5  1  0.62822500  0.22559000  0.11835000  1
  Fe  Fe6  1  0.87177500  0.22559000  0.61835000  1
  Fe  Fe7  1  0.37177500  0.77441000  0.88165000  1
  Co  Co8  1  0.04767200  0.24363600  0.03667800  1
  Co  Co9  1  0.54767200  0.75636400  0.46332200  1
  Co  Co10  1  0.95232800  0.75636400  0.96332200  1
  Co  Co11  1  0.45232800  0.24363600  0.53667800  1
  P  P12  1  0.17273500  0.74415900  0.03785500  1
  P  P13  1  0.67273500  0.25584100  0.46214500  1
  P  P14  1  0.82726500  0.25584100  0.96214500  1
  P  P15  1  0.32726500  0.74415900  0.53785500  1
  P  P16  1  0.00698800  0.30966000  0.32340500  1
  P  P17  1  0.50698800  0.69034000  0.17659500  1
  P  P18  1  0.99301200  0.69034000  0.67659500  1
  P  P19  1  0.49301200  0.30966000  0.82340500  1
  O  O20  1  0.24448600  0.88275000  0.44482500  1
  O  O21  1  0.74448600  0.11725000  0.05517500  1
  O  O22  1  0.75551400  0.11725000  0.55517500  1
  O  O23  1  0.25551400  0.88275000  0.94482500  1
  O  O24  1  0.18899900  0.76919600  0.19631700  1
  O  O25  1  0.68899900  0.23080400  0.30368300  1
  O  O26  1  0.81100100  0.23080400  0.80368300  1
  O  O27  1  0.31100100  0.76919600  0.69631700  1
  O  O28  1  0.08637200  0.91084600  0.96935100  1
  O  O29  1  0.58637200  0.08915400  0.53064900  1
  O  O30  1  0.91362800  0.08915400  0.03064900  1
  O  O31  1  0.41362800  0.91084600  0.46935100  1
  O  O32  1  0.16617000  0.45306800  0.03236400  1
  O  O33  1  0.66617000  0.54693200  0.46763600  1
  O  O34  1  0.83383000  0.54693200  0.96763600  1
  O  O35  1  0.33383000  0.45306800  0.53236400  1
  O  O36  1  0.98492800  0.50874800  0.17588900  1
  O  O37  1  0.48492800  0.49125200  0.32411100  1
  O  O38  1  0.01507200  0.49125200  0.82411100  1
  O  O39  1  0.51507200  0.50874800  0.67588900  1
  O  O40  1  0.04888800  0.06382400  0.27625200  1
  O  O41  1  0.54888800  0.93617600  0.22374800  1
  O  O42  1  0.95111200  0.93617600  0.72374800  1
  O  O43  1  0.45111200  0.06382400  0.77625200  1
  O  O44  1  0.08003000  0.41567900  0.41395300  1
  O  O45  1  0.58003000  0.58432100  0.08604700  1
  O  O46  1  0.91997000  0.58432100  0.58604700  1
  O  O47  1  0.41997000  0.41567900  0.91395300  1
  O  O48  1  0.92043400  0.22140400  0.41622500  1
  O  O49  1  0.42043400  0.77859600  0.08377500  1
  O  O50  1  0.07956600  0.77859600  0.58377500  1
  O  O51  1  0.57956600  0.22140400  0.91622500  1
