# generated using pymatgen
data_Te4Mo3WS4
_symmetry_space_group_name_H-M   'P 1'
_cell_length_a   3.36116228
_cell_length_b   3.36116228
_cell_length_c   41.19133100
_cell_angle_alpha   90.00000000
_cell_angle_beta   90.00000000
_cell_angle_gamma   120.00000548
_symmetry_Int_Tables_number   1
_chemical_formula_structural   Te4Mo3WS4
_chemical_formula_sum   'Te4 Mo3 W1 S4'
_cell_volume   403.00960320
_cell_formula_units_Z   1
loop_
 _symmetry_equiv_pos_site_id
 _symmetry_equiv_pos_as_xyz
  1  'x, y, z'
loop_
 _atom_site_type_symbol
 _atom_site_label
 _atom_site_symmetry_multiplicity
 _atom_site_fract_x
 _atom_site_fract_y
 _atom_site_fract_z
 _atom_site_occupancy
  Te  Te0  1  0.33333300  0.66666700  0.33067500  1
  Te  Te1  1  0.66666700  0.33333300  0.04486700  1
  Te  Te2  1  0.66666700  0.33333300  0.13663400  1
  Te  Te3  1  0.33333300  0.66666700  0.23886300  1
  Mo  Mo4  1  0.33333300  0.66666700  0.09073900  1
  Mo  Mo5  1  0.33333300  0.66666700  0.46992100  1
  Mo  Mo6  1  0.66666700  0.33333300  0.28476200  1
  W  W7  1  0.66666700  0.33333300  0.65747300  1
  S  S8  1  0.33333300  0.66666700  0.69434200  1
  S  S9  1  0.66666700  0.33333300  0.43317400  1
  S  S10  1  0.66666700  0.33333300  0.50669400  1
  S  S11  1  0.33333300  0.66666700  0.62060400  1
