# generated using pymatgen
data_Ta4PbO11
_symmetry_space_group_name_H-M   'P 1'
_cell_length_a   12.97231267
_cell_length_b   12.97231267
_cell_length_c   12.97231219
_cell_angle_alpha   28.11302787
_cell_angle_beta   28.11302787
_cell_angle_gamma   28.11302638
_symmetry_Int_Tables_number   1
_chemical_formula_structural   Ta4PbO11
_chemical_formula_sum   'Ta8 Pb2 O22'
_cell_volume   428.18716575
_cell_formula_units_Z   2
loop_
 _symmetry_equiv_pos_site_id
 _symmetry_equiv_pos_as_xyz
  1  'x, y, z'
loop_
 _atom_site_type_symbol
 _atom_site_label
 _atom_site_symmetry_multiplicity
 _atom_site_fract_x
 _atom_site_fract_y
 _atom_site_fract_z
 _atom_site_occupancy
  Ta  Ta0  1  0.00000000  0.63154700  0.36845300  1
  Ta  Ta1  1  0.36845300  0.00000000  0.63154700  1
  Ta  Ta2  1  0.63154700  0.36845300  0.00000000  1
  Ta  Ta3  1  0.85668200  0.14331800  0.50000000  1
  Ta  Ta4  1  0.50000000  0.85668200  0.14331800  1
  Ta  Ta5  1  0.14331800  0.50000000  0.85668200  1
  Ta  Ta6  1  0.74966500  0.74966500  0.74966500  1
  Ta  Ta7  1  0.25033500  0.25033500  0.25033500  1
  Pb  Pb8  1  0.08152900  0.08152900  0.08152900  1
  Pb  Pb9  1  0.91847100  0.91847100  0.91847100  1
  O  O10  1  0.52489400  0.30436700  0.01330100  1
  O  O11  1  0.01330100  0.52489400  0.30436700  1
  O  O12  1  0.30436700  0.01330100  0.52489400  1
  O  O13  1  0.50328300  0.82757800  0.01336300  1
  O  O14  1  0.01336300  0.50328300  0.82757800  1
  O  O15  1  0.82757800  0.01336300  0.50328300  1
  O  O16  1  0.98669900  0.69563300  0.47510600  1
  O  O17  1  0.47510600  0.98669900  0.69563300  1
  O  O18  1  0.69563300  0.47510600  0.98669900  1
  O  O19  1  0.98663700  0.17242200  0.49671700  1
  O  O20  1  0.49671700  0.98663700  0.17242200  1
  O  O21  1  0.17242200  0.49671700  0.98663700  1
  O  O22  1  0.00000000  0.24937900  0.75062100  1
  O  O23  1  0.75062100  0.00000000  0.24937900  1
  O  O24  1  0.24937900  0.75062100  0.00000000  1
  O  O25  1  0.25677400  0.74322600  0.50000000  1
  O  O26  1  0.50000000  0.25677400  0.74322600  1
  O  O27  1  0.74322600  0.50000000  0.25677400  1
  O  O28  1  0.15560700  0.15560700  0.15560700  1
  O  O29  1  0.65592600  0.65592600  0.65592600  1
  O  O30  1  0.84439300  0.84439300  0.84439300  1
  O  O31  1  0.34407400  0.34407400  0.34407400  1
