# generated using pymatgen
data_FeH4C3O8
_symmetry_space_group_name_H-M   'P 1'
_cell_length_a   5.66020661
_cell_length_b   13.81128724
_cell_length_c   9.08416736
_cell_angle_alpha   91.90541878
_cell_angle_beta   98.11534109
_cell_angle_gamma   95.68963940
_symmetry_Int_Tables_number   1
_chemical_formula_structural   FeH4C3O8
_chemical_formula_sum   'Fe4 H16 C12 O32'
_cell_volume   698.77235087
_cell_formula_units_Z   4
loop_
 _symmetry_equiv_pos_site_id
 _symmetry_equiv_pos_as_xyz
  1  'x, y, z'
loop_
 _atom_site_type_symbol
 _atom_site_label
 _atom_site_symmetry_multiplicity
 _atom_site_fract_x
 _atom_site_fract_y
 _atom_site_fract_z
 _atom_site_occupancy
  Fe  Fe0  1  0.51754000  0.85671400  0.76000800  1
  Fe  Fe1  1  0.48241800  0.14331100  0.23995200  1
  Fe  Fe2  1  0.51760000  0.35691100  0.75971100  1
  Fe  Fe3  1  0.48232000  0.64309200  0.24025800  1
  H  H4  1  0.22292700  0.44337600  0.56455100  1
  H  H5  1  0.22292700  0.94331600  0.56467100  1
  H  H6  1  0.77706400  0.05668200  0.43533300  1
  H  H7  1  0.77705000  0.55662300  0.43545000  1
  H  H8  1  0.23314900  0.99714700  0.73511500  1
  H  H9  1  0.23317200  0.49720200  0.73504700  1
  H  H10  1  0.76681500  0.50279400  0.26495800  1
  H  H11  1  0.76683800  0.00284700  0.26488900  1
  H  H12  1  0.83214700  0.06221700  0.69386200  1
  H  H13  1  0.83217800  0.56221400  0.69397000  1
  H  H14  1  0.16782600  0.43778600  0.30604400  1
  H  H15  1  0.16786100  0.93778200  0.30614700  1
  H  H16  1  0.99647000  0.14551800  0.63315600  1
  H  H17  1  0.99635900  0.64554200  0.63317900  1
  H  H18  1  0.00364400  0.35445600  0.36682900  1
  H  H19  1  0.00354200  0.85447600  0.36684500  1
  C  C20  1  0.87682000  0.46814600  0.99048400  1
  C  C21  1  0.87687600  0.96812700  0.99054900  1
  C  C22  1  0.12312800  0.03187200  0.00947100  1
  C  C23  1  0.12317200  0.53184700  0.00952400  1
  C  C24  1  0.61616400  0.28016800  0.48639500  1
  C  C25  1  0.61584600  0.78004500  0.48656800  1
  C  C26  1  0.38416700  0.21995300  0.51342800  1
  C  C27  1  0.38385300  0.71983300  0.51360900  1
  C  C28  1  0.60996100  0.22530100  0.98300700  1
  C  C29  1  0.60984900  0.72516700  0.98314000  1
  C  C30  1  0.39016300  0.27483300  0.01684700  1
  C  C31  1  0.39005600  0.77470600  0.01698200  1
  O  O32  1  0.79843800  0.43305400  0.10042400  1
  O  O33  1  0.79863000  0.93304400  0.10054400  1
  O  O34  1  0.20137700  0.06695000  0.89947000  1
  O  O35  1  0.20156400  0.56693700  0.89958400  1
  O  O36  1  0.77255100  0.45753000  0.85348000  1
  O  O37  1  0.77250800  0.95748500  0.85357000  1
  O  O38  1  0.22749700  0.04252000  0.14644600  1
  O  O39  1  0.22743200  0.54246500  0.14652700  1
  O  O40  1  0.70434700  0.34690500  0.58312100  1
  O  O41  1  0.70408300  0.84676300  0.58327800  1
  O  O42  1  0.29594100  0.15324200  0.41671000  1
  O  O43  1  0.29566900  0.65309600  0.41689000  1
  O  O44  1  0.70165400  0.25825300  0.36951200  1
  O  O45  1  0.70133800  0.75813600  0.36966500  1
  O  O46  1  0.29867700  0.24186000  0.63033700  1
  O  O47  1  0.29836600  0.74175200  0.63049400  1
  O  O48  1  0.69639200  0.24950100  0.86721000  1
  O  O49  1  0.69632100  0.74939300  0.86735800  1
  O  O50  1  0.30369800  0.25060900  0.13263400  1
  O  O51  1  0.30361800  0.75050200  0.13278000  1
  O  O52  1  0.31287000  0.33592600  0.92528600  1
  O  O53  1  0.31285800  0.83584000  0.92544900  1
  O  O54  1  0.68716500  0.16416600  0.07454100  1
  O  O55  1  0.68712400  0.66406800  0.07470300  1
  O  O56  1  0.31418400  0.45713400  0.66863100  1
  O  O57  1  0.31419900  0.95704200  0.66875400  1
  O  O58  1  0.68579100  0.04296400  0.33124200  1
  O  O59  1  0.68579300  0.54286600  0.33136700  1
  O  O60  1  0.85111300  0.10006400  0.60607100  1
  O  O61  1  0.85103800  0.60004900  0.60614600  1
  O  O62  1  0.14896600  0.39994900  0.39386500  1
  O  O63  1  0.14889700  0.89993000  0.39393300  1
