# generated using pymatgen
data_KCoAs3F18
_symmetry_space_group_name_H-M   'P 1'
_cell_length_a   9.68235600
_cell_length_b   10.63973600
_cell_length_c   14.23018300
_cell_angle_alpha   90.00000000
_cell_angle_beta   90.00000000
_cell_angle_gamma   90.00000000
_symmetry_Int_Tables_number   1
_chemical_formula_structural   KCoAs3F18
_chemical_formula_sum   'K4 Co4 As12 F72'
_cell_volume   1465.96088970
_cell_formula_units_Z   4
loop_
 _symmetry_equiv_pos_site_id
 _symmetry_equiv_pos_as_xyz
  1  'x, y, z'
loop_
 _atom_site_type_symbol
 _atom_site_label
 _atom_site_symmetry_multiplicity
 _atom_site_fract_x
 _atom_site_fract_y
 _atom_site_fract_z
 _atom_site_occupancy
  K  K0  1  0.52013300  0.92274900  0.75000000  1
  K  K1  1  0.97986700  0.42274900  0.75000000  1
  K  K2  1  0.47986700  0.07725100  0.25000000  1
  K  K3  1  0.02013300  0.57725100  0.25000000  1
  Co  Co4  1  0.00000000  0.00000000  0.50000000  1
  Co  Co5  1  0.50000000  0.50000000  0.00000000  1
  Co  Co6  1  0.00000000  0.00000000  0.00000000  1
  Co  Co7  1  0.50000000  0.50000000  0.50000000  1
  As  As8  1  0.11145000  0.02316100  0.75000000  1
  As  As9  1  0.38855000  0.52316100  0.75000000  1
  As  As10  1  0.88855000  0.97683900  0.25000000  1
  As  As11  1  0.61145000  0.47683900  0.25000000  1
  As  As12  1  0.69451800  0.20378000  0.55161600  1
  As  As13  1  0.80548200  0.70378000  0.94838400  1
  As  As14  1  0.30548200  0.79622000  0.05161600  1
  As  As15  1  0.19451800  0.29622000  0.44838400  1
  As  As16  1  0.30548200  0.79622000  0.44838400  1
  As  As17  1  0.19451800  0.29622000  0.05161600  1
  As  As18  1  0.69451800  0.20378000  0.94838400  1
  As  As19  1  0.80548200  0.70378000  0.55161600  1
  F  F20  1  0.11133300  0.02493000  0.62146400  1
  F  F21  1  0.38866700  0.52493000  0.87853600  1
  F  F22  1  0.88866700  0.97507000  0.12146400  1
  F  F23  1  0.61133300  0.47507000  0.37853600  1
  F  F24  1  0.88866700  0.97507000  0.37853600  1
  F  F25  1  0.61133300  0.47507000  0.12146400  1
  F  F26  1  0.11133300  0.02493000  0.87853600  1
  F  F27  1  0.38866700  0.52493000  0.62146400  1
  F  F28  1  0.17229900  0.86900000  0.75000000  1
  F  F29  1  0.32770100  0.36900000  0.75000000  1
  F  F30  1  0.82770100  0.13100000  0.25000000  1
  F  F31  1  0.67229900  0.63100000  0.25000000  1
  F  F32  1  0.28361500  0.07625400  0.75000000  1
  F  F33  1  0.21638500  0.57625400  0.75000000  1
  F  F34  1  0.71638500  0.92374600  0.25000000  1
  F  F35  1  0.78361500  0.42374600  0.25000000  1
  F  F36  1  0.05642100  0.18111500  0.75000000  1
  F  F37  1  0.44357900  0.68111500  0.75000000  1
  F  F38  1  0.94357900  0.81888500  0.25000000  1
  F  F39  1  0.55642100  0.31888500  0.25000000  1
  F  F40  1  0.94017900  0.97282300  0.75000000  1
  F  F41  1  0.55982100  0.47282200  0.75000000  1
  F  F42  1  0.05982100  0.02717700  0.25000000  1
  F  F43  1  0.44017900  0.52717700  0.25000000  1
  F  F44  1  0.82524600  0.07899100  0.55772600  1
  F  F45  1  0.67475400  0.57899100  0.94227400  1
  F  F46  1  0.17475400  0.92100900  0.05772600  1
  F  F47  1  0.32524600  0.42100900  0.44227400  1
  F  F48  1  0.17475400  0.92100900  0.44227400  1
  F  F49  1  0.32524600  0.42100900  0.05772600  1
  F  F50  1  0.82524600  0.07899100  0.94227400  1
  F  F51  1  0.67475400  0.57899100  0.55772600  1
  F  F52  1  0.79206200  0.28397800  0.46793900  1
  F  F53  1  0.70793800  0.78397800  0.03206100  1
  F  F54  1  0.20793800  0.71602200  0.96793900  1
  F  F55  1  0.29206200  0.21602200  0.53206100  1
  F  F56  1  0.20793800  0.71602200  0.53206100  1
  F  F57  1  0.29206200  0.21602200  0.96793900  1
  F  F58  1  0.79206200  0.28397800  0.03206100  1
  F  F59  1  0.70793800  0.78397800  0.46793900  1
  F  F60  1  0.60669800  0.12250000  0.46268000  1
  F  F61  1  0.89330200  0.62250000  0.03732000  1
  F  F62  1  0.39330200  0.87750000  0.96268000  1
  F  F63  1  0.10669800  0.37750000  0.53732000  1
  F  F64  1  0.39330200  0.87750000  0.53732000  1
  F  F65  1  0.10669800  0.37750000  0.96268000  1
  F  F66  1  0.60669800  0.12250000  0.03732000  1
  F  F67  1  0.89330200  0.62250000  0.46268000  1
  F  F68  1  0.56402200  0.32775800  0.54957000  1
  F  F69  1  0.93597800  0.82775800  0.95043000  1
  F  F70  1  0.43597800  0.67224200  0.04957000  1
  F  F71  1  0.06402200  0.17224200  0.45043000  1
  F  F72  1  0.43597800  0.67224200  0.45043000  1
  F  F73  1  0.06402200  0.17224200  0.04957000  1
  F  F74  1  0.56402200  0.32775800  0.95043000  1
  F  F75  1  0.93597800  0.82775800  0.54957000  1
  F  F76  1  0.59766600  0.12248400  0.63635300  1
  F  F77  1  0.90233400  0.62248400  0.86364700  1
  F  F78  1  0.40233400  0.87751600  0.13635300  1
  F  F79  1  0.09766600  0.37751600  0.36364700  1
  F  F80  1  0.40233400  0.87751600  0.36364700  1
  F  F81  1  0.09766600  0.37751600  0.13635300  1
  F  F82  1  0.59766600  0.12248400  0.86364700  1
  F  F83  1  0.90233400  0.62248400  0.63635300  1
  F  F84  1  0.78122100  0.28360200  0.64230400  1
  F  F85  1  0.71877900  0.78360200  0.85769600  1
  F  F86  1  0.21877900  0.71639800  0.14230400  1
  F  F87  1  0.28122100  0.21639800  0.35769600  1
  F  F88  1  0.21877900  0.71639800  0.35769600  1
  F  F89  1  0.28122100  0.21639800  0.14230400  1
  F  F90  1  0.78122100  0.28360200  0.85769600  1
  F  F91  1  0.71877900  0.78360200  0.64230400  1
