# generated using pymatgen
data_Zn2H10N12O5
_symmetry_space_group_name_H-M   'P 1'
_cell_length_a   6.00492300
_cell_length_b   10.06713748
_cell_length_c   10.29787238
_cell_angle_alpha   91.41505637
_cell_angle_beta   90.00000000
_cell_angle_gamma   90.00000000
_symmetry_Int_Tables_number   1
_chemical_formula_structural   Zn2H10N12O5
_chemical_formula_sum   'Zn4 H20 N24 O10'
_cell_volume   622.34109932
_cell_formula_units_Z   2
loop_
 _symmetry_equiv_pos_site_id
 _symmetry_equiv_pos_as_xyz
  1  'x, y, z'
loop_
 _atom_site_type_symbol
 _atom_site_label
 _atom_site_symmetry_multiplicity
 _atom_site_fract_x
 _atom_site_fract_y
 _atom_site_fract_z
 _atom_site_occupancy
  Zn  Zn0  1  0.74751200  0.44783900  0.04961200  1
  Zn  Zn1  1  0.25248800  0.55216100  0.95038800  1
  Zn  Zn2  1  0.74751200  0.05216100  0.45038800  1
  Zn  Zn3  1  0.25248800  0.94783900  0.54961200  1
  H  H4  1  0.70346500  0.18683300  0.13489200  1
  H  H5  1  0.29653500  0.81316700  0.86510800  1
  H  H6  1  0.70346500  0.31316700  0.36510800  1
  H  H7  1  0.29653500  0.68683300  0.63489200  1
  H  H8  1  0.60481900  0.19435000  0.99324700  1
  H  H9  1  0.39518100  0.80565000  0.00675300  1
  H  H10  1  0.60481900  0.30565000  0.50675300  1
  H  H11  1  0.39518100  0.69435000  0.49324700  1
  H  H12  1  0.01242700  0.37114000  0.25394300  1
  H  H13  1  0.98757300  0.62886000  0.74605700  1
  H  H14  1  0.01242700  0.12886000  0.24605700  1
  H  H15  1  0.98757300  0.87114000  0.75394300  1
  H  H16  1  0.88092000  0.50162700  0.30335800  1
  H  H17  1  0.11908000  0.49837300  0.69664200  1
  H  H18  1  0.88092000  0.99837300  0.19664200  1
  H  H19  1  0.11908000  0.00162700  0.80335800  1
  H  H20  1  0.32919300  0.25110100  0.17485000  1
  H  H21  1  0.67080700  0.74889900  0.82515000  1
  H  H22  1  0.32919300  0.24889900  0.32515000  1
  H  H23  1  0.67080700  0.75110100  0.67485000  1
  N  N24  1  0.04847100  0.37595900  0.96510900  1
  N  N25  1  0.95152900  0.62404100  0.03489100  1
  N  N26  1  0.04847100  0.12404100  0.53489100  1
  N  N27  1  0.95152900  0.87595900  0.46510900  1
  N  N28  1  0.09858300  0.26459600  0.93072600  1
  N  N29  1  0.90141700  0.73540400  0.06927400  1
  N  N30  1  0.09858300  0.23540400  0.56927400  1
  N  N31  1  0.90141700  0.76459600  0.43072600  1
  N  N32  1  0.15101800  0.15741400  0.89931500  1
  N  N33  1  0.84898200  0.84258600  0.10068500  1
  N  N34  1  0.15101800  0.34258600  0.60068500  1
  N  N35  1  0.84898200  0.65741400  0.39931500  1
  N  N36  1  0.45493700  0.54124000  0.12110200  1
  N  N37  1  0.54506300  0.45876000  0.87889800  1
  N  N38  1  0.45493700  0.95876000  0.37889800  1
  N  N39  1  0.54506300  0.04124000  0.62110200  1
  N  N40  1  0.40166700  0.56812100  0.23161800  1
  N  N41  1  0.59833300  0.43187900  0.76838200  1
  N  N42  1  0.40166700  0.93187900  0.26838200  1
  N  N43  1  0.59833300  0.06812100  0.73161800  1
  N  N44  1  0.34757400  0.59266300  0.33773300  1
  N  N45  1  0.65242600  0.40733700  0.66226700  1
  N  N46  1  0.34757400  0.90733700  0.16226700  1
  N  N47  1  0.65242600  0.09266300  0.83773300  1
  O  O48  1  0.61102500  0.24333200  0.07784700  1
  O  O49  1  0.38897500  0.75666800  0.92215300  1
  O  O50  1  0.61102500  0.25666800  0.42215300  1
  O  O51  1  0.38897500  0.74333200  0.57784700  1
  O  O52  1  0.86335100  0.41488600  0.25641500  1
  O  O53  1  0.13664900  0.58511400  0.74358500  1
  O  O54  1  0.86335100  0.08511400  0.24358500  1
  O  O55  1  0.13664900  0.91488600  0.75641500  1
  O  O56  1  0.22687400  0.25000000  0.25000000  1
  O  O57  1  0.77312600  0.75000000  0.75000000  1
