# generated using pymatgen
data_SiH12C6(NO2)4
_symmetry_space_group_name_H-M   'P 1'
_cell_length_a   7.76741700
_cell_length_b   7.98286227
_cell_length_c   12.87266339
_cell_angle_alpha   83.35641744
_cell_angle_beta   86.03453657
_cell_angle_gamma   80.03342492
_symmetry_Int_Tables_number   1
_chemical_formula_structural   SiH12C6(NO2)4
_chemical_formula_sum   'Si2 H24 C12 N8 O16'
_cell_volume   779.87543016
_cell_formula_units_Z   2
loop_
 _symmetry_equiv_pos_site_id
 _symmetry_equiv_pos_as_xyz
  1  'x, y, z'
loop_
 _atom_site_type_symbol
 _atom_site_label
 _atom_site_symmetry_multiplicity
 _atom_site_fract_x
 _atom_site_fract_y
 _atom_site_fract_z
 _atom_site_occupancy
  Si  Si0  1  0.21682200  0.75712300  0.83212600  1
  Si  Si1  1  0.78317800  0.24287700  0.16787400  1
  H  H2  1  0.96016900  0.80566000  0.96026300  1
  H  H3  1  0.03983100  0.19434000  0.03973700  1
  H  H4  1  0.89120800  0.74444600  0.84232300  1
  H  H5  1  0.10879200  0.25555400  0.15767700  1
  H  H6  1  0.18685000  0.65435000  0.65799600  1
  H  H7  1  0.81315000  0.34565000  0.34200400  1
  H  H8  1  0.14384900  0.88150400  0.64637600  1
  H  H9  1  0.85615100  0.11849600  0.35362400  1
  H  H10  1  0.48422400  0.87824300  0.84910800  1
  H  H11  1  0.51577600  0.12175700  0.15089200  1
  H  H12  1  0.29769400  0.04329000  0.84391500  1
  H  H13  1  0.70230600  0.95671000  0.15608500  1
  H  H14  1  0.33663100  0.90290700  0.96119200  1
  H  H15  1  0.66336900  0.09709300  0.03880800  1
  H  H16  1  0.21818500  0.44297100  0.86283600  1
  H  H17  1  0.78181500  0.55702900  0.13716400  1
  H  H18  1  0.28381600  0.52258800  0.97492300  1
  H  H19  1  0.71618400  0.47741200  0.02507700  1
  H  H20  1  0.43234600  0.49377700  0.86374400  1
  H  H21  1  0.56765400  0.50622300  0.13625600  1
  H  H22  1  0.70695400  0.25492600  0.66369700  1
  H  H23  1  0.29304600  0.74507400  0.33630300  1
  H  H24  1  0.69035900  0.81050300  0.58254500  1
  H  H25  1  0.30964100  0.18949700  0.41745500  1
  C  C26  1  0.45020100  0.74558000  0.54583700  1
  C  C27  1  0.54979900  0.25442000  0.45416300  1
  C  C28  1  0.82167200  0.04286200  0.75933600  1
  C  C29  1  0.17832800  0.95713800  0.24066400  1
  C  C30  1  0.22735000  0.76781500  0.68337000  1
  C  C31  1  0.77265000  0.23218500  0.31663000  1
  C  C32  1  0.97586500  0.82049900  0.87442900  1
  C  C33  1  0.02413500  0.17950100  0.12557100  1
  C  C34  1  0.29446500  0.53253900  0.88898800  1
  C  C35  1  0.70553500  0.46746100  0.11101200  1
  C  C36  1  0.34607200  0.91085100  0.87527100  1
  C  C37  1  0.65392800  0.08914900  0.12472900  1
  N  N38  1  0.76562600  0.21869500  0.73421000  1
  N  N39  1  0.23437400  0.78130500  0.26579000  1
  N  N40  1  0.62175300  0.77730100  0.52484200  1
  N  N41  1  0.37824700  0.22269900  0.47515800  1
  N  N42  1  0.72297700  0.74612500  0.43354500  1
  N  N43  1  0.27702300  0.25387500  0.56645500  1
  N  N44  1  0.81581900  0.35657000  0.77505200  1
  N  N45  1  0.18418100  0.64343000  0.22494800  1
  O  O46  1  0.91323900  0.00355100  0.84495800  1
  O  O47  1  0.08676100  0.99644900  0.15504200  1
  O  O48  1  0.40895400  0.77433500  0.64616800  1
  O  O49  1  0.59104600  0.22566500  0.35383200  1
  O  O50  1  0.78104600  0.94271800  0.70360300  1
  O  O51  1  0.21895400  0.05728200  0.29639700  1
  O  O52  1  0.35542600  0.70367400  0.48515600  1
  O  O53  1  0.64457400  0.29632600  0.51484400  1
  O  O54  1  0.65524200  0.70123000  0.35995100  1
  O  O55  1  0.34475800  0.29877000  0.64004900  1
  O  O56  1  0.87590700  0.77061300  0.43558300  1
  O  O57  1  0.12409300  0.22938700  0.56441700  1
  O  O58  1  0.89191200  0.33255600  0.85766200  1
  O  O59  1  0.10808800  0.66744400  0.14233800  1
  O  O60  1  0.77307500  0.49625600  0.72264900  1
  O  O61  1  0.22692500  0.50374400  0.27735100  1
