# generated using pymatgen
data_Ba7GeB3ClO13
_symmetry_space_group_name_H-M   'P 1'
_cell_length_a   7.51125100
_cell_length_b   11.29895300
_cell_length_c   20.64051000
_cell_angle_alpha   90.00000000
_cell_angle_beta   90.00000000
_cell_angle_gamma   90.00000000
_symmetry_Int_Tables_number   1
_chemical_formula_structural   Ba7GeB3ClO13
_chemical_formula_sum   'Ba28 Ge4 B12 Cl4 O52'
_cell_volume   1751.74505783
_cell_formula_units_Z   4
loop_
 _symmetry_equiv_pos_site_id
 _symmetry_equiv_pos_as_xyz
  1  'x, y, z'
loop_
 _atom_site_type_symbol
 _atom_site_label
 _atom_site_symmetry_multiplicity
 _atom_site_fract_x
 _atom_site_fract_y
 _atom_site_fract_z
 _atom_site_occupancy
  Ba  Ba0  1  0.87969300  0.00000000  0.63149200  1
  Ba  Ba1  1  0.12030700  0.00000000  0.36850800  1
  Ba  Ba2  1  0.62030700  0.00000000  0.13149200  1
  Ba  Ba3  1  0.37969300  0.00000000  0.86850800  1
  Ba  Ba4  1  0.63348600  0.50000000  0.58378100  1
  Ba  Ba5  1  0.36651400  0.50000000  0.41621900  1
  Ba  Ba6  1  0.86651400  0.50000000  0.08378100  1
  Ba  Ba7  1  0.13348600  0.50000000  0.91621900  1
  Ba  Ba8  1  0.97054800  0.50000000  0.72529700  1
  Ba  Ba9  1  0.02945200  0.50000000  0.27470300  1
  Ba  Ba10  1  0.52945200  0.50000000  0.22529700  1
  Ba  Ba11  1  0.47054800  0.50000000  0.77470300  1
  Ba  Ba12  1  0.50000000  0.81286600  0.50000000  1
  Ba  Ba13  1  0.00000000  0.18713400  0.00000000  1
  Ba  Ba14  1  0.50000000  0.18713400  0.50000000  1
  Ba  Ba15  1  0.00000000  0.81286600  0.00000000  1
  Ba  Ba16  1  0.30046900  0.76783100  0.68431600  1
  Ba  Ba17  1  0.69953100  0.76783100  0.31568400  1
  Ba  Ba18  1  0.19953100  0.23216900  0.18431600  1
  Ba  Ba19  1  0.80046900  0.23216900  0.81568400  1
  Ba  Ba20  1  0.69953100  0.23216900  0.31568400  1
  Ba  Ba21  1  0.30046900  0.23216900  0.68431600  1
  Ba  Ba22  1  0.80046900  0.76783100  0.81568400  1
  Ba  Ba23  1  0.19953100  0.76783100  0.18431600  1
  Ba  Ba24  1  0.00000000  0.73450200  0.50000000  1
  Ba  Ba25  1  0.50000000  0.26549800  0.00000000  1
  Ba  Ba26  1  0.00000000  0.26549800  0.50000000  1
  Ba  Ba27  1  0.50000000  0.73450200  0.00000000  1
  Ge  Ge28  1  0.20886000  0.50000000  0.58266500  1
  Ge  Ge29  1  0.79114000  0.50000000  0.41733500  1
  Ge  Ge30  1  0.29114000  0.50000000  0.08266500  1
  Ge  Ge31  1  0.70886000  0.50000000  0.91733500  1
  B  B32  1  0.77433600  0.72337200  0.66054000  1
  B  B33  1  0.22566400  0.72337200  0.33946000  1
  B  B34  1  0.72566400  0.27662800  0.16054000  1
  B  B35  1  0.27433600  0.27662800  0.83946000  1
  B  B36  1  0.22566400  0.27662800  0.33946000  1
  B  B37  1  0.77433600  0.27662800  0.66054000  1
  B  B38  1  0.27433600  0.72337200  0.83946000  1
  B  B39  1  0.72566400  0.72337200  0.16054000  1
  B  B40  1  0.21620600  0.00000000  0.54856000  1
  B  B41  1  0.78379400  0.00000000  0.45144000  1
  B  B42  1  0.28379400  0.00000000  0.04856000  1
  B  B43  1  0.71620600  0.00000000  0.95144000  1
  Cl  Cl44  1  0.55048700  0.00000000  0.72303200  1
  Cl  Cl45  1  0.44951300  0.00000000  0.27696800  1
  Cl  Cl46  1  0.94951300  0.00000000  0.22303200  1
  Cl  Cl47  1  0.05048700  0.00000000  0.77696800  1
  O  O48  1  0.28670300  0.50000000  0.66457900  1
  O  O49  1  0.71329700  0.50000000  0.33542100  1
  O  O50  1  0.21329700  0.50000000  0.16457900  1
  O  O51  1  0.78670300  0.50000000  0.83542100  1
  O  O52  1  0.73104400  0.00000000  0.51595100  1
  O  O53  1  0.26895600  0.00000000  0.48404900  1
  O  O54  1  0.76895600  0.00000000  0.01595100  1
  O  O55  1  0.23104400  0.00000000  0.98404900  1
  O  O56  1  0.93553100  0.76037800  0.68695500  1
  O  O57  1  0.06446900  0.76037800  0.31304500  1
  O  O58  1  0.56446900  0.23962200  0.18695500  1
  O  O59  1  0.43553100  0.23962200  0.81304500  1
  O  O60  1  0.06446900  0.23962200  0.31304500  1
  O  O61  1  0.93553100  0.23962200  0.68695500  1
  O  O62  1  0.43553100  0.76037800  0.81304500  1
  O  O63  1  0.56446900  0.76037800  0.18695500  1
  O  O64  1  0.16843700  0.35428400  0.80259300  1
  O  O65  1  0.83156300  0.35428400  0.19740700  1
  O  O66  1  0.33156300  0.64571600  0.30259300  1
  O  O67  1  0.66843700  0.64571600  0.69740700  1
  O  O68  1  0.83156300  0.64571600  0.19740700  1
  O  O69  1  0.16843700  0.64571600  0.80259300  1
  O  O70  1  0.66843700  0.35428400  0.69740700  1
  O  O71  1  0.33156300  0.35428400  0.30259300  1
  O  O72  1  0.18904000  0.89306400  0.58057600  1
  O  O73  1  0.81096000  0.89306400  0.41942400  1
  O  O74  1  0.31096000  0.10693600  0.08057600  1
  O  O75  1  0.68904000  0.10693600  0.91942400  1
  O  O76  1  0.81096000  0.10693600  0.41942400  1
  O  O77  1  0.18904000  0.10693600  0.58057600  1
  O  O78  1  0.68904000  0.89306400  0.91942400  1
  O  O79  1  0.31096000  0.89306400  0.08057600  1
  O  O80  1  0.97510600  0.50000000  0.58146500  1
  O  O81  1  0.02489400  0.50000000  0.41853500  1
  O  O82  1  0.52489400  0.50000000  0.08146500  1
  O  O83  1  0.47510600  0.50000000  0.91853500  1
  O  O84  1  0.30575300  0.62600200  0.54477800  1
  O  O85  1  0.69424700  0.62600200  0.45522200  1
  O  O86  1  0.19424700  0.37399800  0.04477800  1
  O  O87  1  0.80575300  0.37399800  0.95522200  1
  O  O88  1  0.69424700  0.37399800  0.45522200  1
  O  O89  1  0.30575300  0.37399800  0.54477800  1
  O  O90  1  0.80575300  0.62600200  0.95522200  1
  O  O91  1  0.19424700  0.62600200  0.04477800  1
  O  O92  1  0.71712800  0.75890800  0.59967200  1
  O  O93  1  0.28287200  0.75890800  0.40032800  1
  O  O94  1  0.78287200  0.24109200  0.09967100  1
  O  O95  1  0.21712800  0.24109200  0.90032800  1
  O  O96  1  0.28287200  0.24109200  0.40032800  1
  O  O97  1  0.71712800  0.24109200  0.59967200  1
  O  O98  1  0.21712800  0.75890800  0.90032800  1
  O  O99  1  0.78287200  0.75890800  0.09967100  1
