# generated using pymatgen
data_MgH4(CO)4
_symmetry_space_group_name_H-M   'P 1'
_cell_length_a   10.16138400
_cell_length_b   11.52977400
_cell_length_c   18.94119951
_cell_angle_alpha   53.71160347
_cell_angle_beta   90.00000000
_cell_angle_gamma   90.00000000
_symmetry_Int_Tables_number   1
_chemical_formula_structural   MgH4(CO)4
_chemical_formula_sum   'Mg12 H48 C48 O48'
_cell_volume   1788.71903005
_cell_formula_units_Z   12
loop_
 _symmetry_equiv_pos_site_id
 _symmetry_equiv_pos_as_xyz
  1  'x, y, z'
loop_
 _atom_site_type_symbol
 _atom_site_label
 _atom_site_symmetry_multiplicity
 _atom_site_fract_x
 _atom_site_fract_y
 _atom_site_fract_z
 _atom_site_occupancy
  Mg  Mg0  1  0.92948300  0.38067500  0.86436600  1
  Mg  Mg1  1  0.57051700  0.38067500  0.36436600  1
  Mg  Mg2  1  0.07051700  0.61932500  0.13563400  1
  Mg  Mg3  1  0.42948300  0.61932500  0.63563400  1
  Mg  Mg4  1  0.00000000  0.50000000  0.00000000  1
  Mg  Mg5  1  0.50000000  0.50000000  0.50000000  1
  Mg  Mg6  1  0.62600000  0.43792600  0.80195000  1
  Mg  Mg7  1  0.87400000  0.43792600  0.30195000  1
  Mg  Mg8  1  0.37400000  0.56207400  0.19805000  1
  Mg  Mg9  1  0.12600000  0.56207400  0.69805000  1
  Mg  Mg10  1  0.00000000  0.00000000  0.00000000  1
  Mg  Mg11  1  0.50000000  0.00000000  0.50000000  1
  H  H12  1  0.06451900  0.79106300  0.73710400  1
  H  H13  1  0.43548100  0.79106300  0.23710400  1
  H  H14  1  0.93548100  0.20893700  0.26289600  1
  H  H15  1  0.56451900  0.20893700  0.76289600  1
  H  H16  1  0.61770200  0.53668000  0.92474400  1
  H  H17  1  0.88229800  0.53668000  0.42474400  1
  H  H18  1  0.38229800  0.46332000  0.07525600  1
  H  H19  1  0.11770200  0.46332000  0.57525600  1
  H  H20  1  0.71463100  0.01601800  0.97338500  1
  H  H21  1  0.78536900  0.01601800  0.47338500  1
  H  H22  1  0.28536900  0.98398200  0.02661500  1
  H  H23  1  0.21463100  0.98398200  0.52661500  1
  H  H24  1  0.27135300  0.48783800  0.87339000  1
  H  H25  1  0.22864700  0.48783800  0.37339000  1
  H  H26  1  0.72864700  0.51216200  0.12661000  1
  H  H27  1  0.77135300  0.51216200  0.62661000  1
  H  H28  1  0.13752900  0.22802500  0.08499700  1
  H  H29  1  0.36247100  0.22802500  0.58499700  1
  H  H30  1  0.86247100  0.77197500  0.91500300  1
  H  H31  1  0.63752900  0.77197500  0.41500300  1
  H  H32  1  0.23950400  0.24769200  0.78779200  1
  H  H33  1  0.26049600  0.24769200  0.28779200  1
  H  H34  1  0.76049600  0.75230800  0.21220800  1
  H  H35  1  0.73950400  0.75230800  0.71220800  1
  H  H36  1  0.26517700  0.77965700  0.83790000  1
  H  H37  1  0.23482300  0.77965700  0.33790000  1
  H  H38  1  0.73482300  0.22034300  0.16210000  1
  H  H39  1  0.76517700  0.22034300  0.66210000  1
  H  H40  1  0.42529000  0.87195500  0.71466500  1
  H  H41  1  0.07471000  0.87195500  0.21466500  1
  H  H42  1  0.57471000  0.12804500  0.28533500  1
  H  H43  1  0.92529000  0.12804500  0.78533500  1
  H  H44  1  0.64203000  0.96749800  0.71834000  1
  H  H45  1  0.85797000  0.96749800  0.21834000  1
  H  H46  1  0.35797000  0.03250200  0.28166000  1
  H  H47  1  0.14203000  0.03250200  0.78166000  1
  H  H48  1  0.70331300  0.96615200  0.84643300  1
  H  H49  1  0.79668700  0.96615200  0.34643300  1
  H  H50  1  0.29668700  0.03384800  0.15356700  1
  H  H51  1  0.20331300  0.03384800  0.65356700  1
  H  H52  1  0.54245500  0.87400900  0.96918500  1
  H  H53  1  0.95754500  0.87400900  0.46918500  1
  H  H54  1  0.45754500  0.12599100  0.03081500  1
  H  H55  1  0.04245500  0.12599100  0.53081500  1
  H  H56  1  0.32474700  0.78429300  0.96324200  1
  H  H57  1  0.17525300  0.78429300  0.46324200  1
  H  H58  1  0.67525300  0.21570700  0.03675800  1
  H  H59  1  0.82474700  0.21570700  0.53675800  1
  C  C60  1  0.36117000  0.82115000  0.83907800  1
  C  C61  1  0.13883000  0.82115000  0.33907800  1
  C  C62  1  0.63883000  0.17885000  0.16092200  1
  C  C63  1  0.86117000  0.17885000  0.66092200  1
  C  C64  1  0.45071000  0.87237400  0.77048900  1
  C  C65  1  0.04929000  0.87237400  0.27048900  1
  C  C66  1  0.54929000  0.12762600  0.22951100  1
  C  C67  1  0.95071000  0.12762600  0.72951100  1
  C  C68  1  0.57328300  0.92566500  0.77269600  1
  C  C69  1  0.92671700  0.92566500  0.27269600  1
  C  C70  1  0.42671700  0.07433500  0.22730400  1
  C  C71  1  0.07328300  0.07433500  0.72730400  1
  C  C72  1  0.60703100  0.92603800  0.84419600  1
  C  C73  1  0.89296900  0.92603800  0.34419600  1
  C  C74  1  0.39296900  0.07396200  0.15580400  1
  C  C75  1  0.10703100  0.07396200  0.65580400  1
  C  C76  1  0.51749600  0.87469600  0.91288700  1
  C  C77  1  0.98250400  0.87469600  0.41288700  1
  C  C78  1  0.48250400  0.12530400  0.08711300  1
  C  C79  1  0.01749600  0.12530400  0.58711300  1
  C  C80  1  0.39459000  0.82321800  0.90994100  1
  C  C81  1  0.10541000  0.82321800  0.40994100  1
  C  C82  1  0.60541000  0.17678200  0.09005900  1
  C  C83  1  0.89459000  0.17678200  0.59005900  1
  C  C84  1  0.03772600  0.68320000  0.79627600  1
  C  C85  1  0.46227400  0.68320000  0.29627600  1
  C  C86  1  0.96227400  0.31680000  0.20372400  1
  C  C87  1  0.53772600  0.31680000  0.70372400  1
  C  C88  1  0.72192500  0.50593900  0.92820400  1
  C  C89  1  0.77807500  0.50593900  0.42820400  1
  C  C90  1  0.27807500  0.49406100  0.07179600  1
  C  C91  1  0.22192500  0.49406100  0.57179600  1
  C  C92  1  0.73495200  0.13277500  0.93165300  1
  C  C93  1  0.76504800  0.13277500  0.43165300  1
  C  C94  1  0.26504800  0.86722500  0.06834700  1
  C  C95  1  0.23495200  0.86722500  0.56834700  1
  C  C96  1  0.34846800  0.49893900  0.82842000  1
  C  C97  1  0.15153200  0.49893900  0.32842000  1
  C  C98  1  0.65153200  0.50106100  0.17158000  1
  C  C99  1  0.84846800  0.50106100  0.67158000  1
  C  C100  1  0.08352200  0.22296900  0.03631900  1
  C  C101  1  0.41647800  0.22296900  0.53631900  1
  C  C102  1  0.91647800  0.77703100  0.96368100  1
  C  C103  1  0.58352200  0.77703100  0.46368100  1
  C  C104  1  0.15524500  0.22957700  0.83048200  1
  C  C105  1  0.34475500  0.22957700  0.33048200  1
  C  C106  1  0.84475500  0.77042300  0.16951800  1
  C  C107  1  0.65524500  0.77042300  0.66951800  1
  O  O108  1  0.02063000  0.58413100  0.78526700  1
  O  O109  1  0.47937000  0.58413100  0.28526700  1
  O  O110  1  0.97937000  0.41586900  0.21473300  1
  O  O111  1  0.52063000  0.41586900  0.71473300  1
  O  O112  1  0.02665800  0.66665500  0.86751400  1
  O  O113  1  0.47334200  0.66665500  0.36751400  1
  O  O114  1  0.97334200  0.33334500  0.13248600  1
  O  O115  1  0.52665800  0.33334500  0.63248600  1
  O  O116  1  0.75397800  0.46692900  0.87896900  1
  O  O117  1  0.74602200  0.46692900  0.37896900  1
  O  O118  1  0.24602200  0.53307100  0.12103100  1
  O  O119  1  0.25397800  0.53307100  0.62103100  1
  O  O120  1  0.79815600  0.51137200  0.97802500  1
  O  O121  1  0.70184400  0.51137200  0.47802500  1
  O  O122  1  0.20184400  0.48862800  0.02197500  1
  O  O123  1  0.29815600  0.48862800  0.52197500  1
  O  O124  1  0.85556100  0.16918000  0.92985100  1
  O  O125  1  0.64443900  0.16918000  0.42985100  1
  O  O126  1  0.14443900  0.83082000  0.07014900  1
  O  O127  1  0.35556100  0.83082000  0.57014900  1
  O  O128  1  0.64087300  0.21767400  0.89079000  1
  O  O129  1  0.85912700  0.21767400  0.39079000  1
  O  O130  1  0.35912700  0.78232600  0.10921000  1
  O  O131  1  0.14087300  0.78232600  0.60921000  1
  O  O132  1  0.81424000  0.44118100  0.75160800  1
  O  O133  1  0.68576000  0.44118100  0.25160800  1
  O  O134  1  0.18576000  0.55881900  0.24839200  1
  O  O135  1  0.31424000  0.55881900  0.74839200  1
  O  O136  1  0.46141100  0.45241700  0.85923900  1
  O  O137  1  0.03858900  0.45241700  0.35923900  1
  O  O138  1  0.53858900  0.54758300  0.14076100  1
  O  O139  1  0.96141100  0.54758300  0.64076100  1
  O  O140  1  0.01987700  0.33784500  0.97745700  1
  O  O141  1  0.48012300  0.33784500  0.47745700  1
  O  O142  1  0.98012300  0.66215500  0.02254300  1
  O  O143  1  0.51987700  0.66215500  0.52254300  1
  O  O144  1  0.08945600  0.10923400  0.04212100  1
  O  O145  1  0.41054400  0.10923400  0.54212100  1
  O  O146  1  0.91054400  0.89076600  0.95787900  1
  O  O147  1  0.58945600  0.89076600  0.45787900  1
  O  O148  1  0.09411400  0.34350700  0.81000100  1
  O  O149  1  0.40588600  0.34350700  0.31000100  1
  O  O150  1  0.90588600  0.65649300  0.18999900  1
  O  O151  1  0.59411400  0.65649300  0.68999900  1
  O  O152  1  0.12825700  0.10307600  0.89315200  1
  O  O153  1  0.37174300  0.10307600  0.39315200  1
  O  O154  1  0.87174300  0.89692400  0.10684800  1
  O  O155  1  0.62825700  0.89692400  0.60684800  1
