# generated using pymatgen
data_K2Cu5TeS3O19
_symmetry_space_group_name_H-M   'P 1'
_cell_length_a   12.01981000
_cell_length_b   7.85307600
_cell_length_c   9.46538723
_cell_angle_alpha   67.15134904
_cell_angle_beta   90.00000000
_cell_angle_gamma   90.00000000
_symmetry_Int_Tables_number   1
_chemical_formula_structural   K2Cu5TeS3O19
_chemical_formula_sum   'K4 Cu10 Te2 S6 O38'
_cell_volume   823.35484361
_cell_formula_units_Z   2
loop_
 _symmetry_equiv_pos_site_id
 _symmetry_equiv_pos_as_xyz
  1  'x, y, z'
loop_
 _atom_site_type_symbol
 _atom_site_label
 _atom_site_symmetry_multiplicity
 _atom_site_fract_x
 _atom_site_fract_y
 _atom_site_fract_z
 _atom_site_occupancy
  K  K0  1  0.25000000  0.97873500  0.48204600  1
  K  K1  1  0.75000000  0.02126500  0.51795400  1
  K  K2  1  0.50000000  0.00000000  0.00000000  1
  K  K3  1  0.00000000  0.00000000  0.00000000  1
  Cu  Cu4  1  0.37499800  0.46801600  0.27024500  1
  Cu  Cu5  1  0.87499800  0.53198400  0.72975500  1
  Cu  Cu6  1  0.62500200  0.53198400  0.72975500  1
  Cu  Cu7  1  0.12500200  0.46801600  0.27024500  1
  Cu  Cu8  1  0.36773100  0.50361800  0.72615500  1
  Cu  Cu9  1  0.86773100  0.49638200  0.27384500  1
  Cu  Cu10  1  0.63226900  0.49638200  0.27384500  1
  Cu  Cu11  1  0.13226900  0.50361800  0.72615500  1
  Cu  Cu12  1  0.50000000  0.50000000  0.00000000  1
  Cu  Cu13  1  0.00000000  0.50000000  0.00000000  1
  Te  Te14  1  0.25000000  0.77126100  0.92339300  1
  Te  Te15  1  0.75000000  0.22873900  0.07660700  1
  S  S16  1  0.46883300  0.21304400  0.59722000  1
  S  S17  1  0.96883300  0.78695600  0.40278000  1
  S  S18  1  0.53116700  0.78695600  0.40278000  1
  S  S19  1  0.03116700  0.21304400  0.59722000  1
  S  S20  1  0.25000000  0.20215700  0.06811700  1
  S  S21  1  0.75000000  0.79784300  0.93188300  1
  O  O22  1  0.25000000  0.57131400  0.30593100  1
  O  O23  1  0.75000000  0.42868600  0.69406900  1
  O  O24  1  0.48918500  0.60341700  0.78861100  1
  O  O25  1  0.98918500  0.39658300  0.21138900  1
  O  O26  1  0.51081500  0.39658300  0.21138900  1
  O  O27  1  0.01081500  0.60341700  0.78861100  1
  O  O28  1  0.25000000  0.43236800  0.64703800  1
  O  O29  1  0.75000000  0.56763200  0.35296200  1
  O  O30  1  0.25000000  0.66054200  0.77038000  1
  O  O31  1  0.75000000  0.33945800  0.22962000  1
  O  O32  1  0.37540500  0.64251200  0.04746400  1
  O  O33  1  0.87540500  0.35748800  0.95253600  1
  O  O34  1  0.62459500  0.35748800  0.95253600  1
  O  O35  1  0.12459500  0.64251200  0.04746400  1
  O  O36  1  0.47516700  0.34658100  0.68064200  1
  O  O37  1  0.97516700  0.65341900  0.31935800  1
  O  O38  1  0.52483300  0.65341900  0.31935800  1
  O  O39  1  0.02483300  0.34658100  0.68064200  1
  O  O40  1  0.35276800  0.28324400  0.97542400  1
  O  O41  1  0.85276800  0.71675600  0.02457600  1
  O  O42  1  0.64723200  0.71675600  0.02457600  1
  O  O43  1  0.14723200  0.28324400  0.97542400  1
  O  O44  1  0.37776000  0.27490900  0.47729800  1
  O  O45  1  0.87776000  0.72509100  0.52270200  1
  O  O46  1  0.62224000  0.72509100  0.52270200  1
  O  O47  1  0.12224000  0.27490900  0.47729800  1
  O  O48  1  0.25000000  0.24811000  0.20726800  1
  O  O49  1  0.75000000  0.75189000  0.79273200  1
  O  O50  1  0.43687500  0.02853800  0.70796700  1
  O  O51  1  0.93687500  0.97146200  0.29203300  1
  O  O52  1  0.56312500  0.97146200  0.29203300  1
  O  O53  1  0.06312500  0.02853800  0.70796700  1
  O  O54  1  0.42108700  0.77880200  0.47071500  1
  O  O55  1  0.92108700  0.22119800  0.52928500  1
  O  O56  1  0.57891300  0.22119800  0.52928500  1
  O  O57  1  0.07891300  0.77880200  0.47071500  1
  O  O58  1  0.25000000  0.99806100  0.11210300  1
  O  O59  1  0.75000000  0.00193900  0.88789700  1
