# generated using pymatgen
data_ZnH24Au2C12S8(NCl)4
_symmetry_space_group_name_H-M   'P 1'
_cell_length_a   10.10452028
_cell_length_b   10.10452028
_cell_length_c   20.01168160
_cell_angle_alpha   71.55893883
_cell_angle_beta   71.55893883
_cell_angle_gamma   62.29480628
_symmetry_Int_Tables_number   1
_chemical_formula_structural   ZnH24Au2C12S8(NCl)4
_chemical_formula_sum   'Zn2 H48 Au4 C24 S16 N8 Cl8'
_cell_volume   1680.86700752
_cell_formula_units_Z   2
loop_
 _symmetry_equiv_pos_site_id
 _symmetry_equiv_pos_as_xyz
  1  'x, y, z'
loop_
 _atom_site_type_symbol
 _atom_site_label
 _atom_site_symmetry_multiplicity
 _atom_site_fract_x
 _atom_site_fract_y
 _atom_site_fract_z
 _atom_site_occupancy
  Zn  Zn0  1  0.53163300  0.46836700  0.25000000  1
  Zn  Zn1  1  0.46836700  0.53163300  0.75000000  1
  H  H2  1  0.93555000  0.15513300  0.85485100  1
  H  H3  1  0.84486700  0.06445000  0.64514900  1
  H  H4  1  0.06445000  0.84486700  0.14514900  1
  H  H5  1  0.15513300  0.93555000  0.35485100  1
  H  H6  1  0.77269900  0.33436500  0.85293000  1
  H  H7  1  0.66563500  0.22730100  0.64707000  1
  H  H8  1  0.22730100  0.66563500  0.14707000  1
  H  H9  1  0.33436500  0.77269900  0.35293000  1
  H  H10  1  0.77520100  0.19054600  0.81954700  1
  H  H11  1  0.80945400  0.22479900  0.68045300  1
  H  H12  1  0.22479900  0.80945400  0.18045300  1
  H  H13  1  0.19054600  0.77520100  0.31954700  1
  H  H14  1  0.50241400  0.21471300  0.96905800  1
  H  H15  1  0.78528700  0.49758600  0.53094200  1
  H  H16  1  0.49758600  0.78528700  0.03094200  1
  H  H17  1  0.21471300  0.50241400  0.46905800  1
  H  H18  1  0.55949600  0.36882000  0.92851100  1
  H  H19  1  0.63118000  0.44050400  0.57148900  1
  H  H20  1  0.44050400  0.63118000  0.07148900  1
  H  H21  1  0.36882000  0.55949600  0.42851100  1
  H  H22  1  0.59150500  0.26430400  0.01731900  1
  H  H23  1  0.73569600  0.40849500  0.48268100  1
  H  H24  1  0.40849500  0.73569600  0.98268100  1
  H  H25  1  0.26430400  0.59150500  0.51731900  1
  H  H26  1  0.34568800  0.17949900  0.09181000  1
  H  H27  1  0.82050100  0.65431200  0.40819000  1
  H  H28  1  0.65431200  0.82050100  0.90819000  1
  H  H29  1  0.17949900  0.34568800  0.59181000  1
  H  H30  1  0.34467200  0.06586200  0.18066100  1
  H  H31  1  0.93413800  0.65532800  0.31933900  1
  H  H32  1  0.65532800  0.93413800  0.81933900  1
  H  H33  1  0.06586200  0.34467200  0.68066100  1
  H  H34  1  0.40196300  0.22102100  0.15712400  1
  H  H35  1  0.77897900  0.59803700  0.34287600  1
  H  H36  1  0.59803700  0.77897900  0.84287600  1
  H  H37  1  0.22102100  0.40196300  0.65712400  1
  H  H38  1  0.96904900  0.31293300  0.25530400  1
  H  H39  1  0.68706700  0.03095100  0.24469600  1
  H  H40  1  0.03095100  0.68706700  0.74469600  1
  H  H41  1  0.31293300  0.96904900  0.75530400  1
  H  H42  1  0.14871700  0.21443800  0.28363100  1
  H  H43  1  0.78556200  0.85128300  0.21636900  1
  H  H44  1  0.85128300  0.78556200  0.71636900  1
  H  H45  1  0.21443800  0.14871700  0.78363100  1
  H  H46  1  0.08659700  0.12130400  0.24422800  1
  H  H47  1  0.87869600  0.91340300  0.25577200  1
  H  H48  1  0.91340300  0.87869600  0.75577200  1
  H  H49  1  0.12130400  0.08659700  0.74422800  1
  Au  Au50  1  0.94806100  0.70539500  0.04343700  1
  Au  Au51  1  0.29460500  0.05193900  0.45656300  1
  Au  Au52  1  0.05193900  0.29460500  0.95656300  1
  Au  Au53  1  0.70539500  0.94806100  0.54343700  1
  C  C54  1  0.80384500  0.00981500  0.96586800  1
  C  C55  1  0.99018500  0.19615500  0.53413200  1
  C  C56  1  0.19615500  0.99018500  0.03413200  1
  C  C57  1  0.00981500  0.80384500  0.46586800  1
  C  C58  1  0.81131800  0.21071500  0.86053200  1
  C  C59  1  0.78928500  0.18868200  0.63946800  1
  C  C60  1  0.18868200  0.78928500  0.13946800  1
  C  C61  1  0.21071500  0.81131800  0.36053200  1
  C  C62  1  0.58870600  0.25619800  0.96430300  1
  C  C63  1  0.74380200  0.41129400  0.53569700  1
  C  C64  1  0.41129400  0.74380200  0.03569700  1
  C  C65  1  0.25619800  0.58870600  0.46430300  1
  C  C66  1  0.09697600  0.41488800  0.13103000  1
  C  C67  1  0.58511200  0.90302400  0.36897000  1
  C  C68  1  0.90302400  0.58511200  0.86897000  1
  C  C69  1  0.41488800  0.09697600  0.63103000  1
  C  C70  1  0.32450100  0.18157200  0.14878300  1
  C  C71  1  0.81842800  0.67549900  0.35121700  1
  C  C72  1  0.67549900  0.81842800  0.85121700  1
  C  C73  1  0.18157200  0.32450100  0.64878300  1
  C  C74  1  0.08714900  0.23056200  0.24316900  1
  C  C75  1  0.76943800  0.91285100  0.25683100  1
  C  C76  1  0.91285100  0.76943800  0.75683100  1
  C  C77  1  0.23056200  0.08714900  0.74316900  1
  S  S78  1  0.98185200  0.87991400  0.93298900  1
  S  S79  1  0.12008600  0.01814800  0.56701100  1
  S  S80  1  0.01814800  0.12008600  0.06701100  1
  S  S81  1  0.87991400  0.98185200  0.43298900  1
  S  S82  1  0.71848100  0.93057700  0.04777100  1
  S  S83  1  0.06942300  0.28151900  0.45222900  1
  S  S84  1  0.28151900  0.06942300  0.95222900  1
  S  S85  1  0.93057700  0.71848100  0.54777100  1
  S  S86  1  0.18164500  0.48348600  0.04577300  1
  S  S87  1  0.51651400  0.81835500  0.45422700  1
  S  S88  1  0.81835500  0.51651400  0.95422700  1
  S  S89  1  0.48348600  0.18164500  0.54577300  1
  S  S90  1  0.90993400  0.53941400  0.15492100  1
  S  S91  1  0.46058600  0.09006600  0.34507900  1
  S  S92  1  0.09006600  0.46058600  0.84507900  1
  S  S93  1  0.53941400  0.90993400  0.65492100  1
  N  N94  1  0.73939700  0.15310800  0.93233100  1
  N  N95  1  0.84689200  0.26060300  0.56766900  1
  N  N96  1  0.26060300  0.84689200  0.06766900  1
  N  N97  1  0.15310800  0.73939700  0.43233100  1
  N  N98  1  0.16537900  0.28241600  0.17188200  1
  N  N99  1  0.71758400  0.83462100  0.32811800  1
  N  N100  1  0.83462100  0.71758400  0.82811800  1
  N  N101  1  0.28241600  0.16537900  0.67188200  1
  Cl  Cl102  1  0.52701700  0.71375000  0.21133500  1
  Cl  Cl103  1  0.28625000  0.47298300  0.28866500  1
  Cl  Cl104  1  0.47298300  0.28625000  0.78866500  1
  Cl  Cl105  1  0.71375000  0.52701700  0.71133500  1
  Cl  Cl106  1  0.63474100  0.34350500  0.15558900  1
  Cl  Cl107  1  0.65649500  0.36525900  0.34441100  1
  Cl  Cl108  1  0.36525900  0.65649500  0.84441100  1
  Cl  Cl109  1  0.34350500  0.63474100  0.65558900  1
