# generated using pymatgen
data_As2O3
_symmetry_space_group_name_H-M   'P 1'
_cell_length_a   4.68354100
_cell_length_b   11.32103900
_cell_length_c   13.85035286
_cell_angle_alpha   81.48426638
_cell_angle_beta   90.00000000
_cell_angle_gamma   90.00000000
_symmetry_Int_Tables_number   1
_chemical_formula_structural   As2O3
_chemical_formula_sum   'As16 O24'
_cell_volume   726.28465451
_cell_formula_units_Z   8
loop_
 _symmetry_equiv_pos_site_id
 _symmetry_equiv_pos_as_xyz
  1  'x, y, z'
loop_
 _atom_site_type_symbol
 _atom_site_label
 _atom_site_symmetry_multiplicity
 _atom_site_fract_x
 _atom_site_fract_y
 _atom_site_fract_z
 _atom_site_occupancy
  As  As0  1  0.25861900  0.59556600  0.77180200  1
  As  As1  1  0.75861900  0.40443400  0.72819800  1
  As  As2  1  0.74138100  0.40443400  0.22819800  1
  As  As3  1  0.24138100  0.59556600  0.27180200  1
  As  As4  1  0.31569100  0.66007000  0.53873700  1
  As  As5  1  0.81569100  0.33993000  0.96126300  1
  As  As6  1  0.68430900  0.33993000  0.46126300  1
  As  As7  1  0.18430900  0.66007000  0.03873700  1
  As  As8  1  0.80889400  0.90868200  0.22306400  1
  As  As9  1  0.30889400  0.09131800  0.27693600  1
  As  As10  1  0.19110600  0.09131800  0.77693600  1
  As  As11  1  0.69110600  0.90868200  0.72306400  1
  As  As12  1  0.81592300  0.84240800  0.45561900  1
  As  As13  1  0.31592300  0.15759200  0.04438100  1
  As  As14  1  0.18407700  0.15759200  0.54438100  1
  As  As15  1  0.68407700  0.84240800  0.95561900  1
  O  O16  1  0.08665100  0.48856500  0.70183600  1
  O  O17  1  0.58665100  0.51143500  0.79816400  1
  O  O18  1  0.91334900  0.51143500  0.29816400  1
  O  O19  1  0.41334900  0.48856500  0.20183600  1
  O  O20  1  0.35429000  0.69823300  0.66298300  1
  O  O21  1  0.85429000  0.30176700  0.83701700  1
  O  O22  1  0.64571000  0.30176700  0.33701700  1
  O  O23  1  0.14571000  0.69823300  0.16298300  1
  O  O24  1  0.44061200  0.80641100  0.47962000  1
  O  O25  1  0.94061200  0.19358900  0.02038000  1
  O  O26  1  0.55938800  0.19358900  0.52038000  1
  O  O27  1  0.05938800  0.80641100  0.97962000  1
  O  O28  1  0.66891900  0.03024100  0.28526300  1
  O  O29  1  0.16891900  0.96975900  0.21473700  1
  O  O30  1  0.33108100  0.96975900  0.71473700  1
  O  O31  1  0.83108100  0.03024100  0.78526300  1
  O  O32  1  0.83852100  0.79890600  0.33268700  1
  O  O33  1  0.33852100  0.20109400  0.16731300  1
  O  O34  1  0.16147900  0.20109400  0.66731300  1
  O  O35  1  0.66147900  0.79890600  0.83268700  1
  O  O36  1  0.94042600  0.69809200  0.51780900  1
  O  O37  1  0.44042600  0.30190800  0.98219100  1
  O  O38  1  0.05957400  0.30190800  0.48219100  1
  O  O39  1  0.55957400  0.69809200  0.01780900  1
