# generated using pymatgen
data_I3NO9
_symmetry_space_group_name_H-M   'P 1'
_cell_length_a   8.25391000
_cell_length_b   8.41732210
_cell_length_c   8.59467171
_cell_angle_alpha   79.31710669
_cell_angle_beta   61.36023890
_cell_angle_gamma   68.12178939
_symmetry_Int_Tables_number   1
_chemical_formula_structural   I3NO9
_chemical_formula_sum   'I6 N2 O18'
_cell_volume   486.30339639
_cell_formula_units_Z   2
loop_
 _symmetry_equiv_pos_site_id
 _symmetry_equiv_pos_as_xyz
  1  'x, y, z'
loop_
 _atom_site_type_symbol
 _atom_site_label
 _atom_site_symmetry_multiplicity
 _atom_site_fract_x
 _atom_site_fract_y
 _atom_site_fract_z
 _atom_site_occupancy
  I  I0  1  0.20357400  0.29696900  0.20245800  1
  I  I1  1  0.79642600  0.70303100  0.79754200  1
  I  I2  1  0.77900900  0.19615900  0.75644700  1
  I  I3  1  0.22099100  0.80384100  0.24355300  1
  I  I4  1  0.23191000  0.27392800  0.76772800  1
  I  I5  1  0.76809000  0.72607200  0.23227200  1
  N  N6  1  0.72996600  0.13834500  0.18764400  1
  N  N7  1  0.27003400  0.86165500  0.81235600  1
  O  O8  1  0.98565000  0.86614500  0.23742700  1
  O  O9  1  0.01435000  0.13385500  0.76257300  1
  O  O10  1  0.39166500  0.05179100  0.71375700  1
  O  O11  1  0.60833500  0.94820900  0.28624300  1
  O  O12  1  0.63395300  0.24455500  0.28836700  1
  O  O13  1  0.36604700  0.75544500  0.71163300  1
  O  O14  1  0.11541700  0.26531100  0.03009600  1
  O  O15  1  0.88458300  0.73468900  0.96990400  1
  O  O16  1  0.23000100  0.50482800  0.12325300  1
  O  O17  1  0.76999900  0.49517200  0.87674700  1
  O  O18  1  0.04107600  0.63318300  0.61869000  1
  O  O19  1  0.95892400  0.36681700  0.38131000  1
  O  O20  1  0.19425200  0.00427700  0.31923600  1
  O  O21  1  0.80574800  0.99572300  0.68076400  1
  O  O22  1  0.39106200  0.81548500  0.00661300  1
  O  O23  1  0.60893800  0.18451500  0.99338700  1
  O  O24  1  0.57823600  0.63725500  0.28976400  1
  O  O25  1  0.42176400  0.36274500  0.71023600  1
