# generated using pymatgen
data_B10H14C10S(OF2)3
_symmetry_space_group_name_H-M   'P 1'
_cell_length_a   20.75626500
_cell_length_b   8.93301600
_cell_length_c   11.87218509
_cell_angle_alpha   90.00000000
_cell_angle_beta   102.32240536
_cell_angle_gamma   90.00000000
_symmetry_Int_Tables_number   1
_chemical_formula_structural   B10H14C10S(OF2)3
_chemical_formula_sum   'B40 H56 C40 S4 O12 F24'
_cell_volume   2150.58065836
_cell_formula_units_Z   4
loop_
 _symmetry_equiv_pos_site_id
 _symmetry_equiv_pos_as_xyz
  1  'x, y, z'
loop_
 _atom_site_type_symbol
 _atom_site_label
 _atom_site_symmetry_multiplicity
 _atom_site_fract_x
 _atom_site_fract_y
 _atom_site_fract_z
 _atom_site_occupancy
  B  B0  1  0.34879700  0.99617400  0.80997100  1
  B  B1  1  0.65120300  0.49617400  0.69002900  1
  B  B2  1  0.65120300  0.00382600  0.19002900  1
  B  B3  1  0.34879700  0.50382600  0.30997100  1
  B  B4  1  0.32229000  0.84680300  0.71102800  1
  B  B5  1  0.67771000  0.34680300  0.78897200  1
  B  B6  1  0.67771000  0.15319700  0.28897200  1
  B  B7  1  0.32229000  0.65319700  0.21102800  1
  B  B8  1  0.30895000  0.92222000  0.56915500  1
  B  B9  1  0.69105000  0.42222000  0.93084500  1
  B  B10  1  0.69105000  0.07778000  0.43084500  1
  B  B11  1  0.30895000  0.57778000  0.06915500  1
  B  B12  1  0.32824300  0.11559900  0.58020500  1
  B  B13  1  0.67175700  0.61559900  0.91979500  1
  B  B14  1  0.67175700  0.88440100  0.41979500  1
  B  B15  1  0.32824300  0.38440100  0.08020500  1
  B  B16  1  0.42540700  0.06129800  0.78721100  1
  B  B17  1  0.57459300  0.56129800  0.71278900  1
  B  B18  1  0.57459300  0.93870200  0.21278900  1
  B  B19  1  0.42540700  0.43870200  0.28721100  1
  B  B20  1  0.40702000  0.86729500  0.77794200  1
  B  B21  1  0.59298000  0.36729500  0.72205800  1
  B  B22  1  0.59298000  0.13270500  0.22205800  1
  B  B23  1  0.40702000  0.63270500  0.27794200  1
  B  B24  1  0.38279600  0.82001000  0.62795600  1
  B  B25  1  0.61720400  0.32001000  0.87204400  1
  B  B26  1  0.61720400  0.17999000  0.37204400  1
  B  B27  1  0.38279600  0.67999000  0.12795600  1
  B  B28  1  0.38592600  0.98688800  0.54725400  1
  B  B29  1  0.61407400  0.48688800  0.95274600  1
  B  B30  1  0.61407400  0.01311200  0.45274600  1
  B  B31  1  0.38592600  0.51311200  0.04725400  1
  B  B32  1  0.41282700  0.13490200  0.64573700  1
  B  B33  1  0.58717300  0.63490200  0.85426300  1
  B  B34  1  0.58717300  0.86509800  0.35426300  1
  B  B35  1  0.41282700  0.36509800  0.14573700  1
  B  B36  1  0.44718200  0.95269800  0.67541100  1
  B  B37  1  0.55281800  0.45269800  0.82458900  1
  B  B38  1  0.55281800  0.04730200  0.32458900  1
  B  B39  1  0.44718200  0.54730200  0.17541100  1
  H  H40  1  0.33841500  0.25342800  0.75609300  1
  H  H41  1  0.66158500  0.75342800  0.74390700  1
  H  H42  1  0.66158500  0.74657200  0.24390700  1
  H  H43  1  0.33841500  0.24657200  0.25609300  1
  H  H44  1  0.33160800  0.01350300  0.89794500  1
  H  H45  1  0.66839200  0.51350300  0.60205500  1
  H  H46  1  0.66839200  0.98649700  0.10205500  1
  H  H47  1  0.33160800  0.48649700  0.39794500  1
  H  H48  1  0.26290400  0.88082000  0.49840200  1
  H  H49  1  0.73709600  0.38082000  0.00159800  1
  H  H50  1  0.73709600  0.11918000  0.50159800  1
  H  H51  1  0.26290400  0.61918000  0.99840200  1
  H  H52  1  0.29755200  0.21062400  0.52288300  1
  H  H53  1  0.70244800  0.71062400  0.97711700  1
  H  H54  1  0.70244800  0.78937600  0.47711700  1
  H  H55  1  0.29755200  0.28937600  0.02288300  1
  H  H56  1  0.46026900  0.12308300  0.86558700  1
  H  H57  1  0.53973100  0.62308300  0.63441300  1
  H  H58  1  0.53973100  0.87691700  0.13441300  1
  H  H59  1  0.46026900  0.37691700  0.36558700  1
  H  H60  1  0.43246700  0.78173900  0.85095700  1
  H  H61  1  0.56753300  0.28173900  0.64904300  1
  H  H62  1  0.56753300  0.21826100  0.14904300  1
  H  H63  1  0.43246700  0.71826100  0.35095700  1
  H  H64  1  0.39146000  0.69827400  0.59246400  1
  H  H65  1  0.60854000  0.19827400  0.90753600  1
  H  H66  1  0.60854000  0.30172600  0.40753600  1
  H  H67  1  0.39146000  0.80172600  0.09246400  1
  H  H68  1  0.39702200  0.98758500  0.45325900  1
  H  H69  1  0.60297800  0.48758500  0.04674100  1
  H  H70  1  0.60297800  0.01241500  0.54674100  1
  H  H71  1  0.39702200  0.51241500  0.95325900  1
  H  H72  1  0.43891100  0.24754700  0.62643700  1
  H  H73  1  0.56108900  0.74754700  0.87356300  1
  H  H74  1  0.56108900  0.75245300  0.37356300  1
  H  H75  1  0.43891100  0.25245300  0.12643700  1
  H  H76  1  0.50364500  0.92815500  0.67373500  1
  H  H77  1  0.49635500  0.42815500  0.82626500  1
  H  H78  1  0.49635500  0.07184500  0.32626500  1
  H  H79  1  0.50364500  0.57184500  0.17373500  1
  H  H80  1  0.23144000  0.03113500  0.86656900  1
  H  H81  1  0.76856000  0.53113500  0.63343100  1
  H  H82  1  0.76856000  0.96886500  0.13343100  1
  H  H83  1  0.23144000  0.46886500  0.36656900  1
  H  H84  1  0.11511400  0.09381800  0.86469400  1
  H  H85  1  0.88488600  0.59381800  0.63530600  1
  H  H86  1  0.88488600  0.90618200  0.13530600  1
  H  H87  1  0.11511400  0.40618200  0.36469400  1
  H  H88  1  0.08070900  0.18492100  0.50108200  1
  H  H89  1  0.91929100  0.68492100  0.99891800  1
  H  H90  1  0.91929100  0.81507900  0.49891800  1
  H  H91  1  0.08070900  0.31507900  0.00108200  1
  H  H92  1  0.19726000  0.12086700  0.50176900  1
  H  H93  1  0.80274000  0.62086700  0.99823100  1
  H  H94  1  0.80274000  0.87913300  0.49823100  1
  H  H95  1  0.19726000  0.37913300  0.00176900  1
  C  C96  1  0.29226100  0.02724800  0.68079800  1
  C  C97  1  0.70773900  0.52724800  0.81920200  1
  C  C98  1  0.70773900  0.97275200  0.31920200  1
  C  C99  1  0.29226100  0.47275200  0.18079800  1
  C  C100  1  0.35363600  0.14711400  0.72481600  1
  C  C101  1  0.64636400  0.64711400  0.77518400  1
  C  C102  1  0.64636400  0.85288600  0.27518400  1
  C  C103  1  0.35363600  0.35288600  0.22481600  1
  C  C104  1  0.22258000  0.07207100  0.68414600  1
  C  C105  1  0.77742000  0.57207100  0.81585400  1
  C  C106  1  0.77742000  0.92792900  0.31585400  1
  C  C107  1  0.22258000  0.42792900  0.18414600  1
  C  C108  1  0.19917800  0.06548000  0.78619500  1
  C  C109  1  0.80082200  0.56548000  0.71380500  1
  C  C110  1  0.80082200  0.93452000  0.21380500  1
  C  C111  1  0.19917800  0.43452000  0.28619500  1
  C  C112  1  0.13365500  0.10131200  0.78557600  1
  C  C113  1  0.86634500  0.60131200  0.71442400  1
  C  C114  1  0.86634500  0.89868800  0.21442400  1
  C  C115  1  0.13365500  0.39868800  0.28557600  1
  C  C116  1  0.09136400  0.14459200  0.68329300  1
  C  C117  1  0.90863600  0.64459200  0.81670700  1
  C  C118  1  0.90863600  0.85540800  0.31670700  1
  C  C119  1  0.09136400  0.35540800  0.18329300  1
  C  C120  1  0.11428200  0.15207800  0.58108700  1
  C  C121  1  0.88571800  0.65207800  0.91891300  1
  C  C122  1  0.88571800  0.84792200  0.41891300  1
  C  C123  1  0.11428200  0.34792200  0.08108700  1
  C  C124  1  0.17955900  0.11595500  0.58151200  1
  C  C125  1  0.82044100  0.61595500  0.91848800  1
  C  C126  1  0.82044100  0.88404500  0.41848800  1
  C  C127  1  0.17955900  0.38404500  0.08151200  1
  C  C128  1  0.02029300  0.17967400  0.68102600  1
  C  C129  1  0.97970700  0.67967400  0.81897400  1
  C  C130  1  0.97970700  0.82032600  0.31897400  1
  C  C131  1  0.02029300  0.32032600  0.18102600  1
  C  C132  1  0.15811900  0.64640600  0.66999600  1
  C  C133  1  0.84188100  0.14640600  0.83000400  1
  C  C134  1  0.84188100  0.35359400  0.33000400  1
  C  C135  1  0.15811900  0.85359400  0.16999600  1
  S  S136  1  0.24708300  0.59079700  0.69083700  1
  S  S137  1  0.75291700  0.09079700  0.80916300  1
  S  S138  1  0.75291700  0.40920300  0.30916300  1
  S  S139  1  0.24708300  0.90920300  0.19083700  1
  O  O140  1  0.27912600  0.73882600  0.74848600  1
  O  O141  1  0.72087400  0.23882600  0.75151400  1
  O  O142  1  0.72087400  0.26117400  0.25151400  1
  O  O143  1  0.27912600  0.76117400  0.24848600  1
  O  O144  1  0.25732800  0.47536900  0.77648300  1
  O  O145  1  0.74267200  0.97536900  0.72351700  1
  O  O146  1  0.74267200  0.52463100  0.22351700  1
  O  O147  1  0.25732800  0.02463100  0.27648300  1
  O  O148  1  0.26010500  0.56500700  0.57838800  1
  O  O149  1  0.73989500  0.06500700  0.92161200  1
  O  O150  1  0.73989500  0.43499300  0.42161200  1
  O  O151  1  0.26010500  0.93499300  0.07838800  1
  F  F152  1  0.99975600  0.30607300  0.61856200  1
  F  F153  1  0.00024400  0.80607300  0.88143800  1
  F  F154  1  0.00024400  0.69392700  0.38143800  1
  F  F155  1  0.99975600  0.19392700  0.11856200  1
  F  F156  1  0.00850400  0.20100800  0.78887900  1
  F  F157  1  0.99149600  0.70100800  0.71112100  1
  F  F158  1  0.99149600  0.79899200  0.21112100  1
  F  F159  1  0.00850400  0.29899200  0.28887900  1
  F  F160  1  0.97930300  0.06642600  0.63120100  1
  F  F161  1  0.02069700  0.56642600  0.86879900  1
  F  F162  1  0.02069700  0.93357400  0.36879900  1
  F  F163  1  0.97930300  0.43357400  0.13120100  1
  F  F164  1  0.12160000  0.52650500  0.62623400  1
  F  F165  1  0.87840000  0.02650500  0.87376600  1
  F  F166  1  0.87840000  0.47349500  0.37376600  1
  F  F167  1  0.12160000  0.97349500  0.12623400  1
  F  F168  1  0.14402500  0.76144100  0.59537300  1
  F  F169  1  0.85597500  0.26144100  0.90462700  1
  F  F170  1  0.85597500  0.23855900  0.40462700  1
  F  F171  1  0.14402500  0.73855900  0.09537300  1
  F  F172  1  0.14370800  0.68550800  0.77133900  1
  F  F173  1  0.85629200  0.18550900  0.72866100  1
  F  F174  1  0.85629200  0.31449200  0.22866100  1
  F  F175  1  0.14370800  0.81449200  0.27133900  1
