# generated using pymatgen
data_Ba3P3BrO10
_symmetry_space_group_name_H-M   'P 1'
_cell_length_a   7.34917600
_cell_length_b   11.46183100
_cell_length_c   14.22663100
_cell_angle_alpha   90.00000000
_cell_angle_beta   90.00000000
_cell_angle_gamma   90.00000000
_symmetry_Int_Tables_number   1
_chemical_formula_structural   Ba3P3BrO10
_chemical_formula_sum   'Ba12 P12 Br4 O40'
_cell_volume   1198.38045152
_cell_formula_units_Z   4
loop_
 _symmetry_equiv_pos_site_id
 _symmetry_equiv_pos_as_xyz
  1  'x, y, z'
loop_
 _atom_site_type_symbol
 _atom_site_label
 _atom_site_symmetry_multiplicity
 _atom_site_fract_x
 _atom_site_fract_y
 _atom_site_fract_z
 _atom_site_occupancy
  Ba  Ba0  1  0.88005000  0.74258800  0.09387500  1
  Ba  Ba1  1  0.61995000  0.25741200  0.59387500  1
  Ba  Ba2  1  0.38005000  0.75741200  0.90612500  1
  Ba  Ba3  1  0.11995000  0.24258800  0.40612500  1
  Ba  Ba4  1  0.85997000  0.25371700  0.11135900  1
  Ba  Ba5  1  0.64003000  0.74628300  0.61135900  1
  Ba  Ba6  1  0.35997000  0.24628300  0.88864100  1
  Ba  Ba7  1  0.14003000  0.75371700  0.38864100  1
  Ba  Ba8  1  0.62201700  0.99370100  0.32038600  1
  Ba  Ba9  1  0.87798300  0.00629900  0.82038600  1
  Ba  Ba10  1  0.12201700  0.50629900  0.67961400  1
  Ba  Ba11  1  0.37798300  0.49370100  0.17961400  1
  P  P12  1  0.91652100  0.50322100  0.24941700  1
  P  P13  1  0.58347900  0.49677900  0.74941700  1
  P  P14  1  0.41652100  0.99677900  0.75058300  1
  P  P15  1  0.08347900  0.00322100  0.25058300  1
  P  P16  1  0.81450100  0.51066700  0.45907300  1
  P  P17  1  0.68549900  0.48933300  0.95907300  1
  P  P18  1  0.31450100  0.98933300  0.54092700  1
  P  P19  1  0.18549900  0.01066700  0.04092700  1
  P  P20  1  0.38542700  0.51942500  0.47446100  1
  P  P21  1  0.11457300  0.48057500  0.97446100  1
  P  P22  1  0.88542700  0.98057500  0.52553900  1
  P  P23  1  0.61457300  0.01942500  0.02553900  1
  Br  Br24  1  0.47530100  0.76433600  0.20945200  1
  Br  Br25  1  0.02469900  0.23566400  0.70945200  1
  Br  Br26  1  0.97530100  0.73566400  0.79054800  1
  Br  Br27  1  0.52469900  0.26433600  0.29054800  1
  O  O28  1  0.97295500  0.89015300  0.24143700  1
  O  O29  1  0.52704500  0.10984700  0.74143700  1
  O  O30  1  0.47295500  0.60984700  0.75856300  1
  O  O31  1  0.02704500  0.39015300  0.25856300  1
  O  O32  1  0.96157400  0.11065700  0.26546900  1
  O  O33  1  0.53842600  0.88934300  0.76546900  1
  O  O34  1  0.46157400  0.38934300  0.73453100  1
  O  O35  1  0.03842600  0.61065700  0.23453100  1
  O  O36  1  0.84016200  0.10100600  0.48446200  1
  O  O37  1  0.65983800  0.89899400  0.98446200  1
  O  O38  1  0.34016200  0.39899400  0.51553800  1
  O  O39  1  0.15983800  0.60100600  0.01553800  1
  O  O40  1  0.82268700  0.87938300  0.46216500  1
  O  O41  1  0.67731300  0.12061700  0.96216500  1
  O  O42  1  0.32268700  0.62061700  0.53783500  1
  O  O43  1  0.17731300  0.37938300  0.03783500  1
  O  O44  1  0.81031800  0.52966200  0.34862200  1
  O  O45  1  0.68968200  0.47033800  0.84862200  1
  O  O46  1  0.31031800  0.97033800  0.65137800  1
  O  O47  1  0.18968200  0.02966200  0.15137800  1
  O  O48  1  0.73718000  0.50500900  0.67773500  1
  O  O49  1  0.76282000  0.49499100  0.17773500  1
  O  O50  1  0.23718000  0.99499100  0.32226500  1
  O  O51  1  0.26282000  0.00500900  0.82226500  1
  O  O52  1  0.63105000  0.61257500  0.98483500  1
  O  O53  1  0.86895000  0.38742500  0.48483500  1
  O  O54  1  0.13105000  0.88742500  0.01516500  1
  O  O55  1  0.36895000  0.11257500  0.51516500  1
  O  O56  1  0.60835600  0.53459100  0.48535900  1
  O  O57  1  0.89164400  0.46540900  0.98535900  1
  O  O58  1  0.10835600  0.96540900  0.51464100  1
  O  O59  1  0.39164400  0.03459100  0.01464100  1
  O  O60  1  0.42159700  0.89117500  0.49546100  1
  O  O61  1  0.07840300  0.10882500  0.99546100  1
  O  O62  1  0.92159700  0.60882500  0.50453900  1
  O  O63  1  0.57840300  0.39117500  0.00453900  1
  O  O64  1  0.33314700  0.53734100  0.37230200  1
  O  O65  1  0.16685300  0.46265900  0.87230200  1
  O  O66  1  0.83314700  0.96265900  0.62769800  1
  O  O67  1  0.66685300  0.03734100  0.12769800  1
