# generated using pymatgen
data_UVH3O7
_symmetry_space_group_name_H-M   'P 1'
_cell_length_a   6.96615282
_cell_length_b   8.29642200
_cell_length_c   10.58814749
_cell_angle_alpha   90.00000000
_cell_angle_beta   109.43324785
_cell_angle_gamma   90.00000000
_symmetry_Int_Tables_number   1
_chemical_formula_structural   UVH3O7
_chemical_formula_sum   'U4 V4 H12 O28'
_cell_volume   577.07094478
_cell_formula_units_Z   4
loop_
 _symmetry_equiv_pos_site_id
 _symmetry_equiv_pos_as_xyz
  1  'x, y, z'
loop_
 _atom_site_type_symbol
 _atom_site_label
 _atom_site_symmetry_multiplicity
 _atom_site_fract_x
 _atom_site_fract_y
 _atom_site_fract_z
 _atom_site_occupancy
  U  U0  1  0.51572400  0.48255600  0.82355700  1
  U  U1  1  0.48427600  0.98255600  0.67644300  1
  U  U2  1  0.48427600  0.51744400  0.17644300  1
  U  U3  1  0.51572400  0.01744400  0.32355700  1
  V  V4  1  0.63103800  0.64275900  0.56170900  1
  V  V5  1  0.36896200  0.14275900  0.93829100  1
  V  V6  1  0.36896200  0.35724100  0.43829100  1
  V  V7  1  0.63103800  0.85724100  0.06170900  1
  H  H8  1  0.86691800  0.73689500  0.81501400  1
  H  H9  1  0.13308200  0.23689500  0.68498600  1
  H  H10  1  0.13308200  0.26310500  0.18498600  1
  H  H11  1  0.86691800  0.76310500  0.31501400  1
  H  H12  1  0.10136600  0.68746300  0.81020100  1
  H  H13  1  0.89863400  0.18746300  0.68979900  1
  H  H14  1  0.89863400  0.31253700  0.18979900  1
  H  H15  1  0.10136600  0.81253700  0.31020100  1
  H  H16  1  0.07317500  0.70399200  0.95585300  1
  H  H17  1  0.92682500  0.20399200  0.54414700  1
  H  H18  1  0.92682500  0.29600800  0.04414700  1
  H  H19  1  0.07317500  0.79600800  0.45585300  1
  O  O20  1  0.52744200  0.44449300  0.61078000  1
  O  O21  1  0.47255800  0.94449300  0.88922000  1
  O  O22  1  0.47255800  0.55550700  0.38922000  1
  O  O23  1  0.52744200  0.05550700  0.11078000  1
  O  O24  1  0.77592400  0.40354400  0.89793600  1
  O  O25  1  0.22407600  0.90354400  0.60206400  1
  O  O26  1  0.22407600  0.59645600  0.10206400  1
  O  O27  1  0.77592400  0.09645600  0.39793600  1
  O  O28  1  0.86579500  0.62392600  0.57081300  1
  O  O29  1  0.13420500  0.12392600  0.92918700  1
  O  O30  1  0.13420500  0.37607400  0.42918700  1
  O  O31  1  0.86579500  0.87607400  0.07081300  1
  O  O32  1  0.55678400  0.84841300  0.50344100  1
  O  O33  1  0.44321600  0.34841300  0.99655900  1
  O  O34  1  0.44321600  0.15158700  0.49655900  1
  O  O35  1  0.55678400  0.65158700  0.00344100  1
  O  O36  1  0.64315200  0.71275500  0.73678600  1
  O  O37  1  0.35684800  0.21275500  0.76321400  1
  O  O38  1  0.35684800  0.28724500  0.26321400  1
  O  O39  1  0.64315200  0.78724500  0.23678600  1
  O  O40  1  0.25790700  0.56574300  0.76055300  1
  O  O41  1  0.74209300  0.06574300  0.73944700  1
  O  O42  1  0.74209300  0.43425700  0.23944700  1
  O  O43  1  0.25790700  0.93425700  0.26055300  1
  O  O44  1  0.02612800  0.74798700  0.86228700  1
  O  O45  1  0.97387200  0.24798700  0.63771300  1
  O  O46  1  0.97387200  0.25201300  0.13771300  1
  O  O47  1  0.02612800  0.75201300  0.36228700  1
