# generated using pymatgen
data_Tl2PO3
_symmetry_space_group_name_H-M   'P 1'
_cell_length_a   5.51055800
_cell_length_b   12.70165400
_cell_length_c   13.32945400
_cell_angle_alpha   90.00000000
_cell_angle_beta   90.00000000
_cell_angle_gamma   90.00000000
_symmetry_Int_Tables_number   1
_chemical_formula_structural   Tl2PO3
_chemical_formula_sum   'Tl16 P8 O24'
_cell_volume   932.97115388
_cell_formula_units_Z   8
loop_
 _symmetry_equiv_pos_site_id
 _symmetry_equiv_pos_as_xyz
  1  'x, y, z'
loop_
 _atom_site_type_symbol
 _atom_site_label
 _atom_site_symmetry_multiplicity
 _atom_site_fract_x
 _atom_site_fract_y
 _atom_site_fract_z
 _atom_site_occupancy
  Tl  Tl0  1  0.06134600  0.35559800  0.28483800  1
  Tl  Tl1  1  0.43865400  0.85559800  0.71516200  1
  Tl  Tl2  1  0.56134600  0.64440200  0.21516200  1
  Tl  Tl3  1  0.93865400  0.14440200  0.78483800  1
  Tl  Tl4  1  0.93865400  0.64440200  0.71516200  1
  Tl  Tl5  1  0.56134600  0.14440200  0.28483800  1
  Tl  Tl6  1  0.43865400  0.35559800  0.78483800  1
  Tl  Tl7  1  0.06134600  0.85559800  0.21516200  1
  Tl  Tl8  1  0.49726500  0.64846700  0.92029200  1
  Tl  Tl9  1  0.00273500  0.14846700  0.07970800  1
  Tl  Tl10  1  0.99726500  0.35153300  0.57970800  1
  Tl  Tl11  1  0.50273500  0.85153300  0.42029200  1
  Tl  Tl12  1  0.50273500  0.35153300  0.07970800  1
  Tl  Tl13  1  0.99726500  0.85153300  0.92029200  1
  Tl  Tl14  1  0.00273500  0.64846700  0.42029200  1
  Tl  Tl15  1  0.49726500  0.14846700  0.57970800  1
  P  P16  1  0.02351500  0.55533700  0.06404000  1
  P  P17  1  0.47648500  0.05533700  0.93596000  1
  P  P18  1  0.52351500  0.44466300  0.43596000  1
  P  P19  1  0.97648500  0.94466300  0.56404000  1
  P  P20  1  0.97648500  0.44466300  0.93596000  1
  P  P21  1  0.52351500  0.94466300  0.06404000  1
  P  P22  1  0.47648500  0.55533700  0.56404000  1
  P  P23  1  0.02351500  0.05533700  0.43596000  1
  O  O24  1  0.89565200  0.50780500  0.15729600  1
  O  O25  1  0.60434800  0.00780500  0.84270400  1
  O  O26  1  0.39565200  0.49219500  0.34270400  1
  O  O27  1  0.10434800  0.99219500  0.65729600  1
  O  O28  1  0.10434800  0.49219500  0.84270400  1
  O  O29  1  0.39565200  0.99219500  0.15729600  1
  O  O30  1  0.60434800  0.50780500  0.65729600  1
  O  O31  1  0.89565200  0.00780500  0.34270400  1
  O  O32  1  0.91090700  0.66149200  0.03317300  1
  O  O33  1  0.58909300  0.16149200  0.96682700  1
  O  O34  1  0.41090700  0.33850800  0.46682700  1
  O  O35  1  0.08909300  0.83850800  0.53317300  1
  O  O36  1  0.08909300  0.33850800  0.96682700  1
  O  O37  1  0.41090700  0.83850800  0.03317300  1
  O  O38  1  0.58909300  0.66149200  0.53317300  1
  O  O39  1  0.91090700  0.16149200  0.46682700  1
  O  O40  1  0.30501700  0.56040500  0.07821600  1
  O  O41  1  0.19498300  0.06040500  0.92178400  1
  O  O42  1  0.80501700  0.43959500  0.42178400  1
  O  O43  1  0.69498300  0.93959500  0.57821600  1
  O  O44  1  0.69498300  0.43959500  0.92178400  1
  O  O45  1  0.80501700  0.93959500  0.07821600  1
  O  O46  1  0.19498300  0.56040500  0.57821600  1
  O  O47  1  0.30501700  0.06040500  0.42178400  1
