# generated using pymatgen
data_NaAsW2O9
_symmetry_space_group_name_H-M   'P 1'
_cell_length_a   5.00083700
_cell_length_b   8.89981900
_cell_length_c   16.85998200
_cell_angle_alpha   90.00000000
_cell_angle_beta   90.00000000
_cell_angle_gamma   90.00000000
_symmetry_Int_Tables_number   1
_chemical_formula_structural   NaAsW2O9
_chemical_formula_sum   'Na4 As4 W8 O36'
_cell_volume   750.37953323
_cell_formula_units_Z   4
loop_
 _symmetry_equiv_pos_site_id
 _symmetry_equiv_pos_as_xyz
  1  'x, y, z'
loop_
 _atom_site_type_symbol
 _atom_site_label
 _atom_site_symmetry_multiplicity
 _atom_site_fract_x
 _atom_site_fract_y
 _atom_site_fract_z
 _atom_site_occupancy
  Na  Na0  1  0.30353000  0.51541000  0.10903400  1
  Na  Na1  1  0.19647000  0.48459000  0.60903400  1
  Na  Na2  1  0.80353000  0.98459000  0.89096600  1
  Na  Na3  1  0.69647000  0.01541000  0.39096600  1
  As  As4  1  0.63556300  0.22931200  0.22934300  1
  As  As5  1  0.86443700  0.77068800  0.72934300  1
  As  As6  1  0.13556300  0.27068800  0.77065700  1
  As  As7  1  0.36443700  0.72931200  0.27065700  1
  W  W8  1  0.63722800  0.61880000  0.45600700  1
  W  W9  1  0.86277200  0.38120000  0.95600700  1
  W  W10  1  0.13722800  0.88120000  0.54399300  1
  W  W11  1  0.36277200  0.11880000  0.04399300  1
  W  W12  1  0.88500600  0.89298300  0.15562700  1
  W  W13  1  0.61499400  0.10701700  0.65562700  1
  W  W14  1  0.38500600  0.60701700  0.84437300  1
  W  W15  1  0.11499400  0.39298300  0.34437300  1
  O  O16  1  0.96518900  0.24787300  0.39944400  1
  O  O17  1  0.53481100  0.75212700  0.89944400  1
  O  O18  1  0.46518900  0.25212700  0.60055600  1
  O  O19  1  0.03481100  0.74787300  0.10055600  1
  O  O20  1  0.78224300  0.50335300  0.52833900  1
  O  O21  1  0.71775700  0.49664700  0.02833900  1
  O  O22  1  0.28224300  0.99664700  0.47166100  1
  O  O23  1  0.21775700  0.00335300  0.97166100  1
  O  O24  1  0.51330000  0.27111000  0.13793300  1
  O  O25  1  0.98670000  0.72889000  0.63793300  1
  O  O26  1  0.01330000  0.22889000  0.86206700  1
  O  O27  1  0.48670000  0.77111000  0.36206700  1
  O  O28  1  0.72113300  0.04536500  0.24394000  1
  O  O29  1  0.77886700  0.95463500  0.74394000  1
  O  O30  1  0.22113300  0.45463500  0.75606000  1
  O  O31  1  0.27886700  0.54536500  0.25606000  1
  O  O32  1  0.90511200  0.34825400  0.24407900  1
  O  O33  1  0.59488800  0.65174600  0.74407900  1
  O  O34  1  0.40511200  0.15174600  0.75592100  1
  O  O35  1  0.09488800  0.84825400  0.25592100  1
  O  O36  1  0.40456100  0.25480900  0.30440600  1
  O  O37  1  0.09543900  0.74519100  0.80440600  1
  O  O38  1  0.90456100  0.24519100  0.69559400  1
  O  O39  1  0.59543900  0.75480900  0.19559400  1
  O  O40  1  0.86648300  0.55043900  0.36936600  1
  O  O41  1  0.63351700  0.44956100  0.86936600  1
  O  O42  1  0.36648300  0.94956100  0.63063400  1
  O  O43  1  0.13351700  0.05043900  0.13063400  1
  O  O44  1  0.85545400  0.79512600  0.47579800  1
  O  O45  1  0.64454600  0.20487400  0.97579800  1
  O  O46  1  0.35545400  0.70487400  0.52420200  1
  O  O47  1  0.14454600  0.29512600  0.02420200  1
  O  O48  1  0.36310600  0.47643200  0.41847200  1
  O  O49  1  0.13689400  0.52356800  0.91847200  1
  O  O50  1  0.86310600  0.02356800  0.58152800  1
  O  O51  1  0.63689400  0.97643200  0.08152800  1
