# generated using pymatgen
data_MgBi2(IO)8
_symmetry_space_group_name_H-M   'P 1'
_cell_length_a   13.21977700
_cell_length_b   7.47707400
_cell_length_c   14.29909314
_cell_angle_alpha   77.52350473
_cell_angle_beta   90.00000000
_cell_angle_gamma   90.00000000
_symmetry_Int_Tables_number   1
_chemical_formula_structural   MgBi2(IO)8
_chemical_formula_sum   'Mg2 Bi4 I16 O16'
_cell_volume   1380.01966733
_cell_formula_units_Z   2
loop_
 _symmetry_equiv_pos_site_id
 _symmetry_equiv_pos_as_xyz
  1  'x, y, z'
loop_
 _atom_site_type_symbol
 _atom_site_label
 _atom_site_symmetry_multiplicity
 _atom_site_fract_x
 _atom_site_fract_y
 _atom_site_fract_z
 _atom_site_occupancy
  Mg  Mg0  1  0.50000000  0.50000000  0.00000000  1
  Mg  Mg1  1  0.00000000  0.50000000  0.50000000  1
  Bi  Bi2  1  0.96172500  0.22109700  0.07310700  1
  Bi  Bi3  1  0.46172500  0.77890300  0.42689300  1
  Bi  Bi4  1  0.03827500  0.77890300  0.92689300  1
  Bi  Bi5  1  0.53827500  0.22109700  0.57310700  1
  I  I6  1  0.85076700  0.28094900  0.23803600  1
  I  I7  1  0.35076700  0.71905100  0.26196400  1
  I  I8  1  0.14923300  0.71905100  0.76196400  1
  I  I9  1  0.64923300  0.28094900  0.73803600  1
  I  I10  1  0.86720600  0.46065600  0.90846500  1
  I  I11  1  0.36720600  0.53934400  0.59153500  1
  I  I12  1  0.13279400  0.53934400  0.09153500  1
  I  I13  1  0.63279400  0.46065600  0.40846500  1
  I  I14  1  0.15396200  0.11263400  0.94081700  1
  I  I15  1  0.65396200  0.88736600  0.55918300  1
  I  I16  1  0.84603800  0.88736600  0.05918300  1
  I  I17  1  0.34603800  0.11263400  0.44081700  1
  I  I18  1  0.06742400  0.85350300  0.38455500  1
  I  I19  1  0.56742400  0.14649700  0.11544500  1
  I  I20  1  0.93257600  0.14649700  0.61544500  1
  I  I21  1  0.43257600  0.85350300  0.88455500  1
  O  O22  1  0.52330100  0.34183700  0.16213500  1
  O  O23  1  0.02330100  0.65816300  0.33786500  1
  O  O24  1  0.47669900  0.65816300  0.83786500  1
  O  O25  1  0.97669900  0.34183700  0.66213500  1
  O  O26  1  0.41623200  0.27736400  0.98006600  1
  O  O27  1  0.91623200  0.72263600  0.51993400  1
  O  O28  1  0.58376800  0.72263600  0.01993400  1
  O  O29  1  0.08376800  0.27736400  0.48006600  1
  O  O30  1  0.38423000  0.71162600  0.99491600  1
  O  O31  1  0.88423000  0.28837400  0.50508400  1
  O  O32  1  0.61577000  0.28837400  0.00508400  1
  O  O33  1  0.11577000  0.71162600  0.49491600  1
  O  O34  1  0.92400600  0.87609500  0.44588500  1
  O  O35  1  0.42400600  0.12390500  0.05411500  1
  O  O36  1  0.07599400  0.12390500  0.55411500  1
  O  O37  1  0.57599400  0.87609500  0.94588500  1
