# generated using pymatgen
data_Te2Mo3WS6
_symmetry_space_group_name_H-M   'P 1'
_cell_length_a   3.27137264
_cell_length_b   3.27137264
_cell_length_c   37.16712700
_cell_angle_alpha   90.00000000
_cell_angle_beta   90.00000000
_cell_angle_gamma   120.00001301
_symmetry_Int_Tables_number   1
_chemical_formula_structural   Te2Mo3WS6
_chemical_formula_sum   'Te2 Mo3 W1 S6'
_cell_volume   344.46856955
_cell_formula_units_Z   1
loop_
 _symmetry_equiv_pos_site_id
 _symmetry_equiv_pos_as_xyz
  1  'x, y, z'
loop_
 _atom_site_type_symbol
 _atom_site_label
 _atom_site_symmetry_multiplicity
 _atom_site_fract_x
 _atom_site_fract_y
 _atom_site_fract_z
 _atom_site_occupancy
  Te  Te0  1  0.66666700  0.33333300  0.04195100  1
  Te  Te1  1  0.66666700  0.33333300  0.14576900  1
  Mo  Mo2  1  0.33333300  0.66666700  0.09383800  1
  Mo  Mo3  1  0.33333300  0.66666700  0.46965800  1
  Mo  Mo4  1  0.66666700  0.33333300  0.28184900  1
  W  W5  1  0.66666700  0.33333300  0.65755900  1
  S  S6  1  0.33333300  0.66666700  0.32321100  1
  S  S7  1  0.33333300  0.66666700  0.69914500  1
  S  S8  1  0.66666700  0.33333300  0.42829100  1
  S  S9  1  0.66666700  0.33333300  0.51104500  1
  S  S10  1  0.33333300  0.66666700  0.24047500  1
  S  S11  1  0.33333300  0.66666700  0.61595900  1
