# generated using pymatgen
data_CaAl2Si3(HO3)4
_symmetry_space_group_name_H-M   'P 1'
_cell_length_a   9.75501796
_cell_length_b   9.75501796
_cell_length_c   10.04224259
_cell_angle_alpha   83.68304496
_cell_angle_beta   83.68304496
_cell_angle_gamma   140.58163677
_symmetry_Int_Tables_number   1
_chemical_formula_structural   CaAl2Si3(HO3)4
_chemical_formula_sum   'Ca2 Al4 Si6 H8 O24'
_cell_volume   573.59694311
_cell_formula_units_Z   2
loop_
 _symmetry_equiv_pos_site_id
 _symmetry_equiv_pos_as_xyz
  1  'x, y, z'
loop_
 _atom_site_type_symbol
 _atom_site_label
 _atom_site_symmetry_multiplicity
 _atom_site_fract_x
 _atom_site_fract_y
 _atom_site_fract_z
 _atom_site_occupancy
  Ca  Ca0  1  0.83016600  0.11923600  0.56994000  1
  Ca  Ca1  1  0.11923600  0.83016600  0.06994000  1
  Al  Al2  1  0.67151700  0.50649000  0.33687300  1
  Al  Al3  1  0.50649000  0.67151700  0.83687300  1
  Al  Al4  1  0.57096100  0.24797500  0.69871100  1
  Al  Al5  1  0.24797500  0.57096100  0.19871100  1
  Si  Si6  1  0.24648400  0.99328200  0.50193200  1
  Si  Si7  1  0.99328200  0.24648400  0.00193200  1
  Si  Si8  1  0.67656600  0.73705900  0.09406700  1
  Si  Si9  1  0.73705900  0.67656600  0.59406700  1
  Si  Si10  1  0.55927500  0.00241700  0.93557700  1
  Si  Si11  1  0.00241700  0.55927500  0.43557700  1
  H  H12  1  0.41438000  0.31284000  0.05500300  1
  H  H13  1  0.31284000  0.41438000  0.55500300  1
  H  H14  1  0.36632600  0.18862500  0.20544700  1
  H  H15  1  0.18862500  0.36632600  0.70544700  1
  H  H16  1  0.83295500  0.11373900  0.28619600  1
  H  H17  1  0.11373900  0.83295500  0.78619600  1
  H  H18  1  0.60628100  0.85046200  0.35684700  1
  H  H19  1  0.85046200  0.60628100  0.85684700  1
  O  O20  1  0.43271300  0.21385800  0.36160200  1
  O  O21  1  0.21385800  0.43271300  0.86160200  1
  O  O22  1  0.33022100  0.05143100  0.64096100  1
  O  O23  1  0.05143100  0.33022100  0.14096100  1
  O  O24  1  0.90207700  0.01431100  0.02685000  1
  O  O25  1  0.01431100  0.90207700  0.52685000  1
  O  O26  1  0.79369300  0.19479300  0.97720700  1
  O  O27  1  0.19479300  0.79369300  0.47720700  1
  O  O28  1  0.79313100  0.33868700  0.57755200  1
  O  O29  1  0.33868700  0.79313100  0.07755200  1
  O  O30  1  0.61902100  0.57385800  0.47079200  1
  O  O31  1  0.57385800  0.61902100  0.97079200  1
  O  O32  1  0.59658800  0.91759700  0.82152800  1
  O  O33  1  0.91759700  0.59658800  0.32152800  1
  O  O34  1  0.48452500  0.66172700  0.21292800  1
  O  O35  1  0.66172700  0.48452500  0.71292800  1
  O  O36  1  0.76011100  0.65949700  0.16376500  1
  O  O37  1  0.65949700  0.76011100  0.66376500  1
  O  O38  1  0.49317300  0.09984900  0.87007900  1
  O  O39  1  0.09984900  0.49317300  0.37007900  1
  O  O40  1  0.33097100  0.16649200  0.11447600  1
  O  O41  1  0.16649200  0.33097100  0.61447600  1
  O  O42  1  0.71380400  0.99427700  0.37870900  1
  O  O43  1  0.99427700  0.71380400  0.87870900  1
