# generated using pymatgen
data_P3H21C9S2(OF)6
_symmetry_space_group_name_H-M   'P 1'
_cell_length_a   13.75027200
_cell_length_b   11.94593100
_cell_length_c   16.48306709
_cell_angle_alpha   90.00000000
_cell_angle_beta   123.10896625
_cell_angle_gamma   90.00000000
_symmetry_Int_Tables_number   1
_chemical_formula_structural   P3H21C9S2(OF)6
_chemical_formula_sum   'P12 H84 C36 S8 O24 F24'
_cell_volume   2267.89646505
_cell_formula_units_Z   4
loop_
 _symmetry_equiv_pos_site_id
 _symmetry_equiv_pos_as_xyz
  1  'x, y, z'
loop_
 _atom_site_type_symbol
 _atom_site_label
 _atom_site_symmetry_multiplicity
 _atom_site_fract_x
 _atom_site_fract_y
 _atom_site_fract_z
 _atom_site_occupancy
  P  P0  1  0.75237300  0.03534400  0.11777700  1
  P  P1  1  0.75237300  0.46465600  0.61777700  1
  P  P2  1  0.24762700  0.96465600  0.88222300  1
  P  P3  1  0.24762700  0.53534400  0.38222300  1
  P  P4  1  0.67778800  0.13538700  0.18699400  1
  P  P5  1  0.67778800  0.36461300  0.68699400  1
  P  P6  1  0.32221200  0.86461300  0.81300600  1
  P  P7  1  0.32221200  0.63538700  0.31300600  1
  P  P8  1  0.86112800  0.14478300  0.08637500  1
  P  P9  1  0.86112800  0.35521700  0.58637500  1
  P  P10  1  0.13887200  0.85521700  0.91362500  1
  P  P11  1  0.13887200  0.64478300  0.41362500  1
  H  H12  1  0.82293800  0.89842400  0.24335800  1
  H  H13  1  0.82293800  0.60157600  0.74335800  1
  H  H14  1  0.17706200  0.10157600  0.75664200  1
  H  H15  1  0.17706200  0.39842400  0.25664200  1
  H  H16  1  0.92857500  0.01025500  0.28680000  1
  H  H17  1  0.92857500  0.48974500  0.78680000  1
  H  H18  1  0.07142500  0.98974500  0.71320000  1
  H  H19  1  0.07142500  0.51025500  0.21320000  1
  H  H20  1  0.91420500  0.91009800  0.19907100  1
  H  H21  1  0.91420500  0.58990200  0.69907100  1
  H  H22  1  0.08579500  0.08990200  0.80092900  1
  H  H23  1  0.08579500  0.41009800  0.30092900  1
  H  H24  1  0.71869000  0.98788200  0.30091000  1
  H  H25  1  0.71869000  0.51211800  0.80091000  1
  H  H26  1  0.28131000  0.01211800  0.69909000  1
  H  H27  1  0.28131000  0.48788200  0.19909000  1
  H  H28  1  0.68079300  0.11844000  0.33019300  1
  H  H29  1  0.68079300  0.38156000  0.83019300  1
  H  H30  1  0.31920700  0.88156000  0.66980700  1
  H  H31  1  0.31920700  0.61844000  0.16980700  1
  H  H32  1  0.82466500  0.09931200  0.35502400  1
  H  H33  1  0.82466500  0.40068800  0.85502400  1
  H  H34  1  0.17533500  0.90068800  0.64497600  1
  H  H35  1  0.17533500  0.59931200  0.14497600  1
  H  H36  1  0.48939300  0.14329200  0.04054400  1
  H  H37  1  0.48939300  0.35670800  0.54054400  1
  H  H38  1  0.51060700  0.85670800  0.95945600  1
  H  H39  1  0.51060700  0.64329200  0.45945600  1
  H  H40  1  0.48563000  0.15041100  0.14785800  1
  H  H41  1  0.48563000  0.34958900  0.64785800  1
  H  H42  1  0.51437000  0.84958900  0.85214200  1
  H  H43  1  0.51437000  0.65041100  0.35214200  1
  H  H44  1  0.50959300  0.01765500  0.10896600  1
  H  H45  1  0.50959300  0.48234500  0.60896600  1
  H  H46  1  0.49040700  0.98234500  0.89103400  1
  H  H47  1  0.49040700  0.51765500  0.39103400  1
  H  H48  1  0.66079900  0.31994200  0.12404100  1
  H  H49  1  0.66079900  0.18005800  0.62404100  1
  H  H50  1  0.33920100  0.68005800  0.87595900  1
  H  H51  1  0.33920100  0.81994200  0.37595900  1
  H  H52  1  0.78831200  0.30533800  0.24602600  1
  H  H53  1  0.78831200  0.19466200  0.74602600  1
  H  H54  1  0.21168800  0.69466200  0.75397400  1
  H  H55  1  0.21168800  0.80533800  0.25397400  1
  H  H56  1  0.64529700  0.31617900  0.22513400  1
  H  H57  1  0.64529700  0.18382100  0.72513400  1
  H  H58  1  0.35470300  0.68382100  0.77486600  1
  H  H59  1  0.35470300  0.81617900  0.27486600  1
  H  H60  1  0.81175000  0.02135500  0.95450800  1
  H  H61  1  0.81175000  0.47864500  0.45450800  1
  H  H62  1  0.18825000  0.97864500  0.04549200  1
  H  H63  1  0.18825000  0.52135500  0.54549200  1
  H  H64  1  0.86384900  0.15575500  0.94514500  1
  H  H65  1  0.86384900  0.34424500  0.44514500  1
  H  H66  1  0.13615100  0.84424500  0.05485500  1
  H  H67  1  0.13615100  0.65575500  0.55485500  1
  H  H68  1  0.71735800  0.14261600  0.91603800  1
  H  H69  1  0.71735800  0.35738400  0.41603800  1
  H  H70  1  0.28264200  0.85738400  0.08396200  1
  H  H71  1  0.28264200  0.64261600  0.58396200  1
  H  H72  1  0.89154700  0.31595500  0.17221800  1
  H  H73  1  0.89154700  0.18404500  0.67221800  1
  H  H74  1  0.10845300  0.68404500  0.82778200  1
  H  H75  1  0.10845300  0.81595500  0.32778200  1
  H  H76  1  0.76597000  0.32268300  0.04878800  1
  H  H77  1  0.76597000  0.17731700  0.54878800  1
  H  H78  1  0.23403000  0.67731700  0.95121200  1
  H  H79  1  0.23403000  0.82268300  0.45121200  1
  H  H80  1  0.91061900  0.33026700  0.07313800  1
  H  H81  1  0.91061900  0.16973300  0.57313800  1
  H  H82  1  0.08938100  0.66973300  0.92686200  1
  H  H83  1  0.08938100  0.83026700  0.42686200  1
  H  H84  1  0.01832100  0.01241100  0.15142200  1
  H  H85  1  0.01832100  0.48758900  0.65142200  1
  H  H86  1  0.98167900  0.98758900  0.84857800  1
  H  H87  1  0.98167900  0.51241100  0.34857800  1
  H  H88  1  0.04860400  0.12724400  0.23419400  1
  H  H89  1  0.04860400  0.37275600  0.73419400  1
  H  H90  1  0.95139600  0.87275600  0.76580600  1
  H  H91  1  0.95139600  0.62724400  0.26580600  1
  H  H92  1  0.05550800  0.14773700  0.12935300  1
  H  H93  1  0.05550800  0.35226300  0.62935300  1
  H  H94  1  0.94449200  0.85226300  0.87064700  1
  H  H95  1  0.94449200  0.64773700  0.37064700  1
  C  C96  1  0.86785300  0.95841100  0.22437600  1
  C  C97  1  0.86785300  0.54158900  0.72437600  1
  C  C98  1  0.13214700  0.04158900  0.77562400  1
  C  C99  1  0.13214700  0.45841100  0.27562400  1
  C  C100  1  0.73246100  0.07876500  0.30558100  1
  C  C101  1  0.73246100  0.42123500  0.80558100  1
  C  C102  1  0.26753900  0.92123500  0.69441900  1
  C  C103  1  0.26753900  0.57876500  0.19441900  1
  C  C104  1  0.52455800  0.10823400  0.11291000  1
  C  C105  1  0.52455800  0.39176600  0.61291000  1
  C  C106  1  0.47544200  0.89176600  0.88709000  1
  C  C107  1  0.47544200  0.60823400  0.38709000  1
  C  C108  1  0.69618700  0.28509900  0.19644500  1
  C  C109  1  0.69618700  0.21490100  0.69644500  1
  C  C110  1  0.30381300  0.71490100  0.80355500  1
  C  C111  1  0.30381300  0.78509900  0.30355500  1
  C  C112  1  0.80688700  0.11211900  0.96224900  1
  C  C113  1  0.80688700  0.38788100  0.46224900  1
  C  C114  1  0.19311300  0.88788100  0.03775100  1
  C  C115  1  0.19311300  0.61211900  0.53775100  1
  C  C116  1  0.85592800  0.29430100  0.09646400  1
  C  C117  1  0.85592800  0.20569900  0.59646400  1
  C  C118  1  0.14407200  0.70569900  0.90353600  1
  C  C119  1  0.14407200  0.79430100  0.40353600  1
  C  C120  1  0.01130100  0.10283500  0.15865400  1
  C  C121  1  0.01130100  0.39716500  0.65865400  1
  C  C122  1  0.98869900  0.89716500  0.84134600  1
  C  C123  1  0.98869900  0.60283500  0.34134600  1
  C  C124  1  0.79573300  0.67460800  0.01907800  1
  C  C125  1  0.79573300  0.82539200  0.51907800  1
  C  C126  1  0.20426700  0.32539200  0.98092200  1
  C  C127  1  0.20426700  0.17460800  0.48092200  1
  C  C128  1  0.43018300  0.38921100  0.84034400  1
  C  C129  1  0.43018300  0.11078900  0.34034400  1
  C  C130  1  0.56981700  0.61078900  0.15965600  1
  C  C131  1  0.56981700  0.88921100  0.65965600  1
  S  S132  1  0.93918800  0.73630800  0.05566000  1
  S  S133  1  0.93918800  0.76369200  0.55566000  1
  S  S134  1  0.06081200  0.26369200  0.94434000  1
  S  S135  1  0.06081200  0.23630800  0.44434000  1
  S  S136  1  0.48396200  0.24096700  0.85772200  1
  S  S137  1  0.48396200  0.25903300  0.35772200  1
  S  S138  1  0.51603800  0.75903300  0.14227800  1
  S  S139  1  0.51603800  0.74096700  0.64227800  1
  O  O140  1  0.91276300  0.85521400  0.03226300  1
  O  O141  1  0.91276300  0.64478600  0.53226300  1
  O  O142  1  0.08723700  0.14478600  0.96773700  1
  O  O143  1  0.08723700  0.35521400  0.46773700  1
  O  O144  1  0.97183900  0.67593800  0.99704000  1
  O  O145  1  0.97183900  0.82406200  0.49704000  1
  O  O146  1  0.02816100  0.32406200  0.00296000  1
  O  O147  1  0.02816100  0.17593800  0.50296000  1
  O  O148  1  0.01209700  0.71306300  0.15991500  1
  O  O149  1  0.01209700  0.78693700  0.65991500  1
  O  O150  1  0.98790300  0.28693700  0.84008500  1
  O  O151  1  0.98790300  0.21306300  0.34008500  1
  O  O152  1  0.52360200  0.23275900  0.79174700  1
  O  O153  1  0.52360200  0.26724100  0.29174700  1
  O  O154  1  0.47639800  0.76724100  0.20825300  1
  O  O155  1  0.47639800  0.73275900  0.70825300  1
  O  O156  1  0.38306200  0.17292900  0.83261000  1
  O  O157  1  0.38306200  0.32707100  0.33261000  1
  O  O158  1  0.61693800  0.82707100  0.16739000  1
  O  O159  1  0.61693800  0.67292900  0.66739000  1
  O  O160  1  0.57775800  0.23788900  0.96065300  1
  O  O161  1  0.57775800  0.26211100  0.46065300  1
  O  O162  1  0.42224200  0.76211100  0.03934700  1
  O  O163  1  0.42224200  0.73788900  0.53934700  1
  F  F164  1  0.80685600  0.56359600  0.04206900  1
  F  F165  1  0.80685600  0.93640400  0.54206900  1
  F  F166  1  0.19314400  0.43640400  0.95793100  1
  F  F167  1  0.19314400  0.06359600  0.45793100  1
  F  F168  1  0.75308000  0.72719400  0.06640400  1
  F  F169  1  0.75308000  0.77280600  0.56640400  1
  F  F170  1  0.24692000  0.27280600  0.93359600  1
  F  F171  1  0.24692000  0.22719400  0.43359600  1
  F  F172  1  0.71692000  0.68445700  0.92263800  1
  F  F173  1  0.71692000  0.81554300  0.42263800  1
  F  F174  1  0.28308000  0.31554300  0.07736200  1
  F  F175  1  0.28308000  0.18445700  0.57736200  1
  F  F176  1  0.39701200  0.41600200  0.90178100  1
  F  F177  1  0.39701200  0.08399800  0.40178100  1
  F  F178  1  0.60298800  0.58399800  0.09821900  1
  F  F179  1  0.60298800  0.91600200  0.59821900  1
  F  F180  1  0.51507900  0.46239000  0.85662100  1
  F  F181  1  0.51507900  0.03761000  0.35662100  1
  F  F182  1  0.48492100  0.53761000  0.14337900  1
  F  F183  1  0.48492100  0.96239000  0.64337900  1
  F  F184  1  0.33770900  0.40608500  0.74813100  1
  F  F185  1  0.33770900  0.09391500  0.24813100  1
  F  F186  1  0.66229100  0.59391500  0.25186900  1
  F  F187  1  0.66229100  0.90608500  0.75186900  1
