# generated using pymatgen
data_TeMoS
_symmetry_space_group_name_H-M   'P 1'
_cell_length_a   3.35923985
_cell_length_b   3.35923985
_cell_length_c   38.27030800
_cell_angle_alpha   90.00000000
_cell_angle_beta   90.00000000
_cell_angle_gamma   119.99999697
_symmetry_Int_Tables_number   1
_chemical_formula_structural   TeMoS
_chemical_formula_sum   'Te4 Mo4 S4'
_cell_volume   374.00260630
_cell_formula_units_Z   4
loop_
 _symmetry_equiv_pos_site_id
 _symmetry_equiv_pos_as_xyz
  1  'x, y, z'
loop_
 _atom_site_type_symbol
 _atom_site_label
 _atom_site_symmetry_multiplicity
 _atom_site_fract_x
 _atom_site_fract_y
 _atom_site_fract_z
 _atom_site_occupancy
  Te  Te0  1  0.33333300  0.66666700  0.33128000  1
  Te  Te1  1  0.66666700  0.33333300  0.66872000  1
  Te  Te2  1  0.66666700  0.33333300  0.76766400  1
  Te  Te3  1  0.33333300  0.66666700  0.23233600  1
  Mo  Mo4  1  0.33333300  0.66666700  0.71816500  1
  Mo  Mo5  1  0.33333300  0.66666700  0.09393000  1
  Mo  Mo6  1  0.66666700  0.33333300  0.90607000  1
  Mo  Mo7  1  0.66666700  0.33333300  0.28183500  1
  S  S8  1  0.33333300  0.66666700  0.94564500  1
  S  S9  1  0.66666700  0.33333300  0.05435500  1
  S  S10  1  0.66666700  0.33333300  0.13350200  1
  S  S11  1  0.33333300  0.66666700  0.86649800  1
