# generated using pymatgen
data_SiP4PdPbO14
_symmetry_space_group_name_H-M   'P 1'
_cell_length_a   17.40823600
_cell_length_b   4.65748900
_cell_length_c   6.53496506
_cell_angle_alpha   77.94578932
_cell_angle_beta   90.00000000
_cell_angle_gamma   90.00000000
_symmetry_Int_Tables_number   1
_chemical_formula_structural   SiP4PdPbO14
_chemical_formula_sum   'Si2 P8 Pd2 Pb2 O28'
_cell_volume   518.16338707
_cell_formula_units_Z   2
loop_
 _symmetry_equiv_pos_site_id
 _symmetry_equiv_pos_as_xyz
  1  'x, y, z'
loop_
 _atom_site_type_symbol
 _atom_site_label
 _atom_site_symmetry_multiplicity
 _atom_site_fract_x
 _atom_site_fract_y
 _atom_site_fract_z
 _atom_site_occupancy
  Si  Si0  1  0.00000000  0.00000000  0.00000000  1
  Si  Si1  1  0.50000000  0.00000000  0.00000000  1
  P  P2  1  0.12280700  0.11652300  0.64700000  1
  P  P3  1  0.62280700  0.88347700  0.35300000  1
  P  P4  1  0.87719300  0.88347700  0.35300000  1
  P  P5  1  0.37719300  0.11652300  0.64700000  1
  P  P6  1  0.08632500  0.43167500  0.22239400  1
  P  P7  1  0.58632500  0.56832500  0.77760600  1
  P  P8  1  0.91367500  0.56832500  0.77760600  1
  P  P9  1  0.41367500  0.43167500  0.22239400  1
  Pd  Pd10  1  0.25000000  0.61886000  0.64258000  1
  Pd  Pd11  1  0.75000000  0.38114000  0.35742000  1
  Pb  Pb12  1  0.25000000  0.10286300  0.13960200  1
  Pb  Pb13  1  0.75000000  0.89713700  0.86039800  1
  O  O14  1  0.07135100  0.32226500  0.47196200  1
  O  O15  1  0.57135100  0.67773500  0.52803800  1
  O  O16  1  0.92864900  0.67773500  0.52803800  1
  O  O17  1  0.42864900  0.32226500  0.47196200  1
  O  O18  1  0.06765200  0.93281500  0.80419500  1
  O  O19  1  0.56765200  0.06718500  0.19580500  1
  O  O20  1  0.93234800  0.06718500  0.19580500  1
  O  O21  1  0.43234800  0.93281500  0.80419500  1
  O  O22  1  0.16970000  0.92736800  0.52427800  1
  O  O23  1  0.66970000  0.07263200  0.47572200  1
  O  O24  1  0.83030000  0.07263200  0.47572200  1
  O  O25  1  0.33030000  0.92736800  0.52427800  1
  O  O26  1  0.17138500  0.30917300  0.76318300  1
  O  O27  1  0.67138500  0.69082700  0.23681700  1
  O  O28  1  0.82861500  0.69082700  0.23681700  1
  O  O29  1  0.32861500  0.30917300  0.76318300  1
  O  O30  1  0.07457800  0.15944100  0.12544200  1
  O  O31  1  0.57457800  0.84055900  0.87455800  1
  O  O32  1  0.92542200  0.84055900  0.87455800  1
  O  O33  1  0.42542200  0.15944100  0.12544200  1
  O  O34  1  0.02246400  0.65583300  0.15942800  1
  O  O35  1  0.52246400  0.34416700  0.84057200  1
  O  O36  1  0.97753600  0.34416700  0.84057200  1
  O  O37  1  0.47753600  0.65583300  0.15942800  1
  O  O38  1  0.16887900  0.53419300  0.18782800  1
  O  O39  1  0.66887900  0.46580700  0.81217200  1
  O  O40  1  0.83112100  0.46580700  0.81217200  1
  O  O41  1  0.33112100  0.53419300  0.18782800  1
