# generated using pymatgen
data_CaZrSi6H4O17
_symmetry_space_group_name_H-M   'P 1'
_cell_length_a   7.95903142
_cell_length_b   10.07918865
_cell_length_c   10.07918865
_cell_angle_alpha   90.60310360
_cell_angle_beta   103.37917028
_cell_angle_gamma   103.37917028
_symmetry_Int_Tables_number   1
_chemical_formula_structural   CaZrSi6H4O17
_chemical_formula_sum   'Ca2 Zr2 Si12 H8 O34'
_cell_volume   763.51006514
_cell_formula_units_Z   2
loop_
 _symmetry_equiv_pos_site_id
 _symmetry_equiv_pos_as_xyz
  1  'x, y, z'
loop_
 _atom_site_type_symbol
 _atom_site_label
 _atom_site_symmetry_multiplicity
 _atom_site_fract_x
 _atom_site_fract_y
 _atom_site_fract_z
 _atom_site_occupancy
  Ca  Ca0  1  0.04724900  0.75469700  0.75469700  1
  Ca  Ca1  1  0.95275100  0.24530300  0.24530300  1
  Zr  Zr2  1  0.00000000  0.00000000  0.50000000  1
  Zr  Zr3  1  0.00000000  0.50000000  0.00000000  1
  Si  Si4  1  0.33785200  0.57353700  0.80107100  1
  Si  Si5  1  0.33785200  0.80107100  0.57353700  1
  Si  Si6  1  0.66214800  0.42646300  0.19892900  1
  Si  Si7  1  0.66214800  0.19892900  0.42646300  1
  Si  Si8  1  0.73010900  0.73037500  0.95019000  1
  Si  Si9  1  0.73010900  0.95019000  0.73037500  1
  Si  Si10  1  0.26989100  0.26962500  0.04981000  1
  Si  Si11  1  0.26989100  0.04981000  0.26962500  1
  Si  Si12  1  0.30261300  0.26129400  0.74613100  1
  Si  Si13  1  0.30261300  0.74613100  0.26129400  1
  Si  Si14  1  0.69738700  0.73870600  0.25386900  1
  Si  Si15  1  0.69738700  0.25386900  0.73870600  1
  H  H16  1  0.82899500  0.49008400  0.60051100  1
  H  H17  1  0.82899500  0.60051100  0.49008400  1
  H  H18  1  0.17100500  0.50991600  0.39948900  1
  H  H19  1  0.17100500  0.39948900  0.50991600  1
  H  H20  1  0.28167300  0.01234400  0.90377800  1
  H  H21  1  0.28167300  0.90377800  0.01234400  1
  H  H22  1  0.71832700  0.98765600  0.09622200  1
  H  H23  1  0.71832700  0.09622200  0.98765600  1
  O  O24  1  0.50000000  0.23376400  0.76623600  1
  O  O25  1  0.50000000  0.76623600  0.23376400  1
  O  O26  1  0.53803500  0.62134900  0.89750400  1
  O  O27  1  0.53803500  0.89750400  0.62134900  1
  O  O28  1  0.46196500  0.37865100  0.10249600  1
  O  O29  1  0.46196500  0.10249600  0.37865100  1
  O  O30  1  0.89060500  0.66757800  0.92516700  1
  O  O31  1  0.89060500  0.92516700  0.66757800  1
  O  O32  1  0.10939500  0.33242200  0.07483300  1
  O  O33  1  0.10939500  0.07483300  0.33242200  1
  O  O34  1  0.18407000  0.57588200  0.88063200  1
  O  O35  1  0.18407000  0.88063200  0.57588200  1
  O  O36  1  0.81593000  0.42411800  0.11936800  1
  O  O37  1  0.81593000  0.11936800  0.42411800  1
  O  O38  1  0.30786200  0.68130900  0.68130900  1
  O  O39  1  0.69213800  0.31869100  0.31869100  1
  O  O40  1  0.72863800  0.86990700  0.86990700  1
  O  O41  1  0.27136200  0.13009300  0.13009300  1
  O  O42  1  0.75570900  0.77802300  0.11028600  1
  O  O43  1  0.75570900  0.11028600  0.77802300  1
  O  O44  1  0.24429100  0.22197700  0.88971400  1
  O  O45  1  0.24429100  0.88971400  0.22197700  1
  O  O46  1  0.31312500  0.42465200  0.72314100  1
  O  O47  1  0.31312500  0.72314100  0.42465200  1
  O  O48  1  0.68687500  0.57534800  0.27685900  1
  O  O49  1  0.68687500  0.27685900  0.57534800  1
  O  O50  1  0.16226700  0.17015100  0.62023200  1
  O  O51  1  0.16226700  0.62023200  0.17015100  1
  O  O52  1  0.83773300  0.82984900  0.37976800  1
  O  O53  1  0.83773300  0.37976800  0.82984900  1
  O  O54  1  0.85994900  0.58816600  0.58816600  1
  O  O55  1  0.14005100  0.41183400  0.41183400  1
  O  O56  1  0.26676500  0.91418700  0.91418700  1
  O  O57  1  0.73323500  0.08581300  0.08581300  1
