# generated using pymatgen
data_Te2Mo3W(SeS2)2
_symmetry_space_group_name_H-M   'P 1'
_cell_length_a   3.31048019
_cell_length_b   3.31048019
_cell_length_c   37.26839200
_cell_angle_alpha   90.00000000
_cell_angle_beta   90.00000000
_cell_angle_gamma   120.00000383
_symmetry_Int_Tables_number   1
_chemical_formula_structural   Te2Mo3W(SeS2)2
_chemical_formula_sum   'Te2 Mo3 W1 Se2 S4'
_cell_volume   353.71482057
_cell_formula_units_Z   1
loop_
 _symmetry_equiv_pos_site_id
 _symmetry_equiv_pos_as_xyz
  1  'x, y, z'
loop_
 _atom_site_type_symbol
 _atom_site_label
 _atom_site_symmetry_multiplicity
 _atom_site_fract_x
 _atom_site_fract_y
 _atom_site_fract_z
 _atom_site_occupancy
  Te  Te0  1  0.66666700  0.33333300  0.04259000  1
  Te  Te1  1  0.66666700  0.33333300  0.14523900  1
  Mo  Mo2  1  0.33333300  0.66666700  0.09390000  1
  Mo  Mo3  1  0.33333300  0.66666700  0.46965200  1
  Mo  Mo4  1  0.66666700  0.33333300  0.28180900  1
  W  W5  1  0.66666700  0.33333300  0.65754300  1
  Se  Se6  1  0.66666700  0.33333300  0.42465300  1
  Se  Se7  1  0.66666700  0.33333300  0.51467600  1
  S  S8  1  0.33333300  0.66666700  0.32283900  1
  S  S9  1  0.33333300  0.66666700  0.69866100  1
  S  S10  1  0.33333300  0.66666700  0.24077100  1
  S  S11  1  0.33333300  0.66666700  0.61641600  1
