# generated using pymatgen
data_YV(TeO4)2
_symmetry_space_group_name_H-M   'P 1'
_cell_length_a   5.52210826
_cell_length_b   5.52210826
_cell_length_c   21.62560400
_cell_angle_alpha   90.00000000
_cell_angle_beta   90.00000000
_cell_angle_gamma   95.90898191
_symmetry_Int_Tables_number   1
_chemical_formula_structural   YV(TeO4)2
_chemical_formula_sum   'Y4 V4 Te8 O32'
_cell_volume   655.94040871
_cell_formula_units_Z   4
loop_
 _symmetry_equiv_pos_site_id
 _symmetry_equiv_pos_as_xyz
  1  'x, y, z'
loop_
 _atom_site_type_symbol
 _atom_site_label
 _atom_site_symmetry_multiplicity
 _atom_site_fract_x
 _atom_site_fract_y
 _atom_site_fract_z
 _atom_site_occupancy
  Y  Y0  1  0.75143300  0.75143300  0.00000000  1
  Y  Y1  1  0.24856700  0.24856700  0.00000000  1
  Y  Y2  1  0.74856700  0.74856700  0.50000000  1
  Y  Y3  1  0.25143300  0.25143300  0.50000000  1
  V  V4  1  0.75534900  0.74465100  0.75000000  1
  V  V5  1  0.25534900  0.24465100  0.75000000  1
  V  V6  1  0.24465100  0.25534900  0.25000000  1
  V  V7  1  0.74465100  0.75534900  0.25000000  1
  Te  Te8  1  0.31140200  0.68859800  0.88857300  1
  Te  Te9  1  0.68859800  0.31140200  0.11142700  1
  Te  Te10  1  0.82180000  0.17820000  0.86639400  1
  Te  Te11  1  0.17820000  0.82180000  0.13360600  1
  Te  Te12  1  0.32180000  0.67820000  0.63360600  1
  Te  Te13  1  0.67820000  0.32180000  0.36639400  1
  Te  Te14  1  0.81140200  0.18859800  0.61142700  1
  Te  Te15  1  0.18859800  0.81140200  0.38857300  1
  O  O16  1  0.04717900  0.55962600  0.94037500  1
  O  O17  1  0.44037400  0.95282100  0.94037500  1
  O  O18  1  0.95282100  0.44037400  0.05962500  1
  O  O19  1  0.55962600  0.04717900  0.05962500  1
  O  O20  1  0.51577300  0.48422700  0.93247700  1
  O  O21  1  0.48422700  0.51577300  0.06752300  1
  O  O22  1  0.93507700  0.06492300  0.94201900  1
  O  O23  1  0.06492300  0.93507700  0.05798100  1
  O  O24  1  0.75912900  0.84431700  0.83615200  1
  O  O25  1  0.15568300  0.24087100  0.83615200  1
  O  O26  1  0.24087100  0.15568300  0.16384800  1
  O  O27  1  0.84431700  0.75912900  0.16384800  1
  O  O28  1  0.43507700  0.56492300  0.55798100  1
  O  O29  1  0.56492300  0.43507700  0.44201900  1
  O  O30  1  0.65568300  0.74087100  0.66384800  1
  O  O31  1  0.25912900  0.34431700  0.66384800  1
  O  O32  1  0.34431700  0.25912900  0.33615200  1
  O  O33  1  0.74087100  0.65568300  0.33615200  1
  O  O34  1  0.54717900  0.05962600  0.55962500  1
  O  O35  1  0.94037400  0.45282100  0.55962500  1
  O  O36  1  0.45282100  0.94037400  0.44037500  1
  O  O37  1  0.05962600  0.54717900  0.44037500  1
  O  O38  1  0.01577300  0.98422700  0.56752300  1
  O  O39  1  0.98422700  0.01577300  0.43247700  1
  O  O40  1  0.47055600  0.52944400  0.76632000  1
  O  O41  1  0.52944400  0.47055600  0.23368000  1
  O  O42  1  0.45691900  0.04308100  0.75000000  1
  O  O43  1  0.95691900  0.54308100  0.75000000  1
  O  O44  1  0.54308100  0.95691900  0.25000000  1
  O  O45  1  0.04308100  0.45691900  0.25000000  1
  O  O46  1  0.97055600  0.02944400  0.73368000  1
  O  O47  1  0.02944400  0.97055600  0.26632000  1
