# generated using pymatgen
data_AgH6CSN3
_symmetry_space_group_name_H-M   'P 1'
_cell_length_a   7.27444600
_cell_length_b   7.70700308
_cell_length_c   13.33725852
_cell_angle_alpha   96.59944747
_cell_angle_beta   90.00000000
_cell_angle_gamma   118.16013108
_symmetry_Int_Tables_number   1
_chemical_formula_structural   AgH6CSN3
_chemical_formula_sum   'Ag4 H24 C4 S4 N12'
_cell_volume   653.60847455
_cell_formula_units_Z   4
loop_
 _symmetry_equiv_pos_site_id
 _symmetry_equiv_pos_as_xyz
  1  'x, y, z'
loop_
 _atom_site_type_symbol
 _atom_site_label
 _atom_site_symmetry_multiplicity
 _atom_site_fract_x
 _atom_site_fract_y
 _atom_site_fract_z
 _atom_site_occupancy
  Ag  Ag0  1  0.96441400  0.89104500  0.84984300  1
  Ag  Ag1  1  0.07337000  0.10895500  0.65015700  1
  Ag  Ag2  1  0.03558600  0.10895500  0.15015700  1
  Ag  Ag3  1  0.92663000  0.89104500  0.34984300  1
  H  H4  1  0.13161900  0.62502200  0.82795600  1
  H  H5  1  0.50659800  0.37497800  0.67204400  1
  H  H6  1  0.86838100  0.37497800  0.17204400  1
  H  H7  1  0.49340200  0.62502200  0.32795600  1
  H  H8  1  0.93131900  0.52977700  0.89971300  1
  H  H9  1  0.40154200  0.47022300  0.60028700  1
  H  H10  1  0.06868100  0.47022300  0.10028700  1
  H  H11  1  0.59845800  0.52977700  0.39971300  1
  H  H12  1  0.16188100  0.70935900  0.94998700  1
  H  H13  1  0.45252200  0.29064100  0.55001300  1
  H  H14  1  0.83811900  0.29064100  0.05001300  1
  H  H15  1  0.54747800  0.70935900  0.44998700  1
  H  H16  1  0.52917500  0.67613300  0.86531300  1
  H  H17  1  0.85304200  0.32386700  0.63468700  1
  H  H18  1  0.47082500  0.32386700  0.13468700  1
  H  H19  1  0.14695800  0.67613300  0.36531300  1
  H  H20  1  0.56345100  0.78654500  0.76169000  1
  H  H21  1  0.77690600  0.21345500  0.73831000  1
  H  H22  1  0.43654900  0.21345500  0.23831000  1
  H  H23  1  0.22309400  0.78654500  0.26169000  1
  H  H24  1  0.59894300  0.91735300  0.87409100  1
  H  H25  1  0.68159000  0.08264700  0.62590900  1
  H  H26  1  0.40105700  0.08264700  0.12590900  1
  H  H27  1  0.31841000  0.91735300  0.37409100  1
  C  C28  1  0.45724700  0.23119300  0.89134900  1
  C  C29  1  0.22605400  0.76880700  0.60865100  1
  C  C30  1  0.54275300  0.76880700  0.10865100  1
  C  C31  1  0.77394600  0.23119300  0.39134900  1
  S  S32  1  0.23966700  0.24692000  0.88319200  1
  S  S33  1  0.99274700  0.75308000  0.61680800  1
  S  S34  1  0.76033300  0.75308000  0.11680800  1
  S  S35  1  0.00725300  0.24692000  0.38319200  1
  N  N36  1  0.61794800  0.22712300  0.89772400  1
  N  N37  1  0.39082500  0.77287700  0.60227600  1
  N  N38  1  0.38205200  0.77287700  0.10227600  1
  N  N39  1  0.60917500  0.22712300  0.39772400  1
  N  N40  1  0.06032900  0.65840100  0.88731700  1
  N  N41  1  0.40192800  0.34159900  0.61268300  1
  N  N42  1  0.93967100  0.34159900  0.11268300  1
  N  N43  1  0.59807200  0.65840100  0.38731700  1
  N  N44  1  0.61724800  0.80447900  0.83509300  1
  N  N45  1  0.81276800  0.19552100  0.66490700  1
  N  N46  1  0.38275200  0.19552100  0.16490700  1
  N  N47  1  0.18723200  0.80447900  0.33509300  1
