# generated using pymatgen
data_NaH24Ru(C2N5)4
_symmetry_space_group_name_H-M   'P 1'
_cell_length_a   13.62444701
_cell_length_b   13.62444701
_cell_length_c   13.62444701
_cell_angle_alpha   90.00000000
_cell_angle_beta   90.00000000
_cell_angle_gamma   90.00000000
_symmetry_Int_Tables_number   1
_chemical_formula_structural   NaH24Ru(C2N5)4
_chemical_formula_sum   'Na4 H96 Ru4 C32 N80'
_cell_volume   2529.04555590
_cell_formula_units_Z   4
loop_
 _symmetry_equiv_pos_site_id
 _symmetry_equiv_pos_as_xyz
  1  'x, y, z'
loop_
 _atom_site_type_symbol
 _atom_site_label
 _atom_site_symmetry_multiplicity
 _atom_site_fract_x
 _atom_site_fract_y
 _atom_site_fract_z
 _atom_site_occupancy
  Na  Na0  1  0.50000000  0.50000000  0.50000000  1
  Na  Na1  1  0.50000000  -0.00000000  -0.00000000  1
  Na  Na2  1  0.00000000  0.50000000  -0.00000000  1
  Na  Na3  1  0.00000000  -0.00000000  0.50000000  1
  H  H4  1  0.28677870  0.20616849  0.60149706  1
  H  H5  1  0.71322130  0.70616849  0.89850294  1
  H  H6  1  0.21322130  0.79383151  0.10149706  1
  H  H7  1  0.78677870  0.29383151  0.39850294  1
  H  H8  1  0.60149706  0.28677870  0.20616849  1
  H  H9  1  0.89850294  0.71322130  0.70616849  1
  H  H10  1  0.10149706  0.21322130  0.79383151  1
  H  H11  1  0.39850294  0.78677870  0.29383151  1
  H  H12  1  0.20616849  0.60149706  0.28677870  1
  H  H13  1  0.70616849  0.89850294  0.71322130  1
  H  H14  1  0.79383151  0.10149706  0.21322130  1
  H  H15  1  0.29383151  0.39850294  0.78677870  1
  H  H16  1  0.71322130  0.79383151  0.39850294  1
  H  H17  1  0.28677870  0.29383151  0.10149706  1
  H  H18  1  0.78677870  0.20616849  0.89850294  1
  H  H19  1  0.21322130  0.70616849  0.60149706  1
  H  H20  1  0.39850294  0.71322130  0.79383151  1
  H  H21  1  0.10149706  0.28677870  0.29383151  1
  H  H22  1  0.89850294  0.78677870  0.20616849  1
  H  H23  1  0.60149706  0.21322130  0.70616849  1
  H  H24  1  0.79383151  0.39850294  0.71322130  1
  H  H25  1  0.29383151  0.10149706  0.28677870  1
  H  H26  1  0.20616849  0.89850294  0.78677870  1
  H  H27  1  0.70616849  0.60149706  0.21322130  1
  H  H28  1  0.17312836  0.15421995  0.64420311  1
  H  H29  1  0.82687164  0.65421995  0.85579689  1
  H  H30  1  0.32687164  0.84578005  0.14420311  1
  H  H31  1  0.67312836  0.34578005  0.35579689  1
  H  H32  1  0.64420311  0.17312836  0.15421995  1
  H  H33  1  0.85579689  0.82687164  0.65421995  1
  H  H34  1  0.14420311  0.32687164  0.84578005  1
  H  H35  1  0.35579689  0.67312836  0.34578005  1
  H  H36  1  0.15421995  0.64420311  0.17312836  1
  H  H37  1  0.65421995  0.85579689  0.82687164  1
  H  H38  1  0.84578005  0.14420311  0.32687164  1
  H  H39  1  0.34578005  0.35579689  0.67312836  1
  H  H40  1  0.82687164  0.84578005  0.35579689  1
  H  H41  1  0.17312836  0.34578005  0.14420311  1
  H  H42  1  0.67312836  0.15421995  0.85579689  1
  H  H43  1  0.32687164  0.65421995  0.64420311  1
  H  H44  1  0.35579689  0.82687164  0.84578005  1
  H  H45  1  0.14420311  0.17312836  0.34578005  1
  H  H46  1  0.85579689  0.67312836  0.15421995  1
  H  H47  1  0.64420311  0.32687164  0.65421995  1
  H  H48  1  0.84578005  0.35579689  0.82687164  1
  H  H49  1  0.34578005  0.14420311  0.17312836  1
  H  H50  1  0.15421995  0.85579689  0.67312836  1
  H  H51  1  0.65421995  0.64420311  0.32687164  1
  H  H52  1  0.17316051  0.27241235  0.58473126  1
  H  H53  1  0.82683949  0.77241235  0.91526874  1
  H  H54  1  0.32683949  0.72758765  0.08473126  1
  H  H55  1  0.67316051  0.22758765  0.41526874  1
  H  H56  1  0.58473126  0.17316051  0.27241235  1
  H  H57  1  0.91526874  0.82683949  0.77241235  1
  H  H58  1  0.08473126  0.32683949  0.72758765  1
  H  H59  1  0.41526874  0.67316051  0.22758765  1
  H  H60  1  0.27241235  0.58473126  0.17316051  1
  H  H61  1  0.77241235  0.91526874  0.82683949  1
  H  H62  1  0.72758765  0.08473126  0.32683949  1
  H  H63  1  0.22758765  0.41526874  0.67316051  1
  H  H64  1  0.82683949  0.72758765  0.41526874  1
  H  H65  1  0.17316051  0.22758765  0.08473126  1
  H  H66  1  0.67316051  0.27241235  0.91526874  1
  H  H67  1  0.32683949  0.77241235  0.58473126  1
  H  H68  1  0.41526874  0.82683949  0.72758765  1
  H  H69  1  0.08473126  0.17316051  0.22758765  1
  H  H70  1  0.91526874  0.67316051  0.27241235  1
  H  H71  1  0.58473126  0.32683949  0.77241235  1
  H  H72  1  0.72758765  0.41526874  0.82683949  1
  H  H73  1  0.22758765  0.08473126  0.17316051  1
  H  H74  1  0.27241235  0.91526874  0.67316051  1
  H  H75  1  0.77241235  0.58473126  0.32683949  1
  H  H76  1  0.29790462  0.24287293  0.86398436  1
  H  H77  1  0.70209538  0.74287293  0.63601564  1
  H  H78  1  0.20209538  0.75712707  0.36398436  1
  H  H79  1  0.79790462  0.25712707  0.13601564  1
  H  H80  1  0.86398436  0.29790462  0.24287293  1
  H  H81  1  0.63601564  0.70209538  0.74287293  1
  H  H82  1  0.36398436  0.20209538  0.75712707  1
  H  H83  1  0.13601564  0.79790462  0.25712707  1
  H  H84  1  0.24287293  0.86398436  0.29790462  1
  H  H85  1  0.74287293  0.63601564  0.70209538  1
  H  H86  1  0.75712707  0.36398436  0.20209538  1
  H  H87  1  0.25712707  0.13601564  0.79790462  1
  H  H88  1  0.70209538  0.75712707  0.13601564  1
  H  H89  1  0.29790462  0.25712707  0.36398436  1
  H  H90  1  0.79790462  0.24287293  0.63601564  1
  H  H91  1  0.20209538  0.74287293  0.86398436  1
  H  H92  1  0.13601564  0.70209538  0.75712707  1
  H  H93  1  0.36398436  0.29790462  0.25712707  1
  H  H94  1  0.63601564  0.79790462  0.24287293  1
  H  H95  1  0.86398436  0.20209538  0.74287293  1
  H  H96  1  0.75712707  0.13601564  0.70209538  1
  H  H97  1  0.25712707  0.36398436  0.29790462  1
  H  H98  1  0.24287293  0.63601564  0.79790462  1
  H  H99  1  0.74287293  0.86398436  0.20209538  1
  Ru  Ru100  1  0.50000000  -0.00000000  0.50000000  1
  Ru  Ru101  1  0.50000000  0.50000000  -0.00000000  1
  Ru  Ru102  1  0.00000000  -0.00000000  -0.00000000  1
  Ru  Ru103  1  0.00000000  0.50000000  0.50000000  1
  C  C104  1  0.29201712  0.20798288  0.79201712  1
  C  C105  1  0.70798288  0.70798288  0.70798288  1
  C  C106  1  0.20798288  0.79201712  0.29201712  1
  C  C107  1  0.79201712  0.29201712  0.20798288  1
  C  C108  1  0.70798288  0.79201712  0.20798288  1
  C  C109  1  0.29201712  0.29201712  0.29201712  1
  C  C110  1  0.79201712  0.20798288  0.70798288  1
  C  C111  1  0.20798288  0.70798288  0.79201712  1
  C  C112  1  0.21429032  0.22209668  0.63198515  1
  C  C113  1  0.78570968  0.72209668  0.86801485  1
  C  C114  1  0.28570968  0.77790332  0.13198515  1
  C  C115  1  0.71429032  0.27790332  0.36801485  1
  C  C116  1  0.63198515  0.21429032  0.22209668  1
  C  C117  1  0.86801485  0.78570968  0.72209668  1
  C  C118  1  0.13198515  0.28570968  0.77790332  1
  C  C119  1  0.36801485  0.71429032  0.27790332  1
  C  C120  1  0.22209668  0.63198515  0.21429032  1
  C  C121  1  0.72209668  0.86801485  0.78570968  1
  C  C122  1  0.77790332  0.13198515  0.28570968  1
  C  C123  1  0.27790332  0.36801485  0.71429032  1
  C  C124  1  0.78570968  0.77790332  0.36801485  1
  C  C125  1  0.21429032  0.27790332  0.13198515  1
  C  C126  1  0.71429032  0.22209668  0.86801485  1
  C  C127  1  0.28570968  0.72209668  0.63198515  1
  C  C128  1  0.36801485  0.78570968  0.77790332  1
  C  C129  1  0.13198515  0.21429032  0.27790332  1
  C  C130  1  0.86801485  0.71429032  0.22209668  1
  C  C131  1  0.63198515  0.28570968  0.72209668  1
  C  C132  1  0.77790332  0.36801485  0.78570968  1
  C  C133  1  0.27790332  0.13198515  0.21429032  1
  C  C134  1  0.22209668  0.86801485  0.71429032  1
  C  C135  1  0.72209668  0.63198515  0.28570968  1
  N  N136  1  0.46855436  0.21777532  0.48341080  1
  N  N137  1  0.53144564  0.71777532  0.01658920  1
  N  N138  1  0.03144564  0.78222468  0.98341080  1
  N  N139  1  0.96855436  0.28222468  0.51658920  1
  N  N140  1  0.48341080  0.46855436  0.21777532  1
  N  N141  1  0.01658920  0.53144564  0.71777532  1
  N  N142  1  0.98341080  0.03144564  0.78222468  1
  N  N143  1  0.51658920  0.96855436  0.28222468  1
  N  N144  1  0.21777532  0.48341080  0.46855436  1
  N  N145  1  0.71777532  0.01658920  0.53144564  1
  N  N146  1  0.78222468  0.98341080  0.03144564  1
  N  N147  1  0.28222468  0.51658920  0.96855436  1
  N  N148  1  0.53144564  0.78222468  0.51658920  1
  N  N149  1  0.46855436  0.28222468  0.98341080  1
  N  N150  1  0.96855436  0.21777532  0.01658920  1
  N  N151  1  0.03144564  0.71777532  0.48341080  1
  N  N152  1  0.51658920  0.53144564  0.78222468  1
  N  N153  1  0.98341080  0.46855436  0.28222468  1
  N  N154  1  0.01658920  0.96855436  0.21777532  1
  N  N155  1  0.48341080  0.03144564  0.71777532  1
  N  N156  1  0.78222468  0.51658920  0.53144564  1
  N  N157  1  0.28222468  0.98341080  0.46855436  1
  N  N158  1  0.21777532  0.01658920  0.96855436  1
  N  N159  1  0.71777532  0.48341080  0.03144564  1
  N  N160  1  0.46041298  0.13776229  0.44754444  1
  N  N161  1  0.53958702  0.63776229  0.05245556  1
  N  N162  1  0.03958702  0.86223771  0.94754444  1
  N  N163  1  0.96041298  0.36223771  0.55245556  1
  N  N164  1  0.44754444  0.46041298  0.13776229  1
  N  N165  1  0.05245556  0.53958702  0.63776229  1
  N  N166  1  0.94754444  0.03958702  0.86223771  1
  N  N167  1  0.55245556  0.96041298  0.36223771  1
  N  N168  1  0.13776229  0.44754444  0.46041298  1
  N  N169  1  0.63776229  0.05245556  0.53958702  1
  N  N170  1  0.86223771  0.94754444  0.03958702  1
  N  N171  1  0.36223771  0.55245556  0.96041298  1
  N  N172  1  0.53958702  0.86223771  0.55245556  1
  N  N173  1  0.46041298  0.36223771  0.94754444  1
  N  N174  1  0.96041298  0.13776229  0.05245556  1
  N  N175  1  0.03958702  0.63776229  0.44754444  1
  N  N176  1  0.55245556  0.53958702  0.86223771  1
  N  N177  1  0.94754444  0.46041298  0.36223771  1
  N  N178  1  0.05245556  0.96041298  0.13776229  1
  N  N179  1  0.44754444  0.03958702  0.63776229  1
  N  N180  1  0.86223771  0.55245556  0.53958702  1
  N  N181  1  0.36223771  0.94754444  0.46041298  1
  N  N182  1  0.13776229  0.05245556  0.96041298  1
  N  N183  1  0.63776229  0.44754444  0.03958702  1
  N  N184  1  0.47249717  0.29934309  0.51183401  1
  N  N185  1  0.52750283  0.79934309  0.98816599  1
  N  N186  1  0.02750283  0.70065691  0.01183401  1
  N  N187  1  0.97249717  0.20065691  0.48816599  1
  N  N188  1  0.51183401  0.47249717  0.29934309  1
  N  N189  1  0.98816599  0.52750283  0.79934309  1
  N  N190  1  0.01183401  0.02750283  0.70065691  1
  N  N191  1  0.48816599  0.97249717  0.20065691  1
  N  N192  1  0.29934309  0.51183401  0.47249717  1
  N  N193  1  0.79934309  0.98816599  0.52750283  1
  N  N194  1  0.70065691  0.01183401  0.02750283  1
  N  N195  1  0.20065691  0.48816599  0.97249717  1
  N  N196  1  0.52750283  0.70065691  0.48816599  1
  N  N197  1  0.47249717  0.20065691  0.01183401  1
  N  N198  1  0.97249717  0.29934309  0.98816599  1
  N  N199  1  0.02750283  0.79934309  0.51183401  1
  N  N200  1  0.48816599  0.52750283  0.70065691  1
  N  N201  1  0.01183401  0.47249717  0.20065691  1
  N  N202  1  0.98816599  0.97249717  0.29934309  1
  N  N203  1  0.51183401  0.02750283  0.79934309  1
  N  N204  1  0.70065691  0.48816599  0.52750283  1
  N  N205  1  0.20065691  0.01183401  0.47249717  1
  N  N206  1  0.29934309  0.98816599  0.97249717  1
  N  N207  1  0.79934309  0.51183401  0.02750283  1
  N  N208  1  0.22886935  0.27113065  0.72886935  1
  N  N209  1  0.77113065  0.77113065  0.77113065  1
  N  N210  1  0.27113065  0.72886935  0.22886935  1
  N  N211  1  0.72886935  0.22886935  0.27113065  1
  N  N212  1  0.77113065  0.72886935  0.27113065  1
  N  N213  1  0.22886935  0.22886935  0.22886935  1
  N  N214  1  0.72886935  0.27113065  0.77113065  1
  N  N215  1  0.27113065  0.77113065  0.72886935  1
