# generated using pymatgen
data_Na3YbSi2O7
_symmetry_space_group_name_H-M   'P 1'
_cell_length_a   9.54446598
_cell_length_b   9.54446598
_cell_length_c   13.96612700
_cell_angle_alpha   90.00000000
_cell_angle_beta   90.00000000
_cell_angle_gamma   119.99999987
_symmetry_Int_Tables_number   1
_chemical_formula_structural   Na3YbSi2O7
_chemical_formula_sum   'Na18 Yb6 Si12 O42'
_cell_volume   1101.81806328
_cell_formula_units_Z   6
loop_
 _symmetry_equiv_pos_site_id
 _symmetry_equiv_pos_as_xyz
  1  'x, y, z'
loop_
 _atom_site_type_symbol
 _atom_site_label
 _atom_site_symmetry_multiplicity
 _atom_site_fract_x
 _atom_site_fract_y
 _atom_site_fract_z
 _atom_site_occupancy
  Na  Na0  1  0.00000000  0.00000000  0.50000000  1
  Na  Na1  1  0.00000000  0.00000000  0.00000000  1
  Na  Na2  1  0.33333300  0.66666700  0.25000000  1
  Na  Na3  1  0.66666700  0.33333300  0.75000000  1
  Na  Na4  1  0.33333300  0.66666700  0.75000000  1
  Na  Na5  1  0.66666700  0.33333300  0.25000000  1
  Na  Na6  1  0.33661800  0.31807200  0.58415600  1
  Na  Na7  1  0.68192800  0.01854600  0.58415600  1
  Na  Na8  1  0.98145400  0.66338200  0.58415600  1
  Na  Na9  1  0.66338200  0.68192800  0.08415600  1
  Na  Na10  1  0.31807200  0.98145400  0.08415600  1
  Na  Na11  1  0.01854600  0.33661800  0.08415600  1
  Na  Na12  1  0.66338200  0.68192800  0.41584400  1
  Na  Na13  1  0.31807200  0.98145400  0.41584400  1
  Na  Na14  1  0.01854600  0.33661800  0.41584400  1
  Na  Na15  1  0.33661800  0.31807200  0.91584400  1
  Na  Na16  1  0.68192800  0.01854600  0.91584400  1
  Na  Na17  1  0.98145400  0.66338200  0.91584400  1
  Yb  Yb18  1  0.00000000  0.00000000  0.75000000  1
  Yb  Yb19  1  0.00000000  0.00000000  0.25000000  1
  Yb  Yb20  1  0.33333300  0.66666700  0.48032500  1
  Yb  Yb21  1  0.66666700  0.33333300  0.98032500  1
  Yb  Yb22  1  0.66666700  0.33333300  0.51967500  1
  Yb  Yb23  1  0.33333300  0.66666700  0.01967500  1
  Si  Si24  1  0.32714600  0.98141500  0.64171500  1
  Si  Si25  1  0.01858500  0.34573200  0.64171500  1
  Si  Si26  1  0.65426800  0.67285400  0.64171500  1
  Si  Si27  1  0.67285400  0.01858500  0.14171500  1
  Si  Si28  1  0.98141500  0.65426800  0.14171500  1
  Si  Si29  1  0.34573200  0.32714600  0.14171500  1
  Si  Si30  1  0.67285400  0.01858500  0.35828500  1
  Si  Si31  1  0.98141500  0.65426800  0.35828500  1
  Si  Si32  1  0.34573200  0.32714600  0.35828500  1
  Si  Si33  1  0.32714600  0.98141500  0.85828500  1
  Si  Si34  1  0.01858500  0.34573200  0.85828500  1
  Si  Si35  1  0.65426800  0.67285400  0.85828500  1
  O  O36  1  0.26741600  0.83407300  0.56421600  1
  O  O37  1  0.16592700  0.43334300  0.56421600  1
  O  O38  1  0.56665700  0.73258400  0.56421600  1
  O  O39  1  0.73258400  0.16592700  0.06421600  1
  O  O40  1  0.83407300  0.56665700  0.06421600  1
  O  O41  1  0.43334300  0.26741600  0.06421600  1
  O  O42  1  0.73258400  0.16592700  0.43578400  1
  O  O43  1  0.83407300  0.56665700  0.43578400  1
  O  O44  1  0.43334300  0.26741600  0.43578400  1
  O  O45  1  0.26741600  0.83407300  0.93578400  1
  O  O46  1  0.16592700  0.43334300  0.93578400  1
  O  O47  1  0.56665700  0.73258400  0.93578400  1
  O  O48  1  0.20493800  0.05485500  0.63734200  1
  O  O49  1  0.94514500  0.15008300  0.63734200  1
  O  O50  1  0.84991700  0.79506200  0.63734200  1
  O  O51  1  0.79506200  0.94514500  0.13734200  1
  O  O52  1  0.05485500  0.84991700  0.13734200  1
  O  O53  1  0.15008300  0.20493800  0.13734200  1
  O  O54  1  0.79506200  0.94514500  0.36265800  1
  O  O55  1  0.05485500  0.84991700  0.36265800  1
  O  O56  1  0.15008300  0.20493800  0.36265800  1
  O  O57  1  0.20493800  0.05485500  0.86265800  1
  O  O58  1  0.94514500  0.15008300  0.86265800  1
  O  O59  1  0.84991700  0.79506200  0.86265800  1
  O  O60  1  0.51456600  0.12062800  0.62417400  1
  O  O61  1  0.87937200  0.39393900  0.62417400  1
  O  O62  1  0.60606100  0.48543400  0.62417400  1
  O  O63  1  0.48543400  0.87937200  0.12417400  1
  O  O64  1  0.12062800  0.60606100  0.12417400  1
  O  O65  1  0.39393900  0.51456600  0.12417400  1
  O  O66  1  0.48543400  0.87937200  0.37582600  1
  O  O67  1  0.12062800  0.60606100  0.37582600  1
  O  O68  1  0.39393900  0.51456600  0.37582600  1
  O  O69  1  0.51456600  0.12062800  0.87582600  1
  O  O70  1  0.87937200  0.39393900  0.87582600  1
  O  O71  1  0.60606100  0.48543400  0.87582600  1
  O  O72  1  0.30977800  0.89533900  0.75000000  1
  O  O73  1  0.10466100  0.41443900  0.75000000  1
  O  O74  1  0.58556100  0.69022200  0.75000000  1
  O  O75  1  0.69022200  0.10466100  0.25000000  1
  O  O76  1  0.89533900  0.58556100  0.25000000  1
  O  O77  1  0.41443900  0.30977800  0.25000000  1
