# generated using pymatgen
data_Hg2Te4Xe3(O2F13)2
_symmetry_space_group_name_H-M   'P 1'
_cell_length_a   18.60583000
_cell_length_b   9.41906600
_cell_length_c   10.24656959
_cell_angle_alpha   57.63678503
_cell_angle_beta   90.00000000
_cell_angle_gamma   90.00000000
_symmetry_Int_Tables_number   1
_chemical_formula_structural   Hg2Te4Xe3(O2F13)2
_chemical_formula_sum   'Hg4 Te8 Xe6 O8 F52'
_cell_volume   1516.78267224
_cell_formula_units_Z   2
loop_
 _symmetry_equiv_pos_site_id
 _symmetry_equiv_pos_as_xyz
  1  'x, y, z'
loop_
 _atom_site_type_symbol
 _atom_site_label
 _atom_site_symmetry_multiplicity
 _atom_site_fract_x
 _atom_site_fract_y
 _atom_site_fract_z
 _atom_site_occupancy
  Hg  Hg0  1  0.39262200  0.06303900  0.95816200  1
  Hg  Hg1  1  0.10737800  0.06303900  0.45816200  1
  Hg  Hg2  1  0.60737800  0.93696100  0.04183800  1
  Hg  Hg3  1  0.89262200  0.93696100  0.54183800  1
  Te  Te4  1  0.25272500  0.33841200  0.93670800  1
  Te  Te5  1  0.24727500  0.33841200  0.43670800  1
  Te  Te6  1  0.74727500  0.66158800  0.06329200  1
  Te  Te7  1  0.75272500  0.66158800  0.56329200  1
  Te  Te8  1  0.45335100  0.83399700  0.79756600  1
  Te  Te9  1  0.04664900  0.83399700  0.29756600  1
  Te  Te10  1  0.54664900  0.16600300  0.20243400  1
  Te  Te11  1  0.95335100  0.16600300  0.70243400  1
  Xe  Xe12  1  0.30969700  0.84901200  0.40747400  1
  Xe  Xe13  1  0.19030300  0.84901200  0.90747400  1
  Xe  Xe14  1  0.69030300  0.15098800  0.59252600  1
  Xe  Xe15  1  0.80969700  0.15098800  0.09252600  1
  Xe  Xe16  1  0.50000000  0.50000000  0.50000000  1
  Xe  Xe17  1  0.00000000  0.50000000  0.00000000  1
  O  O18  1  0.32543800  0.17814000  0.03466700  1
  O  O19  1  0.17456200  0.17814000  0.53466700  1
  O  O20  1  0.67456200  0.82186000  0.96533300  1
  O  O21  1  0.82543800  0.82186000  0.46533300  1
  O  O22  1  0.46863200  0.93421400  0.91229800  1
  O  O23  1  0.03136800  0.93421400  0.41229800  1
  O  O24  1  0.53136800  0.06578600  0.08770200  1
  O  O25  1  0.96863200  0.06578600  0.58770200  1
  F  F26  1  0.39360600  0.84295000  0.27543900  1
  F  F27  1  0.10639400  0.84295000  0.77543900  1
  F  F28  1  0.60639400  0.15705000  0.72456100  1
  F  F29  1  0.89360600  0.15705000  0.22456100  1
  F  F30  1  0.22673300  0.85670200  0.53958900  1
  F  F31  1  0.27326700  0.85670200  0.03958900  1
  F  F32  1  0.77326700  0.14329800  0.46041100  1
  F  F33  1  0.72673300  0.14329800  0.96041100  1
  F  F34  1  0.45717500  0.34026600  0.71989800  1
  F  F35  1  0.04282500  0.34026600  0.21989800  1
  F  F36  1  0.54282500  0.65973400  0.28010200  1
  F  F37  1  0.95717500  0.65973400  0.78010200  1
  F  F38  1  0.29240000  0.47658300  0.99950300  1
  F  F39  1  0.20760000  0.47658300  0.49950300  1
  F  F40  1  0.70760000  0.52341700  0.00049700  1
  F  F41  1  0.79240000  0.52341700  0.50049700  1
  F  F42  1  0.20196000  0.22029200  0.86455500  1
  F  F43  1  0.29804000  0.22029200  0.36455500  1
  F  F44  1  0.79804000  0.77970800  0.13544500  1
  F  F45  1  0.70196000  0.77970800  0.63544500  1
  F  F46  1  0.30063500  0.46683500  0.74511600  1
  F  F47  1  0.19936500  0.46683500  0.24511600  1
  F  F48  1  0.69936500  0.53316500  0.25488400  1
  F  F49  1  0.80063500  0.53316500  0.75488400  1
  F  F50  1  0.19711400  0.22965400  0.11937000  1
  F  F51  1  0.30288600  0.22965400  0.61937000  1
  F  F52  1  0.80288600  0.77034600  0.88063000  1
  F  F53  1  0.69711400  0.77034600  0.38063000  1
  F  F54  1  0.17779600  0.49693300  0.84983600  1
  F  F55  1  0.32220400  0.49693300  0.34983600  1
  F  F56  1  0.82220400  0.50306700  0.15016400  1
  F  F57  1  0.67779600  0.50306700  0.65016400  1
  F  F58  1  0.35219000  0.86129400  0.78661700  1
  F  F59  1  0.14781000  0.86129400  0.28661700  1
  F  F60  1  0.64781000  0.13870600  0.21338300  1
  F  F61  1  0.85219000  0.13870600  0.71338300  1
  F  F62  1  0.55239200  0.80120500  0.79213300  1
  F  F63  1  0.94760800  0.80120500  0.29213300  1
  F  F64  1  0.44760800  0.19879500  0.20786700  1
  F  F65  1  0.05239200  0.19879500  0.70786700  1
  F  F66  1  0.44115900  0.73001800  0.68510400  1
  F  F67  1  0.05884100  0.73001800  0.18510400  1
  F  F68  1  0.55884100  0.26998200  0.31489600  1
  F  F69  1  0.94115900  0.26998200  0.81489600  1
  F  F70  1  0.45968700  0.03851300  0.60464300  1
  F  F71  1  0.04031300  0.03851300  0.10464300  1
  F  F72  1  0.54031300  0.96148700  0.39535700  1
  F  F73  1  0.95968700  0.96148700  0.89535700  1
  F  F74  1  0.44390300  0.61945300  0.97689400  1
  F  F75  1  0.05609700  0.61945300  0.47689400  1
  F  F76  1  0.55609700  0.38054700  0.02310600  1
  F  F77  1  0.94390300  0.38054700  0.52310600  1
