# generated using pymatgen
data_KAsO3
_symmetry_space_group_name_H-M   'P 1'
_cell_length_a   5.02896100
_cell_length_b   11.58785700
_cell_length_c   11.83075500
_cell_angle_alpha   90.00000000
_cell_angle_beta   90.00000000
_cell_angle_gamma   90.00000000
_symmetry_Int_Tables_number   1
_chemical_formula_structural   KAsO3
_chemical_formula_sum   'K8 As8 O24'
_cell_volume   689.43583890
_cell_formula_units_Z   8
loop_
 _symmetry_equiv_pos_site_id
 _symmetry_equiv_pos_as_xyz
  1  'x, y, z'
loop_
 _atom_site_type_symbol
 _atom_site_label
 _atom_site_symmetry_multiplicity
 _atom_site_fract_x
 _atom_site_fract_y
 _atom_site_fract_z
 _atom_site_occupancy
  K  K0  1  0.25000000  0.50000000  0.81186700  1
  K  K1  1  0.75000000  0.00000000  0.68813300  1
  K  K2  1  0.75000000  0.50000000  0.18813300  1
  K  K3  1  0.25000000  0.00000000  0.31186700  1
  K  K4  1  0.75000000  0.50000000  0.60969400  1
  K  K5  1  0.25000000  0.00000000  0.89030600  1
  K  K6  1  0.25000000  0.50000000  0.39030600  1
  K  K7  1  0.75000000  0.00000000  0.10969400  1
  As  As8  1  0.72171100  0.73051200  0.91239500  1
  As  As9  1  0.22171100  0.76948800  0.58760500  1
  As  As10  1  0.27828900  0.23051200  0.58760500  1
  As  As11  1  0.77828900  0.26948800  0.91239500  1
  As  As12  1  0.27828900  0.26948800  0.08760500  1
  As  As13  1  0.77828900  0.23051200  0.41239500  1
  As  As14  1  0.72171100  0.76948800  0.41239500  1
  As  As15  1  0.22171100  0.73051200  0.08760500  1
  O  O16  1  0.74695000  0.87406100  0.90028500  1
  O  O17  1  0.24695000  0.62593900  0.59971500  1
  O  O18  1  0.25305000  0.37406100  0.59971500  1
  O  O19  1  0.75305000  0.12593900  0.90028500  1
  O  O20  1  0.25305000  0.12593900  0.09971500  1
  O  O21  1  0.75305000  0.37406100  0.40028500  1
  O  O22  1  0.74695000  0.62593900  0.40028500  1
  O  O23  1  0.24695000  0.87406100  0.09971500  1
  O  O24  1  0.78771900  0.63866400  0.80754600  1
  O  O25  1  0.28771900  0.86133600  0.69245400  1
  O  O26  1  0.21228100  0.13866400  0.69245400  1
  O  O27  1  0.71228100  0.36133600  0.80754600  1
  O  O28  1  0.21228100  0.36133600  0.19245400  1
  O  O29  1  0.71228100  0.13866400  0.30754600  1
  O  O30  1  0.78771900  0.86133600  0.30754600  1
  O  O31  1  0.28771900  0.63866400  0.19245400  1
  O  O32  1  0.39328100  0.68592500  0.95882600  1
  O  O33  1  0.89328100  0.81407500  0.54117400  1
  O  O34  1  0.60671900  0.18592500  0.54117400  1
  O  O35  1  0.10671900  0.31407500  0.95882600  1
  O  O36  1  0.60671900  0.31407500  0.04117400  1
  O  O37  1  0.10671900  0.18592500  0.45882600  1
  O  O38  1  0.39328100  0.81407500  0.45882600  1
  O  O39  1  0.89328100  0.68592500  0.04117400  1
