# generated using pymatgen
data_MnH8N2(OF2)2
_symmetry_space_group_name_H-M   'P 1'
_cell_length_a   5.78048607
_cell_length_b   6.02994800
_cell_length_c   8.57291936
_cell_angle_alpha   90.00000000
_cell_angle_beta   92.15075444
_cell_angle_gamma   90.00000000
_symmetry_Int_Tables_number   1
_chemical_formula_structural   MnH8N2(OF2)2
_chemical_formula_sum   'Mn2 H16 N4 O4 F8'
_cell_volume   298.60743320
_cell_formula_units_Z   2
loop_
 _symmetry_equiv_pos_site_id
 _symmetry_equiv_pos_as_xyz
  1  'x, y, z'
loop_
 _atom_site_type_symbol
 _atom_site_label
 _atom_site_symmetry_multiplicity
 _atom_site_fract_x
 _atom_site_fract_y
 _atom_site_fract_z
 _atom_site_occupancy
  Mn  Mn0  1  0.50000000  0.50000000  0.00000000  1
  Mn  Mn1  1  0.00000000  0.00000000  0.00000000  1
  H  H2  1  0.02571000  0.67087400  0.27440200  1
  H  H3  1  0.47429000  0.17087400  0.72559800  1
  H  H4  1  0.97429000  0.32912600  0.72559800  1
  H  H5  1  0.52571000  0.82912600  0.27440200  1
  H  H6  1  0.86241800  0.45419800  0.33181000  1
  H  H7  1  0.63758200  0.95419800  0.66819000  1
  H  H8  1  0.13758200  0.54580200  0.66819000  1
  H  H9  1  0.36241800  0.04580200  0.33181000  1
  H  H10  1  0.04429000  0.41827700  0.17971800  1
  H  H11  1  0.45571000  0.91827700  0.82028200  1
  H  H12  1  0.95571000  0.58172300  0.82028200  1
  H  H13  1  0.54429000  0.08172300  0.17971800  1
  H  H14  1  0.34494700  0.47458300  0.34337100  1
  H  H15  1  0.15505300  0.97458300  0.65662900  1
  H  H16  1  0.65505300  0.52541700  0.65662900  1
  H  H17  1  0.84494700  0.02541700  0.34337100  1
  N  N18  1  0.02052600  0.49607600  0.28740600  1
  N  N19  1  0.47947400  0.99607600  0.71259400  1
  N  N20  1  0.97947400  0.50392400  0.71259400  1
  N  N21  1  0.52052600  0.00392400  0.28740600  1
  O  O22  1  0.19724500  0.42301600  0.39559000  1
  O  O23  1  0.30275500  0.92301600  0.60441000  1
  O  O24  1  0.80275500  0.57698400  0.60441000  1
  O  O25  1  0.69724500  0.07698400  0.39559000  1
  F  F26  1  0.53139400  0.56563000  0.24754600  1
  F  F27  1  0.96860600  0.06563000  0.75245400  1
  F  F28  1  0.46860600  0.43437000  0.75245400  1
  F  F29  1  0.03139400  0.93437000  0.24754600  1
  F  F30  1  0.29532300  0.79291100  0.96317000  1
  F  F31  1  0.20467700  0.29291100  0.03683000  1
  F  F32  1  0.70467700  0.20708900  0.03683000  1
  F  F33  1  0.79532300  0.70708900  0.96317000  1
