# generated using pymatgen
data_Na4Cu4H18C8O23
_symmetry_space_group_name_H-M   'P 1'
_cell_length_a   8.68697100
_cell_length_b   8.68697100
_cell_length_c   17.36897000
_cell_angle_alpha   90.00000000
_cell_angle_beta   90.00000000
_cell_angle_gamma   90.00000000
_symmetry_Int_Tables_number   1
_chemical_formula_structural   Na4Cu4H18C8O23
_chemical_formula_sum   'Na8 Cu8 H36 C16 O46'
_cell_volume   1310.72266237
_cell_formula_units_Z   2
loop_
 _symmetry_equiv_pos_site_id
 _symmetry_equiv_pos_as_xyz
  1  'x, y, z'
loop_
 _atom_site_type_symbol
 _atom_site_label
 _atom_site_symmetry_multiplicity
 _atom_site_fract_x
 _atom_site_fract_y
 _atom_site_fract_z
 _atom_site_occupancy
  Na  Na0  1  0.50000000  0.00000000  0.17235800  1
  Na  Na1  1  0.00000000  0.50000000  0.32764200  1
  Na  Na2  1  0.00000000  0.50000000  0.82764200  1
  Na  Na3  1  0.50000000  0.00000000  0.67235800  1
  Na  Na4  1  0.00000000  0.50000000  0.03650100  1
  Na  Na5  1  0.50000000  0.00000000  0.46349900  1
  Na  Na6  1  0.50000000  0.00000000  0.96349900  1
  Na  Na7  1  0.00000000  0.50000000  0.53650100  1
  Cu  Cu8  1  0.58944600  0.34420200  0.06759100  1
  Cu  Cu9  1  0.41055400  0.65579800  0.06759100  1
  Cu  Cu10  1  0.08944600  0.84420200  0.43240900  1
  Cu  Cu11  1  0.91055400  0.15579800  0.43240900  1
  Cu  Cu12  1  0.34420200  0.41055400  0.93240900  1
  Cu  Cu13  1  0.65579800  0.58944600  0.93240900  1
  Cu  Cu14  1  0.84420200  0.91055400  0.56759100  1
  Cu  Cu15  1  0.15579800  0.08944600  0.56759100  1
  H  H16  1  0.87475300  0.14074900  0.20020800  1
  H  H17  1  0.12524700  0.85925100  0.20020800  1
  H  H18  1  0.37475300  0.64074900  0.29979200  1
  H  H19  1  0.62524700  0.35925100  0.29979200  1
  H  H20  1  0.14074900  0.12524700  0.79979200  1
  H  H21  1  0.85925100  0.87475300  0.79979200  1
  H  H22  1  0.64074900  0.62524700  0.70020800  1
  H  H23  1  0.35925100  0.37475300  0.70020800  1
  H  H24  1  0.14986100  0.14229700  0.08181100  1
  H  H25  1  0.85013900  0.85770300  0.08181100  1
  H  H26  1  0.64986100  0.64229700  0.41818900  1
  H  H27  1  0.35013900  0.35770300  0.41818900  1
  H  H28  1  0.14229700  0.85013900  0.91818900  1
  H  H29  1  0.85770300  0.14986100  0.91818900  1
  H  H30  1  0.64229700  0.35013900  0.58181100  1
  H  H31  1  0.35770300  0.64986100  0.58181100  1
  H  H32  1  0.50000000  0.50000000  0.19556300  1
  H  H33  1  0.00000000  0.00000000  0.30443700  1
  H  H34  1  0.50000000  0.50000000  0.80443700  1
  H  H35  1  0.00000000  0.00000000  0.69556300  1
  H  H36  1  0.64988300  0.81893600  0.29325300  1
  H  H37  1  0.35011700  0.18106400  0.29325300  1
  H  H38  1  0.14988300  0.31893600  0.20674700  1
  H  H39  1  0.85011700  0.68106400  0.20674700  1
  H  H40  1  0.81893600  0.35011700  0.70674700  1
  H  H41  1  0.18106400  0.64988300  0.70674700  1
  H  H42  1  0.31893600  0.85011700  0.79325300  1
  H  H43  1  0.68106400  0.14988300  0.79325300  1
  H  H44  1  0.76828000  0.94868100  0.29237000  1
  H  H45  1  0.23172000  0.05131900  0.29237000  1
  H  H46  1  0.26828000  0.44868100  0.20763000  1
  H  H47  1  0.73172000  0.55131900  0.20763000  1
  H  H48  1  0.94868100  0.23172000  0.70763000  1
  H  H49  1  0.05131900  0.76828000  0.70763000  1
  H  H50  1  0.44868100  0.73172000  0.79237000  1
  H  H51  1  0.55131900  0.26828000  0.79237000  1
  C  C52  1  0.82710000  0.22492200  0.15808300  1
  C  C53  1  0.17290000  0.77507800  0.15808300  1
  C  C54  1  0.32710000  0.72492200  0.34191700  1
  C  C55  1  0.67290000  0.27507800  0.34191700  1
  C  C56  1  0.22492200  0.17290000  0.84191700  1
  C  C57  1  0.77507800  0.82710000  0.84191700  1
  C  C58  1  0.72492200  0.67290000  0.65808300  1
  C  C59  1  0.27507800  0.32710000  0.65808300  1
  C  C60  1  0.24869700  0.20172300  0.05416000  1
  C  C61  1  0.75130300  0.79827700  0.05416000  1
  C  C62  1  0.74869700  0.70172300  0.44584000  1
  C  C63  1  0.25130300  0.29827700  0.44584000  1
  C  C64  1  0.20172300  0.75130300  0.94584000  1
  C  C65  1  0.79827700  0.24869700  0.94584000  1
  C  C66  1  0.70172300  0.25130300  0.55416000  1
  C  C67  1  0.29827700  0.74869700  0.55416000  1
  O  O68  1  0.67950400  0.21768300  0.15101400  1
  O  O69  1  0.32049600  0.78231700  0.15101400  1
  O  O70  1  0.17950400  0.71768300  0.34898600  1
  O  O71  1  0.82049600  0.28231700  0.34898600  1
  O  O72  1  0.21768300  0.32049600  0.84898600  1
  O  O73  1  0.78231700  0.67950400  0.84898600  1
  O  O74  1  0.71768300  0.82049600  0.65101400  1
  O  O75  1  0.28231700  0.17950400  0.65101400  1
  O  O76  1  0.91690500  0.31350200  0.12423800  1
  O  O77  1  0.08309500  0.68649800  0.12423800  1
  O  O78  1  0.41690500  0.81350200  0.37576200  1
  O  O79  1  0.58309500  0.18649800  0.37576200  1
  O  O80  1  0.31350200  0.08309500  0.87576200  1
  O  O81  1  0.68649800  0.91690500  0.87576200  1
  O  O82  1  0.81350200  0.58309500  0.62423800  1
  O  O83  1  0.18649800  0.41690500  0.62423800  1
  O  O84  1  0.38229700  0.15255800  0.06662600  1
  O  O85  1  0.61770300  0.84744200  0.06662600  1
  O  O86  1  0.88229700  0.65255800  0.43337400  1
  O  O87  1  0.11770300  0.34744200  0.43337400  1
  O  O88  1  0.15255800  0.61770300  0.93337400  1
  O  O89  1  0.84744200  0.38229700  0.93337400  1
  O  O90  1  0.65255800  0.11770300  0.56662600  1
  O  O91  1  0.34744200  0.88229700  0.56662600  1
  O  O92  1  0.20997900  0.31650100  0.01208500  1
  O  O93  1  0.79002100  0.68349900  0.01208500  1
  O  O94  1  0.70997900  0.81650100  0.48791500  1
  O  O95  1  0.29002100  0.18349900  0.48791500  1
  O  O96  1  0.31650100  0.79002100  0.98791500  1
  O  O97  1  0.68349900  0.20997900  0.98791500  1
  O  O98  1  0.81650100  0.29002100  0.51208500  1
  O  O99  1  0.18349900  0.70997900  0.51208500  1
  O  O100  1  0.50000000  0.50000000  0.13909300  1
  O  O101  1  0.00000000  0.00000000  0.36090700  1
  O  O102  1  0.50000000  0.50000000  0.86090700  1
  O  O103  1  0.00000000  0.00000000  0.63909300  1
  O  O104  1  0.50000000  0.50000000  0.00000000  1
  O  O105  1  0.00000000  0.00000000  0.50000000  1
  O  O106  1  0.68981300  0.90063900  0.26016500  1
  O  O107  1  0.31018700  0.09936100  0.26016500  1
  O  O108  1  0.18981300  0.40063900  0.23983500  1
  O  O109  1  0.81018700  0.59936100  0.23983500  1
  O  O110  1  0.90063900  0.31018700  0.73983500  1
  O  O111  1  0.09936100  0.68981300  0.73983500  1
  O  O112  1  0.40063900  0.81018700  0.76016500  1
  O  O113  1  0.59936100  0.18981300  0.76016500  1
