# generated using pymatgen
data_Sb5IO7
_symmetry_space_group_name_H-M   'P 1'
_cell_length_a   6.91436100
_cell_length_b   11.91578100
_cell_length_c   13.04907200
_cell_angle_alpha   90.00000000
_cell_angle_beta   90.00000000
_cell_angle_gamma   90.00000000
_symmetry_Int_Tables_number   1
_chemical_formula_structural   Sb5IO7
_chemical_formula_sum   'Sb20 I4 O28'
_cell_volume   1075.11319124
_cell_formula_units_Z   4
loop_
 _symmetry_equiv_pos_site_id
 _symmetry_equiv_pos_as_xyz
  1  'x, y, z'
loop_
 _atom_site_type_symbol
 _atom_site_label
 _atom_site_symmetry_multiplicity
 _atom_site_fract_x
 _atom_site_fract_y
 _atom_site_fract_z
 _atom_site_occupancy
  Sb  Sb0  1  0.98077600  0.16080000  0.76881700  1
  Sb  Sb1  1  0.48077600  0.66080000  0.73118300  1
  Sb  Sb2  1  0.92294100  0.18080700  0.24520300  1
  Sb  Sb3  1  0.42294100  0.68080700  0.25479700  1
  Sb  Sb4  1  0.44432400  0.01620400  0.75605200  1
  Sb  Sb5  1  0.94432400  0.51620400  0.74394800  1
  Sb  Sb6  1  0.44432400  0.98379600  0.24394800  1
  Sb  Sb7  1  0.94432400  0.48379600  0.25605200  1
  Sb  Sb8  1  0.92294100  0.81919300  0.75479700  1
  Sb  Sb9  1  0.42294100  0.31919300  0.74520300  1
  Sb  Sb10  1  0.98077600  0.83920000  0.23118300  1
  Sb  Sb11  1  0.48077600  0.33920000  0.26881700  1
  Sb  Sb12  1  0.29015300  0.82963400  0.94081100  1
  Sb  Sb13  1  0.79015300  0.32963400  0.55918900  1
  Sb  Sb14  1  0.27901300  0.83255400  0.55047600  1
  Sb  Sb15  1  0.77901300  0.33255400  0.94952400  1
  Sb  Sb16  1  0.79015300  0.67036600  0.44081100  1
  Sb  Sb17  1  0.29015300  0.17036600  0.05918900  1
  Sb  Sb18  1  0.77901300  0.66744600  0.05047600  1
  Sb  Sb19  1  0.27901300  0.16744600  0.44952400  1
  I  I20  1  0.74082400  0.00000000  0.00000000  1
  I  I21  1  0.24082400  0.50000000  0.50000000  1
  I  I22  1  0.82605000  0.00000000  0.50000000  1
  I  I23  1  0.32605000  0.50000000  0.00000000  1
  O  O24  1  0.28556700  0.16612800  0.75494000  1
  O  O25  1  0.78556700  0.66612800  0.74506000  1
  O  O26  1  0.28556700  0.83387200  0.24506000  1
  O  O27  1  0.78556700  0.33387200  0.25494000  1
  O  O28  1  0.48047700  0.78984100  0.82876000  1
  O  O29  1  0.98047700  0.28984100  0.67124000  1
  O  O30  1  0.51711400  0.76205500  0.61258400  1
  O  O31  1  0.01711400  0.26205500  0.88741600  1
  O  O32  1  0.55988100  0.74683500  0.37407500  1
  O  O33  1  0.05988100  0.24683500  0.12592500  1
  O  O34  1  0.61605400  0.74778300  0.15985700  1
  O  O35  1  0.11605400  0.24778300  0.34014300  1
  O  O36  1  0.05988100  0.75316500  0.87407500  1
  O  O37  1  0.55988100  0.25316500  0.62592500  1
  O  O38  1  0.11605400  0.75221700  0.65985700  1
  O  O39  1  0.61605400  0.25221700  0.84014300  1
  O  O40  1  0.98047700  0.71015900  0.32876000  1
  O  O41  1  0.48047700  0.21015900  0.17124000  1
  O  O42  1  0.01711400  0.73794500  0.11258400  1
  O  O43  1  0.51711400  0.23794500  0.38741600  1
  O  O44  1  0.23985000  0.96973900  0.85733000  1
  O  O45  1  0.73985000  0.46973900  0.64267000  1
  O  O46  1  0.29317400  0.97278800  0.63358800  1
  O  O47  1  0.79317400  0.47278800  0.86641200  1
  O  O48  1  0.29317400  0.02721200  0.36641200  1
  O  O49  1  0.79317400  0.52721200  0.13358800  1
  O  O50  1  0.23985000  0.03026100  0.14267000  1
  O  O51  1  0.73985000  0.53026100  0.35733000  1
