# generated using pymatgen
data_HoSeF
_symmetry_space_group_name_H-M   'P 1'
_cell_length_a   4.09926100
_cell_length_b   9.97946700
_cell_length_c   18.95913500
_cell_angle_alpha   90.00000000
_cell_angle_beta   90.00000000
_cell_angle_gamma   90.00000000
_symmetry_Int_Tables_number   1
_chemical_formula_structural   HoSeF
_chemical_formula_sum   'Ho12 Se12 F12'
_cell_volume   775.58863421
_cell_formula_units_Z   12
loop_
 _symmetry_equiv_pos_site_id
 _symmetry_equiv_pos_as_xyz
  1  'x, y, z'
loop_
 _atom_site_type_symbol
 _atom_site_label
 _atom_site_symmetry_multiplicity
 _atom_site_fract_x
 _atom_site_fract_y
 _atom_site_fract_z
 _atom_site_occupancy
  Ho  Ho0  1  0.75000000  0.40798400  0.58357100  1
  Ho  Ho1  1  0.75000000  0.90798400  0.91642900  1
  Ho  Ho2  1  0.25000000  0.59201600  0.41642900  1
  Ho  Ho3  1  0.25000000  0.09201600  0.08357100  1
  Ho  Ho4  1  0.75000000  0.24446000  0.26055300  1
  Ho  Ho5  1  0.75000000  0.74446000  0.23944700  1
  Ho  Ho6  1  0.25000000  0.75554000  0.73944700  1
  Ho  Ho7  1  0.25000000  0.25554000  0.76055300  1
  Ho  Ho8  1  0.75000000  0.42243300  0.91907300  1
  Ho  Ho9  1  0.75000000  0.92243300  0.58092700  1
  Ho  Ho10  1  0.25000000  0.57756700  0.08092700  1
  Ho  Ho11  1  0.25000000  0.07756700  0.41907300  1
  Se  Se12  1  0.75000000  0.16371000  0.65928300  1
  Se  Se13  1  0.75000000  0.66371000  0.84071700  1
  Se  Se14  1  0.25000000  0.83629000  0.34071700  1
  Se  Se15  1  0.25000000  0.33629000  0.15928300  1
  Se  Se16  1  0.75000000  0.16485700  0.98638300  1
  Se  Se17  1  0.75000000  0.66485700  0.51361700  1
  Se  Se18  1  0.25000000  0.83514300  0.01361700  1
  Se  Se19  1  0.25000000  0.33514300  0.48638300  1
  Se  Se20  1  0.75000000  0.00582000  0.17785700  1
  Se  Se21  1  0.75000000  0.50582000  0.32214300  1
  Se  Se22  1  0.25000000  0.99418000  0.82214300  1
  Se  Se23  1  0.25000000  0.49418000  0.67785700  1
  F  F24  1  0.75000000  0.30121700  0.80559400  1
  F  F25  1  0.75000000  0.80121700  0.69440600  1
  F  F26  1  0.25000000  0.69878300  0.19440600  1
  F  F27  1  0.25000000  0.19878300  0.30559400  1
  F  F28  1  0.75000000  0.13689000  0.36482100  1
  F  F29  1  0.75000000  0.63689000  0.13517900  1
  F  F30  1  0.25000000  0.86311000  0.63517900  1
  F  F31  1  0.25000000  0.36311000  0.86482100  1
  F  F32  1  0.75000000  0.02528900  0.47321600  1
  F  F33  1  0.75000000  0.52528900  0.02678400  1
  F  F34  1  0.25000000  0.97471100  0.52678400  1
  F  F35  1  0.25000000  0.47471100  0.97321600  1
