# generated using pymatgen
data_MnPH6NO5
_symmetry_space_group_name_H-M   'P 1'
_cell_length_a   17.98133400
_cell_length_b   5.80056700
_cell_length_c   4.92295100
_cell_angle_alpha   90.00000000
_cell_angle_beta   90.00000000
_cell_angle_gamma   90.00000000
_symmetry_Int_Tables_number   1
_chemical_formula_structural   MnPH6NO5
_chemical_formula_sum   'Mn4 P4 H24 N4 O20'
_cell_volume   513.47330348
_cell_formula_units_Z   4
loop_
 _symmetry_equiv_pos_site_id
 _symmetry_equiv_pos_as_xyz
  1  'x, y, z'
loop_
 _atom_site_type_symbol
 _atom_site_label
 _atom_site_symmetry_multiplicity
 _atom_site_fract_x
 _atom_site_fract_y
 _atom_site_fract_z
 _atom_site_occupancy
  Mn  Mn0  1  0.26175500  0.75000000  0.37025800  1
  Mn  Mn1  1  0.76175500  0.75000000  0.12974200  1
  Mn  Mn2  1  0.73824500  0.25000000  0.62974200  1
  Mn  Mn3  1  0.23824500  0.25000000  0.87025800  1
  P  P4  1  0.15089500  0.75000000  0.80512800  1
  P  P5  1  0.65089500  0.75000000  0.69487200  1
  P  P6  1  0.84910500  0.25000000  0.19487200  1
  P  P7  1  0.34910500  0.25000000  0.30512800  1
  H  H8  1  0.02033600  0.75000000  0.07955000  1
  H  H9  1  0.52033600  0.75000000  0.42045000  1
  H  H10  1  0.97966400  0.25000000  0.92045000  1
  H  H11  1  0.47966400  0.25000000  0.57955000  1
  H  H12  1  0.02156300  0.75000000  0.43195500  1
  H  H13  1  0.52156300  0.75000000  0.06804500  1
  H  H14  1  0.97843700  0.25000000  0.56804500  1
  H  H15  1  0.47843700  0.25000000  0.93195500  1
  H  H16  1  0.34853600  0.88579900  0.79890300  1
  H  H17  1  0.84853600  0.61420100  0.70109700  1
  H  H18  1  0.65146400  0.38579900  0.20109700  1
  H  H19  1  0.15146400  0.11420100  0.29890300  1
  H  H20  1  0.65146400  0.11420100  0.20109700  1
  H  H21  1  0.15146400  0.38579900  0.29890300  1
  H  H22  1  0.34853600  0.61420100  0.79890300  1
  H  H23  1  0.84853600  0.88579900  0.70109700  1
  H  H24  1  0.95504700  0.60280400  0.25629800  1
  H  H25  1  0.45504700  0.89719600  0.24370200  1
  H  H26  1  0.04495300  0.10280400  0.74370200  1
  H  H27  1  0.54495300  0.39719600  0.75629800  1
  H  H28  1  0.04495300  0.39719600  0.74370200  1
  H  H29  1  0.54495300  0.10280400  0.75629800  1
  H  H30  1  0.95504700  0.89719600  0.25629800  1
  H  H31  1  0.45504700  0.60280400  0.24370200  1
  N  N32  1  0.98768400  0.75000000  0.25722200  1
  N  N33  1  0.48768400  0.75000000  0.24277800  1
  N  N34  1  0.01231600  0.25000000  0.74277800  1
  N  N35  1  0.51231600  0.25000000  0.75722200  1
  O  O36  1  0.16624100  0.75000000  0.11141100  1
  O  O37  1  0.66624100  0.75000000  0.38858900  1
  O  O38  1  0.83375900  0.25000000  0.88858900  1
  O  O39  1  0.33375900  0.25000000  0.61141100  1
  O  O40  1  0.18770100  0.96433500  0.66222000  1
  O  O41  1  0.68770100  0.53566500  0.83778000  1
  O  O42  1  0.81229900  0.46433500  0.33778000  1
  O  O43  1  0.31229900  0.03566500  0.16222000  1
  O  O44  1  0.81229900  0.03566500  0.33778000  1
  O  O45  1  0.31229900  0.46433500  0.16222000  1
  O  O46  1  0.18770100  0.53566500  0.66222000  1
  O  O47  1  0.68770100  0.96433500  0.83778000  1
  O  O48  1  0.35585000  0.75000000  0.68160600  1
  O  O49  1  0.85585000  0.75000000  0.81839400  1
  O  O50  1  0.64415000  0.25000000  0.31839400  1
  O  O51  1  0.14415000  0.25000000  0.18160600  1
  O  O52  1  0.06526400  0.75000000  0.75467000  1
  O  O53  1  0.56526400  0.75000000  0.74533000  1
  O  O54  1  0.93473600  0.25000000  0.24533000  1
  O  O55  1  0.43473600  0.25000000  0.25467000  1
