# generated using pymatgen
data_MnSb3XeF23
_symmetry_space_group_name_H-M   'P 1'
_cell_length_a   10.94813700
_cell_length_b   11.39992700
_cell_length_c   16.21305500
_cell_angle_alpha   90.00000000
_cell_angle_beta   90.00000000
_cell_angle_gamma   90.00000000
_symmetry_Int_Tables_number   1
_chemical_formula_structural   MnSb3XeF23
_chemical_formula_sum   'Mn4 Sb12 Xe4 F92'
_cell_volume   2023.51836184
_cell_formula_units_Z   4
loop_
 _symmetry_equiv_pos_site_id
 _symmetry_equiv_pos_as_xyz
  1  'x, y, z'
loop_
 _atom_site_type_symbol
 _atom_site_label
 _atom_site_symmetry_multiplicity
 _atom_site_fract_x
 _atom_site_fract_y
 _atom_site_fract_z
 _atom_site_occupancy
  Mn  Mn0  1  0.00000000  0.00000000  0.00000000  1
  Mn  Mn1  1  0.50000000  0.50000000  0.50000000  1
  Mn  Mn2  1  0.00000000  0.00000000  0.50000000  1
  Mn  Mn3  1  0.50000000  0.50000000  0.00000000  1
  Sb  Sb4  1  0.29687200  0.79452700  0.98782300  1
  Sb  Sb5  1  0.79687200  0.70547300  0.51217700  1
  Sb  Sb6  1  0.70312800  0.20547300  0.48782300  1
  Sb  Sb7  1  0.20312800  0.29452700  0.01217700  1
  Sb  Sb8  1  0.70312800  0.20547300  0.01217700  1
  Sb  Sb9  1  0.20312800  0.29452700  0.48782300  1
  Sb  Sb10  1  0.29687200  0.79452700  0.51217700  1
  Sb  Sb11  1  0.79687200  0.70547300  0.98782300  1
  Sb  Sb12  1  0.99680800  0.95866000  0.25000000  1
  Sb  Sb13  1  0.49680800  0.54134000  0.25000000  1
  Sb  Sb14  1  0.00319200  0.04134000  0.75000000  1
  Sb  Sb15  1  0.50319200  0.45866000  0.75000000  1
  Xe  Xe16  1  0.44809100  0.95422400  0.25000000  1
  Xe  Xe17  1  0.94809100  0.54577600  0.25000000  1
  Xe  Xe18  1  0.55190900  0.04577600  0.75000000  1
  Xe  Xe19  1  0.05190900  0.45422400  0.75000000  1
  F  F20  1  0.55392000  0.09157600  0.25000000  1
  F  F21  1  0.05392000  0.40842400  0.25000000  1
  F  F22  1  0.44608000  0.90842400  0.75000000  1
  F  F23  1  0.94608000  0.59157600  0.75000000  1
  F  F24  1  0.56428400  0.90223300  0.16572200  1
  F  F25  1  0.06428400  0.59776700  0.33427800  1
  F  F26  1  0.43571600  0.09776700  0.66572200  1
  F  F27  1  0.93571600  0.40223300  0.83427800  1
  F  F28  1  0.43571600  0.09776700  0.83427800  1
  F  F29  1  0.93571600  0.40223300  0.66572200  1
  F  F30  1  0.56428400  0.90223300  0.33427800  1
  F  F31  1  0.06428400  0.59776700  0.16572200  1
  F  F32  1  0.36245500  0.04709400  0.16612600  1
  F  F33  1  0.86245500  0.45290600  0.33387400  1
  F  F34  1  0.63754500  0.95290600  0.66612600  1
  F  F35  1  0.13754500  0.54709400  0.83387400  1
  F  F36  1  0.63754500  0.95290600  0.83387400  1
  F  F37  1  0.13754500  0.54709400  0.66612600  1
  F  F38  1  0.36245500  0.04709400  0.33387400  1
  F  F39  1  0.86245500  0.45290600  0.16612600  1
  F  F40  1  0.41908900  0.90317200  0.95794400  1
  F  F41  1  0.91908900  0.59682800  0.54205600  1
  F  F42  1  0.58091100  0.09682800  0.45794400  1
  F  F43  1  0.08091100  0.40317200  0.04205600  1
  F  F44  1  0.58091100  0.09682800  0.04205600  1
  F  F45  1  0.08091100  0.40317200  0.45794400  1
  F  F46  1  0.41908900  0.90317200  0.54205600  1
  F  F47  1  0.91908900  0.59682800  0.95794400  1
  F  F48  1  0.17564200  0.68590900  0.02167300  1
  F  F49  1  0.67564200  0.81409100  0.47832700  1
  F  F50  1  0.82435800  0.31409100  0.52167300  1
  F  F51  1  0.32435800  0.18590900  0.97832700  1
  F  F52  1  0.82435800  0.31409100  0.97832700  1
  F  F53  1  0.32435800  0.18590900  0.52167300  1
  F  F54  1  0.17564200  0.68590900  0.47832700  1
  F  F55  1  0.67564200  0.81409100  0.02167300  1
  F  F56  1  0.25310400  0.77321100  0.87574400  1
  F  F57  1  0.75310400  0.72678900  0.62425600  1
  F  F58  1  0.74689600  0.22678900  0.37574400  1
  F  F59  1  0.24689600  0.27321100  0.12425600  1
  F  F60  1  0.74689600  0.22678900  0.12425600  1
  F  F61  1  0.24689600  0.27321100  0.37574400  1
  F  F62  1  0.25310400  0.77321100  0.62425600  1
  F  F63  1  0.75310400  0.72678900  0.87574400  1
  F  F64  1  0.33870600  0.81582000  0.10191200  1
  F  F65  1  0.83870600  0.68418000  0.39808800  1
  F  F66  1  0.66129400  0.18418000  0.60191200  1
  F  F67  1  0.16129400  0.31582000  0.89808800  1
  F  F68  1  0.66129400  0.18418000  0.89808800  1
  F  F69  1  0.16129400  0.31582000  0.60191200  1
  F  F70  1  0.33870600  0.81582000  0.39808800  1
  F  F71  1  0.83870600  0.68418000  0.10191200  1
  F  F72  1  0.17598800  0.92222300  0.99689300  1
  F  F73  1  0.67598800  0.57777700  0.50310700  1
  F  F74  1  0.82401200  0.07777700  0.49689300  1
  F  F75  1  0.32401200  0.42222300  0.00310700  1
  F  F76  1  0.82401200  0.07777700  0.00310700  1
  F  F77  1  0.32401200  0.42222300  0.49689300  1
  F  F78  1  0.17598800  0.92222300  0.50310700  1
  F  F79  1  0.67598800  0.57777700  0.99689300  1
  F  F80  1  0.41591000  0.66519500  0.97969700  1
  F  F81  1  0.91591000  0.83480500  0.52030300  1
  F  F82  1  0.58409000  0.33480500  0.47969700  1
  F  F83  1  0.08409000  0.16519500  0.02030300  1
  F  F84  1  0.58409000  0.33480500  0.02030300  1
  F  F85  1  0.08409000  0.16519500  0.47969700  1
  F  F86  1  0.41591000  0.66519500  0.52030300  1
  F  F87  1  0.91591000  0.83480500  0.97969700  1
  F  F88  1  0.82683100  0.98749100  0.25000000  1
  F  F89  1  0.32683100  0.51250900  0.25000000  1
  F  F90  1  0.17316900  0.01250900  0.75000000  1
  F  F91  1  0.67316900  0.48749100  0.75000000  1
  F  F92  1  0.03634300  0.11955100  0.25000000  1
  F  F93  1  0.53634300  0.38044900  0.25000000  1
  F  F94  1  0.96365700  0.88044900  0.75000000  1
  F  F95  1  0.46365700  0.61955100  0.75000000  1
  F  F96  1  0.96205700  0.79218000  0.25000000  1
  F  F97  1  0.46205700  0.70782000  0.25000000  1
  F  F98  1  0.03794300  0.20782000  0.75000000  1
  F  F99  1  0.53794300  0.29218000  0.75000000  1
  F  F100  1  0.16671100  0.91810400  0.25000000  1
  F  F101  1  0.66671100  0.58189600  0.25000000  1
  F  F102  1  0.83328900  0.08189600  0.75000000  1
  F  F103  1  0.33328900  0.41810400  0.75000000  1
  F  F104  1  0.99789700  0.95704000  0.12931900  1
  F  F105  1  0.49789700  0.54296000  0.37068100  1
  F  F106  1  0.00210300  0.04296000  0.62931900  1
  F  F107  1  0.50210300  0.45704000  0.87068100  1
  F  F108  1  0.00210300  0.04296000  0.87068100  1
  F  F109  1  0.50210300  0.45704000  0.62931900  1
  F  F110  1  0.99789700  0.95704000  0.37068100  1
  F  F111  1  0.49789700  0.54296000  0.12931900  1
