# generated using pymatgen
data_H8Pt(N4O)2
_symmetry_space_group_name_H-M   'P 1'
_cell_length_a   6.63312192
_cell_length_b   8.29164368
_cell_length_c   8.46178702
_cell_angle_alpha   82.92452384
_cell_angle_beta   66.18359278
_cell_angle_gamma   68.11566444
_symmetry_Int_Tables_number   1
_chemical_formula_structural   H8Pt(N4O)2
_chemical_formula_sum   'H16 Pt2 N16 O4'
_cell_volume   394.87673826
_cell_formula_units_Z   2
loop_
 _symmetry_equiv_pos_site_id
 _symmetry_equiv_pos_as_xyz
  1  'x, y, z'
loop_
 _atom_site_type_symbol
 _atom_site_label
 _atom_site_symmetry_multiplicity
 _atom_site_fract_x
 _atom_site_fract_y
 _atom_site_fract_z
 _atom_site_occupancy
  H  H0  1  0.94219300  0.64218000  0.18094000  1
  H  H1  1  0.05780700  0.35782000  0.81906000  1
  H  H2  1  0.81060800  0.64938300  0.39667900  1
  H  H3  1  0.18939200  0.35061700  0.60332100  1
  H  H4  1  0.09812400  0.58881400  0.30935600  1
  H  H5  1  0.90187600  0.41118600  0.69064400  1
  H  H6  1  0.66845800  0.31601500  0.17259400  1
  H  H7  1  0.33154200  0.68398500  0.82740600  1
  H  H8  1  0.52979300  0.48186600  0.32030500  1
  H  H9  1  0.47020700  0.51813400  0.67969500  1
  H  H10  1  0.71446600  0.50577100  0.11589000  1
  H  H11  1  0.28553400  0.49422900  0.88411000  1
  H  H12  1  0.34325200  0.24143000  0.01150000  1
  H  H13  1  0.65674800  0.75857000  0.98850000  1
  H  H14  1  0.70807100  0.25254400  0.56127700  1
  H  H15  1  0.29192900  0.74745600  0.43872300  1
  Pt  Pt16  1  0.97556900  0.32723400  0.28144900  1
  Pt  Pt17  1  0.02443100  0.67276600  0.71855100  1
  N  N18  1  0.97159300  0.08040100  0.28055700  1
  N  N19  1  0.02840700  0.91959900  0.71944300  1
  N  N20  1  0.11564100  0.97588400  0.16456000  1
  N  N21  1  0.88435900  0.02411600  0.83544000  1
  N  N22  1  0.24681800  0.86429000  0.06130000  1
  N  N23  1  0.75318200  0.13571000  0.93870000  1
  N  N24  1  0.27244500  0.23902900  0.34311900  1
  N  N25  1  0.72755500  0.76097100  0.65688100  1
  N  N26  1  0.37590400  0.08221900  0.33673100  1
  N  N27  1  0.62409600  0.91778100  0.66326900  1
  N  N28  1  0.48477600  0.93510600  0.33245000  1
  N  N29  1  0.51522400  0.06489400  0.66755000  1
  N  N30  1  0.95617200  0.58133800  0.29211100  1
  N  N31  1  0.04382800  0.41866200  0.70788900  1
  N  N32  1  0.68524500  0.41911200  0.21546700  1
  N  N33  1  0.31475500  0.58088800  0.78453300  1
  O  O34  1  0.18408900  0.31980300  0.02493200  1
  O  O35  1  0.81591100  0.68019700  0.97506800  1
  O  O36  1  0.75128900  0.35660200  0.53682800  1
  O  O37  1  0.24871100  0.64339800  0.46317200  1
