# generated using pymatgen
data_Ce2Zn(SeO)2
_symmetry_space_group_name_H-M   'P 1'
_cell_length_a   5.62700993
_cell_length_b   16.92183580
_cell_length_c   16.92183580
_cell_angle_alpha   64.08499793
_cell_angle_beta   80.42928520
_cell_angle_gamma   80.42928520
_symmetry_Int_Tables_number   1
_chemical_formula_structural   Ce2Zn(SeO)2
_chemical_formula_sum   'Ce20 Zn10 Se20 O20'
_cell_volume   1421.10798257
_cell_formula_units_Z   10
loop_
 _symmetry_equiv_pos_site_id
 _symmetry_equiv_pos_as_xyz
  1  'x, y, z'
loop_
 _atom_site_type_symbol
 _atom_site_label
 _atom_site_symmetry_multiplicity
 _atom_site_fract_x
 _atom_site_fract_y
 _atom_site_fract_z
 _atom_site_occupancy
  Ce  Ce0  1  0.55773365  0.01938814  0.38084350  1
  Ce  Ce1  1  0.04203470  0.38084350  0.01938814  1
  Ce  Ce2  1  0.45796530  0.48061186  0.11915650  1
  Ce  Ce3  1  0.94226635  0.11915650  0.48061186  1
  Ce  Ce4  1  0.44226635  0.98061186  0.61915650  1
  Ce  Ce5  1  0.95796530  0.61915650  0.98061186  1
  Ce  Ce6  1  0.54203470  0.51938814  0.88084350  1
  Ce  Ce7  1  0.05773365  0.88084350  0.51938814  1
  Ce  Ce8  1  0.32831389  0.21933427  0.58102169  1
  Ce  Ce9  1  0.87133014  0.58102169  0.21933427  1
  Ce  Ce10  1  0.62866986  0.28066573  0.91897831  1
  Ce  Ce11  1  0.17168611  0.91897831  0.28066573  1
  Ce  Ce12  1  0.67168611  0.78066573  0.41897831  1
  Ce  Ce13  1  0.12866986  0.41897831  0.78066573  1
  Ce  Ce14  1  0.37133014  0.71933427  0.08102169  1
  Ce  Ce15  1  0.82831389  0.08102169  0.71933427  1
  Ce  Ce16  1  0.72604608  0.31950153  0.68049847  1
  Ce  Ce17  1  0.27395392  0.68049847  0.31950153  1
  Ce  Ce18  1  0.22604608  0.18049847  0.81950153  1
  Ce  Ce19  1  0.77395392  0.81950153  0.18049847  1
  Zn  Zn20  1  0.94394340  0.55605660  0.55605660  1
  Zn  Zn21  1  0.55605660  0.94394340  0.94394340  1
  Zn  Zn22  1  0.05605660  0.44394340  0.44394340  1
  Zn  Zn23  1  0.44394340  0.05605660  0.05605660  1
  Zn  Zn24  1  0.34826271  0.65173729  0.65173729  1
  Zn  Zn25  1  0.15173729  0.84826271  0.84826271  1
  Zn  Zn26  1  0.65173729  0.34826271  0.34826271  1
  Zn  Zn27  1  0.84826271  0.15173729  0.15173729  1
  Zn  Zn28  1  0.75000000  0.75000000  0.75000000  1
  Zn  Zn29  1  0.25000000  0.25000000  0.25000000  1
  Se  Se30  1  0.54575423  0.28645868  0.11355880  1
  Se  Se31  1  0.05422829  0.11355880  0.28645868  1
  Se  Se32  1  0.44577171  0.21354132  0.38644120  1
  Se  Se33  1  0.95424577  0.38644120  0.21354132  1
  Se  Se34  1  0.45424577  0.71354132  0.88644120  1
  Se  Se35  1  0.94577171  0.88644120  0.71354132  1
  Se  Se36  1  0.55422829  0.78645868  0.61355880  1
  Se  Se37  1  0.04575423  0.61355880  0.78645868  1
  Se  Se38  1  0.36589312  0.48653610  0.31224141  1
  Se  Se39  1  0.83532937  0.31224141  0.48653610  1
  Se  Se40  1  0.66467063  0.01346390  0.18775859  1
  Se  Se41  1  0.13410688  0.18775859  0.01346390  1
  Se  Se42  1  0.63410688  0.51346390  0.68775859  1
  Se  Se43  1  0.16467063  0.68775859  0.51346390  1
  Se  Se44  1  0.33532937  0.98653610  0.81224141  1
  Se  Se45  1  0.86589312  0.81224141  0.98653610  1
  Se  Se46  1  0.78029018  0.58613591  0.41386409  1
  Se  Se47  1  0.21970982  0.41386409  0.58613591  1
  Se  Se48  1  0.28029018  0.91386409  0.08613591  1
  Se  Se49  1  0.71970982  0.08613591  0.91386409  1
  O  O50  1  0.75000000  0.50224051  0.99775949  1
  O  O51  1  0.75000000  0.99775949  0.50224051  1
  O  O52  1  0.25000000  0.49775949  0.00224051  1
  O  O53  1  0.25000000  0.00224051  0.49775949  1
  O  O54  1  0.16410797  0.60137611  0.09857581  1
  O  O55  1  0.13594011  0.09857581  0.60137611  1
  O  O56  1  0.36405989  0.89862389  0.40142419  1
  O  O57  1  0.33589203  0.40142419  0.89862389  1
  O  O58  1  0.83589203  0.39862389  0.90142419  1
  O  O59  1  0.86405989  0.90142419  0.39862389  1
  O  O60  1  0.63594011  0.10137611  0.59857581  1
  O  O61  1  0.66410797  0.59857581  0.10137611  1
  O  O62  1  0.57415957  0.69992906  0.19991574  1
  O  O63  1  0.52599563  0.19991574  0.69992906  1
  O  O64  1  0.97400437  0.80007094  0.30008426  1
  O  O65  1  0.92584043  0.30008426  0.80007094  1
  O  O66  1  0.42584043  0.30007094  0.80008426  1
  O  O67  1  0.47400437  0.80008426  0.30007094  1
  O  O68  1  0.02599563  0.19992906  0.69991574  1
  O  O69  1  0.07415957  0.69991574  0.19992906  1
