# generated using pymatgen
data_Tb2CuH4(SO6)2
_symmetry_space_group_name_H-M   'P 1'
_cell_length_a   6.78631300
_cell_length_b   6.36197600
_cell_length_c   10.83314149
_cell_angle_alpha   82.08584559
_cell_angle_beta   90.00000000
_cell_angle_gamma   90.00000000
_symmetry_Int_Tables_number   1
_chemical_formula_structural   Tb2CuH4(SO6)2
_chemical_formula_sum   'Tb4 Cu2 H8 S4 O24'
_cell_volume   463.25920366
_cell_formula_units_Z   2
loop_
 _symmetry_equiv_pos_site_id
 _symmetry_equiv_pos_as_xyz
  1  'x, y, z'
loop_
 _atom_site_type_symbol
 _atom_site_label
 _atom_site_symmetry_multiplicity
 _atom_site_fract_x
 _atom_site_fract_y
 _atom_site_fract_z
 _atom_site_occupancy
  Tb  Tb0  1  0.50742200  0.92084500  0.31905100  1
  Tb  Tb1  1  0.00742200  0.07915500  0.18094900  1
  Tb  Tb2  1  0.49257800  0.07915500  0.68094900  1
  Tb  Tb3  1  0.99257800  0.92084500  0.81905100  1
  Cu  Cu4  1  0.50000000  0.00000000  0.00000000  1
  Cu  Cu5  1  0.00000000  0.00000000  0.50000000  1
  H  H6  1  0.71701900  0.23748900  0.88188500  1
  H  H7  1  0.21701900  0.76251100  0.61811500  1
  H  H8  1  0.28298100  0.76251100  0.11811500  1
  H  H9  1  0.78298100  0.23748900  0.38188500  1
  H  H10  1  0.62284300  0.27056400  0.11788300  1
  H  H11  1  0.12284300  0.72943600  0.38211700  1
  H  H12  1  0.37715700  0.72943600  0.88211700  1
  H  H13  1  0.87715700  0.27056400  0.61788300  1
  S  S14  1  0.33041200  0.35998100  0.37124000  1
  S  S15  1  0.83041200  0.64001900  0.12876000  1
  S  S16  1  0.66958800  0.64001900  0.62876000  1
  S  S17  1  0.16958800  0.35998100  0.87124000  1
  O  O18  1  0.68423800  0.09502000  0.86432400  1
  O  O19  1  0.18423800  0.90498000  0.63567600  1
  O  O20  1  0.31576200  0.90498000  0.13567600  1
  O  O21  1  0.81576200  0.09502000  0.36432400  1
  O  O22  1  0.66031300  0.11948100  0.12945800  1
  O  O23  1  0.16031300  0.88051900  0.37054200  1
  O  O24  1  0.33968700  0.88051900  0.87054200  1
  O  O25  1  0.83968700  0.11948100  0.62945800  1
  O  O26  1  0.30772600  0.25039600  0.25603300  1
  O  O27  1  0.80772600  0.74960400  0.24396700  1
  O  O28  1  0.69227400  0.74960400  0.74396700  1
  O  O29  1  0.19227400  0.25039600  0.75603300  1
  O  O30  1  0.44757300  0.19775300  0.45792800  1
  O  O31  1  0.94757300  0.80224700  0.04207200  1
  O  O32  1  0.55242700  0.80224700  0.54207200  1
  O  O33  1  0.05242700  0.19775300  0.95792800  1
  O  O34  1  0.45230600  0.55204600  0.33919200  1
  O  O35  1  0.95230600  0.44795400  0.16080800  1
  O  O36  1  0.54769400  0.44795400  0.66080800  1
  O  O37  1  0.04769400  0.55204600  0.83919200  1
  O  O38  1  0.14163800  0.40435300  0.42574900  1
  O  O39  1  0.64163800  0.59564700  0.07425100  1
  O  O40  1  0.85836200  0.59564700  0.57425100  1
  O  O41  1  0.35836200  0.40435300  0.92574900  1
