# generated using pymatgen
data_Bi26Mo10O69
_symmetry_space_group_name_H-M   'P 1'
_cell_length_a   5.92003900
_cell_length_b   11.90689716
_cell_length_c   25.51111554
_cell_angle_alpha   102.20462719
_cell_angle_beta   90.38862476
_cell_angle_gamma   89.99069844
_symmetry_Int_Tables_number   1
_chemical_formula_structural   Bi26Mo10O69
_chemical_formula_sum   'Bi26 Mo10 O69'
_cell_volume   1757.57584242
_cell_formula_units_Z   1
loop_
 _symmetry_equiv_pos_site_id
 _symmetry_equiv_pos_as_xyz
  1  'x, y, z'
loop_
 _atom_site_type_symbol
 _atom_site_label
 _atom_site_symmetry_multiplicity
 _atom_site_fract_x
 _atom_site_fract_y
 _atom_site_fract_z
 _atom_site_occupancy
  Bi  Bi0  1  0.09139500  0.54170000  0.32704800  1
  Bi  Bi1  1  0.90860500  0.45830000  0.67295200  1
  Bi  Bi2  1  0.49695600  0.42900600  0.40799900  1
  Bi  Bi3  1  0.50304400  0.57099400  0.59200100  1
  Bi  Bi4  1  0.58992400  0.34471500  0.25880700  1
  Bi  Bi5  1  0.41007600  0.65528500  0.74119300  1
  Bi  Bi6  1  0.99426200  0.23251700  0.34688000  1
  Bi  Bi7  1  0.00573800  0.76748300  0.65312000  1
  Bi  Bi8  1  0.99783800  0.14222300  0.18367100  1
  Bi  Bi9  1  0.00216200  0.85777700  0.81632900  1
  Bi  Bi10  1  0.07822400  0.46293000  0.17712100  1
  Bi  Bi11  1  0.92177600  0.53707000  0.82287900  1
  Bi  Bi12  1  0.58324900  0.65928600  0.25208300  1
  Bi  Bi13  1  0.41675100  0.34071400  0.74791700  1
  Bi  Bi14  1  0.49043900  0.73241600  0.40423800  1
  Bi  Bi15  1  0.50956100  0.26758400  0.59576200  1
  Bi  Bi16  1  0.99444900  0.85873900  0.32472700  1
  Bi  Bi17  1  0.00555100  0.14126100  0.67527300  1
  Bi  Bi18  1  0.98556400  0.76959600  0.16239700  1
  Bi  Bi19  1  0.01443600  0.23040400  0.83760300  1
  Bi  Bi20  1  0.47912100  0.58241900  0.09561200  1
  Bi  Bi21  1  0.52087900  0.41758100  0.90438800  1
  Bi  Bi22  1  0.48210200  0.25980200  0.10594400  1
  Bi  Bi23  1  0.51789800  0.74019800  0.89405600  1
  Bi  Bi24  1  0.00000000  0.00000000  0.50000000  1
  Bi  Bi25  1  0.00000000  0.00000000  0.00000000  1
  Mo  Mo26  1  0.50380000  0.99723500  0.24831100  1
  Mo  Mo27  1  0.49620000  0.00276500  0.75168900  1
  Mo  Mo28  1  0.00620300  0.65771200  0.48671200  1
  Mo  Mo29  1  0.99379700  0.34228800  0.51328800  1
  Mo  Mo30  1  0.00923000  0.67422900  0.98787400  1
  Mo  Mo31  1  0.99077000  0.32577100  0.01212600  1
  Mo  Mo32  1  0.49411000  0.92825400  0.07808900  1
  Mo  Mo33  1  0.50589000  0.07174600  0.92191100  1
  Mo  Mo34  1  0.50593300  0.07696200  0.42612300  1
  Mo  Mo35  1  0.49406700  0.92303800  0.57387700  1
  O  O36  1  0.26819100  0.50087400  0.25088600  1
  O  O37  1  0.73180900  0.49912600  0.74911400  1
  O  O38  1  0.78399300  0.50026000  0.25177700  1
  O  O39  1  0.21600700  0.49974000  0.74822300  1
  O  O40  1  0.73106000  0.73806100  0.33632300  1
  O  O41  1  0.26894000  0.26193900  0.66367700  1
  O  O42  1  0.90036900  0.23750800  0.26108500  1
  O  O43  1  0.09963100  0.76249200  0.73891500  1
  O  O44  1  0.24038600  0.36318300  0.34542700  1
  O  O45  1  0.75961400  0.63681700  0.65457300  1
  O  O46  1  0.72547800  0.26378200  0.16897300  1
  O  O47  1  0.27452200  0.73621800  0.83102700  1
  O  O48  1  0.74157400  0.63203900  0.15577300  1
  O  O49  1  0.25842600  0.36796100  0.84422700  1
  O  O50  1  0.75114800  0.36854800  0.34718700  1
  O  O51  1  0.24885200  0.63145200  0.65281300  1
  O  O52  1  0.22768500  0.72560300  0.33471100  1
  O  O53  1  0.77231500  0.27439700  0.66528900  1
  O  O54  1  0.42430900  0.43956700  0.13530000  1
  O  O55  1  0.57569100  0.56043300  0.86470000  1
  O  O56  1  0.21812900  0.27656000  0.16780600  1
  O  O57  1  0.78187100  0.72344000  0.83219400  1
  O  O58  1  0.23586100  0.63815800  0.16036900  1
  O  O59  1  0.76413900  0.36184200  0.83963100  1
  O  O60  1  0.89827400  0.76365200  0.24421100  1
  O  O61  1  0.10172600  0.23634800  0.75578900  1
  O  O62  1  0.45630500  0.55536400  0.35732300  1
  O  O63  1  0.54369500  0.44463600  0.64267700  1
  O  O64  1  0.32519700  0.87211100  0.24213800  1
  O  O65  1  0.67480300  0.12788900  0.75786200  1
  O  O66  1  0.32349800  0.12200200  0.25098300  1
  O  O67  1  0.67650200  0.87799800  0.74901700  1
  O  O68  1  0.04640200  0.80503000  0.47034500  1
  O  O69  1  0.95359800  0.19497000  0.52965500  1
  O  O70  1  0.75884900  0.61996100  0.44108400  1
  O  O71  1  0.24115100  0.38003900  0.55891600  1
  O  O72  1  0.89854900  0.80414600  0.96714500  1
  O  O73  1  0.10145100  0.19585400  0.03285500  1
  O  O74  1  0.67218200  0.01300100  0.30775700  1
  O  O75  1  0.32781800  0.98699900  0.69224300  1
  O  O76  1  0.78340800  0.00492600  0.42321700  1
  O  O77  1  0.21659200  0.99507400  0.57678300  1
  O  O78  1  0.25690800  0.62482500  0.94885700  1
  O  O79  1  0.74309200  0.37517500  0.05114300  1
  O  O80  1  0.69173400  0.98077500  0.19195500  1
  O  O81  1  0.30826600  0.01922500  0.80804500  1
  O  O82  1  0.51787700  0.20299200  0.39848100  1
  O  O83  1  0.48212300  0.79700800  0.60151900  1
  O  O84  1  0.06131500  0.70027000  0.05863100  1
  O  O85  1  0.93868500  0.29973000  0.94136900  1
  O  O86  1  0.79509400  0.56880900  0.97180400  1
  O  O87  1  0.20490600  0.43119100  0.02819600  1
  O  O88  1  0.29234900  0.97634100  0.39584300  1
  O  O89  1  0.70765100  0.02365900  0.60415700  1
  O  O90  1  0.34832100  0.89950300  0.01366600  1
  O  O91  1  0.65167900  0.10049700  0.98633400  1
  O  O92  1  0.78034700  0.98419900  0.07379200  1
  O  O93  1  0.21965300  0.01580100  0.92620800  1
  O  O94  1  0.03145900  0.28735600  0.44143000  1
  O  O95  1  0.96854100  0.71264400  0.55857000  1
  O  O96  1  0.32345500  0.03801200  0.11696900  1
  O  O97  1  0.67654500  0.96198800  0.88303100  1
  O  O98  1  0.50085900  0.79961100  0.10285800  1
  O  O99  1  0.49914100  0.20038900  0.89714200  1
  O  O100  1  0.28582500  0.61603200  0.45600700  1
  O  O101  1  0.71417500  0.38396800  0.54399300  1
  O  O102  1  0.41927900  0.11732100  0.49434100  1
  O  O103  1  0.58072100  0.88267900  0.50565900  1
  O  O104  1  0.00000000  0.50000000  0.50000000  1
