# generated using pymatgen
data_Zn3(Se2O7)2
_symmetry_space_group_name_H-M   'P 1'
_cell_length_a   9.43821400
_cell_length_b   8.27611800
_cell_length_c   8.82441034
_cell_angle_alpha   68.43775434
_cell_angle_beta   90.00000000
_cell_angle_gamma   90.00000000
_symmetry_Int_Tables_number   1
_chemical_formula_structural   Zn3(Se2O7)2
_chemical_formula_sum   'Zn6 Se8 O28'
_cell_volume   641.05300840
_cell_formula_units_Z   2
loop_
 _symmetry_equiv_pos_site_id
 _symmetry_equiv_pos_as_xyz
  1  'x, y, z'
loop_
 _atom_site_type_symbol
 _atom_site_label
 _atom_site_symmetry_multiplicity
 _atom_site_fract_x
 _atom_site_fract_y
 _atom_site_fract_z
 _atom_site_occupancy
  Zn  Zn0  1  0.62559800  0.06202200  0.09924500  1
  Zn  Zn1  1  0.12559800  0.43797800  0.90075500  1
  Zn  Zn2  1  0.37440200  0.93797800  0.90075500  1
  Zn  Zn3  1  0.87440200  0.56202200  0.09924500  1
  Zn  Zn4  1  0.50000000  0.50000000  0.00000000  1
  Zn  Zn5  1  0.00000000  0.00000000  0.00000000  1
  Se  Se6  1  0.67841400  0.25011100  0.38166800  1
  Se  Se7  1  0.17841400  0.24988900  0.61833200  1
  Se  Se8  1  0.32158600  0.74988900  0.61833200  1
  Se  Se9  1  0.82158600  0.75011100  0.38166800  1
  Se  Se10  1  0.80310000  0.34352200  0.83584200  1
  Se  Se11  1  0.30310000  0.15647800  0.16415800  1
  Se  Se12  1  0.19690000  0.65647800  0.16415800  1
  Se  Se13  1  0.69690000  0.84352200  0.83584200  1
  O  O14  1  0.82243300  0.15077800  0.01022800  1
  O  O15  1  0.32243300  0.34922200  0.98977200  1
  O  O16  1  0.17756700  0.84922200  0.98977200  1
  O  O17  1  0.67756700  0.65077800  0.01022800  1
  O  O18  1  0.13321700  0.10284300  0.13173300  1
  O  O19  1  0.63321700  0.39715700  0.86826700  1
  O  O20  1  0.86678300  0.89715700  0.86826700  1
  O  O21  1  0.36678300  0.60284300  0.13173300  1
  O  O22  1  0.57821200  0.26589100  0.21023900  1
  O  O23  1  0.07821200  0.23410900  0.78976100  1
  O  O24  1  0.42178800  0.73410900  0.78976100  1
  O  O25  1  0.92178800  0.76589100  0.21023900  1
  O  O26  1  0.83319300  0.35920200  0.30084700  1
  O  O27  1  0.33319300  0.14079800  0.69915300  1
  O  O28  1  0.16680700  0.64079800  0.69915300  1
  O  O29  1  0.66680700  0.85920200  0.30084700  1
  O  O30  1  0.99069900  0.14328900  0.32460300  1
  O  O31  1  0.49069900  0.35671100  0.67539700  1
  O  O32  1  0.00930100  0.85671100  0.67539700  1
  O  O33  1  0.50930100  0.64328900  0.32460300  1
  O  O34  1  0.61307800  0.40363200  0.45529800  1
  O  O35  1  0.11307800  0.09636800  0.54470200  1
  O  O36  1  0.38692200  0.59636800  0.54470200  1
  O  O37  1  0.88692200  0.90363200  0.45529800  1
  O  O38  1  0.91043500  0.48171200  0.89620000  1
  O  O39  1  0.41043500  0.01828800  0.10380000  1
  O  O40  1  0.08956500  0.51828800  0.10380000  1
  O  O41  1  0.58956500  0.98171200  0.89620000  1
