# generated using pymatgen
data_Al2Cu2Bi2S3Cl8
_symmetry_space_group_name_H-M   'P 1'
_cell_length_a   6.61010401
_cell_length_b   6.61010401
_cell_length_c   23.42188100
_cell_angle_alpha   90.00000000
_cell_angle_beta   90.00000000
_cell_angle_gamma   120.00000012
_symmetry_Int_Tables_number   1
_chemical_formula_structural   Al2Cu2Bi2S3Cl8
_chemical_formula_sum   'Al4 Cu4 Bi4 S6 Cl16'
_cell_volume   886.27599790
_cell_formula_units_Z   2
loop_
 _symmetry_equiv_pos_site_id
 _symmetry_equiv_pos_as_xyz
  1  'x, y, z'
loop_
 _atom_site_type_symbol
 _atom_site_label
 _atom_site_symmetry_multiplicity
 _atom_site_fract_x
 _atom_site_fract_y
 _atom_site_fract_z
 _atom_site_occupancy
  Al  Al0  1  0.66666700  0.33333300  0.57739500  1
  Al  Al1  1  0.33333300  0.66666700  0.07739500  1
  Al  Al2  1  0.33333300  0.66666700  0.42260500  1
  Al  Al3  1  0.66666700  0.33333300  0.92260500  1
  Cu  Cu4  1  0.66666700  0.33333300  0.75000000  1
  Cu  Cu5  1  0.33333300  0.66666700  0.25000000  1
  Cu  Cu6  1  0.00000000  0.00000000  0.75000000  1
  Cu  Cu7  1  0.00000000  0.00000000  0.25000000  1
  Bi  Bi8  1  0.33333300  0.66666700  0.67533500  1
  Bi  Bi9  1  0.66666700  0.33333300  0.17533500  1
  Bi  Bi10  1  0.66666700  0.33333300  0.32466500  1
  Bi  Bi11  1  0.33333300  0.66666700  0.82466500  1
  S  S12  1  0.33265000  0.97793900  0.75000000  1
  S  S13  1  0.02206100  0.35471200  0.75000000  1
  S  S14  1  0.64528800  0.66735000  0.75000000  1
  S  S15  1  0.66735000  0.02206100  0.25000000  1
  S  S16  1  0.97793900  0.64528800  0.25000000  1
  S  S17  1  0.35471200  0.33265000  0.25000000  1
  Cl  Cl18  1  0.66666700  0.33333300  0.48753200  1
  Cl  Cl19  1  0.33333300  0.66666700  0.98753200  1
  Cl  Cl20  1  0.33333300  0.66666700  0.51246800  1
  Cl  Cl21  1  0.66666700  0.33333300  0.01246800  1
  Cl  Cl22  1  0.90873000  0.66793400  0.61497000  1
  Cl  Cl23  1  0.33206600  0.24079500  0.61497000  1
  Cl  Cl24  1  0.75920500  0.09127000  0.61497000  1
  Cl  Cl25  1  0.09127000  0.33206600  0.11497000  1
  Cl  Cl26  1  0.66793400  0.75920500  0.11497000  1
  Cl  Cl27  1  0.24079500  0.90873000  0.11497000  1
  Cl  Cl28  1  0.09127000  0.33206600  0.38503000  1
  Cl  Cl29  1  0.66793400  0.75920500  0.38503000  1
  Cl  Cl30  1  0.24079500  0.90873000  0.38503000  1
  Cl  Cl31  1  0.90873000  0.66793400  0.88503000  1
  Cl  Cl32  1  0.33206600  0.24079500  0.88503000  1
  Cl  Cl33  1  0.75920500  0.09127000  0.88503000  1
