# generated using pymatgen
data_CdCuAsHO5
_symmetry_space_group_name_H-M   'P 1'
_cell_length_a   6.04523300
_cell_length_b   7.43469200
_cell_length_c   9.27221600
_cell_angle_alpha   90.00000000
_cell_angle_beta   90.00000000
_cell_angle_gamma   90.00000000
_symmetry_Int_Tables_number   1
_chemical_formula_structural   CdCuAsHO5
_chemical_formula_sum   'Cd4 Cu4 As4 H4 O20'
_cell_volume   416.73460596
_cell_formula_units_Z   4
loop_
 _symmetry_equiv_pos_site_id
 _symmetry_equiv_pos_as_xyz
  1  'x, y, z'
loop_
 _atom_site_type_symbol
 _atom_site_label
 _atom_site_symmetry_multiplicity
 _atom_site_fract_x
 _atom_site_fract_y
 _atom_site_fract_z
 _atom_site_occupancy
  Cd  Cd0  1  0.25000000  0.62090400  0.31613300  1
  Cd  Cd1  1  0.25000000  0.12090400  0.18386700  1
  Cd  Cd2  1  0.75000000  0.37909600  0.68386700  1
  Cd  Cd3  1  0.75000000  0.87909600  0.81613300  1
  Cu  Cu4  1  0.50000000  0.50000000  0.00000000  1
  Cu  Cu5  1  0.00000000  0.00000000  0.50000000  1
  Cu  Cu6  1  0.00000000  0.50000000  0.00000000  1
  Cu  Cu7  1  0.50000000  0.00000000  0.50000000  1
  As  As8  1  0.25000000  0.63026100  0.65907200  1
  As  As9  1  0.25000000  0.13026100  0.84092800  1
  As  As10  1  0.75000000  0.36973900  0.34092800  1
  As  As11  1  0.75000000  0.86973900  0.15907200  1
  H  H12  1  0.25000000  0.75918300  0.03021400  1
  H  H13  1  0.25000000  0.25918300  0.46978600  1
  H  H14  1  0.75000000  0.24081700  0.96978600  1
  H  H15  1  0.75000000  0.74081700  0.53021400  1
  O  O16  1  0.51179700  0.37441000  0.23869800  1
  O  O17  1  0.98820300  0.87441000  0.26130200  1
  O  O18  1  0.01179700  0.62559000  0.76130200  1
  O  O19  1  0.48820300  0.12559000  0.73869800  1
  O  O20  1  0.48820300  0.62559000  0.76130200  1
  O  O21  1  0.01179700  0.12559000  0.73869800  1
  O  O22  1  0.98820300  0.37441000  0.23869800  1
  O  O23  1  0.51179700  0.87441000  0.26130200  1
  O  O24  1  0.25000000  0.46423300  0.53034800  1
  O  O25  1  0.25000000  0.96423300  0.96965200  1
  O  O26  1  0.75000000  0.53576700  0.46965200  1
  O  O27  1  0.75000000  0.03576700  0.03034800  1
  O  O28  1  0.25000000  0.82580600  0.54720700  1
  O  O29  1  0.25000000  0.32580600  0.95279300  1
  O  O30  1  0.75000000  0.17419400  0.45279300  1
  O  O31  1  0.75000000  0.67419400  0.04720700  1
  O  O32  1  0.25000000  0.63325300  0.06865400  1
  O  O33  1  0.25000000  0.13325300  0.43134600  1
  O  O34  1  0.75000000  0.36674700  0.93134600  1
  O  O35  1  0.75000000  0.86674700  0.56865400  1
