# generated using pymatgen
data_UH18C4Se2N2O11
_symmetry_space_group_name_H-M   'P 1'
_cell_length_a   7.62948600
_cell_length_b   12.42422300
_cell_length_c   17.46779000
_cell_angle_alpha   90.00000000
_cell_angle_beta   90.00000000
_cell_angle_gamma   90.00000000
_symmetry_Int_Tables_number   1
_chemical_formula_structural   UH18C4Se2N2O11
_chemical_formula_sum   'U4 H72 C16 Se8 N8 O44'
_cell_volume   1655.77942026
_cell_formula_units_Z   4
loop_
 _symmetry_equiv_pos_site_id
 _symmetry_equiv_pos_as_xyz
  1  'x, y, z'
loop_
 _atom_site_type_symbol
 _atom_site_label
 _atom_site_symmetry_multiplicity
 _atom_site_fract_x
 _atom_site_fract_y
 _atom_site_fract_z
 _atom_site_occupancy
  U  U0  1  0.88764600  0.15036300  0.25665100  1
  U  U1  1  0.61235400  0.84963700  0.75665100  1
  U  U2  1  0.38764600  0.34963700  0.74334900  1
  U  U3  1  0.11235400  0.65036300  0.24334900  1
  H  H4  1  0.50549800  0.08617400  0.23014600  1
  H  H5  1  0.99450200  0.91382600  0.73014600  1
  H  H6  1  0.00549800  0.41382600  0.76985400  1
  H  H7  1  0.49450200  0.58617400  0.26985400  1
  H  H8  1  0.50443800  0.21279900  0.22882100  1
  H  H9  1  0.99556200  0.78720100  0.72882100  1
  H  H10  1  0.00443800  0.28720100  0.77117900  1
  H  H11  1  0.49556200  0.71279900  0.27117900  1
  H  H12  1  0.72709000  0.05236400  0.04698400  1
  H  H13  1  0.77291000  0.94763600  0.54698400  1
  H  H14  1  0.22709000  0.44763600  0.95301600  1
  H  H15  1  0.27291000  0.55236400  0.45301600  1
  H  H16  1  0.57938700  0.96127500  0.99940900  1
  H  H17  1  0.92061300  0.03872500  0.49940900  1
  H  H18  1  0.07938700  0.53872500  0.00059100  1
  H  H19  1  0.42061300  0.46127500  0.50059100  1
  H  H20  1  0.80858500  0.94748700  0.98585200  1
  H  H21  1  0.69141500  0.05251300  0.48585200  1
  H  H22  1  0.30858500  0.55251300  0.01414800  1
  H  H23  1  0.19141500  0.44748700  0.51414800  1
  H  H24  1  0.68757500  0.73335000  0.12523500  1
  H  H25  1  0.81242500  0.26665000  0.62523500  1
  H  H26  1  0.18757500  0.76665000  0.87476500  1
  H  H27  1  0.31242500  0.23335000  0.37476500  1
  H  H28  1  0.73811400  0.75602700  0.02566800  1
  H  H29  1  0.76188600  0.24397300  0.52566800  1
  H  H30  1  0.23811400  0.74397300  0.97433200  1
  H  H31  1  0.26188600  0.25602700  0.47433200  1
  H  H32  1  0.52388300  0.78519400  0.06140500  1
  H  H33  1  0.97611700  0.21480600  0.56140500  1
  H  H34  1  0.02388300  0.71480600  0.93859500  1
  H  H35  1  0.47611700  0.28519400  0.43859500  1
  H  H36  1  0.15674400  0.86737600  0.39247300  1
  H  H37  1  0.34325600  0.13262400  0.89247300  1
  H  H38  1  0.65674400  0.63262400  0.60752700  1
  H  H39  1  0.84325600  0.36737600  0.10752700  1
  H  H40  1  0.37630500  0.85121000  0.37966900  1
  H  H41  1  0.12369500  0.14879000  0.87966900  1
  H  H42  1  0.87630500  0.64879000  0.62033100  1
  H  H43  1  0.62369500  0.35121000  0.12033100  1
  H  H44  1  0.22048800  0.03310900  0.46503100  1
  H  H45  1  0.27951200  0.96689100  0.96503100  1
  H  H46  1  0.72048800  0.46689100  0.53496900  1
  H  H47  1  0.77951200  0.53310900  0.03496900  1
  H  H48  1  0.27802100  0.03581900  0.36510900  1
  H  H49  1  0.22197900  0.96418100  0.86510900  1
  H  H50  1  0.77802100  0.46418100  0.63489100  1
  H  H51  1  0.72197900  0.53581900  0.13489100  1
  H  H52  1  0.44340500  0.01566100  0.43713900  1
  H  H53  1  0.05659500  0.98433900  0.93713900  1
  H  H54  1  0.94340500  0.48433900  0.56286100  1
  H  H55  1  0.55659500  0.51566100  0.06286100  1
  H  H56  1  0.18359800  0.85536700  0.52802000  1
  H  H57  1  0.31640200  0.14463300  0.02802000  1
  H  H58  1  0.68359800  0.64463300  0.47198000  1
  H  H59  1  0.81640200  0.35536700  0.97198000  1
  H  H60  1  0.41637900  0.84904200  0.51959300  1
  H  H61  1  0.08362100  0.15095800  0.01959300  1
  H  H62  1  0.91637900  0.65095800  0.48040700  1
  H  H63  1  0.58362100  0.34904200  0.98040700  1
  H  H64  1  0.28437600  0.74080000  0.48399500  1
  H  H65  1  0.21562400  0.25920000  0.98399500  1
  H  H66  1  0.78437600  0.75920000  0.51600500  1
  H  H67  1  0.71562400  0.24080000  0.01600500  1
  H  H68  1  0.84730300  0.89779200  0.11446300  1
  H  H69  1  0.65269700  0.10220800  0.61446300  1
  H  H70  1  0.34730300  0.60220800  0.88553700  1
  H  H71  1  0.15269700  0.39779200  0.38553700  1
  H  H72  1  0.63509700  0.92517900  0.13642100  1
  H  H73  1  0.86490300  0.07482100  0.63642100  1
  H  H74  1  0.13509700  0.57482100  0.86357900  1
  H  H75  1  0.36490300  0.42517900  0.36357900  1
  C  C76  1  0.70701600  0.96997100  0.02697400  1
  C  C77  1  0.79298400  0.03002900  0.52697400  1
  C  C78  1  0.20701600  0.53002900  0.97302600  1
  C  C79  1  0.29298400  0.46997100  0.47302600  1
  C  C80  1  0.66384300  0.78441600  0.07533100  1
  C  C81  1  0.83615700  0.21558400  0.57533100  1
  C  C82  1  0.16384300  0.71558400  0.92466900  1
  C  C83  1  0.33615700  0.28441600  0.42466900  1
  C  C84  1  0.30721900  0.00034800  0.42097000  1
  C  C85  1  0.19278100  0.99965200  0.92097000  1
  C  C86  1  0.80721900  0.49965200  0.57903000  1
  C  C87  1  0.69278100  0.50034800  0.07903000  1
  C  C88  1  0.29223500  0.82786000  0.49203900  1
  C  C89  1  0.20776500  0.17214000  0.99203900  1
  C  C90  1  0.79223500  0.67214000  0.50796100  1
  C  C91  1  0.70776500  0.32786000  0.00796100  1
  Se  Se92  1  0.78682700  0.85726000  0.31375300  1
  Se  Se93  1  0.71317300  0.14274000  0.81375300  1
  Se  Se94  1  0.28682700  0.64274000  0.68624700  1
  Se  Se95  1  0.21317300  0.35726000  0.18624700  1
  Se  Se96  1  0.21199400  0.94008500  0.18525700  1
  Se  Se97  1  0.28800600  0.05991500  0.68525700  1
  Se  Se98  1  0.71199400  0.55991500  0.81474300  1
  Se  Se99  1  0.78800600  0.44008500  0.31474300  1
  N  N100  1  0.28053300  0.88204100  0.41618500  1
  N  N101  1  0.21946700  0.11795900  0.91618500  1
  N  N102  1  0.78053300  0.61795900  0.58381500  1
  N  N103  1  0.71946700  0.38204100  0.08381500  1
  N  N104  1  0.71811300  0.89626800  0.09388700  1
  N  N105  1  0.78188700  0.10373200  0.59388700  1
  N  N106  1  0.21811300  0.60373200  0.90611300  1
  N  N107  1  0.28188700  0.39626800  0.40611300  1
  O  O108  1  0.86219700  0.15207800  0.15315800  1
  O  O109  1  0.63780300  0.84792200  0.65315800  1
  O  O110  1  0.36219700  0.34792200  0.84684200  1
  O  O111  1  0.13780300  0.65207800  0.34684200  1
  O  O112  1  0.91344600  0.15029700  0.35962000  1
  O  O113  1  0.58655400  0.84970300  0.85962000  1
  O  O114  1  0.41344600  0.34970300  0.64038000  1
  O  O115  1  0.08655400  0.65029700  0.14038000  1
  O  O116  1  0.76235100  0.97252900  0.26296200  1
  O  O117  1  0.73764900  0.02747100  0.76296200  1
  O  O118  1  0.26235100  0.52747100  0.73703800  1
  O  O119  1  0.23764900  0.47252900  0.23703800  1
  O  O120  1  0.58943900  0.81164700  0.33840900  1
  O  O121  1  0.91056100  0.18835300  0.83840900  1
  O  O122  1  0.08943900  0.68835300  0.66159100  1
  O  O123  1  0.41056100  0.31164700  0.16159100  1
  O  O124  1  0.86942400  0.76812600  0.24953300  1
  O  O125  1  0.63057600  0.23187400  0.74953300  1
  O  O126  1  0.36942400  0.73187400  0.75046700  1
  O  O127  1  0.13057600  0.26812600  0.25046700  1
  O  O128  1  0.91720400  0.87396600  0.38835600  1
  O  O129  1  0.58279600  0.12603400  0.88835600  1
  O  O130  1  0.41720400  0.62603400  0.61164400  1
  O  O131  1  0.08279600  0.37396600  0.11164400  1
  O  O132  1  0.12707600  0.03255900  0.24639000  1
  O  O133  1  0.37292400  0.96744100  0.74639000  1
  O  O134  1  0.62707600  0.46744100  0.75361000  1
  O  O135  1  0.87292400  0.53255900  0.25361000  1
  O  O136  1  0.08366200  0.91964900  0.11034100  1
  O  O137  1  0.41633800  0.08035100  0.61034100  1
  O  O138  1  0.58366200  0.58035100  0.88965900  1
  O  O139  1  0.91633800  0.41964900  0.38965900  1
  O  O140  1  0.23375900  0.82739100  0.23914800  1
  O  O141  1  0.26624100  0.17260900  0.73914800  1
  O  O142  1  0.73375900  0.67260900  0.76085200  1
  O  O143  1  0.76624100  0.32739100  0.26085200  1
  O  O144  1  0.41034600  0.98389000  0.16096000  1
  O  O145  1  0.08965400  0.01611000  0.66096000  1
  O  O146  1  0.91034600  0.51611000  0.83904000  1
  O  O147  1  0.58965400  0.48389000  0.33904000  1
  O  O148  1  0.55535400  0.15007400  0.25619300  1
  O  O149  1  0.94464600  0.84992600  0.75619300  1
  O  O150  1  0.05535400  0.34992600  0.74380700  1
  O  O151  1  0.44464600  0.65007400  0.24380700  1
