# generated using pymatgen
data_Mo2H33C13S2N4Cl3O5
_symmetry_space_group_name_H-M   'P 1'
_cell_length_a   9.13712200
_cell_length_b   12.48831487
_cell_length_c   14.97858368
_cell_angle_alpha   73.10423981
_cell_angle_beta   75.64491937
_cell_angle_gamma   78.30138495
_symmetry_Int_Tables_number   1
_chemical_formula_structural   Mo2H33C13S2N4Cl3O5
_chemical_formula_sum   'Mo4 H66 C26 S4 N8 Cl6 O10'
_cell_volume   1568.49925040
_cell_formula_units_Z   2
loop_
 _symmetry_equiv_pos_site_id
 _symmetry_equiv_pos_as_xyz
  1  'x, y, z'
loop_
 _atom_site_type_symbol
 _atom_site_label
 _atom_site_symmetry_multiplicity
 _atom_site_fract_x
 _atom_site_fract_y
 _atom_site_fract_z
 _atom_site_occupancy
  Mo  Mo0  1  0.24122300  0.79785500  0.74702100  1
  Mo  Mo1  1  0.75877700  0.20214500  0.25297900  1
  Mo  Mo2  1  0.28944400  0.54296500  0.69294700  1
  Mo  Mo3  1  0.71055600  0.45703500  0.30705300  1
  H  H4  1  0.97469300  0.90132200  0.91671800  1
  H  H5  1  0.02530700  0.09867800  0.08328200  1
  H  H6  1  0.76080800  0.95526200  0.00228400  1
  H  H7  1  0.23919200  0.04473800  0.99771600  1
  H  H8  1  0.59756200  0.91134500  0.98422100  1
  H  H9  1  0.40243800  0.08865500  0.01577900  1
  H  H10  1  0.67279300  0.84225400  0.08898300  1
  H  H11  1  0.32720700  0.15774600  0.91101700  1
  H  H12  1  0.72498200  0.64572900  0.03764100  1
  H  H13  1  0.27501800  0.35427100  0.96235900  1
  H  H14  1  0.63023000  0.72712000  0.94326500  1
  H  H15  1  0.36977000  0.27288000  0.05673500  1
  H  H16  1  0.82173100  0.65690500  0.91593700  1
  H  H17  1  0.17826900  0.34309500  0.08406300  1
  H  H18  1  0.13901200  0.30413800  0.77464100  1
  H  H19  1  0.86098800  0.69586200  0.22535900  1
  H  H20  1  0.84021400  0.48923400  0.88812300  1
  H  H21  1  0.15978600  0.51076600  0.11187700  1
  H  H22  1  0.69916500  0.42288300  0.86737600  1
  H  H23  1  0.30083500  0.57711700  0.13262400  1
  H  H24  1  0.77053600  0.36854200  0.97530300  1
  H  H25  1  0.22946400  0.63145800  0.02469700  1
  H  H26  1  0.99014700  0.17629100  0.82159500  1
  H  H27  1  0.00985300  0.82370900  0.17840500  1
  H  H28  1  0.84965000  0.17920100  0.92934500  1
  H  H29  1  0.15035000  0.82079900  0.07065500  1
  H  H30  1  0.79646700  0.23663000  0.81607300  1
  H  H31  1  0.20353300  0.76337000  0.18392700  1
  H  H32  1  0.30979800  0.52904300  0.47696400  1
  H  H33  1  0.69020200  0.47095700  0.52303600  1
  H  H34  1  0.02931000  0.33664100  0.60013400  1
  H  H35  1  0.97069000  0.66335900  0.39986600  1
  H  H36  1  0.02499400  0.30474400  0.49096300  1
  H  H37  1  0.97500600  0.69525600  0.50903700  1
  H  H38  1  0.17122300  0.23332800  0.55600800  1
  H  H39  1  0.82877700  0.76667200  0.44399200  1
  H  H40  1  0.32089600  0.33660400  0.36602900  1
  H  H41  1  0.67910400  0.66339600  0.63397100  1
  H  H42  1  0.14237700  0.42116100  0.34701900  1
  H  H43  1  0.85762300  0.57883900  0.65298100  1
  H  H44  1  0.30327000  0.48564400  0.34509000  1
  H  H45  1  0.69673000  0.51435600  0.65491000  1
  H  H46  1  0.17031300  0.05194900  0.39850800  1
  H  H47  1  0.82968700  0.94805100  0.60149200  1
  H  H48  1  0.27095800  0.98626900  0.49446200  1
  H  H49  1  0.72904200  0.01373100  0.50553800  1
  H  H50  1  0.35620600  0.08667300  0.39088900  1
  H  H51  1  0.64379400  0.91332700  0.60911100  1
  H  H52  1  0.32194300  0.76353900  0.37078400  1
  H  H53  1  0.67805700  0.23646100  0.62921600  1
  H  H54  1  0.25833500  0.79792700  0.48446700  1
  H  H55  1  0.74166500  0.20207300  0.51553300  1
  H  H56  1  0.15012900  0.86170000  0.39194000  1
  H  H57  1  0.84987100  0.13830000  0.60806000  1
  H  H58  1  0.58158100  0.95517400  0.36114500  1
  H  H59  1  0.41841900  0.04482600  0.63885500  1
  H  H60  1  0.50393700  0.85343400  0.46701300  1
  H  H61  1  0.49606300  0.14656600  0.53298700  1
  H  H62  1  0.56482300  0.81597000  0.35455000  1
  H  H63  1  0.43517700  0.18403000  0.64545000  1
  H  H64  1  0.25006900  0.99914100  0.25158700  1
  H  H65  1  0.74993100  0.00085900  0.74841300  1
  H  H66  1  0.43703700  0.03793600  0.23677500  1
  H  H67  1  0.56296300  0.96206400  0.76322500  1
  H  H68  1  0.41992000  0.89921700  0.23140400  1
  H  H69  1  0.58008000  0.10078300  0.76859600  1
  C  C70  1  0.94288700  0.82132900  0.91521600  1
  C  C71  1  0.05711300  0.17867100  0.08478400  1
  C  C72  1  0.05678200  0.36757600  0.80605600  1
  C  C73  1  0.94321800  0.63242400  0.19394400  1
  C  C74  1  0.23252000  0.46871400  0.52284600  1
  C  C75  1  0.76748000  0.53128600  0.47715400  1
  C  C76  1  0.70315700  0.88236600  0.01237600  1
  C  C77  1  0.29684300  0.11763400  0.98762400  1
  C  C78  1  0.74120400  0.70149500  0.96512400  1
  C  C79  1  0.25879600  0.29850500  0.03487600  1
  C  C80  1  0.80054600  0.40868100  0.89869600  1
  C  C81  1  0.19945400  0.59131900  0.10130400  1
  C  C82  1  0.88836700  0.22514400  0.85505200  1
  C  C83  1  0.11163300  0.77485600  0.14494800  1
  C  C84  1  0.09828000  0.31443800  0.53531100  1
  C  C85  1  0.90172000  0.68556200  0.46468900  1
  C  C86  1  0.24221300  0.41246800  0.37840700  1
  C  C87  1  0.75778700  0.58753200  0.62159300  1
  C  C88  1  0.28267400  0.02006100  0.41717400  1
  C  C89  1  0.71732600  0.97993900  0.58282600  1
  C  C90  1  0.26456800  0.82983900  0.40732800  1
  C  C91  1  0.73543200  0.17016100  0.59267200  1
  C  C92  1  0.51470500  0.88462000  0.38961800  1
  C  C93  1  0.48529500  0.11538000  0.61038200  1
  C  C94  1  0.36654100  0.96940900  0.26407700  1
  C  C95  1  0.63345900  0.03059100  0.73592300  1
  S  S96  1  0.35147900  0.60689400  0.81140900  1
  S  S97  1  0.64852100  0.39310600  0.18859100  1
  S  S98  1  0.10530600  0.71117600  0.67299300  1
  S  S99  1  0.89469400  0.28882400  0.32700700  1
  N  N100  1  0.80237300  0.80204700  0.96254400  1
  N  N101  1  0.19762700  0.19795300  0.03745600  1
  N  N102  1  0.92223900  0.33516200  0.85242200  1
  N  N103  1  0.07776100  0.66483800  0.14757800  1
  N  N104  1  0.19062100  0.40334100  0.48030700  1
  N  N105  1  0.80937900  0.59665900  0.51969300  1
  N  N106  1  0.35692100  0.92614200  0.36971500  1
  N  N107  1  0.64307900  0.07385800  0.63028500  1
  Cl  Cl108  1  0.31725500  0.85835900  0.87176600  1
  Cl  Cl109  1  0.68274500  0.14164100  0.12823400  1
  Cl  Cl110  1  0.06643100  0.98284100  0.70975600  1
  Cl  Cl111  1  0.93356900  0.01715900  0.29024400  1
  Cl  Cl112  1  0.43287300  0.34932000  0.75134100  1
  Cl  Cl113  1  0.56712700  0.65068000  0.24865900  1
  O  O114  1  0.38806000  0.84265000  0.65317500  1
  O  O115  1  0.61194000  0.15735000  0.34682500  1
  O  O116  1  0.42591000  0.58415000  0.59179300  1
  O  O117  1  0.57409000  0.41585000  0.40820700  1
  O  O118  1  0.03417000  0.75513400  0.87138200  1
  O  O119  1  0.96583000  0.24486600  0.12861800  1
  O  O120  1  0.09163500  0.46301000  0.79779500  1
  O  O121  1  0.90836500  0.53699000  0.20220500  1
  O  O122  1  0.18790700  0.46194800  0.61095500  1
  O  O123  1  0.81209300  0.53805200  0.38904500  1
