# generated using pymatgen
data_MoW3(Se3S)2
_symmetry_space_group_name_H-M   'P 1'
_cell_length_a   3.28692651
_cell_length_b   3.28692651
_cell_length_c   37.38653000
_cell_angle_alpha   90.00000000
_cell_angle_beta   90.00000000
_cell_angle_gamma   120.00001017
_symmetry_Int_Tables_number   1
_chemical_formula_structural   MoW3(Se3S)2
_chemical_formula_sum   'Mo1 W3 Se6 S2'
_cell_volume   349.80477422
_cell_formula_units_Z   1
loop_
 _symmetry_equiv_pos_site_id
 _symmetry_equiv_pos_as_xyz
  1  'x, y, z'
loop_
 _atom_site_type_symbol
 _atom_site_label
 _atom_site_symmetry_multiplicity
 _atom_site_fract_x
 _atom_site_fract_y
 _atom_site_fract_z
 _atom_site_occupancy
  Mo  Mo0  1  0.00000000  0.00000000  0.09392700  1
  W  W1  1  0.00000000  0.00000000  0.46965000  1
  W  W2  1  0.33333300  0.66666700  0.28180000  1
  W  W3  1  0.33333300  0.66666700  0.65754200  1
  Se  Se4  1  0.00000000  0.00000000  0.70292200  1
  Se  Se5  1  0.33333300  0.66666700  0.04882300  1
  Se  Se6  1  0.33333300  0.66666700  0.42427700  1
  Se  Se7  1  0.33333300  0.66666700  0.13903200  1
  Se  Se8  1  0.33333300  0.66666700  0.51502700  1
  Se  Se9  1  0.00000000  0.00000000  0.61215100  1
  S  S10  1  0.00000000  0.00000000  0.32302900  1
  S  S11  1  0.00000000  0.00000000  0.24057000  1
