# generated using pymatgen
data_K2NaAl3F12
_symmetry_space_group_name_H-M   'P 1'
_cell_length_a   7.07858500
_cell_length_b   11.43990600
_cell_length_c   12.03744400
_cell_angle_alpha   90.00000000
_cell_angle_beta   90.00000000
_cell_angle_gamma   90.00000000
_symmetry_Int_Tables_number   1
_chemical_formula_structural   K2NaAl3F12
_chemical_formula_sum   'K8 Na4 Al12 F48'
_cell_volume   974.77231738
_cell_formula_units_Z   4
loop_
 _symmetry_equiv_pos_site_id
 _symmetry_equiv_pos_as_xyz
  1  'x, y, z'
loop_
 _atom_site_type_symbol
 _atom_site_label
 _atom_site_symmetry_multiplicity
 _atom_site_fract_x
 _atom_site_fract_y
 _atom_site_fract_z
 _atom_site_occupancy
  K  K0  1  0.75000000  0.55931700  0.60487400  1
  K  K1  1  0.75000000  0.05931700  0.89512600  1
  K  K2  1  0.25000000  0.44068300  0.39512600  1
  K  K3  1  0.25000000  0.94068300  0.10487400  1
  K  K4  1  0.75000000  0.45569100  0.92626700  1
  K  K5  1  0.75000000  0.95569100  0.57373300  1
  K  K6  1  0.25000000  0.54430900  0.07373300  1
  K  K7  1  0.25000000  0.04430900  0.42626700  1
  Na  Na8  1  0.25000000  0.98640000  0.72886900  1
  Na  Na9  1  0.25000000  0.48640000  0.77113100  1
  Na  Na10  1  0.75000000  0.01360000  0.27113100  1
  Na  Na11  1  0.75000000  0.51360000  0.22886900  1
  Al  Al12  1  0.50031500  0.25266900  0.66941800  1
  Al  Al13  1  0.99968500  0.75266900  0.83058200  1
  Al  Al14  1  0.00031500  0.74733100  0.33058200  1
  Al  Al15  1  0.49968500  0.24733100  0.16941800  1
  Al  Al16  1  0.49968500  0.74733100  0.33058200  1
  Al  Al17  1  0.00031500  0.24733100  0.16941800  1
  Al  Al18  1  0.99968500  0.25266900  0.66941800  1
  Al  Al19  1  0.50031500  0.75266900  0.83058200  1
  Al  Al20  1  0.25000000  0.20666100  0.92033000  1
  Al  Al21  1  0.25000000  0.70666100  0.57967000  1
  Al  Al22  1  0.75000000  0.79333900  0.07967000  1
  Al  Al23  1  0.75000000  0.29333900  0.42033000  1
  F  F24  1  0.56212300  0.30064900  0.52760900  1
  F  F25  1  0.93787700  0.80064900  0.97239100  1
  F  F26  1  0.06212300  0.69935100  0.47239100  1
  F  F27  1  0.43787700  0.19935100  0.02760900  1
  F  F28  1  0.43787700  0.69935100  0.47239100  1
  F  F29  1  0.06212300  0.19935100  0.02760900  1
  F  F30  1  0.93787700  0.30064900  0.52760900  1
  F  F31  1  0.56212300  0.80064900  0.97239100  1
  F  F32  1  0.75000000  0.21098100  0.69883000  1
  F  F33  1  0.75000000  0.71098100  0.80117000  1
  F  F34  1  0.25000000  0.78901900  0.30117000  1
  F  F35  1  0.25000000  0.28901900  0.19883000  1
  F  F36  1  0.53943100  0.39611200  0.72140700  1
  F  F37  1  0.96056900  0.89611200  0.77859300  1
  F  F38  1  0.03943100  0.60388800  0.27859300  1
  F  F39  1  0.46056900  0.10388800  0.22140700  1
  F  F40  1  0.46056900  0.60388800  0.27859300  1
  F  F41  1  0.03943100  0.10388800  0.22140700  1
  F  F42  1  0.96056900  0.39611200  0.72140700  1
  F  F43  1  0.53943100  0.89611200  0.77859300  1
  F  F44  1  0.25000000  0.29177400  0.64266000  1
  F  F45  1  0.25000000  0.79177400  0.85734000  1
  F  F46  1  0.75000000  0.70822600  0.35734000  1
  F  F47  1  0.75000000  0.20822600  0.14266000  1
  F  F48  1  0.45761000  0.10823500  0.62094700  1
  F  F49  1  0.04239000  0.60823500  0.87905300  1
  F  F50  1  0.95761000  0.89176500  0.37905300  1
  F  F51  1  0.54239000  0.39176500  0.12094700  1
  F  F52  1  0.54239000  0.89176500  0.37905300  1
  F  F53  1  0.95761000  0.39176500  0.12094700  1
  F  F54  1  0.04239000  0.10823500  0.62094700  1
  F  F55  1  0.45761000  0.60823500  0.87905300  1
  F  F56  1  0.44006300  0.20460900  0.81283300  1
  F  F57  1  0.05993700  0.70460900  0.68716700  1
  F  F58  1  0.94006300  0.79539100  0.18716700  1
  F  F59  1  0.55993700  0.29539100  0.31283300  1
  F  F60  1  0.55993700  0.79539100  0.18716700  1
  F  F61  1  0.94006300  0.29539100  0.31283300  1
  F  F62  1  0.05993700  0.20460900  0.81283300  1
  F  F63  1  0.44006300  0.70460900  0.68716700  1
  F  F64  1  0.25000000  0.36046800  0.92202100  1
  F  F65  1  0.25000000  0.86046800  0.57797900  1
  F  F66  1  0.75000000  0.63953200  0.07797900  1
  F  F67  1  0.75000000  0.13953200  0.42202100  1
  F  F68  1  0.25000000  0.05183500  0.91408400  1
  F  F69  1  0.25000000  0.55183500  0.58591600  1
  F  F70  1  0.75000000  0.94816500  0.08591600  1
  F  F71  1  0.75000000  0.44816500  0.41408400  1
