# generated using pymatgen
data_NaB5H8O13
_symmetry_space_group_name_H-M   'P 1'
_cell_length_a   9.88898603
_cell_length_b   9.88898603
_cell_length_c   13.66442515
_cell_angle_alpha   77.77520903
_cell_angle_beta   77.77520903
_cell_angle_gamma   111.06974574
_symmetry_Int_Tables_number   1
_chemical_formula_structural   NaB5H8O13
_chemical_formula_sum   'Na4 B20 H32 O52'
_cell_volume   1156.35366621
_cell_formula_units_Z   4
loop_
 _symmetry_equiv_pos_site_id
 _symmetry_equiv_pos_as_xyz
  1  'x, y, z'
loop_
 _atom_site_type_symbol
 _atom_site_label
 _atom_site_symmetry_multiplicity
 _atom_site_fract_x
 _atom_site_fract_y
 _atom_site_fract_z
 _atom_site_occupancy
  Na  Na0  1  0.12464800  0.87535200  0.75000000  1
  Na  Na1  1  0.87535200  0.12464800  0.25000000  1
  Na  Na2  1  0.34080600  0.65919400  0.25000000  1
  Na  Na3  1  0.65919400  0.34080600  0.75000000  1
  B  B4  1  0.32860000  0.15837100  0.32420200  1
  B  B5  1  0.84162900  0.67140000  0.17579800  1
  B  B6  1  0.67140000  0.84162900  0.67579800  1
  B  B7  1  0.15837100  0.32860000  0.82420200  1
  B  B8  1  0.20556000  0.06739400  0.51730400  1
  B  B9  1  0.93260600  0.79444000  0.98269600  1
  B  B10  1  0.79444000  0.93260600  0.48269600  1
  B  B11  1  0.06739400  0.20556000  0.01730400  1
  B  B12  1  0.47895700  0.16622200  0.45284500  1
  B  B13  1  0.83377800  0.52104300  0.04715500  1
  B  B14  1  0.52104300  0.83377800  0.54715500  1
  B  B15  1  0.16622200  0.47895700  0.95284500  1
  B  B16  1  0.36403700  0.13870600  0.14106100  1
  B  B17  1  0.86129400  0.63596300  0.35893900  1
  B  B18  1  0.63596300  0.86129400  0.85893900  1
  B  B19  1  0.13870600  0.36403700  0.64106100  1
  B  B20  1  0.38810900  0.37558200  0.16626500  1
  B  B21  1  0.62441800  0.61189100  0.33373500  1
  B  B22  1  0.61189100  0.62441800  0.83373500  1
  B  B23  1  0.37558200  0.38810900  0.66626500  1
  H  H24  1  0.70668600  0.24828900  0.40943500  1
  H  H25  1  0.75171100  0.29331400  0.09056500  1
  H  H26  1  0.29331400  0.75171100  0.59056500  1
  H  H27  1  0.24828900  0.70668600  0.90943500  1
  H  H28  1  0.31857000  0.94442300  0.10050900  1
  H  H29  1  0.05557700  0.68143000  0.39949100  1
  H  H30  1  0.68143000  0.05557700  0.89949100  1
  H  H31  1  0.94442300  0.31857000  0.60050900  1
  H  H32  1  0.40612900  0.86355600  0.75028400  1
  H  H33  1  0.13644400  0.59387100  0.74971600  1
  H  H34  1  0.59387100  0.13644400  0.24971600  1
  H  H35  1  0.86355600  0.40612900  0.25028400  1
  H  H36  1  0.37148600  0.96426200  0.82425100  1
  H  H37  1  0.03573800  0.62851400  0.67574900  1
  H  H38  1  0.62851400  0.03573800  0.17574900  1
  H  H39  1  0.96426200  0.37148600  0.32425100  1
  H  H40  1  0.63907700  0.81338300  0.16170400  1
  H  H41  1  0.18661700  0.36092300  0.33829600  1
  H  H42  1  0.36092300  0.18661700  0.83829600  1
  H  H43  1  0.81338300  0.63907700  0.66170400  1
  H  H44  1  0.59674700  0.89151700  0.06653200  1
  H  H45  1  0.10848300  0.40325300  0.43346800  1
  H  H46  1  0.40325300  0.10848300  0.93346800  1
  H  H47  1  0.89151700  0.59674700  0.56653200  1
  H  H48  1  0.21865800  0.70213700  0.08308700  1
  H  H49  1  0.29786300  0.78134200  0.41691300  1
  H  H50  1  0.78134200  0.29786300  0.91691300  1
  H  H51  1  0.70213700  0.21865800  0.58308700  1
  H  H52  1  0.11579600  0.72644000  0.17807600  1
  H  H53  1  0.27356000  0.88420400  0.32192400  1
  H  H54  1  0.88420400  0.27356000  0.82192400  1
  H  H55  1  0.72644000  0.11579600  0.67807600  1
  O  O56  1  0.19354000  0.07667800  0.41902700  1
  O  O57  1  0.92332200  0.80646000  0.08097300  1
  O  O58  1  0.80646000  0.92332200  0.58097300  1
  O  O59  1  0.07667800  0.19354000  0.91902700  1
  O  O60  1  0.47059700  0.18181100  0.35204200  1
  O  O61  1  0.81818900  0.52940300  0.14795800  1
  O  O62  1  0.52940300  0.81818900  0.64795800  1
  O  O63  1  0.18181100  0.47059700  0.85204200  1
  O  O64  1  0.32011100  0.07114000  0.24884300  1
  O  O65  1  0.92886000  0.67988900  0.25115700  1
  O  O66  1  0.67988900  0.92886000  0.75115700  1
  O  O67  1  0.07114000  0.32011100  0.74884300  1
  O  O68  1  0.32509100  0.30656900  0.27417700  1
  O  O69  1  0.69343100  0.67490900  0.22582300  1
  O  O70  1  0.67490900  0.69343100  0.72582300  1
  O  O71  1  0.30656900  0.32509100  0.77417700  1
  O  O72  1  0.08192400  0.00912200  0.60723700  1
  O  O73  1  0.99087800  0.91807600  0.89276300  1
  O  O74  1  0.91807600  0.99087800  0.39276300  1
  O  O75  1  0.00912200  0.08192400  0.10723700  1
  O  O76  1  0.34465700  0.11169400  0.53785200  1
  O  O77  1  0.88830600  0.65534300  0.96214800  1
  O  O78  1  0.65534300  0.88830600  0.46214800  1
  O  O79  1  0.11169400  0.34465700  0.03785200  1
  O  O80  1  0.61424600  0.19999600  0.47431000  1
  O  O81  1  0.80000400  0.38575400  0.02569000  1
  O  O82  1  0.38575400  0.80000400  0.52569000  1
  O  O83  1  0.19999600  0.61424600  0.97431000  1
  O  O84  1  0.36817300  0.05856400  0.07125700  1
  O  O85  1  0.94143600  0.63182700  0.42874300  1
  O  O86  1  0.63182700  0.94143600  0.92874300  1
  O  O87  1  0.05856400  0.36817300  0.57125700  1
  O  O88  1  0.40992300  0.29531600  0.09822800  1
  O  O89  1  0.70468400  0.59007700  0.40177200  1
  O  O90  1  0.59007700  0.70468400  0.90177200  1
  O  O91  1  0.29531600  0.40992300  0.59822800  1
  O  O92  1  0.42873300  0.52882700  0.13664900  1
  O  O93  1  0.47117300  0.57126700  0.36335100  1
  O  O94  1  0.57126700  0.47117300  0.86335100  1
  O  O95  1  0.52882700  0.42873300  0.63664900  1
  O  O96  1  0.32709600  0.86720400  0.80625900  1
  O  O97  1  0.13279600  0.67290400  0.69374100  1
  O  O98  1  0.67290400  0.13279600  0.19374100  1
  O  O99  1  0.86720400  0.32709600  0.30625900  1
  O  O100  1  0.58344900  0.87551700  0.14288600  1
  O  O101  1  0.12448300  0.41655100  0.35711400  1
  O  O102  1  0.41655100  0.12448300  0.85711400  1
  O  O103  1  0.87551700  0.58344900  0.64288600  1
  O  O104  1  0.22315500  0.75263400  0.13829800  1
  O  O105  1  0.24736600  0.77684500  0.36170200  1
  O  O106  1  0.77684500  0.24736600  0.86170300  1
  O  O107  1  0.75263400  0.22315500  0.63829700  1
