# generated using pymatgen
data_Co2H36Pt3(NCl)12
_symmetry_space_group_name_H-M   'P 1'
_cell_length_a   7.88440800
_cell_length_b   7.95918274
_cell_length_c   13.16750127
_cell_angle_alpha   89.09959000
_cell_angle_beta   84.21249953
_cell_angle_gamma   88.01964611
_symmetry_Int_Tables_number   1
_chemical_formula_structural   Co2H36Pt3(NCl)12
_chemical_formula_sum   'Co2 H36 Pt3 N12 Cl12'
_cell_volume   821.54099242
_cell_formula_units_Z   1
loop_
 _symmetry_equiv_pos_site_id
 _symmetry_equiv_pos_as_xyz
  1  'x, y, z'
loop_
 _atom_site_type_symbol
 _atom_site_label
 _atom_site_symmetry_multiplicity
 _atom_site_fract_x
 _atom_site_fract_y
 _atom_site_fract_z
 _atom_site_occupancy
  Co  Co0  1  0.50000000  0.50000000  0.00000000  1
  Co  Co1  1  0.00000000  0.00000000  0.50000000  1
  H  H2  1  0.67466700  0.56037300  0.82910600  1
  H  H3  1  0.32533300  0.43962700  0.17089400  1
  H  H4  1  0.74025000  0.67826700  0.91878400  1
  H  H5  1  0.25975000  0.32173300  0.08121600  1
  H  H6  1  0.80217800  0.47738500  0.90940300  1
  H  H7  1  0.19782200  0.52261500  0.09059700  1
  H  H8  1  0.73519800  0.28106400  0.03321500  1
  H  H9  1  0.26480200  0.71893600  0.96678500  1
  H  H10  1  0.71906700  0.41882000  0.12566500  1
  H  H11  1  0.28093300  0.58118000  0.87433500  1
  H  H12  1  0.58098800  0.27119400  0.12819000  1
  H  H13  1  0.41901200  0.72880600  0.87181000  1
  H  H14  1  0.65229900  0.74094900  0.07424300  1
  H  H15  1  0.34770100  0.25905100  0.92575700  1
  H  H16  1  0.44499700  0.78582800  0.08809700  1
  H  H17  1  0.55500300  0.21417200  0.91190300  1
  H  H18  1  0.53078900  0.65284600  0.16799200  1
  H  H19  1  0.46921100  0.34715400  0.83200800  1
  H  H20  1  0.72832700  0.17424300  0.55459500  1
  H  H21  1  0.27167300  0.82575700  0.44540500  1
  H  H22  1  0.72973100  0.13099500  0.43322900  1
  H  H23  1  0.27026900  0.86900500  0.56677100  1
  H  H24  1  0.67473600  0.98523000  0.51991000  1
  H  H25  1  0.32526400  0.01477000  0.48009000  1
  H  H26  1  0.05864600  0.09671100  0.67463600  1
  H  H27  1  0.94135400  0.90328900  0.32536400  1
  H  H28  1  0.86131600  0.03029300  0.68225100  1
  H  H29  1  0.13868400  0.96970700  0.31774900  1
  H  H30  1  0.02475000  0.89299900  0.67826600  1
  H  H31  1  0.97525000  0.10700100  0.32173400  1
  H  H32  1  0.02377700  0.68126600  0.52340300  1
  H  H33  1  0.97622300  0.31873400  0.47659700  1
  H  H34  1  0.83056000  0.74534900  0.56958000  1
  H  H35  1  0.16944000  0.25465100  0.43042000  1
  H  H36  1  0.87220300  0.72587900  0.44635300  1
  H  H37  1  0.12779700  0.27412100  0.55364700  1
  Pt  Pt38  1  0.46208700  0.50370600  0.66188100  1
  Pt  Pt39  1  0.53791300  0.49629400  0.33811900  1
  Pt  Pt40  1  0.00000000  0.00000000  0.00000000  1
  N  N41  1  0.69955900  0.55997000  0.90446200  1
  N  N42  1  0.30044100  0.44003000  0.09553800  1
  N  N43  1  0.64841100  0.35281000  0.07937000  1
  N  N44  1  0.35158900  0.64719000  0.92063000  1
  N  N45  1  0.53484900  0.68905200  0.09171300  1
  N  N46  1  0.46515100  0.31094800  0.90828700  1
  N  N47  1  0.75870400  0.07976300  0.50187000  1
  N  N48  1  0.24129600  0.92023700  0.49813000  1
  N  N49  1  0.98346100  0.00656100  0.64947200  1
  N  N50  1  0.01653900  0.99343900  0.35052800  1
  N  N51  1  0.92479100  0.76409500  0.51043000  1
  N  N52  1  0.07520900  0.23590500  0.48957000  1
  Cl  Cl53  1  0.55038600  0.77735400  0.67954500  1
  Cl  Cl54  1  0.44961400  0.22264600  0.32045500  1
  Cl  Cl55  1  0.74394700  0.40652000  0.65434000  1
  Cl  Cl56  1  0.25605300  0.59348000  0.34566000  1
  Cl  Cl57  1  0.37488900  0.22964300  0.64957500  1
  Cl  Cl58  1  0.62511100  0.77035700  0.35042500  1
  Cl  Cl59  1  0.17935700  0.60079300  0.67524300  1
  Cl  Cl60  1  0.82064300  0.39920700  0.32475700  1
  Cl  Cl61  1  0.74715500  0.97973500  0.92492000  1
  Cl  Cl62  1  0.25284500  0.02026500  0.07508000  1
  Cl  Cl63  1  0.97365600  0.72910500  0.06664000  1
  Cl  Cl64  1  0.02634400  0.27089500  0.93336000  1
