# generated using pymatgen
data_NaDyH2S2O9
_symmetry_space_group_name_H-M   'P 1'
_cell_length_a   6.90980417
_cell_length_b   6.90980417
_cell_length_c   12.89626500
_cell_angle_alpha   90.00000000
_cell_angle_beta   90.00000000
_cell_angle_gamma   120.00000167
_symmetry_Int_Tables_number   1
_chemical_formula_structural   NaDyH2S2O9
_chemical_formula_sum   'Na3 Dy3 H6 S6 O27'
_cell_volume   533.24409158
_cell_formula_units_Z   3
loop_
 _symmetry_equiv_pos_site_id
 _symmetry_equiv_pos_as_xyz
  1  'x, y, z'
loop_
 _atom_site_type_symbol
 _atom_site_label
 _atom_site_symmetry_multiplicity
 _atom_site_fract_x
 _atom_site_fract_y
 _atom_site_fract_z
 _atom_site_occupancy
  Na  Na0  1  0.51183200  0.51183200  0.50000000  1
  Na  Na1  1  0.00000000  0.48816800  0.16666700  1
  Na  Na2  1  0.48816800  0.00000000  0.83333300  1
  Dy  Dy3  1  0.55693400  0.55693400  0.00000000  1
  Dy  Dy4  1  0.00000000  0.44306600  0.66666700  1
  Dy  Dy5  1  0.44306600  0.00000000  0.33333300  1
  H  H6  1  0.96436800  0.01111500  0.94341300  1
  H  H7  1  0.04674800  0.03563200  0.61008000  1
  H  H8  1  0.98888500  0.95325200  0.27674600  1
  H  H9  1  0.03563200  0.04674800  0.38992000  1
  H  H10  1  0.01111500  0.96436800  0.05658700  1
  H  H11  1  0.95325200  0.98888500  0.72325400  1
  S  S12  1  0.55851200  0.54335200  0.76186200  1
  S  S13  1  0.98484100  0.44148800  0.42852800  1
  S  S14  1  0.45664800  0.01515900  0.09519500  1
  S  S15  1  0.44148800  0.98484100  0.57147200  1
  S  S16  1  0.54335200  0.55851200  0.23813800  1
  S  S17  1  0.01515900  0.45664800  0.90480500  1
  O  O18  1  0.62357500  0.73824800  0.83398700  1
  O  O19  1  0.11467300  0.37642500  0.50065300  1
  O  O20  1  0.26175200  0.88532700  0.16732000  1
  O  O21  1  0.37642500  0.11467300  0.49934700  1
  O  O22  1  0.73824800  0.62357500  0.16601300  1
  O  O23  1  0.88532700  0.26175200  0.83268000  1
  O  O24  1  0.38503800  0.52168500  0.68795700  1
  O  O25  1  0.13664700  0.61496200  0.35462400  1
  O  O26  1  0.47831500  0.86335300  0.02129100  1
  O  O27  1  0.61496200  0.13664700  0.64537600  1
  O  O28  1  0.52168500  0.38503800  0.31204300  1
  O  O29  1  0.86335300  0.47831500  0.97870900  1
  O  O30  1  0.75841300  0.58464600  0.70112300  1
  O  O31  1  0.82623300  0.24158700  0.36779000  1
  O  O32  1  0.41535400  0.17376700  0.03445600  1
  O  O33  1  0.24158700  0.82623300  0.63221000  1
  O  O34  1  0.58464600  0.75841300  0.29887700  1
  O  O35  1  0.17376700  0.41535400  0.96554400  1
  O  O36  1  0.47818800  0.34538200  0.83168400  1
  O  O37  1  0.86719500  0.52181200  0.49835100  1
  O  O38  1  0.65461800  0.13280500  0.16501700  1
  O  O39  1  0.52181200  0.86719500  0.50164900  1
  O  O40  1  0.34538200  0.47818800  0.16831600  1
  O  O41  1  0.13280500  0.65461800  0.83498300  1
  O  O42  1  0.90387500  0.90387500  0.00000000  1
  O  O43  1  0.00000000  0.09612500  0.66666700  1
  O  O44  1  0.09612500  0.00000000  0.33333300  1
