# generated using pymatgen
data_CaTeO3
_symmetry_space_group_name_H-M   'P 1'
_cell_length_a   6.55125400
_cell_length_b   8.23491000
_cell_length_c   13.77760800
_cell_angle_alpha   90.00000000
_cell_angle_beta   90.00000000
_cell_angle_gamma   90.00000000
_symmetry_Int_Tables_number   1
_chemical_formula_structural   CaTeO3
_chemical_formula_sum   'Ca8 Te8 O24'
_cell_volume   743.28799595
_cell_formula_units_Z   8
loop_
 _symmetry_equiv_pos_site_id
 _symmetry_equiv_pos_as_xyz
  1  'x, y, z'
loop_
 _atom_site_type_symbol
 _atom_site_label
 _atom_site_symmetry_multiplicity
 _atom_site_fract_x
 _atom_site_fract_y
 _atom_site_fract_z
 _atom_site_occupancy
  Ca  Ca0  1  0.39035500  0.41303700  0.07329000  1
  Ca  Ca1  1  0.60964500  0.58696300  0.57329000  1
  Ca  Ca2  1  0.39035500  0.08696300  0.57329000  1
  Ca  Ca3  1  0.60964500  0.91303700  0.07329000  1
  Ca  Ca4  1  0.88885900  0.31226300  0.13582600  1
  Ca  Ca5  1  0.11114100  0.68773700  0.63582600  1
  Ca  Ca6  1  0.88885900  0.18773700  0.63582600  1
  Ca  Ca7  1  0.11114100  0.81226300  0.13582600  1
  Te  Te8  1  0.40941900  0.16886000  0.26510100  1
  Te  Te9  1  0.59058100  0.83114000  0.76510100  1
  Te  Te10  1  0.40941900  0.33114000  0.76510100  1
  Te  Te11  1  0.59058100  0.66886000  0.26510100  1
  Te  Te12  1  0.91200200  0.94420700  0.44278900  1
  Te  Te13  1  0.08799800  0.05579300  0.94278900  1
  Te  Te14  1  0.91200200  0.55579300  0.94278900  1
  Te  Te15  1  0.08799800  0.44420700  0.44278900  1
  O  O16  1  0.20651100  0.31156100  0.21617300  1
  O  O17  1  0.79348900  0.68843900  0.71617300  1
  O  O18  1  0.20651100  0.18843900  0.71617300  1
  O  O19  1  0.79348900  0.81156100  0.21617300  1
  O  O20  1  0.56481400  0.17390200  0.14665100  1
  O  O21  1  0.43518600  0.82609800  0.64665100  1
  O  O22  1  0.56481400  0.32609800  0.64665100  1
  O  O23  1  0.43518600  0.67390200  0.14665100  1
  O  O24  1  0.29075100  0.96461300  0.24570600  1
  O  O25  1  0.70924900  0.03538700  0.74570600  1
  O  O26  1  0.29075100  0.53538700  0.74570600  1
  O  O27  1  0.70924900  0.46461300  0.24570600  1
  O  O28  1  0.70443500  0.07681700  0.49577200  1
  O  O29  1  0.29556500  0.92318300  0.99577200  1
  O  O30  1  0.70443500  0.42318300  0.99577200  1
  O  O31  1  0.29556500  0.57681700  0.49577200  1
  O  O32  1  0.06834600  0.94734300  0.55984000  1
  O  O33  1  0.93165400  0.05265700  0.05984000  1
  O  O34  1  0.06834600  0.55265700  0.05984000  1
  O  O35  1  0.93165400  0.44734300  0.55984000  1
  O  O36  1  0.80261500  0.73430600  0.45925900  1
  O  O37  1  0.19738500  0.26569400  0.95925900  1
  O  O38  1  0.80261500  0.76569400  0.95925900  1
  O  O39  1  0.19738500  0.23430600  0.45925900  1
