# generated using pymatgen
data_Ga3Si5P10H36C12N4Cl11
_symmetry_space_group_name_H-M   'P 1'
_cell_length_a   14.26950190
_cell_length_b   15.26907465
_cell_length_c   26.20706986
_cell_angle_alpha   90.00000000
_cell_angle_beta   90.00000000
_cell_angle_gamma   92.64983665
_symmetry_Int_Tables_number   1
_chemical_formula_structural   Ga3Si5P10H36C12N4Cl11
_chemical_formula_sum   'Ga12 Si20 P40 H144 C48 N16 Cl44'
_cell_volume   5703.94558870
_cell_formula_units_Z   4
loop_
 _symmetry_equiv_pos_site_id
 _symmetry_equiv_pos_as_xyz
  1  'x, y, z'
loop_
 _atom_site_type_symbol
 _atom_site_label
 _atom_site_symmetry_multiplicity
 _atom_site_fract_x
 _atom_site_fract_y
 _atom_site_fract_z
 _atom_site_occupancy
  Ga  Ga0  1  0.76300468  0.85970356  0.81274981  1
  Ga  Ga1  1  0.23699532  0.64029644  0.31274981  1
  Ga  Ga2  1  0.23699532  0.14029644  0.18725019  1
  Ga  Ga3  1  0.76300468  0.35970356  0.68725019  1
  Ga  Ga4  1  0.74277702  0.70933450  0.45709614  1
  Ga  Ga5  1  0.25722298  0.79066550  0.95709614  1
  Ga  Ga6  1  0.25722298  0.29066550  0.54290386  1
  Ga  Ga7  1  0.74277702  0.20933450  0.04290386  1
  Ga  Ga8  1  0.70079505  0.60896402  0.82579833  1
  Ga  Ga9  1  0.29920495  0.89103598  0.32579833  1
  Ga  Ga10  1  0.29920495  0.39103598  0.17420167  1
  Ga  Ga11  1  0.70079505  0.10896402  0.67420167  1
  Si  Si12  1  0.23292633  0.74335385  0.62314673  1
  Si  Si13  1  0.76707367  0.75664615  0.12314673  1
  Si  Si14  1  0.76707367  0.25664615  0.37685327  1
  Si  Si15  1  0.23292633  0.24335385  0.87685327  1
  Si  Si16  1  0.09750026  0.56194590  0.63539259  1
  Si  Si17  1  0.90249974  0.93805410  0.13539259  1
  Si  Si18  1  0.90249974  0.43805410  0.36460741  1
  Si  Si19  1  0.09750026  0.06194590  0.86460741  1
  Si  Si20  1  0.34350446  0.70398322  0.51417641  1
  Si  Si21  1  0.65649554  0.79601678  0.01417641  1
  Si  Si22  1  0.65649554  0.29601678  0.48582359  1
  Si  Si23  1  0.34350446  0.20398322  0.98582359  1
  Si  Si24  1  0.17719927  0.95005507  0.60295570  1
  Si  Si25  1  0.82280073  0.54994493  0.10295570  1
  Si  Si26  1  0.82280073  0.04994493  0.39704430  1
  Si  Si27  1  0.17719927  0.45005507  0.89704430  1
  Si  Si28  1  0.31239223  0.76448474  0.74140918  1
  Si  Si29  1  0.68760777  0.73551526  0.24140918  1
  Si  Si30  1  0.68760777  0.23551526  0.25859082  1
  Si  Si31  1  0.31239223  0.26448474  0.75859082  1
  P  P32  1  0.40036998  0.71637401  0.63259503  1
  P  P33  1  0.59963002  0.78362599  0.13259503  1
  P  P34  1  0.59963002  0.28362599  0.36740497  1
  P  P35  1  0.40036998  0.21637401  0.86740497  1
  P  P36  1  0.06379805  0.76653598  0.61903806  1
  P  P37  1  0.93620195  0.73346402  0.11903806  1
  P  P38  1  0.93620195  0.23346402  0.38096194  1
  P  P39  1  0.06379805  0.26653598  0.88096194  1
  P  P40  1  0.96105197  0.79489305  0.67789151  1
  P  P41  1  0.03894803  0.70510695  0.17789151  1
  P  P42  1  0.03894803  0.20510695  0.32210849  1
  P  P43  1  0.96105197  0.29489305  0.82210849  1
  P  P44  1  0.95579289  0.76525335  0.55981019  1
  P  P45  1  0.04420711  0.73474665  0.05981019  1
  P  P46  1  0.04420711  0.23474665  0.44018981  1
  P  P47  1  0.95579289  0.26525335  0.94018981  1
  P  P48  1  0.47650823  0.59793005  0.64794154  1
  P  P49  1  0.52349177  0.90206995  0.14794154  1
  P  P50  1  0.52349177  0.40206995  0.35205846  1
  P  P51  1  0.47650823  0.09793005  0.85205846  1
  P  P52  1  0.53180610  0.79570211  0.63023136  1
  P  P53  1  0.46819390  0.70429789  0.13023136  1
  P  P54  1  0.46819390  0.20429789  0.36976864  1
  P  P55  1  0.53180610  0.29570211  0.86976864  1
  P  P56  1  0.86325512  0.71776645  0.62488891  1
  P  P57  1  0.13674488  0.78223355  0.12488891  1
  P  P58  1  0.13674488  0.28223355  0.37511109  1
  P  P59  1  0.86325512  0.21776645  0.87511109  1
  P  P60  1  0.58008788  0.69363017  0.68570337  1
  P  P61  1  0.41991212  0.80636983  0.18570337  1
  P  P62  1  0.41991212  0.30636983  0.31429663  1
  P  P63  1  0.58008788  0.19363017  0.81429663  1
  P  P64  1  0.88543580  0.85865765  0.61295757  1
  P  P65  1  0.11456420  0.64134235  0.11295757  1
  P  P66  1  0.11456420  0.14134235  0.38704243  1
  P  P67  1  0.88543580  0.35865765  0.88704243  1
  P  P68  1  0.59217014  0.66949035  0.60371012  1
  P  P69  1  0.40782986  0.83050965  0.10371012  1
  P  P70  1  0.40782986  0.33050965  0.39628988  1
  P  P71  1  0.59217014  0.16949035  0.89628988  1
  H  H72  1  0.25301360  0.53425383  0.67352993  1
  H  H73  1  0.74698640  0.96574617  0.17352993  1
  H  H74  1  0.74698640  0.46574617  0.32647007  1
  H  H75  1  0.25301360  0.03425383  0.82647007  1
  H  H76  1  0.20088116  0.43878982  0.64438559  1
  H  H77  1  0.79911884  0.06121018  0.14438559  1
  H  H78  1  0.79911884  0.56121018  0.35561441  1
  H  H79  1  0.20088116  0.93878982  0.85561441  1
  H  H80  1  0.25539034  0.52053504  0.60549577  1
  H  H81  1  0.74460966  0.97946496  0.10549577  1
  H  H82  1  0.74460966  0.47946496  0.39450423  1
  H  H83  1  0.25539034  0.02053504  0.89450423  1
  H  H84  1  0.06367130  0.53206762  0.54373308  1
  H  H85  1  0.93632870  0.96793238  0.04373308  1
  H  H86  1  0.93632870  0.46793238  0.45626692  1
  H  H87  1  0.06367130  0.03206762  0.95626692  1
  H  H88  1  0.01880053  0.44721909  0.58427741  1
  H  H89  1  0.98119947  0.05278091  0.08427741  1
  H  H90  1  0.98119947  0.55278091  0.41572259  1
  H  H91  1  0.01880053  0.94721909  0.91572259  1
  H  H92  1  0.95707971  0.54474601  0.57868775  1
  H  H93  1  0.04292029  0.95525399  0.07868775  1
  H  H94  1  0.04292029  0.45525399  0.42131225  1
  H  H95  1  0.95707971  0.04474601  0.92131225  1
  H  H96  1  0.95957005  0.57170425  0.69390398  1
  H  H97  1  0.04042995  0.92829575  0.19390398  1
  H  H98  1  0.04042995  0.42829575  0.30609602  1
  H  H99  1  0.95957005  0.07170425  0.80609602  1
  H  H100  1  0.02129663  0.47573136  0.70366823  1
  H  H101  1  0.97870337  0.02426864  0.20366823  1
  H  H102  1  0.97870337  0.52426864  0.29633177  1
  H  H103  1  0.02129663  0.97573136  0.79633177  1
  H  H104  1  0.06745090  0.57733541  0.72858466  1
  H  H105  1  0.93254910  0.92266459  0.22858466  1
  H  H106  1  0.93254910  0.42266459  0.27141534  1
  H  H107  1  0.06745090  0.07733541  0.77141534  1
  H  H108  1  0.33967714  0.94066476  0.56898167  1
  H  H109  1  0.66032286  0.55933524  0.06898167  1
  H  H110  1  0.66032286  0.05933524  0.43101833  1
  H  H111  1  0.33967714  0.44066476  0.93101833  1
  H  H112  1  0.31992546  0.04458786  0.59576599  1
  H  H113  1  0.68007454  0.45541214  0.09576599  1
  H  H114  1  0.68007454  0.95541214  0.40423401  1
  H  H115  1  0.31992546  0.54458786  0.90423401  1
  H  H116  1  0.34062080  0.95515850  0.63680451  1
  H  H117  1  0.65937920  0.54484150  0.13680451  1
  H  H118  1  0.65937920  0.04484150  0.36319549  1
  H  H119  1  0.34062080  0.45515850  0.86319549  1
  H  H120  1  0.48094996  0.81055734  0.50928251  1
  H  H121  1  0.51905004  0.68944266  0.00928251  1
  H  H122  1  0.51905004  0.18944266  0.49071749  1
  H  H123  1  0.48094996  0.31055734  0.99071749  1
  H  H124  1  0.42944166  0.79015102  0.44902769  1
  H  H125  1  0.57055834  0.70984898  0.94902769  1
  H  H126  1  0.57055834  0.20984898  0.55097231  1
  H  H127  1  0.42944166  0.29015102  0.05097231  1
  H  H128  1  0.37413906  0.86112814  0.49202419  1
  H  H129  1  0.62586094  0.63887186  0.99202419  1
  H  H130  1  0.62586094  0.13887186  0.50797581  1
  H  H131  1  0.37413906  0.36112814  0.00797581  1
  H  H132  1  0.13904913  0.73593234  0.74344158  1
  H  H133  1  0.86095087  0.76406766  0.24344158  1
  H  H134  1  0.86095087  0.26406766  0.25655842  1
  H  H135  1  0.13904913  0.23593234  0.75655842  1
  H  H136  1  0.17968520  0.79796066  0.79661172  1
  H  H137  1  0.82031480  0.70203934  0.29661172  1
  H  H138  1  0.82031480  0.20203934  0.20338828  1
  H  H139  1  0.17968520  0.29796066  0.70338828  1
  H  H140  1  0.16851469  0.85060536  0.73647934  1
  H  H141  1  0.83148531  0.64939464  0.23647934  1
  H  H142  1  0.83148531  0.14939464  0.26352066  1
  H  H143  1  0.16851469  0.35060536  0.76352066  1
  H  H144  1  0.37213400  0.54438207  0.52121225  1
  H  H145  1  0.62786600  0.95561793  0.02121225  1
  H  H146  1  0.62786600  0.45561793  0.47878775  1
  H  H147  1  0.37213400  0.04438207  0.97878775  1
  H  H148  1  0.40238069  0.58850083  0.46059913  1
  H  H149  1  0.59761931  0.91149917  0.96059913  1
  H  H150  1  0.59761931  0.41149917  0.53940087  1
  H  H151  1  0.40238069  0.08850083  0.03940087  1
  H  H152  1  0.48042160  0.60756739  0.51199069  1
  H  H153  1  0.51957840  0.89243261  0.01199069  1
  H  H154  1  0.51957840  0.39243261  0.48800931  1
  H  H155  1  0.48042160  0.10756739  0.98800931  1
  H  H156  1  0.41988189  0.65113017  0.77298874  1
  H  H157  1  0.58011811  0.84886983  0.27298874  1
  H  H158  1  0.58011811  0.34886983  0.22701126  1
  H  H159  1  0.41988189  0.15113017  0.72701126  1
  H  H160  1  0.33320675  0.67695092  0.81808431  1
  H  H161  1  0.66679325  0.82304908  0.31808431  1
  H  H162  1  0.66679325  0.32304908  0.18191569  1
  H  H163  1  0.33320675  0.17695092  0.68191569  1
  H  H164  1  0.30210271  0.60723403  0.76571589  1
  H  H165  1  0.69789729  0.89276597  0.26571589  1
  H  H166  1  0.69789729  0.39276597  0.23428411  1
  H  H167  1  0.30210271  0.10723403  0.73428411  1
  H  H168  1  0.15490031  0.99091528  0.69382359  1
  H  H169  1  0.84509969  0.50908472  0.19382359  1
  H  H170  1  0.84509969  0.00908472  0.30617641  1
  H  H171  1  0.15490031  0.49091528  0.80617641  1
  H  H172  1  0.13755852  0.08009775  0.65150438  1
  H  H173  1  0.86244148  0.41990225  0.15150438  1
  H  H174  1  0.86244148  0.91990225  0.34849562  1
  H  H175  1  0.13755852  0.58009775  0.84849562  1
  H  H176  1  0.04729075  0.99779589  0.65934351  1
  H  H177  1  0.95270925  0.50220411  0.15934351  1
  H  H178  1  0.95270925  0.00220411  0.34065649  1
  H  H179  1  0.04729075  0.49779589  0.84065649  1
  H  H180  1  0.18545267  0.75756477  0.49370396  1
  H  H181  1  0.81454733  0.74243523  0.99370396  1
  H  H182  1  0.81454733  0.24243523  0.50629604  1
  H  H183  1  0.18545267  0.25756477  0.00629604  1
  H  H184  1  0.22578850  0.68638207  0.44613221  1
  H  H185  1  0.77421150  0.81361793  0.94613221  1
  H  H186  1  0.77421150  0.31361793  0.55386779  1
  H  H187  1  0.22578850  0.18638207  0.05386779  1
  H  H188  1  0.18122348  0.64096585  0.50385971  1
  H  H189  1  0.81877652  0.85903415  0.00385971  1
  H  H190  1  0.81877652  0.35903415  0.49614029  1
  H  H191  1  0.18122348  0.14096585  0.99614029  1
  H  H192  1  0.04455673  0.96288741  0.54184923  1
  H  H193  1  0.95544327  0.53711259  0.04184923  1
  H  H194  1  0.95544327  0.03711259  0.45815077  1
  H  H195  1  0.04455673  0.46288741  0.95815077  1
  H  H196  1  0.12970140  0.05092272  0.53652759  1
  H  H197  1  0.87029860  0.44907728  0.03652759  1
  H  H198  1  0.87029860  0.94907728  0.46347241  1
  H  H199  1  0.12970140  0.55092272  0.96347241  1
  H  H200  1  0.15273187  0.94773649  0.50899584  1
  H  H201  1  0.84726813  0.55226351  0.00899584  1
  H  H202  1  0.84726813  0.05226351  0.49100416  1
  H  H203  1  0.15273187  0.44773649  0.99100416  1
  H  H204  1  0.37439611  0.91902999  0.73592727  1
  H  H205  1  0.62560389  0.58097001  0.23592727  1
  H  H206  1  0.62560389  0.08097001  0.26407273  1
  H  H207  1  0.37439611  0.41902999  0.76407273  1
  H  H208  1  0.38771770  0.87381063  0.79805036  1
  H  H209  1  0.61228230  0.62618937  0.29805036  1
  H  H210  1  0.61228230  0.12618937  0.20194964  1
  H  H211  1  0.38771770  0.37381063  0.70194964  1
  H  H212  1  0.46707799  0.84769612  0.74901085  1
  H  H213  1  0.53292201  0.65230388  0.24901085  1
  H  H214  1  0.53292201  0.15230388  0.25098915  1
  H  H215  1  0.46707799  0.34769612  0.75098915  1
  C  C216  1  0.21295135  0.50996009  0.64015865  1
  C  C217  1  0.78704865  0.99003991  0.14015865  1
  C  C218  1  0.78704865  0.49003991  0.35984135  1
  C  C219  1  0.21295135  0.00996009  0.85984135  1
  C  C220  1  0.02757328  0.51878551  0.58013763  1
  C  C221  1  0.97242672  0.98121449  0.08013763  1
  C  C222  1  0.97242672  0.48121449  0.41986237  1
  C  C223  1  0.02757328  0.01878551  0.91986237  1
  C  C224  1  0.03027628  0.54640619  0.69603153  1
  C  C225  1  0.96972372  0.95359381  0.19603153  1
  C  C226  1  0.96972372  0.45359381  0.30396847  1
  C  C227  1  0.03027628  0.04640619  0.80396847  1
  C  C228  1  0.30650675  0.97374338  0.60105401  1
  C  C229  1  0.69349325  0.52625662  0.10105401  1
  C  C230  1  0.69349325  0.02625662  0.39894599  1
  C  C231  1  0.30650675  0.47374338  0.89894599  1
  C  C232  1  0.41334723  0.80100891  0.48946809  1
  C  C233  1  0.58665277  0.69899109  0.98946809  1
  C  C234  1  0.58665277  0.19899109  0.51053191  1
  C  C235  1  0.41334723  0.30100891  0.01053191  1
  C  C236  1  0.18821690  0.78977611  0.75522466  1
  C  C237  1  0.81178310  0.71022389  0.25522466  1
  C  C238  1  0.81178310  0.21022389  0.24477534  1
  C  C239  1  0.18821690  0.28977611  0.74477534  1
  C  C240  1  0.40576263  0.60148961  0.50184518  1
  C  C241  1  0.59423737  0.89851039  0.00184518  1
  C  C242  1  0.59423737  0.39851039  0.49815482  1
  C  C243  1  0.40576263  0.10148961  0.99815482  1
  C  C244  1  0.34550182  0.66522993  0.77728759  1
  C  C245  1  0.65449818  0.83477007  0.27728759  1
  C  C246  1  0.65449818  0.33477007  0.22271241  1
  C  C247  1  0.34550182  0.16522993  0.72271241  1
  C  C248  1  0.12376413  0.00932389  0.65720790  1
  C  C249  1  0.87623587  0.49067611  0.15720790  1
  C  C250  1  0.87623587  0.99067611  0.34279210  1
  C  C251  1  0.12376413  0.50932389  0.84279210  1
  C  C252  1  0.22232591  0.69683427  0.48753085  1
  C  C253  1  0.77767409  0.80316573  0.98753085  1
  C  C254  1  0.77767409  0.30316573  0.51246915  1
  C  C255  1  0.22232591  0.19683427  0.01246915  1
  C  C256  1  0.12025170  0.97962488  0.54175429  1
  C  C257  1  0.87974830  0.52037512  0.04175429  1
  C  C258  1  0.87974830  0.02037512  0.45824571  1
  C  C259  1  0.12025170  0.47962488  0.95824571  1
  C  C260  1  0.39331461  0.86011327  0.75697196  1
  C  C261  1  0.60668539  0.63988673  0.25697196  1
  C  C262  1  0.60668539  0.13988673  0.24302804  1
  C  C263  1  0.39331461  0.36011327  0.74302804  1
  N  N264  1  0.16144953  0.83267866  0.61329425  1
  N  N265  1  0.83855047  0.66732134  0.11329425  1
  N  N266  1  0.83855047  0.16732134  0.38670575  1
  N  N267  1  0.16144953  0.33267866  0.88670575  1
  N  N268  1  0.12836928  0.67795962  0.62649267  1
  N  N269  1  0.87163072  0.82204038  0.12649267  1
  N  N270  1  0.87163072  0.32204038  0.37350733  1
  N  N271  1  0.12836928  0.17795962  0.87350733  1
  N  N272  1  0.31513896  0.74330396  0.67332710  1
  N  N273  1  0.68486104  0.75669604  0.17332710  1
  N  N274  1  0.68486104  0.25669604  0.32667290  1
  N  N275  1  0.31513896  0.24330396  0.82667290  1
  N  N276  1  0.32619569  0.71825000  0.58272419  1
  N  N277  1  0.67380431  0.78175000  0.08272419  1
  N  N278  1  0.67380431  0.28175000  0.41727581  1
  N  N279  1  0.32619569  0.21825000  0.91727581  1
  Cl  Cl280  1  0.71542295  0.81887677  0.51026795  1
  Cl  Cl281  1  0.28457705  0.68112323  0.01026795  1
  Cl  Cl282  1  0.28457705  0.18112323  0.48973205  1
  Cl  Cl283  1  0.71542295  0.31887677  0.98973205  1
  Cl  Cl284  1  0.64925913  0.75261174  0.83846146  1
  Cl  Cl285  1  0.35074087  0.74738826  0.33846146  1
  Cl  Cl286  1  0.35074087  0.24738826  0.16153854  1
  Cl  Cl287  1  0.64925913  0.25261174  0.66153854  1
  Cl  Cl288  1  0.79957979  0.62026815  0.76337877  1
  Cl  Cl289  1  0.20042021  0.87973185  0.26337877  1
  Cl  Cl290  1  0.20042021  0.37973185  0.23662123  1
  Cl  Cl291  1  0.79957979  0.12026815  0.73662123  1
  Cl  Cl292  1  0.74593095  0.86836875  0.73007993  1
  Cl  Cl293  1  0.25406905  0.63163125  0.23007993  1
  Cl  Cl294  1  0.25406905  0.13163125  0.26992007  1
  Cl  Cl295  1  0.74593095  0.36836875  0.76992007  1
  Cl  Cl296  1  0.89792483  0.81775961  0.83786842  1
  Cl  Cl297  1  0.10207517  0.68224039  0.33786842  1
  Cl  Cl298  1  0.10207517  0.18224039  0.16213158  1
  Cl  Cl299  1  0.89792483  0.31775961  0.66213158  1
  Cl  Cl300  1  0.77748207  0.59556087  0.50442895  1
  Cl  Cl301  1  0.22251793  0.90443913  0.00442895  1
  Cl  Cl302  1  0.22251793  0.40443913  0.49557105  1
  Cl  Cl303  1  0.77748207  0.09556087  0.99557105  1
  Cl  Cl304  1  0.71822698  0.97426967  0.85418785  1
  Cl  Cl305  1  0.28177302  0.52573033  0.35418785  1
  Cl  Cl306  1  0.28177302  0.02573033  0.14581215  1
  Cl  Cl307  1  0.71822698  0.47426967  0.64581215  1
  Cl  Cl308  1  0.61759751  0.67768100  0.41049155  1
  Cl  Cl309  1  0.38240249  0.82231900  0.91049155  1
  Cl  Cl310  1  0.38240249  0.32231900  0.58950845  1
  Cl  Cl311  1  0.61759751  0.17768100  0.08950845  1
  Cl  Cl312  1  0.86205636  0.74840970  0.40742698  1
  Cl  Cl313  1  0.13794364  0.75159030  0.90742698  1
  Cl  Cl314  1  0.13794364  0.25159030  0.59257302  1
  Cl  Cl315  1  0.86205636  0.24840970  0.09257302  1
  Cl  Cl316  1  0.56859625  0.53921880  0.80741293  1
  Cl  Cl317  1  0.43140375  0.96078120  0.30741293  1
  Cl  Cl318  1  0.43140375  0.46078120  0.19258707  1
  Cl  Cl319  1  0.56859625  0.03921880  0.69258707  1
  Cl  Cl320  1  0.75908673  0.57102799  0.89848793  1
  Cl  Cl321  1  0.24091327  0.92897201  0.39848793  1
  Cl  Cl322  1  0.24091327  0.42897201  0.10151207  1
  Cl  Cl323  1  0.75908673  0.07102799  0.60151207  1
