# generated using pymatgen
data_K14ZnGe16
_symmetry_space_group_name_H-M   'P 1'
_cell_length_a   7.11951100
_cell_length_b   14.29529500
_cell_length_c   20.50326400
_cell_angle_alpha   90.00000000
_cell_angle_beta   90.00000000
_cell_angle_gamma   90.00000000
_symmetry_Int_Tables_number   1
_chemical_formula_structural   K14ZnGe16
_chemical_formula_sum   'K28 Zn2 Ge32'
_cell_volume   2086.73015028
_cell_formula_units_Z   2
loop_
 _symmetry_equiv_pos_site_id
 _symmetry_equiv_pos_as_xyz
  1  'x, y, z'
loop_
 _atom_site_type_symbol
 _atom_site_label
 _atom_site_symmetry_multiplicity
 _atom_site_fract_x
 _atom_site_fract_y
 _atom_site_fract_z
 _atom_site_occupancy
  K  K0  1  0.45808100  0.89214400  0.59059900  1
  K  K1  1  0.45808100  0.89214400  0.40940100  1
  K  K2  1  0.54191900  0.39214400  0.90940100  1
  K  K3  1  0.54191900  0.39214400  0.09059900  1
  K  K4  1  0.42941300  0.63293000  0.64518800  1
  K  K5  1  0.42941300  0.63293000  0.35481200  1
  K  K6  1  0.57058700  0.13293000  0.85481200  1
  K  K7  1  0.57058700  0.13293000  0.14518800  1
  K  K8  1  0.69290100  0.13624800  0.65501100  1
  K  K9  1  0.69290100  0.13624800  0.34498900  1
  K  K10  1  0.30709900  0.63624800  0.84498900  1
  K  K11  1  0.30709900  0.63624800  0.15501100  1
  K  K12  1  0.95220200  0.81304500  0.65673400  1
  K  K13  1  0.95220200  0.81304500  0.34326600  1
  K  K14  1  0.04779800  0.31304500  0.84326600  1
  K  K15  1  0.04779800  0.31304500  0.15673400  1
  K  K16  1  0.85221500  0.54360200  0.74975700  1
  K  K17  1  0.85221500  0.54360200  0.25024300  1
  K  K18  1  0.14778500  0.04360200  0.75024300  1
  K  K19  1  0.14778500  0.04360200  0.24975700  1
  K  K20  1  0.98483200  0.86693700  0.88358900  1
  K  K21  1  0.98483200  0.86693700  0.11641100  1
  K  K22  1  0.01516800  0.36693700  0.61641100  1
  K  K23  1  0.01516800  0.36693700  0.38358900  1
  K  K24  1  0.54616600  0.49993000  0.50000000  1
  K  K25  1  0.45383400  0.99993000  0.00000000  1
  K  K26  1  0.41228200  0.21569500  0.50000000  1
  K  K27  1  0.58771800  0.71569500  0.00000000  1
  Zn  Zn28  1  0.96969500  0.88734600  0.50000000  1
  Zn  Zn29  1  0.03030500  0.38734600  0.00000000  1
  Ge  Ge30  1  0.93794900  0.17800400  0.50000000  1
  Ge  Ge31  1  0.06205100  0.67800400  0.00000000  1
  Ge  Ge32  1  0.74320700  0.03133500  0.50000000  1
  Ge  Ge33  1  0.25679300  0.53133500  0.00000000  1
  Ge  Ge34  1  0.92941000  0.54030700  0.93457600  1
  Ge  Ge35  1  0.92941000  0.54030700  0.06542400  1
  Ge  Ge36  1  0.07059000  0.04030700  0.56542400  1
  Ge  Ge37  1  0.07059000  0.04030700  0.43457600  1
  Ge  Ge38  1  0.77050900  0.72771300  0.50000000  1
  Ge  Ge39  1  0.22949100  0.22771300  0.00000000  1
  Ge  Ge40  1  0.15923200  0.72737800  0.50000000  1
  Ge  Ge41  1  0.84076800  0.22737800  0.00000000  1
  Ge  Ge42  1  0.96544500  0.60579900  0.56414100  1
  Ge  Ge43  1  0.96544500  0.60579900  0.43585900  1
  Ge  Ge44  1  0.03455500  0.10579900  0.93585900  1
  Ge  Ge45  1  0.03455500  0.10579900  0.06414100  1
  Ge  Ge46  1  0.48455200  0.87309400  0.86028800  1
  Ge  Ge47  1  0.48455200  0.87309400  0.13971200  1
  Ge  Ge48  1  0.51544800  0.37309400  0.63971200  1
  Ge  Ge49  1  0.51544800  0.37309400  0.36028800  1
  Ge  Ge50  1  0.64556800  0.93903100  0.75621700  1
  Ge  Ge51  1  0.64556800  0.93903100  0.24378300  1
  Ge  Ge52  1  0.35443200  0.43903100  0.74378300  1
  Ge  Ge53  1  0.35443200  0.43903100  0.25621700  1
  Ge  Ge54  1  0.34897200  0.83135900  0.74713200  1
  Ge  Ge55  1  0.34897200  0.83135900  0.25286800  1
  Ge  Ge56  1  0.65102800  0.33135900  0.75286800  1
  Ge  Ge57  1  0.65102800  0.33135900  0.24713200  1
  Ge  Ge58  1  0.66883100  0.76267900  0.78316000  1
  Ge  Ge59  1  0.66883100  0.76267900  0.21684000  1
  Ge  Ge60  1  0.33116900  0.26267900  0.71684000  1
  Ge  Ge61  1  0.33116900  0.26267900  0.28316000  1
