# generated using pymatgen
data_Na3YbSi2O7
_symmetry_space_group_name_H-M   'P 1'
_cell_length_a   13.98224113
_cell_length_b   16.50621849
_cell_length_c   16.50521905
_cell_angle_alpha   120.00200635
_cell_angle_beta   89.99238718
_cell_angle_gamma   90.01522472
_symmetry_Int_Tables_number   1
_chemical_formula_structural   Na3YbSi2O7
_chemical_formula_sum   'Na54 Yb18 Si36 O126'
_cell_volume   3298.88749909
_cell_formula_units_Z   18
loop_
 _symmetry_equiv_pos_site_id
 _symmetry_equiv_pos_as_xyz
  1  'x, y, z'
loop_
 _atom_site_type_symbol
 _atom_site_label
 _atom_site_symmetry_multiplicity
 _atom_site_fract_x
 _atom_site_fract_y
 _atom_site_fract_z
 _atom_site_occupancy
  Na  Na0  1  0.26379341  0.34201544  0.33942957  1
  Na  Na1  1  0.26382650  0.99737534  0.65793693  1
  Na  Na2  1  0.26375635  0.66064011  0.00255980  1
  Na  Na3  1  0.76379341  0.00258587  0.66057043  1
  Na  Na4  1  0.76382650  0.33943841  0.34206307  1
  Na  Na5  1  0.76375635  0.65808031  0.99744020  1
  Na  Na6  1  0.09578338  0.23214050  0.45269273  1
  Na  Na7  1  0.09572786  0.22063027  0.76789681  1
  Na  Na8  1  0.09578776  0.54748021  0.77951835  1
  Na  Na9  1  0.59578338  0.77944778  0.54730727  1
  Na  Na10  1  0.59572786  0.45273346  0.23210319  1
  Na  Na11  1  0.59578776  0.76796186  0.22048165  1
  Na  Na12  1  0.08017199  0.54383877  0.10773028  1
  Na  Na13  1  0.08019632  0.56397006  0.45618132  1
  Na  Na14  1  0.08015982  0.89220573  0.43606313  1
  Na  Na15  1  0.58017199  0.43610850  0.89226972  1
  Na  Na16  1  0.58019632  0.10778874  0.54381868  1
  Na  Na17  1  0.58015982  0.45614260  0.56393687  1
  Na  Na18  1  0.24616646  0.00434807  0.32549788  1
  Na  Na19  1  0.24609964  0.32117302  0.99561487  1
  Na  Na20  1  0.24600952  0.67450679  0.67894569  1
  Na  Na21  1  0.74616646  0.67885019  0.67450212  1
  Na  Na22  1  0.74609964  0.32555815  0.00438513  1
  Na  Na23  1  0.74600952  0.99556110  0.32105431  1
  Na  Na24  1  0.42145231  0.23302618  0.10944448  1
  Na  Na25  1  0.42144564  0.87644532  0.76702757  1
  Na  Na26  1  0.42151001  0.89046839  0.12355495  1
  Na  Na27  1  0.92145231  0.12358171  0.89055552  1
  Na  Na28  1  0.92144564  0.10941775  0.23297243  1
  Na  Na29  1  0.92151001  0.76691345  0.87644505  1
  Na  Na30  1  0.09856543  0.21667933  0.10409875  1
  Na  Na31  1  0.09866828  0.88729934  0.78342042  1
  Na  Na32  1  0.09861975  0.89580654  0.11242633  1
  Na  Na33  1  0.59856543  0.11258057  0.89590125  1
  Na  Na34  1  0.59866828  0.10387892  0.21657958  1
  Na  Na35  1  0.59861975  0.78338021  0.88757367  1
  Na  Na36  1  0.41723582  0.55424669  0.11064731  1
  Na  Na37  1  0.41717308  0.55641209  0.44578022  1
  Na  Na38  1  0.41716476  0.88934538  0.44353581  1
  Na  Na39  1  0.91723582  0.44359938  0.88935269  1
  Na  Na40  1  0.91717308  0.11063187  0.55421978  1
  Na  Na41  1  0.91716476  0.44580958  0.55646419  1
  Na  Na42  1  0.41496673  0.24154675  0.43961792  1
  Na  Na43  1  0.41498769  0.19804722  0.75847623  1
  Na  Na44  1  0.41501059  0.56046710  0.80200197  1
  Na  Na45  1  0.91496673  0.80192883  0.56038208  1
  Na  Na46  1  0.91498769  0.43957099  0.24152377  1
  Na  Na47  1  0.91501059  0.75846513  0.19799803  1
  Na  Na48  1  0.00257104  0.33338303  0.66673216  1
  Na  Na49  1  0.50257104  0.66665087  0.33326784  1
  Na  Na50  1  0.50825009  0.33333754  0.66669989  1
  Na  Na51  1  0.00825009  0.66663765  0.33330011  1
  Na  Na52  1  0.49775328  0.99990983  0.00000654  1
  Na  Na53  1  0.99775328  0.99990330  0.99999346  1
  Yb  Yb54  1  0.49958584  0.00755814  0.32832470  1
  Yb  Yb55  1  0.49955058  0.32077777  0.99242300  1
  Yb  Yb56  1  0.49955955  0.67162196  0.67921185  1
  Yb  Yb57  1  0.99958584  0.67923345  0.67167530  1
  Yb  Yb58  1  0.99955058  0.32835477  0.00757700  1
  Yb  Yb59  1  0.99955955  0.99241011  0.32078815  1
  Yb  Yb60  1  0.01606970  0.33988713  0.34572565  1
  Yb  Yb61  1  0.01608052  0.00583922  0.66006520  1
  Yb  Yb62  1  0.01615832  0.65434329  0.99412983  1
  Yb  Yb63  1  0.51606970  0.99416148  0.65427435  1
  Yb  Yb64  1  0.51608052  0.34577401  0.33993480  1
  Yb  Yb65  1  0.51615832  0.66021346  0.00587017  1
  Yb  Yb66  1  0.24687164  0.33331820  0.66664340  1
  Yb  Yb67  1  0.74687164  0.66667479  0.33335660  1
  Yb  Yb68  1  0.25489304  0.66667193  0.33331966  1
  Yb  Yb69  1  0.75489304  0.33335227  0.66668034  1
  Yb  Yb70  1  0.24722474  0.99991054  0.99995368  1
  Yb  Yb71  1  0.74722474  0.99995686  0.00004632  1
  Si  Si72  1  0.14922233  0.11986451  0.23071695  1
  Si  Si73  1  0.14931462  0.11084597  0.88008505  1
  Si  Si74  1  0.14927552  0.76922163  0.88917164  1
  Si  Si75  1  0.64922233  0.88914756  0.76928305  1
  Si  Si76  1  0.64931462  0.23076092  0.11991495  1
  Si  Si77  1  0.64927552  0.88004998  0.11082836  1
  Si  Si78  1  0.36665438  0.12735578  0.21926114  1
  Si  Si79  1  0.36660772  0.09189003  0.87259670  1
  Si  Si80  1  0.36672270  0.78073367  0.90817614  1
  Si  Si81  1  0.86665438  0.90809464  0.78073886  1
  Si  Si82  1  0.86660772  0.21929332  0.12740330  1
  Si  Si83  1  0.86672270  0.87255754  0.09182386  1
  Si  Si84  1  0.14706570  0.10522960  0.54521419  1
  Si  Si85  1  0.14724278  0.44003749  0.89472062  1
  Si  Si86  1  0.14720940  0.45472856  0.55997819  1
  Si  Si87  1  0.64706570  0.56001541  0.45478581  1
  Si  Si88  1  0.64724278  0.54531686  0.10527938  1
  Si  Si89  1  0.64720940  0.89475036  0.44002181  1
  Si  Si90  1  0.36118429  0.10971522  0.54336766  1
  Si  Si91  1  0.36116315  0.43374038  0.89026714  1
  Si  Si92  1  0.36112413  0.45667229  0.56636044  1
  Si  Si93  1  0.86118429  0.56634756  0.45663234  1
  Si  Si94  1  0.86116315  0.54347323  0.10973286  1
  Si  Si95  1  0.86112413  0.89031185  0.43363956  1
  Si  Si96  1  0.14706185  0.44340843  0.22249156  1
  Si  Si97  1  0.14703293  0.77907505  0.55659062  1
  Si  Si98  1  0.14699870  0.77750439  0.22090916  1
  Si  Si99  1  0.64706185  0.22091687  0.77750844  1
  Si  Si100  1  0.64703293  0.22248443  0.44340938  1
  Si  Si101  1  0.64699870  0.55659523  0.77909084  1
  Si  Si102  1  0.36246469  0.44299763  0.21460449  1
  Si  Si103  1  0.36250423  0.77156484  0.55699835  1
  Si  Si104  1  0.36253551  0.78538186  0.22840042  1
  Si  Si105  1  0.86246469  0.22839314  0.78539551  1
  Si  Si106  1  0.86250423  0.21456648  0.44300165  1
  Si  Si107  1  0.86253551  0.55698144  0.77159958  1
  O  O108  1  0.26233955  0.11604929  0.26406376  1
  O  O109  1  0.26236460  0.14800085  0.88393465  1
  O  O110  1  0.26239111  0.73591687  0.85202052  1
  O  O111  1  0.76233955  0.85198553  0.73593624  1
  O  O112  1  0.76236460  0.26406619  0.11606535  1
  O  O113  1  0.76239111  0.88389634  0.14797948  1
  O  O114  1  0.13545984  0.04059276  0.12073036  1
  O  O115  1  0.13543777  0.08002680  0.95935419  1
  O  O116  1  0.13550771  0.87929150  0.91986839  1
  O  O117  1  0.63545984  0.91986240  0.87926964  1
  O  O118  1  0.63543777  0.12067262  0.04064581  1
  O  O119  1  0.63550771  0.95942311  0.08013161  1
  O  O120  1  0.12355058  0.22350902  0.24710795  1
  O  O121  1  0.12349778  0.02353293  0.77642387  1
  O  O122  1  0.12362196  0.75289774  0.97641155  1
  O  O123  1  0.62355058  0.97640107  0.75289205  1
  O  O124  1  0.62349778  0.24710905  0.22357613  1
  O  O125  1  0.62362196  0.77648619  0.02358845  1
  O  O126  1  0.08495269  0.09738325  0.29956466  1
  O  O127  1  0.08500235  0.20225303  0.90266013  1
  O  O128  1  0.08509509  0.70043851  0.79778548  1
  O  O129  1  0.58495269  0.79781860  0.70043534  1
  O  O130  1  0.58500235  0.29959290  0.09733987  1
  O  O131  1  0.58509509  0.90265302  0.20221452  1
  O  O132  1  0.35553067  0.10340362  0.11133650  1
  O  O133  1  0.35548243  0.00791894  0.89656433  1
  O  O134  1  0.35557005  0.88860747  0.99212480  1
  O  O135  1  0.85553067  0.99206712  0.88866350  1
  O  O136  1  0.85548243  0.11135461  0.10343567  1
  O  O137  1  0.85557005  0.89648266  0.00787520  1
  O  O138  1  0.39832491  0.23689721  0.28377169  1
  O  O139  1  0.39833601  0.04686967  0.76311282  1
  O  O140  1  0.39835326  0.71621792  0.95312223  1
  O  O141  1  0.89832491  0.95312552  0.71622831  1
  O  O142  1  0.89833601  0.28375686  0.23688718  1
  O  O143  1  0.89835326  0.76309569  0.04687777  1
  O  O144  1  0.44207965  0.05790230  0.22969547  1
  O  O145  1  0.44214737  0.17184796  0.94210164  1
  O  O146  1  0.44211639  0.77028866  0.82823679  1
  O  O147  1  0.94207965  0.82820682  0.77030453  1
  O  O148  1  0.94214737  0.22974632  0.05789836  1
  O  O149  1  0.94211639  0.94205186  0.17176321  1
  O  O150  1  0.25393299  0.06954802  0.49133487  1
  O  O151  1  0.25391287  0.42182590  0.93047031  1
  O  O152  1  0.25391534  0.50863873  0.57821615  1
  O  O153  1  0.75393299  0.57821316  0.50866513  1
  O  O154  1  0.75391287  0.49135559  0.06952969  1
  O  O155  1  0.75391534  0.93042258  0.42178385  1
  O  O156  1  0.06612674  0.04914445  0.46529838  1
  O  O157  1  0.06601883  0.41614014  0.95091768  1
  O  O158  1  0.06601366  0.53473473  0.58389723  1
  O  O159  1  0.56612674  0.58384607  0.53470162  1
  O  O160  1  0.56601883  0.46522247  0.04908232  1
  O  O161  1  0.56601366  0.95083750  0.41610277  1
  O  O162  1  0.13385832  0.21688652  0.58556115  1
  O  O163  1  0.13379273  0.36865907  0.78309368  1
  O  O164  1  0.13377485  0.41442737  0.63140009  1
  O  O165  1  0.63385832  0.63132537  0.41443885  1
  O  O166  1  0.63379273  0.58556539  0.21690632  1
  O  O167  1  0.63377485  0.78302728  0.36859991  1
  O  O168  1  0.14033247  0.07646321  0.62613717  1
  O  O169  1  0.14035797  0.54969769  0.92348492  1
  O  O170  1  0.14031819  0.37384855  0.45032820  1
  O  O171  1  0.64033247  0.45032604  0.37386283  1
  O  O172  1  0.64035797  0.62621277  0.07651508  1
  O  O173  1  0.64031819  0.92352035  0.54967180  1
  O  O174  1  0.42774218  0.11496505  0.46513231  1
  O  O175  1  0.42772738  0.35012255  0.88499779  1
  O  O176  1  0.42770348  0.53481551  0.64988128  1
  O  O177  1  0.92774218  0.64983273  0.53486769  1
  O  O178  1  0.92772738  0.46512476  0.11500221  1
  O  O179  1  0.92770348  0.88493423  0.35011872  1
  O  O180  1  0.35169166  0.21244676  0.63695828  1
  O  O181  1  0.35171137  0.42457383  0.78759234  1
  O  O182  1  0.35162404  0.36295354  0.57544834  1
  O  O183  1  0.85169166  0.57548848  0.36304172  1
  O  O184  1  0.85171137  0.63698149  0.21240766  1
  O  O185  1  0.85162404  0.78750520  0.42455166  1
  O  O186  1  0.40279805  0.03628319  0.57418131  1
  O  O187  1  0.40284911  0.53789665  0.96369338  1
  O  O188  1  0.40281067  0.42580812  0.46208525  1
  O  O189  1  0.90279805  0.46210188  0.42581869  1
  O  O190  1  0.90284911  0.57420327  0.03630662  1
  O  O191  1  0.90281067  0.96372287  0.53791475  1
  O  O192  1  0.25686909  0.42213103  0.25057147  1
  O  O193  1  0.25689294  0.82848922  0.57789224  1
  O  O194  1  0.25687741  0.74938756  0.17151482  1
  O  O195  1  0.75686909  0.17155957  0.74942853  1
  O  O196  1  0.75689294  0.25059697  0.42210776  1
  O  O197  1  0.75687741  0.57787275  0.82848518  1
  O  O198  1  0.12523006  0.36502462  0.11349686  1
  O  O199  1  0.12526162  0.74851097  0.63496248  1
  O  O200  1  0.12525727  0.88643722  0.25146795  1
  O  O201  1  0.62523006  0.25152776  0.88650314  1
  O  O202  1  0.62526162  0.11354849  0.36503752  1
  O  O203  1  0.62525727  0.63496927  0.74853205  1
  O  O204  1  0.14474984  0.54976164  0.23880739  1
  O  O205  1  0.14476759  0.68912558  0.45026308  1
  O  O206  1  0.14471792  0.76114594  0.31087799  1
  O  O207  1  0.64474984  0.31095425  0.76119261  1
  O  O208  1  0.64476759  0.23886250  0.54973692  1
  O  O209  1  0.64471792  0.45026795  0.68912201  1
  O  O210  1  0.07191813  0.43776215  0.29515691  1
  O  O211  1  0.07193159  0.85739913  0.56223631  1
  O  O212  1  0.07195781  0.70486095  0.14257433  1
  O  O213  1  0.57191813  0.14260524  0.70484309  1
  O  O214  1  0.57193159  0.29516282  0.43776369  1
  O  O215  1  0.57195781  0.56228662  0.85742567  1
  O  O216  1  0.37427853  0.37377563  0.10186210  1
  O  O217  1  0.37422286  0.72811671  0.62621160  1
  O  O218  1  0.37427254  0.89808192  0.27186805  1
  O  O219  1  0.87427853  0.27191353  0.89813790  1
  O  O220  1  0.87422286  0.10190511  0.37378840  1
  O  O221  1  0.87427254  0.62621386  0.72813195  1
  O  O222  1  0.36784602  0.55258773  0.24188990  1
  O  O223  1  0.36779850  0.68935882  0.44745977  1
  O  O224  1  0.36781651  0.75809583  0.31062761  1
  O  O225  1  0.86784602  0.31069782  0.75811010  1
  O  O226  1  0.86779850  0.24189905  0.55254023  1
  O  O227  1  0.86781651  0.44746821  0.68937239  1
  O  O228  1  0.44366742  0.42436238  0.27463375  1
  O  O229  1  0.44367012  0.85026504  0.57562702  1
  O  O230  1  0.44364956  0.72539643  0.14973696  1
  O  O231  1  0.94366742  0.14972863  0.72536625  1
  O  O232  1  0.94367012  0.27463802  0.42437298  1
  O  O233  1  0.94364956  0.57565948  0.85026304  1
