# generated using pymatgen
data_As2O3
_symmetry_space_group_name_H-M   'P 1'
_cell_length_a   14.05079900
_cell_length_b   11.21562800
_cell_length_c   13.91101985
_cell_angle_alpha   82.14143771
_cell_angle_beta   90.00000000
_cell_angle_gamma   90.00000000
_symmetry_Int_Tables_number   1
_chemical_formula_structural   As2O3
_chemical_formula_sum   'As48 O72'
_cell_volume   2171.62926127
_cell_formula_units_Z   24
loop_
 _symmetry_equiv_pos_site_id
 _symmetry_equiv_pos_as_xyz
  1  'x, y, z'
loop_
 _atom_site_type_symbol
 _atom_site_label
 _atom_site_symmetry_multiplicity
 _atom_site_fract_x
 _atom_site_fract_y
 _atom_site_fract_z
 _atom_site_occupancy
  As  As0  1  0.24659800  0.34197700  0.53011400  1
  As  As1  1  0.74659800  0.65802300  0.96988600  1
  As  As2  1  0.75340200  0.65802300  0.46988600  1
  As  As3  1  0.25340200  0.34197700  0.03011400  1
  As  As4  1  0.22960600  0.40629500  0.29960800  1
  As  As5  1  0.72960600  0.59370500  0.20039200  1
  As  As6  1  0.77039400  0.59370500  0.70039200  1
  As  As7  1  0.27039400  0.40629500  0.79960800  1
  As  As8  1  0.39499200  0.59129900  0.21850400  1
  As  As9  1  0.89499200  0.40870100  0.28149600  1
  As  As10  1  0.60500800  0.40870100  0.78149600  1
  As  As11  1  0.10500800  0.59129900  0.71850400  1
  As  As12  1  0.41542400  0.64984000  0.98572300  1
  As  As13  1  0.91542400  0.35016000  0.51427700  1
  As  As14  1  0.58457600  0.35016000  0.01427700  1
  As  As15  1  0.08457600  0.64984000  0.48572300  1
  As  As16  1  0.07946700  0.15395300  0.47677700  1
  As  As17  1  0.57946700  0.84604700  0.02322300  1
  As  As18  1  0.92053300  0.84604700  0.52322300  1
  As  As19  1  0.42053300  0.15395300  0.97677700  1
  As  As20  1  0.06029900  0.09161300  0.70824900  1
  As  As21  1  0.56029900  0.90838700  0.79175100  1
  As  As22  1  0.93970100  0.90838700  0.29175100  1
  As  As23  1  0.43970100  0.09161300  0.20824900  1
  As  As24  1  0.23030700  0.90735000  0.77937600  1
  As  As25  1  0.73030700  0.09265000  0.72062400  1
  As  As26  1  0.76969300  0.09265000  0.22062400  1
  As  As27  1  0.26969300  0.90735000  0.27937600  1
  As  As28  1  0.89877300  0.90461400  0.79720600  1
  As  As29  1  0.39877300  0.09538600  0.70279400  1
  As  As30  1  0.10122700  0.09538600  0.20279400  1
  As  As31  1  0.60122700  0.90461400  0.29720600  1
  As  As32  1  0.41555500  0.15457500  0.47274300  1
  As  As33  1  0.91555500  0.84542500  0.02725700  1
  As  As34  1  0.58444500  0.84542500  0.52725700  1
  As  As35  1  0.08444500  0.15457500  0.97274300  1
  As  As36  1  0.58514500  0.34858100  0.51880100  1
  As  As37  1  0.08514500  0.65141900  0.98119900  1
  As  As38  1  0.41485500  0.65141900  0.48119900  1
  As  As39  1  0.91485500  0.34858100  0.01880100  1
  As  As40  1  0.25181500  0.84958000  0.01288600  1
  As  As41  1  0.75181500  0.15042000  0.48711400  1
  As  As42  1  0.74818500  0.15042000  0.98711400  1
  As  As43  1  0.24818500  0.84958000  0.51288600  1
  As  As44  1  0.06595200  0.59460500  0.21288500  1
  As  As45  1  0.56595200  0.40539500  0.28711500  1
  As  As46  1  0.93404800  0.40539500  0.78711500  1
  As  As47  1  0.43404800  0.59460500  0.71288500  1
  O  O48  1  0.13364600  0.26401600  0.54845800  1
  O  O49  1  0.63364600  0.73598400  0.95154200  1
  O  O50  1  0.86635400  0.73598400  0.45154200  1
  O  O51  1  0.36635400  0.26401600  0.04845800  1
  O  O52  1  0.22100500  0.44876500  0.42277700  1
  O  O53  1  0.72100500  0.55123500  0.07722300  1
  O  O54  1  0.77899500  0.55123500  0.57722300  1
  O  O55  1  0.27899500  0.44876500  0.92277700  1
  O  O56  1  0.30173500  0.23162000  0.45980600  1
  O  O57  1  0.80173500  0.76838000  0.04019400  1
  O  O58  1  0.69826500  0.76838000  0.54019400  1
  O  O59  1  0.19826500  0.23162000  0.95980600  1
  O  O60  1  0.35411400  0.44306600  0.27582200  1
  O  O61  1  0.85411400  0.55693400  0.22417800  1
  O  O62  1  0.64588600  0.55693400  0.72417800  1
  O  O63  1  0.14588600  0.44306600  0.77582200  1
  O  O64  1  0.18891800  0.55323800  0.24054500  1
  O  O65  1  0.68891800  0.44676200  0.25945500  1
  O  O66  1  0.81108200  0.44676200  0.75945500  1
  O  O67  1  0.31108200  0.55323800  0.74054500  1
  O  O68  1  0.37030800  0.55992500  0.09466800  1
  O  O69  1  0.87030800  0.44007500  0.40533200  1
  O  O70  1  0.62969200  0.44007500  0.90533200  1
  O  O71  1  0.12969200  0.55992500  0.59466800  1
  O  O72  1  0.97227500  0.24001100  0.44500100  1
  O  O73  1  0.47227500  0.75998900  0.05499900  1
  O  O74  1  0.02772500  0.75998900  0.55499900  1
  O  O75  1  0.52772500  0.24001100  0.94500100  1
  O  O76  1  0.31281800  0.74119800  0.94558000  1
  O  O77  1  0.81281800  0.25880200  0.55442000  1
  O  O78  1  0.68718200  0.25880200  0.05442000  1
  O  O79  1  0.18718200  0.74119800  0.44558000  1
  O  O80  1  0.04140200  0.05540700  0.58465000  1
  O  O81  1  0.54140200  0.94459300  0.91535000  1
  O  O82  1  0.95859800  0.94459300  0.41535000  1
  O  O83  1  0.45859800  0.05540700  0.08465000  1
  O  O84  1  0.02150600  0.94254700  0.76616200  1
  O  O85  1  0.52150600  0.05745300  0.73383800  1
  O  O86  1  0.97849400  0.05745300  0.23383800  1
  O  O87  1  0.47849400  0.94254700  0.26616200  1
  O  O88  1  0.18585300  0.05295400  0.72129200  1
  O  O89  1  0.68585300  0.94704600  0.77870800  1
  O  O90  1  0.81414700  0.94704600  0.27870800  1
  O  O91  1  0.31414700  0.05295400  0.22129200  1
  O  O92  1  0.85451100  0.04816100  0.73561700  1
  O  O93  1  0.35451100  0.95183900  0.76438300  1
  O  O94  1  0.14548900  0.95183900  0.26438300  1
  O  O95  1  0.64548900  0.04816100  0.23561700  1
  O  O96  1  0.21135700  0.94222800  0.90325800  1
  O  O97  1  0.71135700  0.05777200  0.59674200  1
  O  O98  1  0.78864300  0.05777200  0.09674200  1
  O  O99  1  0.28864300  0.94222800  0.40325800  1
  O  O100  1  0.39497500  0.04740800  0.58095700  1
  O  O101  1  0.89497500  0.95259200  0.91904300  1
  O  O102  1  0.60502500  0.95259200  0.41904300  1
  O  O103  1  0.10502500  0.04740800  0.08095700  1
  O  O104  1  0.47534800  0.26415500  0.54008700  1
  O  O105  1  0.97534800  0.73584500  0.95991300  1
  O  O106  1  0.52465200  0.73584500  0.45991300  1
  O  O107  1  0.02465200  0.26415500  0.04008700  1
  O  O108  1  0.14777900  0.75872700  0.04809700  1
  O  O109  1  0.64777900  0.24127300  0.45190300  1
  O  O110  1  0.85222100  0.24127300  0.95190300  1
  O  O111  1  0.35222100  0.75872700  0.54809700  1
  O  O112  1  0.05724800  0.54957900  0.09050600  1
  O  O113  1  0.55724800  0.45042100  0.40949400  1
  O  O114  1  0.94275200  0.45042100  0.90949400  1
  O  O115  1  0.44275200  0.54957900  0.59050600  1
  O  O116  1  0.52008700  0.54823600  0.22605300  1
  O  O117  1  0.02008700  0.45176400  0.27394700  1
  O  O118  1  0.47991300  0.45176400  0.77394700  1
  O  O119  1  0.97991300  0.54823600  0.72605300  1
