# generated using pymatgen
data_Ho2SeOF2
_symmetry_space_group_name_H-M   'P 1'
_cell_length_a   13.38017435
_cell_length_b   13.38017435
_cell_length_c   3.73272900
_cell_angle_alpha   90.00000000
_cell_angle_beta   90.00000000
_cell_angle_gamma   120.00000175
_symmetry_Int_Tables_number   1
_chemical_formula_structural   Ho2SeOF2
_chemical_formula_sum   'Ho12 Se6 O6 F12'
_cell_volume   578.73617579
_cell_formula_units_Z   6
loop_
 _symmetry_equiv_pos_site_id
 _symmetry_equiv_pos_as_xyz
  1  'x, y, z'
loop_
 _atom_site_type_symbol
 _atom_site_label
 _atom_site_symmetry_multiplicity
 _atom_site_fract_x
 _atom_site_fract_y
 _atom_site_fract_z
 _atom_site_occupancy
  Ho  Ho0  1  0.60185600  0.48565800  0.75000000  1
  Ho  Ho1  1  0.51434200  0.11619800  0.75000000  1
  Ho  Ho2  1  0.88380200  0.39814400  0.75000000  1
  Ho  Ho3  1  0.39814400  0.51434200  0.25000000  1
  Ho  Ho4  1  0.48565800  0.88380200  0.25000000  1
  Ho  Ho5  1  0.11619800  0.60185600  0.25000000  1
  Ho  Ho6  1  0.94496500  0.71179100  0.75000000  1
  Ho  Ho7  1  0.28820900  0.23317400  0.75000000  1
  Ho  Ho8  1  0.76682600  0.05503500  0.75000000  1
  Ho  Ho9  1  0.05503500  0.28820900  0.25000000  1
  Ho  Ho10  1  0.71179100  0.76682600  0.25000000  1
  Ho  Ho11  1  0.23317400  0.94496500  0.25000000  1
  Se  Se12  1  0.28075100  0.79349300  0.75000000  1
  Se  Se13  1  0.20650700  0.48725800  0.75000000  1
  Se  Se14  1  0.51274200  0.71924900  0.75000000  1
  Se  Se15  1  0.71924900  0.20650700  0.25000000  1
  Se  Se16  1  0.79349300  0.51274200  0.25000000  1
  Se  Se17  1  0.48725800  0.28075100  0.25000000  1
  O  O18  1  0.01418500  0.58788300  0.75000000  1
  O  O19  1  0.41211700  0.42630200  0.75000000  1
  O  O20  1  0.57369800  0.98581500  0.75000000  1
  O  O21  1  0.98581500  0.41211700  0.25000000  1
  O  O22  1  0.58788300  0.57369800  0.25000000  1
  O  O23  1  0.42630200  0.01418500  0.25000000  1
  F  F24  1  0.10463500  0.89965500  0.75000000  1
  F  F25  1  0.10034500  0.20497900  0.75000000  1
  F  F26  1  0.79502100  0.89536500  0.75000000  1
  F  F27  1  0.89536500  0.10034500  0.25000000  1
  F  F28  1  0.89965500  0.79502100  0.25000000  1
  F  F29  1  0.20497900  0.10463500  0.25000000  1
  F  F30  1  0.75266800  0.68606500  0.75000000  1
  F  F31  1  0.31393500  0.06660400  0.75000000  1
  F  F32  1  0.93339600  0.24733200  0.75000000  1
  F  F33  1  0.24733200  0.31393500  0.25000000  1
  F  F34  1  0.68606500  0.93339600  0.25000000  1
  F  F35  1  0.06660400  0.75266800  0.25000000  1
