# generated using pymatgen
data_Fe3(PO8)2
_symmetry_space_group_name_H-M   'P 1'
_cell_length_a   7.80586800
_cell_length_b   9.36965943
_cell_length_c   10.42938449
_cell_angle_alpha   114.73694244
_cell_angle_beta   89.19056062
_cell_angle_gamma   97.69105308
_symmetry_Int_Tables_number   1
_chemical_formula_structural   Fe3(PO8)2
_chemical_formula_sum   'Fe6 P4 O32'
_cell_volume   685.81747674
_cell_formula_units_Z   2
loop_
 _symmetry_equiv_pos_site_id
 _symmetry_equiv_pos_as_xyz
  1  'x, y, z'
loop_
 _atom_site_type_symbol
 _atom_site_label
 _atom_site_symmetry_multiplicity
 _atom_site_fract_x
 _atom_site_fract_y
 _atom_site_fract_z
 _atom_site_occupancy
  Fe  Fe0  1  0.67596300  0.48500200  0.60578900  1
  Fe  Fe1  1  0.32403700  0.51499800  0.39421100  1
  Fe  Fe2  1  0.86684200  0.01259000  0.72566000  1
  Fe  Fe3  1  0.13315800  0.98741000  0.27434000  1
  Fe  Fe4  1  0.63584300  0.97651300  0.20963300  1
  Fe  Fe5  1  0.36415700  0.02348700  0.79036700  1
  P  P6  1  0.88473500  0.17886600  0.49732400  1
  P  P7  1  0.11526500  0.82113400  0.50267600  1
  P  P8  1  0.59248700  0.80910400  0.85576800  1
  P  P9  1  0.40751300  0.19089600  0.14423200  1
  O  O10  1  0.84631800  0.35332100  0.56510700  1
  O  O11  1  0.15368200  0.64667900  0.43489300  1
  O  O12  1  0.92518800  0.13217700  0.61710900  1
  O  O13  1  0.07481200  0.86782300  0.38289100  1
  O  O14  1  0.72707900  0.06761100  0.40353500  1
  O  O15  1  0.27292100  0.93238900  0.59646500  1
  O  O16  1  0.04490000  0.17445500  0.40632000  1
  O  O17  1  0.95510000  0.82554500  0.59368000  1
  O  O18  1  0.75447300  0.91173300  0.83604000  1
  O  O19  1  0.24552700  0.08826700  0.16396000  1
  O  O20  1  0.56875800  0.85310500  0.01310700  1
  O  O21  1  0.43124200  0.14689500  0.98689300  1
  O  O22  1  0.61856600  0.63140300  0.78237200  1
  O  O23  1  0.38143400  0.36859700  0.21762800  1
  O  O24  1  0.42905200  0.83057600  0.78575100  1
  O  O25  1  0.57094800  0.16942400  0.21424900  1
  O  O26  1  0.59970700  0.10457100  0.73423200  1
  O  O27  1  0.40029300  0.89542900  0.26576800  1
  O  O28  1  0.90383900  0.90680600  0.15284500  1
  O  O29  1  0.09616100  0.09319400  0.84715500  1
  O  O30  1  0.00287100  0.63571500  0.82424900  1
  O  O31  1  0.99712900  0.36428500  0.17575100  1
  O  O32  1  0.54135400  0.65042800  0.47665700  1
  O  O33  1  0.45864600  0.34957200  0.52334300  1
  O  O34  1  0.67123300  0.56367900  0.46163700  1
  O  O35  1  0.32876700  0.43632100  0.53836300  1
  O  O36  1  0.98143300  0.57590800  0.90914300  1
  O  O37  1  0.01856700  0.42409200  0.09085700  1
  O  O38  1  0.79723600  0.79582900  0.17323900  1
  O  O39  1  0.20276400  0.20417100  0.82676100  1
  O  O40  1  0.71419000  0.19848500  0.83714600  1
  O  O41  1  0.28581000  0.80151500  0.16285400  1
