# generated using pymatgen
data_SrV2(H4O5)2
_symmetry_space_group_name_H-M   'P 1'
_cell_length_a   10.80296870
_cell_length_b   10.80296870
_cell_length_c   14.80507303
_cell_angle_alpha   59.22803700
_cell_angle_beta   59.22803700
_cell_angle_gamma   39.34671755
_symmetry_Int_Tables_number   1
_chemical_formula_structural   SrV2(H4O5)2
_chemical_formula_sum   'Sr4 V8 H32 O40'
_cell_volume   919.64824370
_cell_formula_units_Z   4
loop_
 _symmetry_equiv_pos_site_id
 _symmetry_equiv_pos_as_xyz
  1  'x, y, z'
loop_
 _atom_site_type_symbol
 _atom_site_label
 _atom_site_symmetry_multiplicity
 _atom_site_fract_x
 _atom_site_fract_y
 _atom_site_fract_z
 _atom_site_occupancy
  Sr  Sr0  1  0.28209100  0.31796100  0.96057700  1
  Sr  Sr1  1  0.68203900  0.71790900  0.53942300  1
  Sr  Sr2  1  0.71790900  0.68203900  0.03942300  1
  Sr  Sr3  1  0.31796100  0.28209100  0.46057700  1
  V  V4  1  0.06425300  0.08241600  0.13277500  1
  V  V5  1  0.91758400  0.93574700  0.36722500  1
  V  V6  1  0.93574700  0.91758400  0.86722500  1
  V  V7  1  0.08241600  0.06425300  0.63277500  1
  V  V8  1  0.05808300  0.09106500  0.38291700  1
  V  V9  1  0.90893500  0.94191700  0.11708300  1
  V  V10  1  0.94191700  0.90893500  0.61708300  1
  V  V11  1  0.09106500  0.05808300  0.88291700  1
  H  H12  1  0.27002200  0.59411100  0.73117100  1
  H  H13  1  0.40588900  0.72997800  0.76882900  1
  H  H14  1  0.72997800  0.40588900  0.26882900  1
  H  H15  1  0.59411100  0.27002200  0.23117100  1
  H  H16  1  0.50091500  0.40702400  0.71376600  1
  H  H17  1  0.59297600  0.49908500  0.78623400  1
  H  H18  1  0.49908500  0.59297600  0.28623400  1
  H  H19  1  0.40702400  0.50091500  0.21376600  1
  H  H20  1  0.96555500  0.44185800  0.21693300  1
  H  H21  1  0.55814200  0.03444500  0.28306700  1
  H  H22  1  0.03444500  0.55814200  0.78306700  1
  H  H23  1  0.44185800  0.96555500  0.71693300  1
  H  H24  1  0.99572300  0.58786700  0.14935700  1
  H  H25  1  0.41213300  0.00427700  0.35064300  1
  H  H26  1  0.00427700  0.41213300  0.85064300  1
  H  H27  1  0.58786700  0.99572300  0.64935700  1
  H  H28  1  0.52782900  0.66147700  0.95151200  1
  H  H29  1  0.33852300  0.47217100  0.54848800  1
  H  H30  1  0.47217100  0.33852300  0.04848800  1
  H  H31  1  0.66147700  0.52782900  0.45151200  1
  H  H32  1  0.73248700  0.44066200  0.96907600  1
  H  H33  1  0.55933800  0.26751300  0.53092400  1
  H  H34  1  0.26751300  0.55933800  0.03092400  1
  H  H35  1  0.44066200  0.73248700  0.46907600  1
  H  H36  1  0.58541200  0.00959700  0.81766100  1
  H  H37  1  0.99040300  0.41458800  0.68233900  1
  H  H38  1  0.41458800  0.99040300  0.18233900  1
  H  H39  1  0.00959700  0.58541200  0.31766100  1
  H  H40  1  0.43644000  0.98084800  0.88004500  1
  H  H41  1  0.01915200  0.56356000  0.61995500  1
  H  H42  1  0.56356000  0.01915200  0.11995500  1
  H  H43  1  0.98084800  0.43644000  0.38004500  1
  O  O44  1  0.00605300  0.07813000  0.02969000  1
  O  O45  1  0.92187000  0.99394700  0.47031000  1
  O  O46  1  0.99394700  0.92187000  0.97031000  1
  O  O47  1  0.07813000  0.00605300  0.52969000  1
  O  O48  1  0.98509000  0.10293200  0.28062300  1
  O  O49  1  0.89706800  0.01491000  0.21937700  1
  O  O50  1  0.01491000  0.89706800  0.71937700  1
  O  O51  1  0.10293200  0.98509000  0.78062300  1
  O  O52  1  0.01346300  0.29544800  0.06934000  1
  O  O53  1  0.70455200  0.98653700  0.43066000  1
  O  O54  1  0.98653700  0.70455200  0.93066000  1
  O  O55  1  0.29544800  0.01346300  0.56934000  1
  O  O56  1  0.31001300  0.89284800  0.11506300  1
  O  O57  1  0.10715200  0.68998700  0.38493700  1
  O  O58  1  0.68998700  0.10715200  0.88493700  1
  O  O59  1  0.89284800  0.31001300  0.61506300  1
  O  O60  1  0.93109100  0.33394500  0.35868600  1
  O  O61  1  0.66605500  0.06890900  0.14131400  1
  O  O62  1  0.06890900  0.66605500  0.64131400  1
  O  O63  1  0.33394500  0.93109100  0.85868600  1
  O  O64  1  0.30195900  0.96046800  0.32586300  1
  O  O65  1  0.03953200  0.69804100  0.17413700  1
  O  O66  1  0.69804100  0.03953200  0.67413700  1
  O  O67  1  0.96046800  0.30195900  0.82586300  1
  O  O68  1  0.37425500  0.45535600  0.76407800  1
  O  O69  1  0.54464400  0.62574500  0.73592200  1
  O  O70  1  0.62574500  0.54464400  0.23592200  1
  O  O71  1  0.45535600  0.37425500  0.26407800  1
  O  O72  1  0.98572100  0.50948100  0.14228100  1
  O  O73  1  0.49051900  0.01427900  0.35771900  1
  O  O74  1  0.01427900  0.49051900  0.85771900  1
  O  O75  1  0.50948200  0.98572100  0.64228100  1
  O  O76  1  0.61922200  0.55735400  0.00173800  1
  O  O77  1  0.44264600  0.38077800  0.49826200  1
  O  O78  1  0.38077800  0.44264600  0.99826200  1
  O  O79  1  0.55735400  0.61922200  0.50173800  1
  O  O80  1  0.50909900  0.99487500  0.89046500  1
  O  O81  1  0.00512500  0.49090100  0.60953500  1
  O  O82  1  0.49090100  0.00512500  0.10953500  1
  O  O83  1  0.99487500  0.50909900  0.39046500  1
