# generated using pymatgen
data_ThMo2O9
_symmetry_space_group_name_H-M   'P 1'
_cell_length_a   10.68546000
_cell_length_b   7.40962100
_cell_length_c   9.80763992
_cell_angle_alpha   86.64963496
_cell_angle_beta   90.00000000
_cell_angle_gamma   90.00000000
_symmetry_Int_Tables_number   1
_chemical_formula_structural   ThMo2O9
_chemical_formula_sum   'Th4 Mo8 O36'
_cell_volume   775.19473091
_cell_formula_units_Z   4
loop_
 _symmetry_equiv_pos_site_id
 _symmetry_equiv_pos_as_xyz
  1  'x, y, z'
loop_
 _atom_site_type_symbol
 _atom_site_label
 _atom_site_symmetry_multiplicity
 _atom_site_fract_x
 _atom_site_fract_y
 _atom_site_fract_z
 _atom_site_occupancy
  Th  Th0  1  0.53959600  0.27331500  0.23910400  1
  Th  Th1  1  0.03959600  0.72668500  0.26089600  1
  Th  Th2  1  0.46040400  0.72668500  0.76089600  1
  Th  Th3  1  0.96040400  0.27331500  0.73910400  1
  Mo  Mo4  1  0.23184000  0.37939200  0.00146000  1
  Mo  Mo5  1  0.73184000  0.62060800  0.49854000  1
  Mo  Mo6  1  0.76816000  0.62060800  0.99854000  1
  Mo  Mo7  1  0.26816000  0.37939200  0.50146000  1
  Mo  Mo8  1  0.59713400  0.20643400  0.82103100  1
  Mo  Mo9  1  0.09713400  0.79356600  0.67896900  1
  Mo  Mo10  1  0.40286600  0.79356600  0.17896900  1
  Mo  Mo11  1  0.90286600  0.20643400  0.32103100  1
  O  O12  1  0.56078000  0.43161400  0.75564200  1
  O  O13  1  0.06078000  0.56838600  0.74435800  1
  O  O14  1  0.43922000  0.56838600  0.24435800  1
  O  O15  1  0.93922000  0.43161400  0.25564200  1
  O  O16  1  0.48639600  0.04893500  0.75896700  1
  O  O17  1  0.98639600  0.95106500  0.74103300  1
  O  O18  1  0.51360400  0.95106500  0.24103300  1
  O  O19  1  0.01360400  0.04893500  0.25896700  1
  O  O20  1  0.75216900  0.15060100  0.76301000  1
  O  O21  1  0.25216900  0.84939900  0.73699000  1
  O  O22  1  0.24783100  0.84939900  0.23699000  1
  O  O23  1  0.74783100  0.15060100  0.26301000  1
  O  O24  1  0.11665400  0.24334800  0.92042400  1
  O  O25  1  0.61665400  0.75665200  0.57957600  1
  O  O26  1  0.88334600  0.75665200  0.07957600  1
  O  O27  1  0.38334600  0.24334800  0.42042400  1
  O  O28  1  0.32980800  0.48821600  0.87472700  1
  O  O29  1  0.82980800  0.51178400  0.62527300  1
  O  O30  1  0.67019200  0.51178400  0.12527300  1
  O  O31  1  0.17019200  0.48821600  0.37472700  1
  O  O32  1  0.15477900  0.55462200  0.09168700  1
  O  O33  1  0.65477900  0.44537800  0.40831300  1
  O  O34  1  0.84522100  0.44537800  0.90831300  1
  O  O35  1  0.34522100  0.55462200  0.59168700  1
  O  O36  1  0.61335900  0.13698000  0.46008100  1
  O  O37  1  0.11335900  0.86302000  0.03991900  1
  O  O38  1  0.38664100  0.86302000  0.53991900  1
  O  O39  1  0.88664100  0.13698000  0.96008100  1
  O  O40  1  0.58759300  0.20005000  0.00338300  1
  O  O41  1  0.08759300  0.79995000  0.49661700  1
  O  O42  1  0.41240700  0.79995000  0.99661700  1
  O  O43  1  0.91240700  0.20005000  0.50338300  1
  O  O44  1  0.33573900  0.25040800  0.11343200  1
  O  O45  1  0.83573900  0.74959200  0.38656800  1
  O  O46  1  0.66426100  0.74959200  0.88656800  1
  O  O47  1  0.16426100  0.25040800  0.61343200  1
