# generated using pymatgen
data_U2H18C4Se3N2O17
_symmetry_space_group_name_H-M   'P 1'
_cell_length_a   11.40937600
_cell_length_b   11.45186900
_cell_length_c   17.28658800
_cell_angle_alpha   90.00000000
_cell_angle_beta   90.00000000
_cell_angle_gamma   90.00000000
_symmetry_Int_Tables_number   1
_chemical_formula_structural   U2H18C4Se3N2O17
_chemical_formula_sum   'U8 H72 C16 Se12 N8 O68'
_cell_volume   2258.64275809
_cell_formula_units_Z   4
loop_
 _symmetry_equiv_pos_site_id
 _symmetry_equiv_pos_as_xyz
  1  'x, y, z'
loop_
 _atom_site_type_symbol
 _atom_site_label
 _atom_site_symmetry_multiplicity
 _atom_site_fract_x
 _atom_site_fract_y
 _atom_site_fract_z
 _atom_site_occupancy
  U  U0  1  0.67833500  0.66327100  0.45827100  1
  U  U1  1  0.82166500  0.33672900  0.95827100  1
  U  U2  1  0.17833500  0.83672900  0.54172900  1
  U  U3  1  0.32166500  0.16327100  0.04172900  1
  U  U4  1  0.60660200  0.12749700  0.50970300  1
  U  U5  1  0.89339800  0.87250300  0.00970300  1
  U  U6  1  0.10660200  0.37250300  0.49029700  1
  U  U7  1  0.39339800  0.62749700  0.99029700  1
  H  H8  1  0.42178200  0.31517200  0.45417700  1
  H  H9  1  0.07821800  0.68482800  0.95417700  1
  H  H10  1  0.92178200  0.18482800  0.54582300  1
  H  H11  1  0.57821800  0.81517200  0.04582300  1
  H  H12  1  0.54721500  0.36746400  0.44019200  1
  H  H13  1  0.95278500  0.63253600  0.94019200  1
  H  H14  1  0.04721500  0.13253600  0.55980800  1
  H  H15  1  0.45278500  0.86746400  0.05980800  1
  H  H16  1  0.69983700  0.34199700  0.15454400  1
  H  H17  1  0.80016300  0.65800300  0.65454400  1
  H  H18  1  0.19983700  0.15800300  0.84545600  1
  H  H19  1  0.30016300  0.84199700  0.34545600  1
  H  H20  1  0.74909400  0.36703300  0.24430400  1
  H  H21  1  0.75090600  0.63296700  0.74430400  1
  H  H22  1  0.24909400  0.13296700  0.75569600  1
  H  H23  1  0.25090600  0.86703300  0.25569600  1
  H  H24  1  0.59505100  0.26291200  0.28153000  1
  H  H25  1  0.90494900  0.73708800  0.78153000  1
  H  H26  1  0.09505100  0.23708800  0.71847000  1
  H  H27  1  0.40494900  0.76291200  0.21847000  1
  H  H28  1  0.51729700  0.29240100  0.19396100  1
  H  H29  1  0.98270300  0.70759900  0.69396100  1
  H  H30  1  0.01729700  0.20759900  0.80603900  1
  H  H31  1  0.48270300  0.79240100  0.30603900  1
  H  H32  1  0.52130700  0.39953700  0.26969300  1
  H  H33  1  0.97869300  0.60046300  0.76969300  1
  H  H34  1  0.02130700  0.10046300  0.73030700  1
  H  H35  1  0.47869300  0.89953700  0.23030700  1
  H  H36  1  0.64874900  0.55296400  0.24852000  1
  H  H37  1  0.85125100  0.44703600  0.74852000  1
  H  H38  1  0.14874900  0.94703600  0.75148000  1
  H  H39  1  0.35125100  0.05296400  0.25148000  1
  H  H40  1  0.60359200  0.52883800  0.14999300  1
  H  H41  1  0.89640800  0.47116200  0.64999300  1
  H  H42  1  0.10359200  0.97116200  0.85000700  1
  H  H43  1  0.39640800  0.02883800  0.35000700  1
  H  H44  1  0.75599200  0.54343000  0.17294300  1
  H  H45  1  0.74400800  0.45657000  0.67294300  1
  H  H46  1  0.25599200  0.95657000  0.82705700  1
  H  H47  1  0.24400800  0.04343000  0.32705700  1
  H  H48  1  0.45595300  0.55669500  0.78631600  1
  H  H49  1  0.04404700  0.44330500  0.28631600  1
  H  H50  1  0.95595300  0.94330500  0.21368400  1
  H  H51  1  0.54404700  0.05669500  0.71368400  1
  H  H52  1  0.46206500  0.64048100  0.70717700  1
  H  H53  1  0.03793500  0.35951900  0.20717700  1
  H  H54  1  0.96206500  0.85951900  0.29282300  1
  H  H55  1  0.53793500  0.14048100  0.79282300  1
  H  H56  1  0.25620400  0.50409700  0.76371900  1
  H  H57  1  0.24379600  0.49590300  0.26371900  1
  H  H58  1  0.75620400  0.99590300  0.23628100  1
  H  H59  1  0.74379600  0.00409700  0.73628100  1
  H  H60  1  0.26010600  0.58864500  0.67575700  1
  H  H61  1  0.23989400  0.41135500  0.17575700  1
  H  H62  1  0.76010600  0.91135500  0.32424300  1
  H  H63  1  0.73989400  0.08864500  0.82424300  1
  H  H64  1  0.27550100  0.65951900  0.76797200  1
  H  H65  1  0.22449900  0.34048100  0.26797200  1
  H  H66  1  0.77550100  0.84048100  0.23202800  1
  H  H67  1  0.72449900  0.15951900  0.73202800  1
  H  H68  1  0.48262900  0.38864600  0.72261400  1
  H  H69  1  0.01737100  0.61135400  0.22261400  1
  H  H70  1  0.98262900  0.11135400  0.27738600  1
  H  H71  1  0.51737100  0.88864600  0.77738600  1
  H  H72  1  0.53663300  0.48514000  0.64817700  1
  H  H73  1  0.96336700  0.51486000  0.14817700  1
  H  H74  1  0.03663300  0.01486000  0.35182300  1
  H  H75  1  0.46336700  0.98514000  0.85182300  1
  H  H76  1  0.38874400  0.43455600  0.64618300  1
  H  H77  1  0.11125600  0.56544400  0.14618300  1
  H  H78  1  0.88874400  0.06544400  0.35381700  1
  H  H79  1  0.61125600  0.93455600  0.85381700  1
  C  C80  1  0.57035100  0.33072200  0.23999200  1
  C  C81  1  0.92964900  0.66927800  0.73999200  1
  C  C82  1  0.07035100  0.16927800  0.76000800  1
  C  C83  1  0.42964900  0.83072200  0.26000800  1
  C  C84  1  0.67117700  0.51126900  0.19340500  1
  C  C85  1  0.82882300  0.48873100  0.69340500  1
  C  C86  1  0.17117700  0.98873100  0.80659500  1
  C  C87  1  0.32882300  0.01126900  0.30659500  1
  C  C88  1  0.29417200  0.58030800  0.73471200  1
  C  C89  1  0.20582800  0.41969200  0.23471200  1
  C  C90  1  0.79417200  0.91969200  0.26528800  1
  C  C91  1  0.70582800  0.08030800  0.76528800  1
  C  C92  1  0.46117100  0.46101700  0.68379400  1
  C  C93  1  0.03882900  0.53898300  0.18379400  1
  C  C94  1  0.96117100  0.03898300  0.31620600  1
  C  C95  1  0.53882900  0.96101700  0.81620600  1
  Se  Se96  1  0.50552400  0.84644200  0.59763300  1
  Se  Se97  1  0.99447600  0.15355800  0.09763300  1
  Se  Se98  1  0.00552400  0.65355800  0.40236700  1
  Se  Se99  1  0.49447600  0.34644200  0.90236700  1
  Se  Se100  1  0.85411000  0.91544300  0.54275700  1
  Se  Se101  1  0.64589000  0.08455700  0.04275700  1
  Se  Se102  1  0.35411000  0.58455700  0.45724300  1
  Se  Se103  1  0.14589000  0.41544300  0.95724300  1
  Se  Se104  1  0.79769900  0.36006100  0.40995800  1
  Se  Se105  1  0.70230100  0.63993900  0.90995800  1
  Se  Se106  1  0.29769900  0.13993900  0.59004200  1
  Se  Se107  1  0.20230100  0.86006100  0.09004200  1
  N  N108  1  0.67939600  0.38282700  0.20637900  1
  N  N109  1  0.82060400  0.61717300  0.70637900  1
  N  N110  1  0.17939600  0.11717300  0.79362100  1
  N  N111  1  0.32060400  0.88282700  0.29362100  1
  N  N112  1  0.42389200  0.56512600  0.73053400  1
  N  N113  1  0.07610800  0.43487400  0.23053400  1
  N  N114  1  0.92389200  0.93487400  0.26946600  1
  N  N115  1  0.57610800  0.06512600  0.76946600  1
  O  O116  1  0.72853600  0.62103100  0.55361200  1
  O  O117  1  0.77146400  0.37896900  0.05361200  1
  O  O118  1  0.22853600  0.87896900  0.44638800  1
  O  O119  1  0.27146400  0.12103100  0.94638800  1
  O  O120  1  0.62901300  0.70561900  0.36311000  1
  O  O121  1  0.87098700  0.29438100  0.86311000  1
  O  O122  1  0.12901300  0.79438100  0.63689000  1
  O  O123  1  0.37098700  0.20561900  0.13689000  1
  O  O124  1  0.54102500  0.79561500  0.50954500  1
  O  O125  1  0.95897500  0.20438500  0.00954500  1
  O  O126  1  0.04102500  0.70438500  0.49045500  1
  O  O127  1  0.45897500  0.29561500  0.99045500  1
  O  O128  1  0.54460700  0.75876000  0.66874500  1
  O  O129  1  0.95539300  0.24124000  0.16874500  1
  O  O130  1  0.04460700  0.74124000  0.33125500  1
  O  O131  1  0.45539300  0.25876000  0.83125500  1
  O  O132  1  0.36112700  0.87208600  0.60232700  1
  O  O133  1  0.13887300  0.12791400  0.10232700  1
  O  O134  1  0.86112700  0.62791400  0.39767300  1
  O  O135  1  0.63887300  0.37208600  0.89767300  1
  O  O136  1  0.57159300  0.97796600  0.60735900  1
  O  O137  1  0.92840700  0.02203400  0.10735900  1
  O  O138  1  0.07159300  0.52203400  0.39264100  1
  O  O139  1  0.42840700  0.47796600  0.89264100  1
  O  O140  1  0.83571300  0.85468700  0.62761700  1
  O  O141  1  0.66428700  0.14531300  0.12761700  1
  O  O142  1  0.33571300  0.64531300  0.37238300  1
  O  O143  1  0.16428700  0.35468700  0.87238300  1
  O  O144  1  0.79207800  0.83892500  0.46980200  1
  O  O145  1  0.70792200  0.16107500  0.96980200  1
  O  O146  1  0.29207800  0.66107500  0.53019800  1
  O  O147  1  0.20792200  0.33892500  0.03019800  1
  O  O148  1  0.99584700  0.94049700  0.52033400  1
  O  O149  1  0.50415300  0.05950300  0.02033400  1
  O  O150  1  0.49584700  0.55950300  0.47966600  1
  O  O151  1  0.00415300  0.44049700  0.97966600  1
  O  O152  1  0.79484600  0.05167100  0.53969100  1
  O  O153  1  0.70515400  0.94832900  0.03969100  1
  O  O154  1  0.29484600  0.44832900  0.46030900  1
  O  O155  1  0.20515400  0.55167100  0.96030900  1
  O  O156  1  0.62517300  0.22638600  0.59026500  1
  O  O157  1  0.87482700  0.77361400  0.09026500  1
  O  O158  1  0.12517300  0.27361400  0.40973500  1
  O  O159  1  0.37482700  0.72638600  0.90973500  1
  O  O160  1  0.58606900  0.02999900  0.42902900  1
  O  O161  1  0.91393100  0.97000100  0.92902900  1
  O  O162  1  0.08606900  0.47000100  0.57097100  1
  O  O163  1  0.41393100  0.52999900  0.07097100  1
  O  O164  1  0.50242600  0.29346700  0.44133200  1
  O  O165  1  0.99757400  0.70653300  0.94133200  1
  O  O166  1  0.00242600  0.20653300  0.55866800  1
  O  O167  1  0.49757400  0.79346700  0.05866800  1
  O  O168  1  0.73923600  0.22798800  0.42843900  1
  O  O169  1  0.76076400  0.77201200  0.92843900  1
  O  O170  1  0.23923600  0.27201200  0.57156100  1
  O  O171  1  0.26076400  0.72798800  0.07156100  1
  O  O172  1  0.89931700  0.38611200  0.47804700  1
  O  O173  1  0.60068300  0.61388800  0.97804700  1
  O  O174  1  0.39931700  0.11388800  0.52195300  1
  O  O175  1  0.10068300  0.88611200  0.02195300  1
  O  O176  1  0.68646900  0.45590400  0.41989700  1
  O  O177  1  0.81353100  0.54409600  0.91989700  1
  O  O178  1  0.18646900  0.04409600  0.58010300  1
  O  O179  1  0.31353100  0.95590400  0.08010300  1
  O  O180  1  0.85189600  0.36071900  0.32143200  1
  O  O181  1  0.64810400  0.63928100  0.82143200  1
  O  O182  1  0.35189600  0.13928100  0.67856800  1
  O  O183  1  0.14810400  0.86071900  0.17856800  1
