# generated using pymatgen
data_NiH6(CO3)2
_symmetry_space_group_name_H-M   'P 1'
_cell_length_a   5.45166900
_cell_length_b   9.88218580
_cell_length_c   15.14417160
_cell_angle_alpha   106.26109737
_cell_angle_beta   90.00000000
_cell_angle_gamma   90.00000000
_symmetry_Int_Tables_number   1
_chemical_formula_structural   NiH6(CO3)2
_chemical_formula_sum   'Ni6 H36 C12 O36'
_cell_volume   783.24436026
_cell_formula_units_Z   6
loop_
 _symmetry_equiv_pos_site_id
 _symmetry_equiv_pos_as_xyz
  1  'x, y, z'
loop_
 _atom_site_type_symbol
 _atom_site_label
 _atom_site_symmetry_multiplicity
 _atom_site_fract_x
 _atom_site_fract_y
 _atom_site_fract_z
 _atom_site_occupancy
  Ni  Ni0  1  0.62620600  0.95592800  0.82216000  1
  Ni  Ni1  1  0.12620600  0.04407200  0.67784000  1
  Ni  Ni2  1  0.37379400  0.04407200  0.17784000  1
  Ni  Ni3  1  0.87379400  0.95592800  0.32216000  1
  Ni  Ni4  1  0.50000000  0.50000000  0.50000000  1
  Ni  Ni5  1  0.00000000  0.50000000  0.00000000  1
  H  H6  1  0.74778800  0.82306100  0.94399500  1
  H  H7  1  0.24778800  0.17693900  0.55600500  1
  H  H8  1  0.25221200  0.17693900  0.05600500  1
  H  H9  1  0.75221200  0.82306100  0.44399500  1
  H  H10  1  0.73562900  0.98449800  0.00395100  1
  H  H11  1  0.23562900  0.01550200  0.49604900  1
  H  H12  1  0.26437100  0.01550200  0.99604900  1
  H  H13  1  0.76437100  0.98449800  0.50395100  1
  H  H14  1  0.15307200  0.95013100  0.83956500  1
  H  H15  1  0.65307200  0.04986900  0.66043500  1
  H  H16  1  0.84692800  0.04986900  0.16043500  1
  H  H17  1  0.34692800  0.95013100  0.33956500  1
  H  H18  1  0.25419000  0.79554000  0.83639900  1
  H  H19  1  0.75419000  0.20446000  0.66360100  1
  H  H20  1  0.74581000  0.20446000  0.16360100  1
  H  H21  1  0.24581000  0.79554000  0.33639900  1
  H  H22  1  0.60741300  0.81662000  0.57482300  1
  H  H23  1  0.10741300  0.18338000  0.92517700  1
  H  H24  1  0.39258700  0.18338000  0.42517700  1
  H  H25  1  0.89258700  0.81662000  0.07482300  1
  H  H26  1  0.92938400  0.62120500  0.46998200  1
  H  H27  1  0.42938400  0.37879500  0.03001800  1
  H  H28  1  0.07061600  0.37879500  0.53001800  1
  H  H29  1  0.57061600  0.62120500  0.96998200  1
  H  H30  1  0.79141900  0.55338400  0.37648400  1
  H  H31  1  0.29141900  0.44661600  0.12351600  1
  H  H32  1  0.20858200  0.44661600  0.62351600  1
  H  H33  1  0.70858100  0.55338400  0.87648400  1
  H  H34  1  0.65273400  0.45595700  0.70231600  1
  H  H35  1  0.15273400  0.54404300  0.79768400  1
  H  H36  1  0.34726600  0.54404300  0.29768400  1
  H  H37  1  0.84726600  0.45595700  0.20231600  1
  H  H38  1  0.49179700  0.35746400  0.74482100  1
  H  H39  1  0.99179700  0.64253600  0.75517900  1
  H  H40  1  0.50820300  0.64253600  0.25517900  1
  H  H41  1  0.00820300  0.35746400  0.24482100  1
  C  C42  1  0.48544800  0.81584900  0.63318400  1
  C  C43  1  0.98544800  0.18415100  0.86681600  1
  C  C44  1  0.51455200  0.18415100  0.36681600  1
  C  C45  1  0.01455200  0.81584900  0.13318400  1
  C  C46  1  0.61432900  0.70840600  0.67446000  1
  C  C47  1  0.11432900  0.29159400  0.82554000  1
  C  C48  1  0.38567100  0.29159400  0.32554000  1
  C  C49  1  0.88567100  0.70840600  0.17446000  1
  C  C50  1  0.23830900  0.76360000  0.58642300  1
  C  C51  1  0.73830900  0.23640000  0.91357700  1
  C  C52  1  0.76169100  0.23640000  0.41357700  1
  C  C53  1  0.26169100  0.76360000  0.08642300  1
  O  O54  1  0.77456900  0.92080600  0.94285400  1
  O  O55  1  0.27456900  0.07919400  0.55714600  1
  O  O56  1  0.22543100  0.07919400  0.05714600  1
  O  O57  1  0.72543100  0.92080600  0.44285400  1
  O  O58  1  0.28595600  0.89694100  0.86427700  1
  O  O59  1  0.78595600  0.10305900  0.63572300  1
  O  O60  1  0.71404400  0.10305900  0.13572300  1
  O  O61  1  0.21404400  0.89694100  0.36427700  1
  O  O62  1  0.46818200  0.95080200  0.69559300  1
  O  O63  1  0.96818200  0.04919800  0.80440700  1
  O  O64  1  0.53181800  0.04919800  0.30440700  1
  O  O65  1  0.03181800  0.95080200  0.19559300  1
  O  O66  1  0.71074700  0.75384400  0.75345200  1
  O  O67  1  0.21074700  0.24615600  0.74654800  1
  O  O68  1  0.28925300  0.24615600  0.24654800  1
  O  O69  1  0.78925300  0.75384400  0.25345200  1
  O  O70  1  0.63552400  0.58007700  0.62780500  1
  O  O71  1  0.13552400  0.41992300  0.87219500  1
  O  O72  1  0.36447600  0.41992300  0.37219500  1
  O  O73  1  0.86447600  0.58007700  0.12780500  1
  O  O74  1  0.05267500  0.84236700  0.60905600  1
  O  O75  1  0.55267500  0.15763300  0.89094400  1
  O  O76  1  0.94732500  0.15763300  0.39094400  1
  O  O77  1  0.44732500  0.84236700  0.10905600  1
  O  O78  1  0.22842500  0.64761000  0.52262800  1
  O  O79  1  0.72842500  0.35239000  0.97737200  1
  O  O80  1  0.77157500  0.35239000  0.47737200  1
  O  O81  1  0.27157500  0.64761000  0.02262800  1
  O  O82  1  0.76749500  0.61792400  0.43854900  1
  O  O83  1  0.26749500  0.38207600  0.06145100  1
  O  O84  1  0.23250500  0.38207600  0.56145100  1
  O  O85  1  0.73250500  0.61792400  0.93854900  1
  O  O86  1  0.66024700  0.39260400  0.74230900  1
  O  O87  1  0.16024700  0.60739600  0.75769100  1
  O  O88  1  0.33975300  0.60739600  0.25769100  1
  O  O89  1  0.83975300  0.39260400  0.24230900  1
