# generated using pymatgen
data_CoH12C2(NCl2)2
_symmetry_space_group_name_H-M   'P 1'
_cell_length_a   7.84989500
_cell_length_b   12.85813100
_cell_length_c   11.21427125
_cell_angle_alpha   90.00000000
_cell_angle_beta   96.57888022
_cell_angle_gamma   90.00000000
_symmetry_Int_Tables_number   1
_chemical_formula_structural   CoH12C2(NCl2)2
_chemical_formula_sum   'Co4 H48 C8 N8 Cl16'
_cell_volume   1124.45865596
_cell_formula_units_Z   4
loop_
 _symmetry_equiv_pos_site_id
 _symmetry_equiv_pos_as_xyz
  1  'x, y, z'
loop_
 _atom_site_type_symbol
 _atom_site_label
 _atom_site_symmetry_multiplicity
 _atom_site_fract_x
 _atom_site_fract_y
 _atom_site_fract_z
 _atom_site_occupancy
  Co  Co0  1  0.73052300  0.93873300  0.27278400  1
  Co  Co1  1  0.26947700  0.43873300  0.22721600  1
  Co  Co2  1  0.26947700  0.06126700  0.72721600  1
  Co  Co3  1  0.73052300  0.56126700  0.77278400  1
  H  H4  1  0.28371900  0.71510200  0.03950600  1
  H  H5  1  0.71628100  0.21510200  0.46049400  1
  H  H6  1  0.71628100  0.28489800  0.96049400  1
  H  H7  1  0.28371900  0.78489800  0.53950600  1
  H  H8  1  0.28142200  0.79078500  0.91543200  1
  H  H9  1  0.71857800  0.29078500  0.58456800  1
  H  H10  1  0.71857800  0.20921500  0.08456800  1
  H  H11  1  0.28142200  0.70921500  0.41543200  1
  H  H12  1  0.42562500  0.81333900  0.03543800  1
  H  H13  1  0.57437500  0.31333900  0.46456200  1
  H  H14  1  0.57437500  0.18666100  0.96456200  1
  H  H15  1  0.42562500  0.68666100  0.53543800  1
  H  H16  1  0.78531000  0.83294700  0.57988800  1
  H  H17  1  0.21469000  0.33294700  0.92011200  1
  H  H18  1  0.21469000  0.16705300  0.42011200  1
  H  H19  1  0.78531000  0.66705300  0.07988800  1
  H  H20  1  0.67502500  0.94359000  0.58619600  1
  H  H21  1  0.32497500  0.44359000  0.91380400  1
  H  H22  1  0.32497500  0.05641000  0.41380400  1
  H  H23  1  0.67502500  0.55641000  0.08619600  1
  H  H24  1  0.88801100  0.94523500  0.61935500  1
  H  H25  1  0.11198900  0.44523500  0.88064500  1
  H  H26  1  0.11198900  0.05476500  0.38064500  1
  H  H27  1  0.88801100  0.55476500  0.11935500  1
  H  H28  1  0.80097500  0.36113700  0.34419100  1
  H  H29  1  0.19902500  0.86113700  0.15580900  1
  H  H30  1  0.19902500  0.63886300  0.65580900  1
  H  H31  1  0.80097500  0.13886300  0.84419100  1
  H  H32  1  0.80657400  0.43967600  0.47844600  1
  H  H33  1  0.19342600  0.93967600  0.02155400  1
  H  H34  1  0.19342600  0.56032400  0.52155400  1
  H  H35  1  0.80657400  0.06032400  0.97844600  1
  H  H36  1  0.95573600  0.33450400  0.47052900  1
  H  H37  1  0.04426400  0.83450400  0.02947100  1
  H  H38  1  0.04426400  0.66549600  0.52947100  1
  H  H39  1  0.95573600  0.16549600  0.97052900  1
  H  H40  1  0.87116600  0.83864200  0.79631100  1
  H  H41  1  0.12883400  0.33864200  0.70368900  1
  H  H42  1  0.12883400  0.16135800  0.20368900  1
  H  H43  1  0.87116600  0.66135800  0.29631100  1
  H  H44  1  0.74174000  0.95436400  0.80037200  1
  H  H45  1  0.25826000  0.45436400  0.69962800  1
  H  H46  1  0.25826000  0.04563600  0.19962800  1
  H  H47  1  0.74174000  0.54563600  0.30037200  1
  H  H48  1  0.64288700  0.83220400  0.75908900  1
  H  H49  1  0.35711300  0.33220400  0.74091100  1
  H  H50  1  0.35711300  0.16779600  0.24091100  1
  H  H51  1  0.64288700  0.66779600  0.25908900  1
  C  C52  1  0.82518000  0.36183300  0.44261600  1
  C  C53  1  0.17482000  0.86183300  0.05738400  1
  C  C54  1  0.17482000  0.63816700  0.55738400  1
  C  C55  1  0.82518000  0.13816700  0.94261600  1
  C  C56  1  0.75739400  0.87994400  0.75550900  1
  C  C57  1  0.24260600  0.37994400  0.74449100  1
  C  C58  1  0.24260600  0.12005600  0.24449100  1
  C  C59  1  0.75739400  0.62005600  0.25550900  1
  N  N60  1  0.29896900  0.79016900  0.00851000  1
  N  N61  1  0.70103100  0.29016900  0.49149000  1
  N  N62  1  0.70103100  0.20983100  0.99149000  1
  N  N63  1  0.29896900  0.70983100  0.50851000  1
  N  N64  1  0.77850900  0.90158000  0.62723400  1
  N  N65  1  0.22149100  0.40158000  0.87276600  1
  N  N66  1  0.22149100  0.09842000  0.37276600  1
  N  N67  1  0.77850900  0.59842000  0.12723400  1
  Cl  Cl68  1  0.97984500  0.88237100  0.37270400  1
  Cl  Cl69  1  0.02015500  0.38237100  0.12729600  1
  Cl  Cl70  1  0.02015500  0.11762900  0.62729600  1
  Cl  Cl71  1  0.97984500  0.61762900  0.87270400  1
  Cl  Cl72  1  0.68805300  0.86575400  0.08642600  1
  Cl  Cl73  1  0.31194700  0.36575400  0.41357400  1
  Cl  Cl74  1  0.31194700  0.13424600  0.91357400  1
  Cl  Cl75  1  0.68805300  0.63424600  0.58642600  1
  Cl  Cl76  1  0.75606500  0.11523600  0.26909900  1
  Cl  Cl77  1  0.24393500  0.61523600  0.23090100  1
  Cl  Cl78  1  0.24393500  0.88476400  0.73090100  1
  Cl  Cl79  1  0.75606500  0.38476400  0.76909900  1
  Cl  Cl80  1  0.50599100  0.89635600  0.37215400  1
  Cl  Cl81  1  0.49400900  0.39635600  0.12784600  1
  Cl  Cl82  1  0.49400900  0.10364400  0.62784600  1
  Cl  Cl83  1  0.50599100  0.60364400  0.87215400  1
