# generated using pymatgen
data_NiH32C4S2(NO8)2
_symmetry_space_group_name_H-M   'P 1'
_cell_length_a   8.94816771
_cell_length_b   13.30677071
_cell_length_c   17.10262433
_cell_angle_alpha   90.00000000
_cell_angle_beta   90.00000000
_cell_angle_gamma   90.00000000
_symmetry_Int_Tables_number   1
_chemical_formula_structural   NiH32C4S2(NO8)2
_chemical_formula_sum   'Ni4 H128 C16 S8 N8 O64'
_cell_volume   2036.43027562
_cell_formula_units_Z   4
loop_
 _symmetry_equiv_pos_site_id
 _symmetry_equiv_pos_as_xyz
  1  'x, y, z'
loop_
 _atom_site_type_symbol
 _atom_site_label
 _atom_site_symmetry_multiplicity
 _atom_site_fract_x
 _atom_site_fract_y
 _atom_site_fract_z
 _atom_site_occupancy
  Ni  Ni0  1  0.50000000  0.50000000  0.00000000  1
  Ni  Ni1  1  0.00000000  -0.00000000  0.00000000  1
  Ni  Ni2  1  0.50000000  0.00000000  0.50000000  1
  Ni  Ni3  1  0.00000000  0.50000000  0.50000000  1
  H  H4  1  0.34675043  0.42047439  0.12144356  1
  H  H5  1  0.84675043  0.07952561  0.87855644  1
  H  H6  1  0.65324957  0.92047439  0.37855644  1
  H  H7  1  0.15324957  0.57952561  0.62144356  1
  H  H8  1  0.65324957  0.57952561  0.87855644  1
  H  H9  1  0.15324957  0.92047439  0.12144356  1
  H  H10  1  0.34675043  0.07952561  0.62144356  1
  H  H11  1  0.84675043  0.42047439  0.37855644  1
  H  H12  1  0.52420246  0.40154108  0.13200302  1
  H  H13  1  0.02420246  0.09845892  0.86799698  1
  H  H14  1  0.47579754  0.90154108  0.36799698  1
  H  H15  1  0.97579754  0.59845892  0.63200302  1
  H  H16  1  0.47579754  0.59845892  0.86799698  1
  H  H17  1  0.97579754  0.90154108  0.13200302  1
  H  H18  1  0.52420246  0.09845892  0.63200302  1
  H  H19  1  0.02420246  0.40154108  0.36799698  1
  H  H20  1  0.58621828  0.66088104  0.08144845  1
  H  H21  1  0.08621828  0.83911896  0.91855155  1
  H  H22  1  0.41378172  0.16088104  0.41855155  1
  H  H23  1  0.91378172  0.33911896  0.58144845  1
  H  H24  1  0.41378172  0.33911896  0.91855155  1
  H  H25  1  0.91378172  0.16088104  0.08144845  1
  H  H26  1  0.58621828  0.83911896  0.58144845  1
  H  H27  1  0.08621828  0.66088104  0.41855155  1
  H  H28  1  0.71033447  0.63782054  0.01755513  1
  H  H29  1  0.21033447  0.86217946  0.98244487  1
  H  H30  1  0.28966553  0.13782054  0.48244487  1
  H  H31  1  0.78966553  0.36217946  0.51755513  1
  H  H32  1  0.28966553  0.36217946  0.98244487  1
  H  H33  1  0.78966553  0.13782054  0.01755513  1
  H  H34  1  0.71033447  0.86217946  0.51755513  1
  H  H35  1  0.21033447  0.63782054  0.48244487  1
  H  H36  1  0.77034708  0.41191356  0.02674218  1
  H  H37  1  0.27034708  0.08808644  0.97325782  1
  H  H38  1  0.22965292  0.91191356  0.47325782  1
  H  H39  1  0.72965292  0.58808644  0.52674218  1
  H  H40  1  0.22965292  0.58808644  0.97325782  1
  H  H41  1  0.72965292  0.91191356  0.02674218  1
  H  H42  1  0.77034708  0.08808644  0.52674218  1
  H  H43  1  0.27034708  0.41191356  0.47325782  1
  H  H44  1  0.65727983  0.33172470  0.98897802  1
  H  H45  1  0.15727983  0.16827530  0.01102198  1
  H  H46  1  0.34272017  0.83172470  0.51102198  1
  H  H47  1  0.84272017  0.66827530  0.48897802  1
  H  H48  1  0.34272017  0.66827530  0.01102198  1
  H  H49  1  0.84272017  0.83172470  0.98897802  1
  H  H50  1  0.65727983  0.16827530  0.48897802  1
  H  H51  1  0.15727983  0.33172470  0.51102198  1
  H  H52  1  0.77388359  0.31630920  0.17084818  1
  H  H53  1  0.27388359  0.18369080  0.82915182  1
  H  H54  1  0.22611641  0.81630920  0.32915182  1
  H  H55  1  0.72611641  0.68369080  0.67084818  1
  H  H56  1  0.22611641  0.68369080  0.82915182  1
  H  H57  1  0.72611641  0.81630920  0.17084818  1
  H  H58  1  0.77388359  0.18369080  0.67084818  1
  H  H59  1  0.27388359  0.31630920  0.32915182  1
  H  H60  1  0.67244540  0.34607443  0.24296904  1
  H  H61  1  0.17244540  0.15392557  0.75703096  1
  H  H62  1  0.32755460  0.84607443  0.25703096  1
  H  H63  1  0.82755460  0.65392557  0.74296904  1
  H  H64  1  0.32755460  0.65392557  0.75703096  1
  H  H65  1  0.82755460  0.84607443  0.24296904  1
  H  H66  1  0.67244540  0.15392557  0.74296904  1
  H  H67  1  0.17244540  0.34607443  0.25703096  1
  H  H68  1  0.61266660  0.15787496  0.11481463  1
  H  H69  1  0.11266660  0.34212504  0.88518537  1
  H  H70  1  0.38733340  0.65787496  0.38518537  1
  H  H71  1  0.88733340  0.84212504  0.61481463  1
  H  H72  1  0.38733340  0.84212504  0.88518537  1
  H  H73  1  0.88733340  0.65787496  0.11481463  1
  H  H74  1  0.61266660  0.34212504  0.61481463  1
  H  H75  1  0.11266660  0.15787496  0.38518537  1
  H  H76  1  0.52187312  0.04928759  0.10125716  1
  H  H77  1  0.02187312  0.45071241  0.89874284  1
  H  H78  1  0.47812688  0.54928759  0.39874284  1
  H  H79  1  0.97812688  0.95071241  0.60125716  1
  H  H80  1  0.47812688  0.95071241  0.89874284  1
  H  H81  1  0.97812688  0.54928759  0.10125716  1
  H  H82  1  0.52187312  0.45071241  0.60125716  1
  H  H83  1  0.02187312  0.04928759  0.39874284  1
  H  H84  1  0.69933788  0.02981903  0.20251401  1
  H  H85  1  0.19933788  0.47018097  0.79748599  1
  H  H86  1  0.30066212  0.52981903  0.29748599  1
  H  H87  1  0.80066212  0.97018097  0.70251401  1
  H  H88  1  0.30066212  0.97018097  0.79748599  1
  H  H89  1  0.80066212  0.52981903  0.20251401  1
  H  H90  1  0.69933788  0.47018097  0.70251401  1
  H  H91  1  0.19933788  0.02981903  0.29748599  1
  H  H92  1  0.61002600  0.13131480  0.25558220  1
  H  H93  1  0.11002600  0.36868520  0.74441780  1
  H  H94  1  0.38997400  0.63131480  0.24441780  1
  H  H95  1  0.88997400  0.86868520  0.75558220  1
  H  H96  1  0.38997400  0.86868520  0.74441780  1
  H  H97  1  0.88997400  0.63131480  0.25558220  1
  H  H98  1  0.61002600  0.36868520  0.75558220  1
  H  H99  1  0.11002600  0.13131480  0.24441780  1
  H  H100  1  0.51228548  0.01630782  0.23810598  1
  H  H101  1  0.01228548  0.48369218  0.76189402  1
  H  H102  1  0.48771452  0.51630782  0.26189402  1
  H  H103  1  0.98771452  0.98369218  0.73810598  1
  H  H104  1  0.48771452  0.98369218  0.76189402  1
  H  H105  1  0.98771452  0.51630782  0.23810598  1
  H  H106  1  0.51228548  0.48369218  0.73810598  1
  H  H107  1  0.01228548  0.01630782  0.26189402  1
  H  H108  1  0.35656164  0.19967159  0.09612065  1
  H  H109  1  0.85656164  0.30032841  0.90387935  1
  H  H110  1  0.64343836  0.69967159  0.40387935  1
  H  H111  1  0.14343836  0.80032841  0.59612065  1
  H  H112  1  0.64343836  0.80032841  0.90387935  1
  H  H113  1  0.14343836  0.69967159  0.09612065  1
  H  H114  1  0.35656164  0.30032841  0.59612065  1
  H  H115  1  0.85656164  0.19967159  0.40387935  1
  H  H116  1  0.30838586  0.11471841  0.17274532  1
  H  H117  1  0.80838586  0.38528159  0.82725468  1
  H  H118  1  0.69161414  0.61471841  0.32725468  1
  H  H119  1  0.19161414  0.88528159  0.67274532  1
  H  H120  1  0.69161414  0.88528159  0.82725468  1
  H  H121  1  0.19161414  0.61471841  0.17274532  1
  H  H122  1  0.30838586  0.38528159  0.67274532  1
  H  H123  1  0.80838586  0.11471841  0.32725468  1
  H  H124  1  0.41329819  0.22639102  0.19460548  1
  H  H125  1  0.91329819  0.27360898  0.80539452  1
  H  H126  1  0.58670181  0.72639102  0.30539452  1
  H  H127  1  0.08670181  0.77360898  0.69460548  1
  H  H128  1  0.58670181  0.77360898  0.80539452  1
  H  H129  1  0.08670181  0.72639102  0.19460548  1
  H  H130  1  0.41329819  0.27360898  0.69460548  1
  H  H131  1  0.91329819  0.22639102  0.30539452  1
  C  C132  1  0.59439308  0.06909802  0.21446841  1
  C  C133  1  0.09439308  0.43090198  0.78553159  1
  C  C134  1  0.40560692  0.56909802  0.28553159  1
  C  C135  1  0.90560692  0.93090198  0.71446841  1
  C  C136  1  0.40560692  0.93090198  0.78553159  1
  C  C137  1  0.90560692  0.56909802  0.21446841  1
  C  C138  1  0.59439308  0.43090198  0.71446841  1
  C  C139  1  0.09439308  0.06909802  0.28553159  1
  C  C140  1  0.39307458  0.16710380  0.15143975  1
  C  C141  1  0.89307458  0.33289620  0.84856025  1
  C  C142  1  0.60692542  0.66710380  0.34856025  1
  C  C143  1  0.10692542  0.83289620  0.65143975  1
  C  C144  1  0.60692542  0.83289620  0.84856025  1
  C  C145  1  0.10692542  0.66710380  0.15143975  1
  C  C146  1  0.39307458  0.33289620  0.65143975  1
  C  C147  1  0.89307458  0.16710380  0.34856025  1
  S  S148  1  0.94366256  0.65738041  0.90561386  1
  S  S149  1  0.44366256  0.84261959  0.09438614  1
  S  S150  1  0.05633744  0.15738041  0.59438614  1
  S  S151  1  0.55633744  0.34261959  0.40561386  1
  S  S152  1  0.05633744  0.34261959  0.09438614  1
  S  S153  1  0.55633744  0.15738041  0.90561386  1
  S  S154  1  0.94366256  0.84261959  0.40561386  1
  S  S155  1  0.44366256  0.65738041  0.59438614  1
  N  N156  1  0.53494126  0.11061617  0.13977101  1
  N  N157  1  0.03494126  0.38938383  0.86022899  1
  N  N158  1  0.46505874  0.61061617  0.36022899  1
  N  N159  1  0.96505874  0.88938383  0.63977101  1
  N  N160  1  0.46505874  0.88938383  0.86022899  1
  N  N161  1  0.96505874  0.61061617  0.13977101  1
  N  N162  1  0.53494126  0.38938383  0.63977101  1
  N  N163  1  0.03494126  0.11061617  0.36022899  1
  O  O164  1  0.86475103  0.70020086  0.97573614  1
  O  O165  1  0.36475103  0.79979914  0.02426386  1
  O  O166  1  0.13524897  0.20020086  0.52426386  1
  O  O167  1  0.63524897  0.29979914  0.47573614  1
  O  O168  1  0.13524897  0.29979914  0.02426386  1
  O  O169  1  0.63524897  0.20020086  0.97573614  1
  O  O170  1  0.86475103  0.79979914  0.47573614  1
  O  O171  1  0.36475103  0.70020086  0.52426386  1
  O  O172  1  0.83163052  0.61489514  0.84964310  1
  O  O173  1  0.33163052  0.88510486  0.15035690  1
  O  O174  1  0.16836948  0.11489514  0.65035690  1
  O  O175  1  0.66836948  0.38510486  0.34964310  1
  O  O176  1  0.16836948  0.38510486  0.15035690  1
  O  O177  1  0.66836948  0.11489514  0.84964310  1
  O  O178  1  0.83163052  0.88510486  0.34964310  1
  O  O179  1  0.33163052  0.61489514  0.65035690  1
  O  O180  1  0.03073873  0.73857260  0.86630807  1
  O  O181  1  0.53073873  0.76142740  0.13369193  1
  O  O182  1  0.96926127  0.23857260  0.63369193  1
  O  O183  1  0.46926127  0.26142740  0.36630807  1
  O  O184  1  0.96926127  0.26142740  0.13369193  1
  O  O185  1  0.46926127  0.23857260  0.86630807  1
  O  O186  1  0.03073873  0.76142740  0.36630807  1
  O  O187  1  0.53073873  0.73857260  0.63369193  1
  O  O188  1  0.04707144  0.57558972  0.93143867  1
  O  O189  1  0.54707144  0.92441028  0.06856133  1
  O  O190  1  0.95292856  0.07558972  0.56856133  1
  O  O191  1  0.45292856  0.42441028  0.43143867  1
  O  O192  1  0.95292856  0.42441028  0.06856133  1
  O  O193  1  0.45292856  0.07558972  0.93143867  1
  O  O194  1  0.04707144  0.92441028  0.43143867  1
  O  O195  1  0.54707144  0.57558972  0.56856133  1
  O  O196  1  0.44826068  0.44813529  0.11096444  1
  O  O197  1  0.94826068  0.05186471  0.88903556  1
  O  O198  1  0.55173932  0.94813529  0.38903556  1
  O  O199  1  0.05173932  0.55186471  0.61096444  1
  O  O200  1  0.55173932  0.55186471  0.88903556  1
  O  O201  1  0.05173932  0.94813529  0.11096444  1
  O  O202  1  0.44826068  0.05186471  0.61096444  1
  O  O203  1  0.94826068  0.44813529  0.38903556  1
  O  O204  1  0.63822051  0.60496237  0.05356962  1
  O  O205  1  0.13822051  0.89503763  0.94643038  1
  O  O206  1  0.36177949  0.10496237  0.44643038  1
  O  O207  1  0.86177949  0.39503763  0.55356962  1
  O  O208  1  0.36177949  0.39503763  0.94643038  1
  O  O209  1  0.86177949  0.10496237  0.05356962  1
  O  O210  1  0.63822051  0.89503763  0.55356962  1
  O  O211  1  0.13822051  0.60496237  0.44643038  1
  O  O212  1  0.67954282  0.40454986  0.99427212  1
  O  O213  1  0.17954282  0.09545014  0.00572788  1
  O  O214  1  0.32045718  0.90454986  0.50572788  1
  O  O215  1  0.82045718  0.59545014  0.49427212  1
  O  O216  1  0.32045718  0.59545014  0.00572788  1
  O  O217  1  0.82045718  0.90454986  0.99427212  1
  O  O218  1  0.67954282  0.09545014  0.49427212  1
  O  O219  1  0.17954282  0.40454986  0.50572788  1
  O  O220  1  0.66975581  0.32853477  0.18692201  1
  O  O221  1  0.16975581  0.17146523  0.81307799  1
  O  O222  1  0.33024419  0.82853477  0.31307799  1
  O  O223  1  0.83024419  0.67146523  0.68692201  1
  O  O224  1  0.33024419  0.67146523  0.81307799  1
  O  O225  1  0.83024419  0.82853477  0.18692201  1
  O  O226  1  0.66975581  0.17146523  0.68692201  1
  O  O227  1  0.16975581  0.32853477  0.31307799  1
