# generated using pymatgen
data_Na2P4Pd3O14
_symmetry_space_group_name_H-M   'P 1'
_cell_length_a   9.69521800
_cell_length_b   9.69521800
_cell_length_c   13.60061700
_cell_angle_alpha   90.00000000
_cell_angle_beta   90.00000000
_cell_angle_gamma   90.00000000
_symmetry_Int_Tables_number   1
_chemical_formula_structural   Na2P4Pd3O14
_chemical_formula_sum   'Na8 P16 Pd12 O56'
_cell_volume   1278.42062442
_cell_formula_units_Z   4
loop_
 _symmetry_equiv_pos_site_id
 _symmetry_equiv_pos_as_xyz
  1  'x, y, z'
loop_
 _atom_site_type_symbol
 _atom_site_label
 _atom_site_symmetry_multiplicity
 _atom_site_fract_x
 _atom_site_fract_y
 _atom_site_fract_z
 _atom_site_occupancy
  Na  Na0  1  0.61398900  0.88601100  0.25000000  1
  Na  Na1  1  0.38601100  0.11398900  0.25000000  1
  Na  Na2  1  0.88601100  0.38601100  0.75000000  1
  Na  Na3  1  0.11398900  0.61398900  0.75000000  1
  Na  Na4  1  0.88601100  0.38601100  0.25000000  1
  Na  Na5  1  0.11398900  0.61398900  0.25000000  1
  Na  Na6  1  0.38601100  0.11398900  0.75000000  1
  Na  Na7  1  0.61398900  0.88601100  0.75000000  1
  P  P8  1  0.65204900  0.22971000  0.10543400  1
  P  P9  1  0.34795100  0.77029000  0.10543400  1
  P  P10  1  0.84795100  0.72971000  0.60543400  1
  P  P11  1  0.15204900  0.27029000  0.60543400  1
  P  P12  1  0.22971000  0.34795100  0.10543400  1
  P  P13  1  0.77029000  0.65204900  0.10543400  1
  P  P14  1  0.72971000  0.15204900  0.60543400  1
  P  P15  1  0.27029000  0.84795100  0.60543400  1
  P  P16  1  0.34795100  0.77029000  0.89456600  1
  P  P17  1  0.65204900  0.22971000  0.89456600  1
  P  P18  1  0.15204900  0.27029000  0.39456600  1
  P  P19  1  0.84795100  0.72971000  0.39456600  1
  P  P20  1  0.77029000  0.65204900  0.89456600  1
  P  P21  1  0.22971000  0.34795100  0.89456600  1
  P  P22  1  0.27029000  0.84795100  0.39456600  1
  P  P23  1  0.72971000  0.15204900  0.39456600  1
  Pd  Pd24  1  0.50000000  0.50000000  0.18344900  1
  Pd  Pd25  1  0.00000000  0.00000000  0.68344900  1
  Pd  Pd26  1  0.50000000  0.50000000  0.81655100  1
  Pd  Pd27  1  0.00000000  0.00000000  0.31655100  1
  Pd  Pd28  1  0.68430900  0.94051400  0.00000000  1
  Pd  Pd29  1  0.31569100  0.05948600  0.00000000  1
  Pd  Pd30  1  0.81569100  0.44051400  0.50000000  1
  Pd  Pd31  1  0.18430900  0.55948600  0.50000000  1
  Pd  Pd32  1  0.94051400  0.31569100  0.00000000  1
  Pd  Pd33  1  0.05948600  0.68430900  0.00000000  1
  Pd  Pd34  1  0.44051400  0.18430900  0.50000000  1
  Pd  Pd35  1  0.55948600  0.81569100  0.50000000  1
  O  O36  1  0.59176500  0.27983500  0.00000000  1
  O  O37  1  0.40823500  0.72016500  0.00000000  1
  O  O38  1  0.90823500  0.77983500  0.50000000  1
  O  O39  1  0.09176500  0.22016500  0.50000000  1
  O  O40  1  0.27983500  0.40823500  0.00000000  1
  O  O41  1  0.72016500  0.59176500  0.00000000  1
  O  O42  1  0.77983500  0.09176500  0.50000000  1
  O  O43  1  0.22016500  0.90823500  0.50000000  1
  O  O44  1  0.63107700  0.07243900  0.11258700  1
  O  O45  1  0.36892300  0.92756100  0.11258700  1
  O  O46  1  0.86892300  0.57243900  0.61258700  1
  O  O47  1  0.13107700  0.42756100  0.61258700  1
  O  O48  1  0.07243900  0.36892300  0.11258700  1
  O  O49  1  0.92756100  0.63107700  0.11258700  1
  O  O50  1  0.57243900  0.13107700  0.61258700  1
  O  O51  1  0.42756100  0.86892300  0.61258700  1
  O  O52  1  0.36892300  0.92756100  0.88741300  1
  O  O53  1  0.63107700  0.07243900  0.88741300  1
  O  O54  1  0.13107700  0.42756100  0.38741300  1
  O  O55  1  0.86892300  0.57243900  0.38741300  1
  O  O56  1  0.92756100  0.63107700  0.88741300  1
  O  O57  1  0.07243900  0.36892300  0.88741300  1
  O  O58  1  0.42756100  0.86892300  0.38741300  1
  O  O59  1  0.57243900  0.13107700  0.38741300  1
  O  O60  1  0.70261600  0.56396800  0.18573300  1
  O  O61  1  0.29738400  0.43603200  0.18573300  1
  O  O62  1  0.79738400  0.06396800  0.68573300  1
  O  O63  1  0.20261600  0.93603200  0.68573300  1
  O  O64  1  0.56396800  0.29738400  0.18573300  1
  O  O65  1  0.43603200  0.70261600  0.18573300  1
  O  O66  1  0.06396800  0.20261600  0.68573300  1
  O  O67  1  0.93603200  0.79738400  0.68573300  1
  O  O68  1  0.29738400  0.43603200  0.81426700  1
  O  O69  1  0.70261600  0.56396800  0.81426700  1
  O  O70  1  0.20261600  0.93603200  0.31426700  1
  O  O71  1  0.79738400  0.06396800  0.31426700  1
  O  O72  1  0.43603200  0.70261600  0.81426700  1
  O  O73  1  0.56396800  0.29738400  0.81426700  1
  O  O74  1  0.93603200  0.79738400  0.31426700  1
  O  O75  1  0.06396800  0.20261600  0.31426700  1
  O  O76  1  0.72416200  0.80370000  0.11043800  1
  O  O77  1  0.27583800  0.19630000  0.11043800  1
  O  O78  1  0.77583800  0.30370000  0.61043800  1
  O  O79  1  0.22416200  0.69630000  0.61043800  1
  O  O80  1  0.80370000  0.27583800  0.11043800  1
  O  O81  1  0.19630000  0.72416200  0.11043800  1
  O  O82  1  0.30370000  0.22416200  0.61043800  1
  O  O83  1  0.69630000  0.77583800  0.61043800  1
  O  O84  1  0.27583800  0.19630000  0.88956200  1
  O  O85  1  0.72416200  0.80370000  0.88956200  1
  O  O86  1  0.22416200  0.69630000  0.38956200  1
  O  O87  1  0.77583800  0.30370000  0.38956200  1
  O  O88  1  0.19630000  0.72416200  0.88956200  1
  O  O89  1  0.80370000  0.27583800  0.88956200  1
  O  O90  1  0.69630000  0.77583800  0.38956200  1
  O  O91  1  0.30370000  0.22416200  0.38956200  1
