# generated using pymatgen
data_Rb2Th(MoO4)3
_symmetry_space_group_name_H-M   'P 1'
_cell_length_a   11.21006227
_cell_length_b   11.21006227
_cell_length_c   5.47548374
_cell_angle_alpha   77.70648273
_cell_angle_beta   77.70648273
_cell_angle_gamma   69.22769899
_symmetry_Int_Tables_number   1
_chemical_formula_structural   Rb2Th(MoO4)3
_chemical_formula_sum   'Rb4 Th2 Mo6 O24'
_cell_volume   621.44905156
_cell_formula_units_Z   2
loop_
 _symmetry_equiv_pos_site_id
 _symmetry_equiv_pos_as_xyz
  1  'x, y, z'
loop_
 _atom_site_type_symbol
 _atom_site_label
 _atom_site_symmetry_multiplicity
 _atom_site_fract_x
 _atom_site_fract_y
 _atom_site_fract_z
 _atom_site_occupancy
  Rb  Rb0  1  0.54381400  0.78928000  0.07080700  1
  Rb  Rb1  1  0.21072000  0.45618600  0.42919300  1
  Rb  Rb2  1  0.45618600  0.21072000  0.92919300  1
  Rb  Rb3  1  0.78928000  0.54381400  0.57080700  1
  Th  Th4  1  0.12399800  0.87600200  0.25000000  1
  Th  Th5  1  0.87600200  0.12399800  0.75000000  1
  Mo  Mo6  1  0.34538100  0.65461900  0.75000000  1
  Mo  Mo7  1  0.65461900  0.34538100  0.25000000  1
  Mo  Mo8  1  0.25623100  0.04634300  0.60546700  1
  Mo  Mo9  1  0.95365700  0.74376900  0.89453300  1
  Mo  Mo10  1  0.74376900  0.95365700  0.39453300  1
  Mo  Mo11  1  0.04634300  0.25623100  0.10546700  1
  O  O12  1  0.11031200  0.03138200  0.85395600  1
  O  O13  1  0.96861800  0.88968800  0.64604400  1
  O  O14  1  0.88968800  0.96861800  0.14604400  1
  O  O15  1  0.03138200  0.11031200  0.35395600  1
  O  O16  1  0.28423700  0.92685000  0.39868500  1
  O  O17  1  0.07315000  0.71576300  0.10131500  1
  O  O18  1  0.71576300  0.07315000  0.60131500  1
  O  O19  1  0.92685000  0.28423700  0.89868500  1
  O  O20  1  0.22558300  0.69815900  0.53209300  1
  O  O21  1  0.30184100  0.77441700  0.96790700  1
  O  O22  1  0.77441700  0.30184100  0.46790700  1
  O  O23  1  0.69815900  0.22558300  0.03209300  1
  O  O24  1  0.39492600  0.00767900  0.74174200  1
  O  O25  1  0.99232100  0.60507400  0.75825800  1
  O  O26  1  0.60507400  0.99232100  0.25825800  1
  O  O27  1  0.00767900  0.39492600  0.24174200  1
  O  O28  1  0.24083100  0.19297500  0.39873500  1
  O  O29  1  0.80702500  0.75916900  0.10126500  1
  O  O30  1  0.75916900  0.80702500  0.60126500  1
  O  O31  1  0.19297500  0.24083100  0.89873500  1
  O  O32  1  0.49912100  0.64630400  0.58097100  1
  O  O33  1  0.35369600  0.50087900  0.91902900  1
  O  O34  1  0.50087900  0.35369600  0.41902900  1
  O  O35  1  0.64630400  0.49912100  0.08097100  1
