# generated using pymatgen
data_Cs2Mg2(WO4)3
_symmetry_space_group_name_H-M   'P 1'
_cell_length_a   11.12928100
_cell_length_b   11.12928100
_cell_length_c   11.12928100
_cell_angle_alpha   90.00000000
_cell_angle_beta   90.00000000
_cell_angle_gamma   90.00000000
_symmetry_Int_Tables_number   1
_chemical_formula_structural   Cs2Mg2(WO4)3
_chemical_formula_sum   'Cs8 Mg8 W12 O48'
_cell_volume   1378.48271179
_cell_formula_units_Z   4
loop_
 _symmetry_equiv_pos_site_id
 _symmetry_equiv_pos_as_xyz
  1  'x, y, z'
loop_
 _atom_site_type_symbol
 _atom_site_label
 _atom_site_symmetry_multiplicity
 _atom_site_fract_x
 _atom_site_fract_y
 _atom_site_fract_z
 _atom_site_occupancy
  Cs  Cs0  1  0.54229400  0.95770600  0.04229400  1
  Cs  Cs1  1  0.95770600  0.04229400  0.54229400  1
  Cs  Cs2  1  0.45770600  0.45770600  0.45770600  1
  Cs  Cs3  1  0.04229400  0.54229400  0.95770600  1
  Cs  Cs4  1  0.67797700  0.67797700  0.67797700  1
  Cs  Cs5  1  0.32202300  0.17797700  0.82202300  1
  Cs  Cs6  1  0.17797700  0.82202300  0.32202300  1
  Cs  Cs7  1  0.82202300  0.32202300  0.17797700  1
  Mg  Mg8  1  0.61350100  0.11350100  0.38649900  1
  Mg  Mg9  1  0.11350100  0.38649900  0.61350100  1
  Mg  Mg10  1  0.38649900  0.61350100  0.11350100  1
  Mg  Mg11  1  0.88649900  0.88649900  0.88649900  1
  Mg  Mg12  1  0.83714900  0.66285100  0.33714900  1
  Mg  Mg13  1  0.66285100  0.33714900  0.83714900  1
  Mg  Mg14  1  0.16285100  0.16285100  0.16285100  1
  Mg  Mg15  1  0.33714900  0.83714900  0.66285100  1
  W  W16  1  0.52613200  0.80130800  0.37600500  1
  W  W17  1  0.62399500  0.02613200  0.69869200  1
  W  W18  1  0.30130800  0.12399500  0.47386800  1
  W  W19  1  0.02613200  0.69869200  0.62399500  1
  W  W20  1  0.12399500  0.47386800  0.30130800  1
  W  W21  1  0.80130800  0.37600500  0.52613200  1
  W  W22  1  0.47386800  0.30130800  0.12399500  1
  W  W23  1  0.37600500  0.52613200  0.80130800  1
  W  W24  1  0.69869200  0.62399500  0.02613200  1
  W  W25  1  0.97386800  0.19869200  0.87600500  1
  W  W26  1  0.87600500  0.97386800  0.19869200  1
  W  W27  1  0.19869200  0.87600500  0.97386800  1
  O  O28  1  0.67878800  0.74802800  0.39559800  1
  O  O29  1  0.60440200  0.17878800  0.75197200  1
  O  O30  1  0.24802800  0.10440200  0.32121200  1
  O  O31  1  0.17878800  0.75197200  0.60440200  1
  O  O32  1  0.10440200  0.32121200  0.24802800  1
  O  O33  1  0.74802800  0.39559800  0.67878800  1
  O  O34  1  0.32121200  0.24802800  0.10440200  1
  O  O35  1  0.39559800  0.67878800  0.74802800  1
  O  O36  1  0.75197200  0.60440200  0.17878800  1
  O  O37  1  0.82121200  0.25197200  0.89559800  1
  O  O38  1  0.89559800  0.82121200  0.25197200  1
  O  O39  1  0.25197200  0.89559800  0.82121200  1
  O  O40  1  0.44575700  0.77878000  0.51632400  1
  O  O41  1  0.48367600  0.94575700  0.72122000  1
  O  O42  1  0.27878000  0.98367600  0.55424300  1
  O  O43  1  0.94575700  0.72122000  0.48367600  1
  O  O44  1  0.98367600  0.55424300  0.27878000  1
  O  O45  1  0.77878000  0.51632400  0.44575700  1
  O  O46  1  0.55424300  0.27878000  0.98367600  1
  O  O47  1  0.51632400  0.44575700  0.77878000  1
  O  O48  1  0.72122000  0.48367600  0.94575700  1
  O  O49  1  0.05424300  0.22122000  0.01632400  1
  O  O50  1  0.01632400  0.05424300  0.22122000  1
  O  O51  1  0.22122000  0.01632400  0.05424300  1
  O  O52  1  0.52116900  0.95776100  0.32909700  1
  O  O53  1  0.67090300  0.02116900  0.54223900  1
  O  O54  1  0.45776100  0.17090300  0.47883100  1
  O  O55  1  0.02116900  0.54223900  0.67090300  1
  O  O56  1  0.17090300  0.47883100  0.45776100  1
  O  O57  1  0.95776100  0.32909700  0.52116900  1
  O  O58  1  0.47883100  0.45776100  0.17090300  1
  O  O59  1  0.32909700  0.52116900  0.95776100  1
  O  O60  1  0.54223900  0.67090300  0.02116900  1
  O  O61  1  0.97883100  0.04223900  0.82909700  1
  O  O62  1  0.82909700  0.97883100  0.04223900  1
  O  O63  1  0.04223900  0.82909700  0.97883100  1
  O  O64  1  0.44857600  0.71352300  0.26228400  1
  O  O65  1  0.73771600  0.94857600  0.78647700  1
  O  O66  1  0.21352300  0.23771600  0.55142400  1
  O  O67  1  0.94857600  0.78647700  0.73771600  1
  O  O68  1  0.23771600  0.55142400  0.21352300  1
  O  O69  1  0.71352300  0.26228400  0.44857600  1
  O  O70  1  0.55142400  0.21352300  0.23771600  1
  O  O71  1  0.26228400  0.44857600  0.71352300  1
  O  O72  1  0.78647700  0.73771600  0.94857600  1
  O  O73  1  0.05142400  0.28647700  0.76228400  1
  O  O74  1  0.76228400  0.05142400  0.28647700  1
  O  O75  1  0.28647700  0.76228400  0.05142400  1
