# generated using pymatgen
data_ThTe2MoO9
_symmetry_space_group_name_H-M   'P 1'
_cell_length_a   11.43037160
_cell_length_b   11.43037160
_cell_length_c   11.03527208
_cell_angle_alpha   70.56535898
_cell_angle_beta   70.56535898
_cell_angle_gamma   36.45079402
_symmetry_Int_Tables_number   1
_chemical_formula_structural   ThTe2MoO9
_chemical_formula_sum   'Th4 Te8 Mo4 O36'
_cell_volume   802.33836235
_cell_formula_units_Z   4
loop_
 _symmetry_equiv_pos_site_id
 _symmetry_equiv_pos_as_xyz
  1  'x, y, z'
loop_
 _atom_site_type_symbol
 _atom_site_label
 _atom_site_symmetry_multiplicity
 _atom_site_fract_x
 _atom_site_fract_y
 _atom_site_fract_z
 _atom_site_occupancy
  Th  Th0  1  0.69289400  0.00177200  0.47702300  1
  Th  Th1  1  0.99822800  0.30710600  0.02297700  1
  Th  Th2  1  0.30710600  0.99822800  0.52297700  1
  Th  Th3  1  0.00177200  0.69289400  0.97702300  1
  Te  Te4  1  0.22572600  0.55503200  0.28426600  1
  Te  Te5  1  0.44496800  0.77427400  0.21573400  1
  Te  Te6  1  0.77427400  0.44496800  0.71573400  1
  Te  Te7  1  0.55503200  0.22572600  0.78426600  1
  Te  Te8  1  0.81286300  0.66119500  0.33312800  1
  Te  Te9  1  0.33880500  0.18713700  0.16687200  1
  Te  Te10  1  0.18713700  0.33880500  0.66687200  1
  Te  Te11  1  0.66119500  0.81286300  0.83312800  1
  Mo  Mo12  1  0.74589300  0.17419300  0.09454000  1
  Mo  Mo13  1  0.82580700  0.25410700  0.40546000  1
  Mo  Mo14  1  0.25410700  0.82580700  0.90546000  1
  Mo  Mo15  1  0.17419300  0.74589300  0.59454000  1
  O  O16  1  0.97793800  0.65575500  0.38379100  1
  O  O17  1  0.34424500  0.02206200  0.11620900  1
  O  O18  1  0.02206200  0.34424500  0.61620900  1
  O  O19  1  0.65575500  0.97793800  0.88379100  1
  O  O20  1  0.60630700  0.90256000  0.40814600  1
  O  O21  1  0.09744000  0.39369300  0.09185400  1
  O  O22  1  0.39369300  0.09744000  0.59185400  1
  O  O23  1  0.90256000  0.60630700  0.90814600  1
  O  O24  1  0.21714000  0.47393000  0.16285100  1
  O  O25  1  0.52607000  0.78286000  0.33714900  1
  O  O26  1  0.78286000  0.52607000  0.83714900  1
  O  O27  1  0.47393000  0.21714000  0.66285100  1
  O  O28  1  0.82465300  0.02006000  0.24909900  1
  O  O29  1  0.97994000  0.17534700  0.25090100  1
  O  O30  1  0.17534700  0.97994000  0.75090100  1
  O  O31  1  0.02006000  0.82465300  0.74909900  1
  O  O32  1  0.78758900  0.78669600  0.16367700  1
  O  O33  1  0.21330400  0.21241100  0.33632300  1
  O  O34  1  0.21241100  0.21330400  0.83632300  1
  O  O35  1  0.78669600  0.78758900  0.66367700  1
  O  O36  1  0.80750600  0.10167400  0.49913000  1
  O  O37  1  0.89832600  0.19249400  0.00087000  1
  O  O38  1  0.19249400  0.89832600  0.50087000  1
  O  O39  1  0.10167400  0.80750600  0.99913000  1
  O  O40  1  0.70337100  0.11081000  0.00173400  1
  O  O41  1  0.88918900  0.29662900  0.49826600  1
  O  O42  1  0.29662900  0.88919000  0.99826600  1
  O  O43  1  0.11081000  0.70337100  0.50173400  1
  O  O44  1  0.40852700  0.31094100  0.38550900  1
  O  O45  1  0.68905900  0.59147300  0.11449100  1
  O  O46  1  0.59147300  0.68905900  0.61449100  1
  O  O47  1  0.31094100  0.40852700  0.88550900  1
  O  O48  1  0.51462100  0.41688200  0.13841700  1
  O  O49  1  0.58311800  0.48537900  0.36158300  1
  O  O50  1  0.48537900  0.58311800  0.86158300  1
  O  O51  1  0.41688200  0.51462100  0.63841700  1
