# generated using pymatgen
data_MnH6(CN2)4
_symmetry_space_group_name_H-M   'P 1'
_cell_length_a   8.68228600
_cell_length_b   9.15410793
_cell_length_c   12.87337727
_cell_angle_alpha   72.69473303
_cell_angle_beta   76.26856181
_cell_angle_gamma   89.51947659
_symmetry_Int_Tables_number   1
_chemical_formula_structural   MnH6(CN2)4
_chemical_formula_sum   'Mn4 H24 C16 N32'
_cell_volume   946.78584367
_cell_formula_units_Z   4
loop_
 _symmetry_equiv_pos_site_id
 _symmetry_equiv_pos_as_xyz
  1  'x, y, z'
loop_
 _atom_site_type_symbol
 _atom_site_label
 _atom_site_symmetry_multiplicity
 _atom_site_fract_x
 _atom_site_fract_y
 _atom_site_fract_z
 _atom_site_occupancy
  Mn  Mn0  1  0.72456700  0.20559400  0.97609300  1
  Mn  Mn1  1  0.27543300  0.79440600  0.02390700  1
  Mn  Mn2  1  0.87801200  0.83108100  0.04243600  1
  Mn  Mn3  1  0.12198800  0.16891900  0.95756400  1
  H  H4  1  0.55772600  0.35333000  0.21022500  1
  H  H5  1  0.44227400  0.64667000  0.78977500  1
  H  H6  1  0.18489300  0.26503500  0.50124600  1
  H  H7  1  0.81510700  0.73496500  0.49875400  1
  H  H8  1  0.38382900  0.25241000  0.61316700  1
  H  H9  1  0.61617100  0.74759000  0.38683300  1
  H  H10  1  0.75151900  0.35006600  0.30492500  1
  H  H11  1  0.24848100  0.64993400  0.69507500  1
  H  H12  1  0.20472300  0.20005000  0.27951000  1
  H  H13  1  0.79527700  0.79995000  0.72049000  1
  H  H14  1  0.14499500  0.37916700  0.29585900  1
  H  H15  1  0.85500500  0.62083300  0.70414100  1
  H  H16  1  0.30613800  0.37254300  0.18215800  1
  H  H17  1  0.69386200  0.62745700  0.81784200  1
  H  H18  1  0.81715900  0.36263400  0.48146500  1
  H  H19  1  0.18284100  0.63736600  0.51853500  1
  H  H20  1  0.66503000  0.34251200  0.60397600  1
  H  H21  1  0.33497000  0.65748800  0.39602400  1
  H  H22  1  0.84117200  0.12677900  0.63435500  1
  H  H23  1  0.15882800  0.87322100  0.36564500  1
  H  H24  1  0.64543000  0.05701300  0.64496200  1
  H  H25  1  0.35457000  0.94298700  0.35503800  1
  H  H26  1  0.79749400  0.07379700  0.52097700  1
  H  H27  1  0.20250600  0.92620300  0.47902300  1
  C  C28  1  0.35911800  0.31039600  0.34386500  1
  C  C29  1  0.64088200  0.68960400  0.65613500  1
  C  C30  1  0.31116500  0.28116800  0.46002200  1
  C  C31  1  0.68883500  0.71883200  0.53997800  1
  C  C32  1  0.42299400  0.27502900  0.52237100  1
  C  C33  1  0.57700600  0.72497100  0.47762900  1
  C  C34  1  0.58654700  0.29972500  0.47015700  1
  C  C35  1  0.41345300  0.70027500  0.52984300  1
  C  C36  1  0.62906100  0.32898800  0.35443600  1
  C  C37  1  0.37093900  0.67101200  0.64556400  1
  C  C38  1  0.24833700  0.31660000  0.27074700  1
  C  C39  1  0.75166300  0.68340000  0.72925300  1
  C  C40  1  0.70969400  0.29225200  0.53587000  1
  C  C41  1  0.29030600  0.70774800  0.46413000  1
  C  C42  1  0.75116500  0.12731000  0.58706300  1
  C  C43  1  0.24883500  0.87269000  0.41293700  1
  N  N44  1  0.88844000  0.06467300  0.08045500  1
  N  N45  1  0.11156000  0.93532700  0.91954500  1
  N  N46  1  0.87006700  0.05906500  0.17855100  1
  N  N47  1  0.12993300  0.94093500  0.82144900  1
  N  N48  1  0.85253200  0.05324000  0.27192700  1
  N  N49  1  0.14746800  0.94675900  0.72807300  1
  N  N50  1  0.72866000  0.97552600  0.93599700  1
  N  N51  1  0.27134000  0.02447400  0.06400300  1
  N  N52  1  0.61519900  0.92918700  0.91489200  1
  N  N53  1  0.38480100  0.07081300  0.08510800  1
  N  N54  1  0.50308600  0.88508000  0.89329100  1
  N  N55  1  0.49691400  0.11492000  0.10670900  1
  N  N56  1  0.71755900  0.39363500  0.04934100  1
  N  N57  1  0.28244100  0.60636500  0.95065900  1
  N  N58  1  0.78751300  0.51681900  0.01424100  1
  N  N59  1  0.21248700  0.48318100  0.98575900  1
  N  N60  1  0.85534000  0.63924700  0.97926700  1
  N  N61  1  0.14466000  0.36075300  0.02073300  1
  N  N62  1  0.95485200  0.26939400  0.85987800  1
  N  N63  1  0.04514800  0.73060600  0.14012200  1
  N  N64  1  0.98243800  0.33016800  0.75945200  1
  N  N65  1  0.01756200  0.66983200  0.24054800  1
  N  N66  1  0.00863600  0.38982000  0.66275700  1
  N  N67  1  0.99136400  0.61018000  0.33724300  1
  N  N68  1  0.58870700  0.30038100  0.85134000  1
  N  N69  1  0.41129300  0.69961900  0.14866000  1
  N  N70  1  0.46024200  0.28213800  0.83915700  1
  N  N71  1  0.53975800  0.71786200  0.16084300  1
  N  N72  1  0.33281700  0.26800900  0.82318500  1
  N  N73  1  0.66718300  0.73199100  0.17681500  1
  N  N74  1  0.51769600  0.33277600  0.29615200  1
  N  N75  1  0.48230400  0.66722400  0.70384800  1
