# generated using pymatgen
data_ZnB12(H5O12)2
_symmetry_space_group_name_H-M   'P 1'
_cell_length_a   8.70160000
_cell_length_b   8.78193692
_cell_length_c   11.71922039
_cell_angle_alpha   102.87976086
_cell_angle_beta   90.00000000
_cell_angle_gamma   90.00000000
_symmetry_Int_Tables_number   1
_chemical_formula_structural   ZnB12(H5O12)2
_chemical_formula_sum   'Zn2 B24 H20 O48'
_cell_volume   873.01456413
_cell_formula_units_Z   2
loop_
 _symmetry_equiv_pos_site_id
 _symmetry_equiv_pos_as_xyz
  1  'x, y, z'
loop_
 _atom_site_type_symbol
 _atom_site_label
 _atom_site_symmetry_multiplicity
 _atom_site_fract_x
 _atom_site_fract_y
 _atom_site_fract_z
 _atom_site_occupancy
  Zn  Zn0  1  0.50000000  0.50000000  0.50000000  1
  Zn  Zn1  1  0.00000000  0.00000000  0.50000000  1
  B  B2  1  0.59352600  0.70645300  0.96866100  1
  B  B3  1  0.09352600  0.79354700  0.03133900  1
  B  B4  1  0.40647400  0.29354700  0.03133900  1
  B  B5  1  0.90647400  0.20645300  0.96866100  1
  B  B6  1  0.59384600  0.89514700  0.84869600  1
  B  B7  1  0.09384600  0.60485300  0.15130400  1
  B  B8  1  0.40615400  0.10485300  0.15130400  1
  B  B9  1  0.90615400  0.39514700  0.84869600  1
  B  B10  1  0.45772700  0.64103700  0.77993700  1
  B  B11  1  0.95772700  0.85896300  0.22006300  1
  B  B12  1  0.54227300  0.35896300  0.22006300  1
  B  B13  1  0.04227300  0.14103700  0.77993700  1
  B  B14  1  0.20426000  0.56281000  0.64715900  1
  B  B15  1  0.70426000  0.93719000  0.35284100  1
  B  B16  1  0.79574000  0.43719000  0.35284100  1
  B  B17  1  0.29574000  0.06281000  0.64715900  1
  B  B18  1  0.24757100  0.25521200  0.52300200  1
  B  B19  1  0.74757100  0.24478800  0.47699800  1
  B  B20  1  0.75242900  0.74478800  0.47699800  1
  B  B21  1  0.25242900  0.75521200  0.52300200  1
  B  B22  1  0.51215200  0.20583500  0.58308800  1
  B  B23  1  0.01215200  0.29416500  0.41691200  1
  B  B24  1  0.48784800  0.79416500  0.41691200  1
  B  B25  1  0.98784800  0.70583500  0.58308800  1
  H  H26  1  0.22314400  0.69998400  0.82488300  1
  H  H27  1  0.72314400  0.80001600  0.17511700  1
  H  H28  1  0.77685600  0.30001600  0.17511700  1
  H  H29  1  0.27685600  0.19998400  0.82488300  1
  H  H30  1  0.11796700  0.35763800  0.68404000  1
  H  H31  1  0.61796700  0.14236200  0.31596000  1
  H  H32  1  0.88203300  0.64236200  0.31596000  1
  H  H33  1  0.38203300  0.85763800  0.68404000  1
  H  H34  1  0.58792800  0.06834400  0.76646100  1
  H  H35  1  0.08792800  0.43165600  0.23353900  1
  H  H36  1  0.41207200  0.93165600  0.23353900  1
  H  H37  1  0.91207200  0.56834400  0.76646100  1
  H  H38  1  0.59369500  0.57321000  0.08641800  1
  H  H39  1  0.09369500  0.92679000  0.91358200  1
  H  H40  1  0.40630500  0.42679000  0.91358200  1
  H  H41  1  0.90630500  0.07321000  0.08641800  1
  H  H42  1  0.36706600  0.50261100  0.29048400  1
  H  H43  1  0.86706600  0.99738900  0.70951600  1
  H  H44  1  0.63293400  0.49738900  0.70951600  1
  H  H45  1  0.13293400  0.00261100  0.29048400  1
  O  O46  1  0.64778900  0.84463000  0.94504400  1
  O  O47  1  0.14778900  0.65537000  0.05495600  1
  O  O48  1  0.35221100  0.15537000  0.05495600  1
  O  O49  1  0.85221100  0.34463000  0.94504400  1
  O  O50  1  0.49003200  0.80437100  0.77386300  1
  O  O51  1  0.99003200  0.69562900  0.22613700  1
  O  O52  1  0.50996800  0.19562900  0.22613700  1
  O  O53  1  0.00996800  0.30437100  0.77386300  1
  O  O54  1  0.49835400  0.60786800  0.89232300  1
  O  O55  1  0.99835400  0.89213200  0.10767700  1
  O  O56  1  0.50164600  0.39213200  0.10767700  1
  O  O57  1  0.00164600  0.10786800  0.89232300  1
  O  O58  1  0.28432000  0.62135100  0.76474200  1
  O  O59  1  0.78432000  0.87864900  0.23525800  1
  O  O60  1  0.71568000  0.37864900  0.23525800  1
  O  O61  1  0.21568000  0.12135100  0.76474200  1
  O  O62  1  0.19873200  0.38855300  0.62991000  1
  O  O63  1  0.69873200  0.11144700  0.37009000  1
  O  O64  1  0.80126800  0.61144700  0.37009000  1
  O  O65  1  0.30126800  0.88855300  0.62991000  1
  O  O66  1  0.41513500  0.27040800  0.51113300  1
  O  O67  1  0.91513500  0.22959200  0.48886700  1
  O  O68  1  0.58486500  0.72959200  0.48886700  1
  O  O69  1  0.08486500  0.77040800  0.51113300  1
  O  O70  1  0.29009700  0.60694300  0.55408200  1
  O  O71  1  0.79009700  0.89305700  0.44591800  1
  O  O72  1  0.70990300  0.39305700  0.44591800  1
  O  O73  1  0.20990300  0.10694300  0.55408200  1
  O  O74  1  0.64469600  0.03499500  0.82957700  1
  O  O75  1  0.14469600  0.46500500  0.17042300  1
  O  O76  1  0.35530400  0.96500500  0.17042300  1
  O  O77  1  0.85530400  0.53499500  0.82957700  1
  O  O78  1  0.63371200  0.67453600  0.07452900  1
  O  O79  1  0.13371200  0.82546400  0.92547100  1
  O  O80  1  0.36628800  0.32546400  0.92547100  1
  O  O81  1  0.86628800  0.17453600  0.07452900  1
  O  O82  1  0.04810900  0.62270200  0.65920100  1
  O  O83  1  0.54810900  0.87729800  0.34079900  1
  O  O84  1  0.95189100  0.37729800  0.34079900  1
  O  O85  1  0.45189100  0.12270200  0.65920100  1
  O  O86  1  0.16791400  0.27749700  0.42112200  1
  O  O87  1  0.66791400  0.22250300  0.57887800  1
  O  O88  1  0.83208600  0.72250300  0.57887800  1
  O  O89  1  0.33208600  0.77749700  0.42112200  1
  O  O90  1  0.46696700  0.47041900  0.31573400  1
  O  O91  1  0.96696700  0.02958100  0.68426600  1
  O  O92  1  0.53303300  0.52958100  0.68426600  1
  O  O93  1  0.03303300  0.97041900  0.31573400  1
