# generated using pymatgen
data_Pb2NO5
_symmetry_space_group_name_H-M   'P 1'
_cell_length_a   5.81216000
_cell_length_b   11.67536200
_cell_length_c   15.06787800
_cell_angle_alpha   90.00000000
_cell_angle_beta   90.00000000
_cell_angle_gamma   90.00000000
_symmetry_Int_Tables_number   1
_chemical_formula_structural   Pb2NO5
_chemical_formula_sum   'Pb16 N8 O40'
_cell_volume   1022.49221812
_cell_formula_units_Z   8
loop_
 _symmetry_equiv_pos_site_id
 _symmetry_equiv_pos_as_xyz
  1  'x, y, z'
loop_
 _atom_site_type_symbol
 _atom_site_label
 _atom_site_symmetry_multiplicity
 _atom_site_fract_x
 _atom_site_fract_y
 _atom_site_fract_z
 _atom_site_occupancy
  Pb  Pb0  1  0.73776900  0.38180400  0.33602400  1
  Pb  Pb1  1  0.23776900  0.11819600  0.66397600  1
  Pb  Pb2  1  0.26223100  0.88180400  0.16397600  1
  Pb  Pb3  1  0.76223100  0.61819600  0.83602400  1
  Pb  Pb4  1  0.26223100  0.61819600  0.66397600  1
  Pb  Pb5  1  0.76223100  0.88180400  0.33602400  1
  Pb  Pb6  1  0.73776900  0.11819600  0.83602400  1
  Pb  Pb7  1  0.23776900  0.38180400  0.16397600  1
  Pb  Pb8  1  0.73212900  0.13168200  0.18044400  1
  Pb  Pb9  1  0.23212900  0.36831800  0.81955600  1
  Pb  Pb10  1  0.26787100  0.63168200  0.31955600  1
  Pb  Pb11  1  0.76787100  0.86831800  0.68044400  1
  Pb  Pb12  1  0.26787100  0.86831800  0.81955600  1
  Pb  Pb13  1  0.76787100  0.63168200  0.18044400  1
  Pb  Pb14  1  0.73212900  0.36831800  0.68044400  1
  Pb  Pb15  1  0.23212900  0.13168200  0.31955600  1
  N  N16  1  0.64953100  0.12447300  0.49100400  1
  N  N17  1  0.14953100  0.37552700  0.50899600  1
  N  N18  1  0.35046900  0.62447300  0.00899600  1
  N  N19  1  0.85046900  0.87552700  0.99100400  1
  N  N20  1  0.35046900  0.87552700  0.50899600  1
  N  N21  1  0.85046900  0.62447300  0.49100400  1
  N  N22  1  0.64953100  0.37552700  0.99100400  1
  N  N23  1  0.14953100  0.12447300  0.00899600  1
  O  O24  1  0.47331300  0.25342800  0.24932800  1
  O  O25  1  0.97331300  0.24657200  0.75067200  1
  O  O26  1  0.52668700  0.75342800  0.25067200  1
  O  O27  1  0.02668700  0.74657200  0.74932800  1
  O  O28  1  0.52668700  0.74657200  0.75067200  1
  O  O29  1  0.02668700  0.75342800  0.24932800  1
  O  O30  1  0.47331300  0.24657200  0.74932800  1
  O  O31  1  0.97331300  0.25342800  0.25067200  1
  O  O32  1  0.50596300  0.51022100  0.24487800  1
  O  O33  1  0.00596300  0.98977900  0.75512200  1
  O  O34  1  0.49403700  0.01022100  0.25512200  1
  O  O35  1  0.99403700  0.48977900  0.74487800  1
  O  O36  1  0.49403700  0.48977900  0.75512200  1
  O  O37  1  0.99403700  0.01022100  0.24487800  1
  O  O38  1  0.50596300  0.98977900  0.74487800  1
  O  O39  1  0.00596300  0.51022100  0.25512200  1
  O  O40  1  0.76773800  0.10236700  0.42301600  1
  O  O41  1  0.26773800  0.39763300  0.57698400  1
  O  O42  1  0.23226200  0.60236700  0.07698400  1
  O  O43  1  0.73226200  0.89763300  0.92301600  1
  O  O44  1  0.23226200  0.89763300  0.57698400  1
  O  O45  1  0.73226200  0.60236700  0.42301600  1
  O  O46  1  0.76773800  0.39763300  0.92301600  1
  O  O47  1  0.26773800  0.10236700  0.07698400  1
  O  O48  1  0.46504000  0.18315900  0.48293400  1
  O  O49  1  0.96504000  0.31684100  0.51706600  1
  O  O50  1  0.53496000  0.68315900  0.01706600  1
  O  O51  1  0.03496000  0.81684100  0.98293400  1
  O  O52  1  0.53496000  0.81684100  0.51706600  1
  O  O53  1  0.03496000  0.68315900  0.48293400  1
  O  O54  1  0.46504000  0.31684100  0.98293400  1
  O  O55  1  0.96504000  0.18315900  0.01706600  1
  O  O56  1  0.70740900  0.08969700  0.56710700  1
  O  O57  1  0.20740900  0.41030300  0.43289300  1
  O  O58  1  0.29259100  0.58969700  0.93289300  1
  O  O59  1  0.79259100  0.91030300  0.06710700  1
  O  O60  1  0.29259100  0.91030300  0.43289300  1
  O  O61  1  0.79259100  0.58969700  0.56710700  1
  O  O62  1  0.70740900  0.41030300  0.06710700  1
  O  O63  1  0.20740900  0.08969700  0.93289300  1
