# generated using pymatgen
data_LiZr2(AsO4)3
_symmetry_space_group_name_H-M   'P 1'
_cell_length_a   9.33440264
_cell_length_b   9.33440264
_cell_length_c   9.26130627
_cell_angle_alpha   59.73856602
_cell_angle_beta   59.73856602
_cell_angle_gamma   59.99999546
_symmetry_Int_Tables_number   1
_chemical_formula_structural   LiZr2(AsO4)3
_chemical_formula_sum   'Li2 Zr4 As6 O24'
_cell_volume   568.33290011
_cell_formula_units_Z   2
loop_
 _symmetry_equiv_pos_site_id
 _symmetry_equiv_pos_as_xyz
  1  'x, y, z'
loop_
 _atom_site_type_symbol
 _atom_site_label
 _atom_site_symmetry_multiplicity
 _atom_site_fract_x
 _atom_site_fract_y
 _atom_site_fract_z
 _atom_site_occupancy
  Li  Li0  1  0.50000000  0.50000000  0.50000000  1
  Li  Li1  1  0.00000000  0.00000000  0.00000000  1
  Zr  Zr2  1  0.64039800  0.64039800  0.07880600  1
  Zr  Zr3  1  0.14039800  0.14039800  0.57880600  1
  Zr  Zr4  1  0.35960200  0.35960200  0.92119400  1
  Zr  Zr5  1  0.85960200  0.85960200  0.42119400  1
  As  As6  1  0.45674400  0.04325600  0.75000000  1
  As  As7  1  0.04325600  0.75000000  0.75000000  1
  As  As8  1  0.75000000  0.45674400  0.75000000  1
  As  As9  1  0.95674400  0.25000000  0.25000000  1
  As  As10  1  0.25000000  0.54325600  0.25000000  1
  As  As11  1  0.54325600  0.95674400  0.25000000  1
  O  O12  1  0.50281400  0.87724300  0.93483500  1
  O  O13  1  0.87724300  0.68510700  0.93483500  1
  O  O14  1  0.68510700  0.50281400  0.93483500  1
  O  O15  1  0.00281400  0.18510700  0.43483500  1
  O  O16  1  0.18510700  0.37724300  0.43483500  1
  O  O17  1  0.37724300  0.00281400  0.43483500  1
  O  O18  1  0.49718600  0.12275700  0.06516500  1
  O  O19  1  0.12275700  0.31489300  0.06516500  1
  O  O20  1  0.31489300  0.49718600  0.06516500  1
  O  O21  1  0.99718600  0.81489300  0.56516500  1
  O  O22  1  0.81489300  0.62275700  0.56516500  1
  O  O23  1  0.62275700  0.99718600  0.56516500  1
  O  O24  1  0.55426300  0.75964200  0.26824000  1
  O  O25  1  0.75964200  0.41785400  0.26824000  1
  O  O26  1  0.41785400  0.55426300  0.26824000  1
  O  O27  1  0.05426300  0.91785400  0.76824000  1
  O  O28  1  0.91785400  0.25964200  0.76824000  1
  O  O29  1  0.25964200  0.05426300  0.76824000  1
  O  O30  1  0.44573700  0.24035800  0.73176000  1
  O  O31  1  0.24035800  0.58214600  0.73176000  1
  O  O32  1  0.58214600  0.44573700  0.73176000  1
  O  O33  1  0.94573700  0.08214600  0.23176000  1
  O  O34  1  0.08214600  0.74035800  0.23176000  1
  O  O35  1  0.74035800  0.94573700  0.23176000  1
