# generated using pymatgen
data_NaNdP2H2CO7
_symmetry_space_group_name_H-M   'P 1'
_cell_length_a   15.29975500
_cell_length_b   6.75100700
_cell_length_c   6.83180980
_cell_angle_alpha   88.50490728
_cell_angle_beta   90.00000000
_cell_angle_gamma   90.00000000
_symmetry_Int_Tables_number   1
_chemical_formula_structural   NaNdP2H2CO7
_chemical_formula_sum   'Na4 Nd4 P8 H8 C4 O28'
_cell_volume   705.40888670
_cell_formula_units_Z   4
loop_
 _symmetry_equiv_pos_site_id
 _symmetry_equiv_pos_as_xyz
  1  'x, y, z'
loop_
 _atom_site_type_symbol
 _atom_site_label
 _atom_site_symmetry_multiplicity
 _atom_site_fract_x
 _atom_site_fract_y
 _atom_site_fract_z
 _atom_site_occupancy
  Na  Na0  1  0.02915500  0.13880800  0.80087800  1
  Na  Na1  1  0.52915500  0.36119200  0.19912200  1
  Na  Na2  1  0.97084500  0.86119200  0.19912200  1
  Na  Na3  1  0.47084500  0.63880800  0.80087800  1
  Nd  Nd4  1  0.10187300  0.39935000  0.32525800  1
  Nd  Nd5  1  0.60187300  0.10065000  0.67474200  1
  Nd  Nd6  1  0.89812700  0.60065000  0.67474200  1
  Nd  Nd7  1  0.39812700  0.89935000  0.32525800  1
  P  P8  1  0.90452900  0.36676800  0.17838200  1
  P  P9  1  0.40452900  0.13323200  0.82161800  1
  P  P10  1  0.09547100  0.63323200  0.82161800  1
  P  P11  1  0.59547100  0.86676800  0.17838200  1
  P  P12  1  0.15833800  0.89460800  0.47041600  1
  P  P13  1  0.65833800  0.60539200  0.52958400  1
  P  P14  1  0.84166200  0.10539200  0.52958400  1
  P  P15  1  0.34166200  0.39460800  0.47041600  1
  H  H16  1  0.76078400  0.32372200  0.31313000  1
  H  H17  1  0.26078400  0.17627800  0.68687000  1
  H  H18  1  0.23921600  0.67627800  0.68687000  1
  H  H19  1  0.73921600  0.82372200  0.31313000  1
  H  H20  1  0.79577600  0.11168500  0.18642800  1
  H  H21  1  0.29577600  0.38831500  0.81357200  1
  H  H22  1  0.20422400  0.88831500  0.81357200  1
  H  H23  1  0.70422400  0.61168500  0.18642800  1
  C  C24  1  0.81655600  0.22394700  0.29108100  1
  C  C25  1  0.31655600  0.27605300  0.70891900  1
  C  C26  1  0.18344400  0.77605300  0.70891900  1
  C  C27  1  0.68344400  0.72394700  0.29108100  1
  O  O28  1  0.09910900  0.75623200  0.35599900  1
  O  O29  1  0.59910900  0.74376800  0.64400100  1
  O  O30  1  0.90089100  0.24376800  0.64400100  1
  O  O31  1  0.40089100  0.25623200  0.35599900  1
  O  O32  1  0.98137600  0.22365700  0.13400300  1
  O  O33  1  0.48137600  0.27634300  0.86599700  1
  O  O34  1  0.01862400  0.77634300  0.86599700  1
  O  O35  1  0.51862400  0.72365700  0.13400300  1
  O  O36  1  0.11199100  0.09229800  0.51061000  1
  O  O37  1  0.61199100  0.40770200  0.48939000  1
  O  O38  1  0.88800900  0.90770200  0.48939000  1
  O  O39  1  0.38800900  0.59229800  0.51061000  1
  O  O40  1  0.86692100  0.47220900  0.99521600  1
  O  O41  1  0.36692100  0.02779100  0.00478400  1
  O  O42  1  0.13307900  0.52779100  0.00478400  1
  O  O43  1  0.63307900  0.97220900  0.99521600  1
  O  O44  1  0.93966000  0.52128300  0.32404200  1
  O  O45  1  0.43966000  0.97871700  0.67595800  1
  O  O46  1  0.06034000  0.47871700  0.67595800  1
  O  O47  1  0.56034000  0.02128300  0.32404200  1
  O  O48  1  0.24773700  0.92932800  0.37162400  1
  O  O49  1  0.74773700  0.57067200  0.62837600  1
  O  O50  1  0.75226300  0.07067200  0.62837600  1
  O  O51  1  0.25226300  0.42932800  0.37162400  1
  O  O52  1  0.16115200  0.15551500  0.08105600  1
  O  O53  1  0.66115200  0.34448500  0.91894400  1
  O  O54  1  0.83884800  0.84448500  0.91894400  1
  O  O55  1  0.33884800  0.65551500  0.08105600  1
