# generated using pymatgen
data_ScC6(O2F3)3
_symmetry_space_group_name_H-M   'P 1'
_cell_length_a   8.39706400
_cell_length_b   9.16294200
_cell_length_c   14.85084200
_cell_angle_alpha   90.00000000
_cell_angle_beta   90.00000000
_cell_angle_gamma   90.00000000
_symmetry_Int_Tables_number   1
_chemical_formula_structural   ScC6(O2F3)3
_chemical_formula_sum   'Sc4 C24 O24 F36'
_cell_volume   1142.65066948
_cell_formula_units_Z   4
loop_
 _symmetry_equiv_pos_site_id
 _symmetry_equiv_pos_as_xyz
  1  'x, y, z'
loop_
 _atom_site_type_symbol
 _atom_site_label
 _atom_site_symmetry_multiplicity
 _atom_site_fract_x
 _atom_site_fract_y
 _atom_site_fract_z
 _atom_site_occupancy
  Sc  Sc0  1  0.02855900  0.23982800  0.75000000  1
  Sc  Sc1  1  0.97144100  0.76017200  0.25000000  1
  Sc  Sc2  1  0.02855900  0.26017200  0.25000000  1
  Sc  Sc3  1  0.97144100  0.73982800  0.75000000  1
  C  C4  1  0.76003300  0.02264700  0.96931600  1
  C  C5  1  0.23996700  0.97735300  0.46931600  1
  C  C6  1  0.76003300  0.47735300  0.03068400  1
  C  C7  1  0.23996700  0.52264700  0.53068400  1
  C  C8  1  0.23996700  0.97735300  0.03068400  1
  C  C9  1  0.76003300  0.02264700  0.53068400  1
  C  C10  1  0.23996700  0.52264700  0.96931600  1
  C  C11  1  0.76003300  0.47735300  0.46931600  1
  C  C12  1  0.54978600  0.43091600  0.75000000  1
  C  C13  1  0.45021400  0.56908400  0.25000000  1
  C  C14  1  0.54978600  0.06908400  0.25000000  1
  C  C15  1  0.45021400  0.93091600  0.75000000  1
  C  C16  1  0.85865400  0.99718100  0.88162200  1
  C  C17  1  0.14134600  0.00281900  0.38162200  1
  C  C18  1  0.85865400  0.50281900  0.11837800  1
  C  C19  1  0.14134600  0.49718100  0.61837800  1
  C  C20  1  0.14134600  0.00281900  0.11837800  1
  C  C21  1  0.85865400  0.99718100  0.61837800  1
  C  C22  1  0.14134600  0.49718100  0.88162200  1
  C  C23  1  0.85865400  0.50281900  0.38162200  1
  C  C24  1  0.72867800  0.47681500  0.75000000  1
  C  C25  1  0.27132200  0.52318500  0.25000000  1
  C  C26  1  0.72867800  0.02318500  0.25000000  1
  C  C27  1  0.27132200  0.97681500  0.75000000  1
  O  O28  1  0.92522200  0.10978700  0.85024600  1
  O  O29  1  0.07477800  0.89021300  0.35024600  1
  O  O30  1  0.92522200  0.39021300  0.14975400  1
  O  O31  1  0.07477800  0.60978700  0.64975400  1
  O  O32  1  0.07477800  0.89021300  0.14975400  1
  O  O33  1  0.92522200  0.10978700  0.64975400  1
  O  O34  1  0.07477800  0.60978700  0.85024600  1
  O  O35  1  0.92522200  0.39021300  0.35024600  1
  O  O36  1  0.86168600  0.86945400  0.85059000  1
  O  O37  1  0.13831400  0.13054600  0.35059000  1
  O  O38  1  0.86168600  0.63054600  0.14941000  1
  O  O39  1  0.13831400  0.36945400  0.64941000  1
  O  O40  1  0.13831400  0.13054600  0.14941000  1
  O  O41  1  0.86168600  0.86945400  0.64941000  1
  O  O42  1  0.13831400  0.36945400  0.85059000  1
  O  O43  1  0.86168600  0.63054600  0.35059000  1
  O  O44  1  0.82596100  0.37176400  0.75000000  1
  O  O45  1  0.17403900  0.62823600  0.25000000  1
  O  O46  1  0.82596100  0.12823600  0.25000000  1
  O  O47  1  0.17403900  0.87176400  0.75000000  1
  O  O48  1  0.75971000  0.61112700  0.75000000  1
  O  O49  1  0.24029000  0.38887300  0.25000000  1
  O  O50  1  0.75971000  0.88887300  0.25000000  1
  O  O51  1  0.24029000  0.11112700  0.75000000  1
  F  F52  1  0.85057100  0.09531900  0.03138300  1
  F  F53  1  0.14942900  0.90468100  0.53138300  1
  F  F54  1  0.85057100  0.40468100  0.96861700  1
  F  F55  1  0.14942900  0.59531900  0.46861700  1
  F  F56  1  0.14942900  0.90468100  0.96861700  1
  F  F57  1  0.85057100  0.09531900  0.46861700  1
  F  F58  1  0.14942900  0.59531900  0.03138300  1
  F  F59  1  0.85057100  0.40468100  0.53138300  1
  F  F60  1  0.71077100  0.89696500  0.00735700  1
  F  F61  1  0.28922900  0.10303500  0.50735700  1
  F  F62  1  0.71077100  0.60303500  0.99264300  1
  F  F63  1  0.28922900  0.39696500  0.49264300  1
  F  F64  1  0.28922900  0.10303500  0.99264300  1
  F  F65  1  0.71077100  0.89696500  0.49264300  1
  F  F66  1  0.28922900  0.39696500  0.00735700  1
  F  F67  1  0.71077100  0.60303500  0.50735700  1
  F  F68  1  0.63075700  0.10623500  0.95063400  1
  F  F69  1  0.36924300  0.89376500  0.45063400  1
  F  F70  1  0.63075700  0.39376500  0.04936600  1
  F  F71  1  0.36924300  0.60623500  0.54936600  1
  F  F72  1  0.36924300  0.89376500  0.04936600  1
  F  F73  1  0.63075700  0.10623500  0.54936600  1
  F  F74  1  0.36924300  0.60623500  0.95063400  1
  F  F75  1  0.63075700  0.39376500  0.45063400  1
  F  F76  1  0.51794400  0.34956900  0.82442500  1
  F  F77  1  0.48205600  0.65043100  0.32442500  1
  F  F78  1  0.51794400  0.15043100  0.17557500  1
  F  F79  1  0.48205600  0.84956900  0.67557500  1
  F  F80  1  0.48205600  0.65043100  0.17557500  1
  F  F81  1  0.51794400  0.34956900  0.67557500  1
  F  F82  1  0.48205600  0.84956900  0.82442500  1
  F  F83  1  0.51794400  0.15043100  0.32442500  1
  F  F84  1  0.44972100  0.54709400  0.75000000  1
  F  F85  1  0.55028000  0.45290600  0.25000000  1
  F  F86  1  0.44972100  0.95290600  0.25000000  1
  F  F87  1  0.55028000  0.04709400  0.75000000  1
