# generated using pymatgen
data_MnSb2H8(SN)4
_symmetry_space_group_name_H-M   'P 1'
_cell_length_a   4.54927500
_cell_length_b   9.97509829
_cell_length_c   12.50443310
_cell_angle_alpha   95.06162029
_cell_angle_beta   90.00000000
_cell_angle_gamma   103.18121368
_symmetry_Int_Tables_number   1
_chemical_formula_structural   MnSb2H8(SN)4
_chemical_formula_sum   'Mn2 Sb4 H16 S8 N8'
_cell_volume   550.22150373
_cell_formula_units_Z   2
loop_
 _symmetry_equiv_pos_site_id
 _symmetry_equiv_pos_as_xyz
  1  'x, y, z'
loop_
 _atom_site_type_symbol
 _atom_site_label
 _atom_site_symmetry_multiplicity
 _atom_site_fract_x
 _atom_site_fract_y
 _atom_site_fract_z
 _atom_site_occupancy
  Mn  Mn0  1  0.00000000  0.00000000  0.50000000  1
  Mn  Mn1  1  0.00000000  0.00000000  0.00000000  1
  Sb  Sb2  1  0.06986800  0.39471100  0.64563100  1
  Sb  Sb3  1  0.67515700  0.60528900  0.85436900  1
  Sb  Sb4  1  0.93013200  0.60528900  0.35436900  1
  Sb  Sb5  1  0.32484300  0.39471100  0.14563100  1
  H  H6  1  0.33865400  0.79264800  0.50897800  1
  H  H7  1  0.54600600  0.20735200  0.99102200  1
  H  H8  1  0.66134600  0.20735200  0.49102200  1
  H  H9  1  0.45399400  0.79264800  0.00897800  1
  H  H10  1  0.18121400  0.80958300  0.62738800  1
  H  H11  1  0.37163000  0.19041700  0.87261200  1
  H  H12  1  0.81878600  0.19041700  0.37261200  1
  H  H13  1  0.62837000  0.80958300  0.12738800  1
  H  H14  1  0.41475000  0.98017900  0.34348000  1
  H  H15  1  0.43457100  0.01982100  0.15652000  1
  H  H16  1  0.58525000  0.01982100  0.65652000  1
  H  H17  1  0.56542900  0.98017900  0.84348000  1
  H  H18  1  0.33551800  0.13382900  0.33366500  1
  H  H19  1  0.20168900  0.86617100  0.16633500  1
  H  H20  1  0.66448200  0.86617100  0.66633500  1
  H  H21  1  0.79831100  0.13382900  0.83366500  1
  S  S22  1  0.96997900  0.41562300  0.83955200  1
  S  S23  1  0.55435600  0.58437700  0.66044800  1
  S  S24  1  0.03002100  0.58437700  0.16044800  1
  S  S25  1  0.44564400  0.41562300  0.33955200  1
  S  S26  1  0.24681800  0.18359400  0.64963800  1
  S  S27  1  0.06322300  0.81640600  0.85036200  1
  S  S28  1  0.75318200  0.81640600  0.35036200  1
  S  S29  1  0.93677700  0.18359400  0.14963800  1
  N  N30  1  0.39790600  0.07062400  0.38637400  1
  N  N31  1  0.32728200  0.92937600  0.11362600  1
  N  N32  1  0.60209400  0.92937600  0.61362600  1
  N  N33  1  0.67271800  0.07062400  0.88637400  1
  N  N34  1  0.30415400  0.86417700  0.56940400  1
  N  N35  1  0.43997700  0.13582300  0.93059600  1
  N  N36  1  0.69584600  0.13582300  0.43059600  1
  N  N37  1  0.56002300  0.86417700  0.06940400  1
