# generated using pymatgen
data_CsCa(SeO4)3
_symmetry_space_group_name_H-M   'P 1'
_cell_length_a   6.06374000
_cell_length_b   8.75557400
_cell_length_c   11.96145969
_cell_angle_alpha   73.35121435
_cell_angle_beta   90.00000000
_cell_angle_gamma   90.00000000
_symmetry_Int_Tables_number   1
_chemical_formula_structural   CsCa(SeO4)3
_chemical_formula_sum   'Cs2 Ca2 Se6 O24'
_cell_volume   608.43008943
_cell_formula_units_Z   2
loop_
 _symmetry_equiv_pos_site_id
 _symmetry_equiv_pos_as_xyz
  1  'x, y, z'
loop_
 _atom_site_type_symbol
 _atom_site_label
 _atom_site_symmetry_multiplicity
 _atom_site_fract_x
 _atom_site_fract_y
 _atom_site_fract_z
 _atom_site_occupancy
  Cs  Cs0  1  0.25000000  0.13412300  0.72680300  1
  Cs  Cs1  1  0.75000000  0.86587700  0.27319700  1
  Ca  Ca2  1  0.25000000  0.61470800  0.85152500  1
  Ca  Ca3  1  0.75000000  0.38529200  0.14847500  1
  Se  Se4  1  0.75000000  0.42534100  0.80114200  1
  Se  Se5  1  0.25000000  0.57465900  0.19885800  1
  Se  Se6  1  0.25000000  0.78002800  0.53128500  1
  Se  Se7  1  0.75000000  0.21997200  0.46871500  1
  Se  Se8  1  0.25000000  0.18993000  0.05820200  1
  Se  Se9  1  0.75000000  0.81007000  0.94179800  1
  O  O10  1  0.75000000  0.23157100  0.80277000  1
  O  O11  1  0.25000000  0.76842900  0.19723000  1
  O  O12  1  0.25000000  0.54744000  0.06597600  1
  O  O13  1  0.75000000  0.45256000  0.93402400  1
  O  O14  1  0.98058600  0.51097900  0.73305700  1
  O  O15  1  0.48058600  0.48902100  0.26694300  1
  O  O16  1  0.01941400  0.48902100  0.26694300  1
  O  O17  1  0.51941400  0.51097900  0.73305700  1
  O  O18  1  0.75000000  0.05237000  0.58100100  1
  O  O19  1  0.25000000  0.94763000  0.41899900  1
  O  O20  1  0.25000000  0.81522000  0.66000800  1
  O  O21  1  0.75000000  0.18478000  0.33999200  1
  O  O22  1  0.97947400  0.31769500  0.48990900  1
  O  O23  1  0.47947400  0.68230500  0.51009100  1
  O  O24  1  0.02052600  0.68230500  0.51009100  1
  O  O25  1  0.52052600  0.31769500  0.48990900  1
  O  O26  1  0.25000000  0.01624500  0.01930400  1
  O  O27  1  0.75000000  0.98375500  0.98069600  1
  O  O28  1  0.25000000  0.32441300  0.92645800  1
  O  O29  1  0.75000000  0.67558700  0.07354200  1
  O  O30  1  0.02308700  0.19890300  0.13336000  1
  O  O31  1  0.52308700  0.80109700  0.86664000  1
  O  O32  1  0.97691300  0.80109700  0.86664000  1
  O  O33  1  0.47691300  0.19890300  0.13336000  1
