# generated using pymatgen
data_VH6SO8
_symmetry_space_group_name_H-M   'P 1'
_cell_length_a   7.49715600
_cell_length_b   7.47583500
_cell_length_c   12.28260526
_cell_angle_alpha   70.98488345
_cell_angle_beta   90.00000000
_cell_angle_gamma   90.00000000
_symmetry_Int_Tables_number   1
_chemical_formula_structural   VH6SO8
_chemical_formula_sum   'V4 H24 S4 O32'
_cell_volume   650.84465809
_cell_formula_units_Z   4
loop_
 _symmetry_equiv_pos_site_id
 _symmetry_equiv_pos_as_xyz
  1  'x, y, z'
loop_
 _atom_site_type_symbol
 _atom_site_label
 _atom_site_symmetry_multiplicity
 _atom_site_fract_x
 _atom_site_fract_y
 _atom_site_fract_z
 _atom_site_occupancy
  V  V0  1  0.78228800  0.69403500  0.37414900  1
  V  V1  1  0.71771200  0.69403500  0.87414900  1
  V  V2  1  0.21771200  0.30596500  0.62585100  1
  V  V3  1  0.28228800  0.30596500  0.12585100  1
  H  H4  1  0.65772200  0.82172700  0.55800200  1
  H  H5  1  0.84227800  0.82172700  0.05800200  1
  H  H6  1  0.34227800  0.17827300  0.44199800  1
  H  H7  1  0.15772200  0.17827300  0.94199800  1
  H  H8  1  0.48452700  0.81087200  0.48632600  1
  H  H9  1  0.01547300  0.81087200  0.98632600  1
  H  H10  1  0.51547300  0.18912800  0.51367400  1
  H  H11  1  0.98452700  0.18912800  0.01367400  1
  H  H12  1  0.49540300  0.48186100  0.37117300  1
  H  H13  1  0.00459700  0.48186100  0.87117300  1
  H  H14  1  0.50459700  0.51813900  0.62882700  1
  H  H15  1  0.99540300  0.51813900  0.12882700  1
  H  H16  1  0.01449000  0.65860000  0.75336800  1
  H  H17  1  0.48551000  0.65860000  0.25336800  1
  H  H18  1  0.98551000  0.34140000  0.24663200  1
  H  H19  1  0.51449000  0.34140000  0.74663200  1
  H  H20  1  0.72683900  0.01971000  0.20773300  1
  H  H21  1  0.77316100  0.01971000  0.70773300  1
  H  H22  1  0.27316100  0.98029000  0.79226700  1
  H  H23  1  0.22683900  0.98029000  0.29226700  1
  H  H24  1  0.75250300  0.06387900  0.32604500  1
  H  H25  1  0.74749700  0.06387900  0.82604500  1
  H  H26  1  0.24749700  0.93612100  0.67395500  1
  H  H27  1  0.25250300  0.93612100  0.17395500  1
  S  S28  1  0.85884900  0.24139400  0.48729800  1
  S  S29  1  0.64115100  0.24139400  0.98729800  1
  S  S30  1  0.14115100  0.75860600  0.51270200  1
  S  S31  1  0.35884900  0.75860600  0.01270200  1
  O  O32  1  0.90861900  0.67419200  0.27155900  1
  O  O33  1  0.59138100  0.67419200  0.77155900  1
  O  O34  1  0.09138100  0.32580800  0.72844100  1
  O  O35  1  0.40861900  0.32580800  0.22844100  1
  O  O36  1  0.59905900  0.74603100  0.51628900  1
  O  O37  1  0.90094100  0.74603100  0.01628900  1
  O  O38  1  0.40094100  0.25396900  0.48371100  1
  O  O39  1  0.09905900  0.25396900  0.98371100  1
  O  O40  1  0.54004300  0.61144600  0.33135100  1
  O  O41  1  0.95995700  0.61144600  0.83135100  1
  O  O42  1  0.45995700  0.38855400  0.66864900  1
  O  O43  1  0.04004300  0.38855400  0.16864900  1
  O  O44  1  0.70222300  0.97021800  0.29228400  1
  O  O45  1  0.79777700  0.97021800  0.79228400  1
  O  O46  1  0.29777700  0.02978200  0.70771600  1
  O  O47  1  0.20222300  0.02978200  0.20771600  1
  O  O48  1  0.95668900  0.79984200  0.46510000  1
  O  O49  1  0.54331100  0.79984200  0.96510000  1
  O  O50  1  0.04331100  0.20015800  0.53490000  1
  O  O51  1  0.45668900  0.20015800  0.03490000  1
  O  O52  1  0.80089000  0.43057300  0.49255400  1
  O  O53  1  0.69911000  0.43057300  0.99255400  1
  O  O54  1  0.19911000  0.56942700  0.50744600  1
  O  O55  1  0.30089000  0.56942700  0.00744600  1
  O  O56  1  0.73314000  0.09708400  0.56026000  1
  O  O57  1  0.76686000  0.09708400  0.06026000  1
  O  O58  1  0.26686000  0.90291600  0.43974000  1
  O  O59  1  0.23314000  0.90291600  0.93974000  1
  O  O60  1  0.85691100  0.23695100  0.36787300  1
  O  O61  1  0.64308900  0.23695100  0.86787300  1
  O  O62  1  0.14308900  0.76304900  0.63212700  1
  O  O63  1  0.35691100  0.76304900  0.13212700  1
