# generated using pymatgen
data_Ga4Bi2O9
_symmetry_space_group_name_H-M   'P 1'
_cell_length_a   7.82220600
_cell_length_b   8.53231300
_cell_length_c   11.99933000
_cell_angle_alpha   90.00000000
_cell_angle_beta   90.00000000
_cell_angle_gamma   90.00000000
_symmetry_Int_Tables_number   1
_chemical_formula_structural   Ga4Bi2O9
_chemical_formula_sum   'Ga16 Bi8 O36'
_cell_volume   800.85340250
_cell_formula_units_Z   4
loop_
 _symmetry_equiv_pos_site_id
 _symmetry_equiv_pos_as_xyz
  1  'x, y, z'
loop_
 _atom_site_type_symbol
 _atom_site_label
 _atom_site_symmetry_multiplicity
 _atom_site_fract_x
 _atom_site_fract_y
 _atom_site_fract_z
 _atom_site_occupancy
  Ga  Ga0  1  0.51591000  0.50389300  0.12852400  1
  Ga  Ga1  1  0.98409000  0.00389300  0.37147600  1
  Ga  Ga2  1  0.48409000  0.49610700  0.62852400  1
  Ga  Ga3  1  0.01591000  0.99610700  0.87147600  1
  Ga  Ga4  1  0.48409000  0.49610700  0.87147600  1
  Ga  Ga5  1  0.01591000  0.99610700  0.62852400  1
  Ga  Ga6  1  0.51591000  0.50389300  0.37147600  1
  Ga  Ga7  1  0.98409000  0.00389300  0.12852400  1
  Ga  Ga8  1  0.35162400  0.84975500  0.25000000  1
  Ga  Ga9  1  0.14837600  0.34975500  0.25000000  1
  Ga  Ga10  1  0.64837600  0.15024500  0.75000000  1
  Ga  Ga11  1  0.85162400  0.65024500  0.75000000  1
  Ga  Ga12  1  0.86463100  0.67962100  0.25000000  1
  Ga  Ga13  1  0.63536900  0.17962100  0.25000000  1
  Ga  Ga14  1  0.13536900  0.32037900  0.75000000  1
  Ga  Ga15  1  0.36463100  0.82037900  0.75000000  1
  Bi  Bi16  1  0.17029900  0.67827900  0.01796200  1
  Bi  Bi17  1  0.32970100  0.17827900  0.48203800  1
  Bi  Bi18  1  0.82970100  0.32172100  0.51796200  1
  Bi  Bi19  1  0.67029900  0.82172100  0.98203800  1
  Bi  Bi20  1  0.82970100  0.32172100  0.98203800  1
  Bi  Bi21  1  0.67029900  0.82172100  0.51796200  1
  Bi  Bi22  1  0.17029900  0.67827900  0.48203800  1
  Bi  Bi23  1  0.32970100  0.17827900  0.01796200  1
  O  O24  1  0.15574400  0.93906900  0.00871800  1
  O  O25  1  0.34425600  0.43906900  0.49128200  1
  O  O26  1  0.84425600  0.06093100  0.50871800  1
  O  O27  1  0.65574400  0.56093100  0.99128200  1
  O  O28  1  0.84425600  0.06093100  0.99128200  1
  O  O29  1  0.65574400  0.56093100  0.50871800  1
  O  O30  1  0.15574400  0.93906900  0.49128200  1
  O  O31  1  0.34425600  0.43906900  0.00871800  1
  O  O32  1  0.11726700  0.90104400  0.25000000  1
  O  O33  1  0.38273300  0.40104400  0.25000000  1
  O  O34  1  0.88273300  0.09895600  0.75000000  1
  O  O35  1  0.61726700  0.59895600  0.75000000  1
  O  O36  1  0.65453700  0.57984600  0.25000000  1
  O  O37  1  0.84546300  0.07984600  0.25000000  1
  O  O38  1  0.34546300  0.42015400  0.75000000  1
  O  O39  1  0.15453700  0.92015400  0.75000000  1
  O  O40  1  0.39541700  0.72098900  0.12439400  1
  O  O41  1  0.10458300  0.22098900  0.37560600  1
  O  O42  1  0.60458300  0.27901100  0.62439400  1
  O  O43  1  0.89541700  0.77901100  0.87560600  1
  O  O44  1  0.60458300  0.27901100  0.87560600  1
  O  O45  1  0.89541700  0.77901100  0.62439400  1
  O  O46  1  0.39541700  0.72098900  0.37560600  1
  O  O47  1  0.10458300  0.22098900  0.12439400  1
  O  O48  1  0.85920900  0.79755500  0.11693600  1
  O  O49  1  0.64079100  0.29755500  0.38306400  1
  O  O50  1  0.14079100  0.20244500  0.61693600  1
  O  O51  1  0.35920900  0.70244500  0.88306400  1
  O  O52  1  0.14079100  0.20244500  0.88306400  1
  O  O53  1  0.35920900  0.70244500  0.61693600  1
  O  O54  1  0.85920900  0.79755500  0.38306400  1
  O  O55  1  0.64079100  0.29755500  0.11693600  1
  O  O56  1  0.45053400  0.04562000  0.25000000  1
  O  O57  1  0.04946600  0.54562000  0.25000000  1
  O  O58  1  0.54946600  0.95438000  0.75000000  1
  O  O59  1  0.95053400  0.45438000  0.75000000  1
