# generated using pymatgen
data_KIrBr5NO2
_symmetry_space_group_name_H-M   'P 1'
_cell_length_a   6.57212300
_cell_length_b   7.63833400
_cell_length_c   23.99807900
_cell_angle_alpha   90.00000000
_cell_angle_beta   90.00000000
_cell_angle_gamma   90.00000000
_symmetry_Int_Tables_number   1
_chemical_formula_structural   KIrBr5NO2
_chemical_formula_sum   'K4 Ir4 Br20 N4 O8'
_cell_volume   1204.70525918
_cell_formula_units_Z   4
loop_
 _symmetry_equiv_pos_site_id
 _symmetry_equiv_pos_as_xyz
  1  'x, y, z'
loop_
 _atom_site_type_symbol
 _atom_site_label
 _atom_site_symmetry_multiplicity
 _atom_site_fract_x
 _atom_site_fract_y
 _atom_site_fract_z
 _atom_site_occupancy
  K  K0  1  0.98999200  0.75000000  0.32659500  1
  K  K1  1  0.51000800  0.75000000  0.82659500  1
  K  K2  1  0.01000800  0.25000000  0.67340500  1
  K  K3  1  0.48999200  0.25000000  0.17340500  1
  Ir  Ir4  1  0.86121300  0.75000000  0.12568700  1
  Ir  Ir5  1  0.63878700  0.75000000  0.62568700  1
  Ir  Ir6  1  0.13878700  0.25000000  0.87431300  1
  Ir  Ir7  1  0.36121300  0.25000000  0.37431300  1
  Br  Br8  1  0.97829600  0.51552400  0.19360700  1
  Br  Br9  1  0.52170400  0.98447600  0.69360700  1
  Br  Br10  1  0.02170400  0.01552400  0.80639300  1
  Br  Br11  1  0.47829600  0.48447600  0.30639300  1
  Br  Br12  1  0.02170400  0.48447600  0.80639300  1
  Br  Br13  1  0.47829600  0.01552400  0.30639300  1
  Br  Br14  1  0.97829600  0.98447600  0.19360700  1
  Br  Br15  1  0.52170400  0.51552400  0.69360700  1
  Br  Br16  1  0.71886300  0.51462400  0.06256200  1
  Br  Br17  1  0.78113700  0.98537600  0.56256200  1
  Br  Br18  1  0.28113700  0.01462400  0.93743800  1
  Br  Br19  1  0.21886300  0.48537600  0.43743800  1
  Br  Br20  1  0.28113700  0.48537600  0.93743800  1
  Br  Br21  1  0.21886300  0.01462400  0.43743800  1
  Br  Br22  1  0.71886300  0.98537600  0.06256200  1
  Br  Br23  1  0.78113700  0.51462400  0.56256200  1
  Br  Br24  1  0.53102400  0.75000000  0.17446400  1
  Br  Br25  1  0.96897600  0.75000000  0.67446400  1
  Br  Br26  1  0.46897600  0.25000000  0.82553600  1
  Br  Br27  1  0.03102400  0.25000000  0.32553600  1
  N  N28  1  0.08947500  0.75000000  0.08575000  1
  N  N29  1  0.41052500  0.75000000  0.58575000  1
  N  N30  1  0.91052500  0.25000000  0.91425000  1
  N  N31  1  0.58947500  0.25000000  0.41425000  1
  O  O32  1  0.22585000  0.75000000  0.05555900  1
  O  O33  1  0.27415000  0.75000000  0.55555900  1
  O  O34  1  0.77415000  0.25000000  0.94444100  1
  O  O35  1  0.72585000  0.25000000  0.44444100  1
  O  O36  1  0.72479000  0.75000000  0.42060900  1
  O  O37  1  0.77521000  0.75000000  0.92060900  1
  O  O38  1  0.27521000  0.25000000  0.57939100  1
  O  O39  1  0.22478900  0.25000000  0.07939100  1
