# generated using pymatgen
data_SrUP2(HO5)2
_symmetry_space_group_name_H-M   'P 1'
_cell_length_a   7.69756400
_cell_length_b   8.37369225
_cell_length_c   9.04570240
_cell_angle_alpha   102.22667121
_cell_angle_beta   108.40745479
_cell_angle_gamma   107.15491491
_symmetry_Int_Tables_number   1
_chemical_formula_structural   SrUP2(HO5)2
_chemical_formula_sum   'Sr2 U2 P4 H4 O20'
_cell_volume   497.82048900
_cell_formula_units_Z   2
loop_
 _symmetry_equiv_pos_site_id
 _symmetry_equiv_pos_as_xyz
  1  'x, y, z'
loop_
 _atom_site_type_symbol
 _atom_site_label
 _atom_site_symmetry_multiplicity
 _atom_site_fract_x
 _atom_site_fract_y
 _atom_site_fract_z
 _atom_site_occupancy
  Sr  Sr0  1  0.31302700  0.23191700  0.90415600  1
  Sr  Sr1  1  0.68697300  0.76808300  0.09584400  1
  U  U2  1  0.22937100  0.81923900  0.47194700  1
  U  U3  1  0.77062900  0.18076100  0.52805300  1
  P  P4  1  0.23929600  0.06498900  0.24480300  1
  P  P5  1  0.76070400  0.93501100  0.75519700  1
  P  P6  1  0.29557900  0.49023700  0.66042900  1
  P  P7  1  0.70442100  0.50976300  0.33957100  1
  H  H8  1  0.21329800  0.22513200  0.29428000  1
  H  H9  1  0.78670200  0.77486800  0.70572000  1
  H  H10  1  0.38192300  0.44914500  0.54884300  1
  H  H11  1  0.61807700  0.55085500  0.45115700  1
  O  O12  1  0.26828400  0.05312600  0.08535500  1
  O  O13  1  0.73171600  0.94687400  0.91464500  1
  O  O14  1  0.41902400  0.07122100  0.39189700  1
  O  O15  1  0.58097600  0.92877900  0.60810300  1
  O  O16  1  0.43937300  0.51863600  0.83418100  1
  O  O17  1  0.56062700  0.48136400  0.16581900  1
  O  O18  1  0.25475100  0.65605600  0.64156100  1
  O  O19  1  0.74524900  0.34394400  0.35843900  1
  O  O20  1  0.06320400  0.91234300  0.24035700  1
  O  O21  1  0.93679600  0.08765700  0.75964300  1
  O  O22  1  0.23841900  0.99761700  0.63565300  1
  O  O23  1  0.76158100  0.00238300  0.36434700  1
  O  O24  1  0.23599600  0.64768500  0.31504300  1
  O  O25  1  0.76400400  0.35231500  0.68495700  1
  O  O26  1  0.89675300  0.67440600  0.39243800  1
  O  O27  1  0.10324700  0.32559400  0.60756200  1
  O  O28  1  0.94520700  0.58849300  0.97747600  1
  O  O29  1  0.05479300  0.41150700  0.02252400  1
  O  O30  1  0.70124000  0.22773700  0.01090900  1
  O  O31  1  0.29876000  0.77226300  0.98909100  1
