# generated using pymatgen
data_AuCl4O3
_symmetry_space_group_name_H-M   'P 1'
_cell_length_a   11.46629300
_cell_length_b   8.21697100
_cell_length_c   11.43644285
_cell_angle_alpha   55.42365164
_cell_angle_beta   90.00000000
_cell_angle_gamma   90.00000000
_symmetry_Int_Tables_number   1
_chemical_formula_structural   AuCl4O3
_chemical_formula_sum   'Au4 Cl16 O12'
_cell_volume   887.19924576
_cell_formula_units_Z   4
loop_
 _symmetry_equiv_pos_site_id
 _symmetry_equiv_pos_as_xyz
  1  'x, y, z'
loop_
 _atom_site_type_symbol
 _atom_site_label
 _atom_site_symmetry_multiplicity
 _atom_site_fract_x
 _atom_site_fract_y
 _atom_site_fract_z
 _atom_site_occupancy
  Au  Au0  1  0.51603500  0.25559500  0.99180400  1
  Au  Au1  1  0.01603500  0.74440500  0.50819600  1
  Au  Au2  1  0.48396500  0.74440500  0.00819600  1
  Au  Au3  1  0.98396500  0.25559500  0.49180400  1
  Cl  Cl4  1  0.61662900  0.23064700  0.17841800  1
  Cl  Cl5  1  0.11662900  0.76935300  0.32158200  1
  Cl  Cl6  1  0.38337100  0.76935300  0.82158200  1
  Cl  Cl7  1  0.88337100  0.23064700  0.67841800  1
  Cl  Cl8  1  0.35501700  0.12595200  0.13506100  1
  Cl  Cl9  1  0.85501700  0.87404800  0.36493900  1
  Cl  Cl10  1  0.64498300  0.87404800  0.86493900  1
  Cl  Cl11  1  0.14498300  0.12595200  0.63506100  1
  Cl  Cl12  1  0.69165500  0.37507700  0.87659500  1
  Cl  Cl13  1  0.19165500  0.62492300  0.62340500  1
  Cl  Cl14  1  0.30834500  0.62492300  0.12340500  1
  Cl  Cl15  1  0.80834500  0.37507700  0.37659500  1
  Cl  Cl16  1  0.42215600  0.28584100  0.80171700  1
  Cl  Cl17  1  0.92215600  0.71415900  0.69828300  1
  Cl  Cl18  1  0.57784400  0.71415900  0.19828300  1
  Cl  Cl19  1  0.07784400  0.28584100  0.30171700  1
  O  O20  1  0.39120300  0.51847500  0.38745500  1
  O  O21  1  0.89120300  0.48152500  0.11254500  1
  O  O22  1  0.60879700  0.48152500  0.61254500  1
  O  O23  1  0.10879700  0.51847500  0.88745500  1
  O  O24  1  0.09346000  0.32776000  0.96837300  1
  O  O25  1  0.59346000  0.67224000  0.53162700  1
  O  O26  1  0.90654000  0.67224000  0.03162700  1
  O  O27  1  0.40654000  0.32776000  0.46837300  1
  O  O28  1  0.41117000  0.23144300  0.41139900  1
  O  O29  1  0.91117000  0.76855700  0.08860100  1
  O  O30  1  0.58883000  0.76855700  0.58860100  1
  O  O31  1  0.08883000  0.23144300  0.91139900  1
