# generated using pymatgen
data_Ce2Fe17
_symmetry_space_group_name_H-M   'P 1'
_cell_length_a   8.39579800
_cell_length_b   8.39637375
_cell_length_c   8.39637375
_cell_angle_alpha   120.00409534
_cell_angle_beta   90.00000000
_cell_angle_gamma   90.00000000
_symmetry_Int_Tables_number   1
_chemical_formula_structural   Ce2Fe17
_chemical_formula_sum   'Ce4 Fe34'
_cell_volume   512.57593609
_cell_formula_units_Z   2
loop_
 _symmetry_equiv_pos_site_id
 _symmetry_equiv_pos_as_xyz
  1  'x, y, z'
loop_
 _atom_site_type_symbol
 _atom_site_label
 _atom_site_symmetry_multiplicity
 _atom_site_fract_x
 _atom_site_fract_y
 _atom_site_fract_z
 _atom_site_occupancy
  Ce  Ce0  1  0.75000000  0.99997600  0.00002400  1
  Ce  Ce1  1  0.25000000  0.00002400  0.99997600  1
  Ce  Ce2  1  0.25000000  0.66657200  0.33342800  1
  Ce  Ce3  1  0.75000000  0.33342800  0.66657200  1
  Fe  Fe4  1  0.60967000  0.66665300  0.33334700  1
  Fe  Fe5  1  0.39033000  0.33334700  0.66665300  1
  Fe  Fe6  1  0.10967000  0.33334700  0.66665300  1
  Fe  Fe7  1  0.89033000  0.66665300  0.33334700  1
  Fe  Fe8  1  0.50000000  0.50000000  0.00000000  1
  Fe  Fe9  1  0.50000000  0.50000000  0.50000000  1
  Fe  Fe10  1  0.50000000  0.00000000  0.50000000  1
  Fe  Fe11  1  0.00000000  0.50000000  0.00000000  1
  Fe  Fe12  1  0.00000000  0.50000000  0.50000000  1
  Fe  Fe13  1  0.00000000  0.00000000  0.50000000  1
  Fe  Fe14  1  0.75000000  0.67051600  0.03509300  1
  Fe  Fe15  1  0.75000000  0.36446700  0.32933700  1
  Fe  Fe16  1  0.75000000  0.96504900  0.63554300  1
  Fe  Fe17  1  0.75000000  0.36445700  0.03495100  1
  Fe  Fe18  1  0.75000000  0.96490700  0.32948400  1
  Fe  Fe19  1  0.75000000  0.67066300  0.63553300  1
  Fe  Fe20  1  0.25000000  0.32948400  0.96490700  1
  Fe  Fe21  1  0.25000000  0.63553300  0.67066300  1
  Fe  Fe22  1  0.25000000  0.03495100  0.36445700  1
  Fe  Fe23  1  0.25000000  0.63554300  0.96504900  1
  Fe  Fe24  1  0.25000000  0.03509300  0.67051600  1
  Fe  Fe25  1  0.25000000  0.32933700  0.36446700  1
  Fe  Fe26  1  0.48827600  0.83338100  0.66666900  1
  Fe  Fe27  1  0.48820100  0.83334500  0.16665500  1
  Fe  Fe28  1  0.48827600  0.33333100  0.16661900  1
  Fe  Fe29  1  0.51172400  0.16661900  0.33333100  1
  Fe  Fe30  1  0.51179900  0.16665500  0.83334500  1
  Fe  Fe31  1  0.51172400  0.66666900  0.83338100  1
  Fe  Fe32  1  0.98827600  0.16661900  0.33333100  1
  Fe  Fe33  1  0.98820100  0.16665500  0.83334500  1
  Fe  Fe34  1  0.98827600  0.66666900  0.83338100  1
  Fe  Fe35  1  0.01172400  0.83338100  0.66666900  1
  Fe  Fe36  1  0.01179900  0.83334500  0.16665500  1
  Fe  Fe37  1  0.01172400  0.33333100  0.16661900  1
