# generated using pymatgen
data_Th6OF24
_symmetry_space_group_name_H-M   'P 1'
_cell_length_a   8.85617239
_cell_length_b   8.85617239
_cell_length_c   8.85617239
_cell_angle_alpha   115.83072053
_cell_angle_beta   115.83072053
_cell_angle_gamma   97.38710865
_symmetry_Int_Tables_number   1
_chemical_formula_structural   Th6OF24
_chemical_formula_sum   'Th6 O1 F24'
_cell_volume   517.44986446
_cell_formula_units_Z   1
loop_
 _symmetry_equiv_pos_site_id
 _symmetry_equiv_pos_as_xyz
  1  'x, y, z'
loop_
 _atom_site_type_symbol
 _atom_site_label
 _atom_site_symmetry_multiplicity
 _atom_site_fract_x
 _atom_site_fract_y
 _atom_site_fract_z
 _atom_site_occupancy
  Th  Th0  1  0.82673700  0.61532200  0.44205800  1
  Th  Th1  1  0.17326300  0.38467800  0.55794200  1
  Th  Th2  1  0.61532200  0.17326300  0.78858500  1
  Th  Th3  1  0.38467800  0.82673700  0.21141500  1
  Th  Th4  1  0.22050400  0.22050400  0.00000000  1
  Th  Th5  1  0.77949600  0.77949600  0.00000000  1
  O  O6  1  0.00000000  0.00000000  0.00000000  1
  F  F7  1  0.10965300  0.60965300  0.50000000  1
  F  F8  1  0.60965300  0.10965300  0.50000000  1
  F  F9  1  0.89034700  0.39034700  0.50000000  1
  F  F10  1  0.39034700  0.89034700  0.50000000  1
  F  F11  1  0.63172200  0.76747200  0.39919400  1
  F  F12  1  0.36827800  0.23252800  0.60080600  1
  F  F13  1  0.76747200  0.36827800  0.13574900  1
  F  F14  1  0.23252800  0.63172200  0.86425100  1
  F  F15  1  0.03432800  0.91832000  0.70975900  1
  F  F16  1  0.20856100  0.32456900  0.29024100  1
  F  F17  1  0.91832000  0.20856100  0.88399200  1
  F  F18  1  0.32456900  0.03432800  0.11600800  1
  F  F19  1  0.96567200  0.08168000  0.29024100  1
  F  F20  1  0.79143900  0.67543100  0.70975900  1
  F  F21  1  0.08168000  0.79143900  0.11600800  1
  F  F22  1  0.67543100  0.96567200  0.88399200  1
  F  F23  1  0.14523200  0.27299800  0.74250700  1
  F  F24  1  0.53049100  0.40272500  0.25749300  1
  F  F25  1  0.27299800  0.53049100  0.12776600  1
  F  F26  1  0.40272500  0.14523200  0.87223400  1
  F  F27  1  0.85476800  0.72700200  0.25749300  1
  F  F28  1  0.46950900  0.59727500  0.74250700  1
  F  F29  1  0.72700200  0.46950900  0.87223400  1
  F  F30  1  0.59727500  0.85476800  0.12776600  1
