# generated using pymatgen
data_CsCaP3(HO5)2
_symmetry_space_group_name_H-M   'P 1'
_cell_length_a   9.23046412
_cell_length_b   10.12579808
_cell_length_c   12.47368900
_cell_angle_alpha   90.00003529
_cell_angle_beta   89.99991547
_cell_angle_gamma   117.02022909
_symmetry_Int_Tables_number   1
_chemical_formula_structural   CsCaP3(HO5)2
_chemical_formula_sum   'Cs4 Ca4 P12 H8 O40'
_cell_volume   1038.60506375
_cell_formula_units_Z   4
loop_
 _symmetry_equiv_pos_site_id
 _symmetry_equiv_pos_as_xyz
  1  'x, y, z'
loop_
 _atom_site_type_symbol
 _atom_site_label
 _atom_site_symmetry_multiplicity
 _atom_site_fract_x
 _atom_site_fract_y
 _atom_site_fract_z
 _atom_site_occupancy
  Cs  Cs0  1  0.92297600  0.45336900  0.79131500  1
  Cs  Cs1  1  0.07702600  0.04663300  0.29131600  1
  Cs  Cs2  1  0.07702200  0.54663100  0.20868500  1
  Cs  Cs3  1  0.92297400  0.95336700  0.70868500  1
  Ca  Ca4  1  0.40170700  0.21223400  0.60188100  1
  Ca  Ca5  1  0.59829000  0.28776300  0.10188600  1
  Ca  Ca6  1  0.59828800  0.78776200  0.39811300  1
  Ca  Ca7  1  0.40170900  0.71223700  0.89811800  1
  P  P8  1  0.89776700  0.66230600  0.48129100  1
  P  P9  1  0.10223300  0.83769500  0.98129200  1
  P  P10  1  0.10223300  0.33769500  0.51870800  1
  P  P11  1  0.89776700  0.16230600  0.01871000  1
  P  P12  1  0.31992500  0.63481900  0.61270400  1
  P  P13  1  0.68007800  0.86518200  0.11270400  1
  P  P14  1  0.68007600  0.36518200  0.38729500  1
  P  P15  1  0.31992400  0.13481900  0.88729800  1
  P  P16  1  0.25970700  0.34816700  0.01703800  1
  P  P17  1  0.74029300  0.15183100  0.51703700  1
  P  P18  1  0.74029400  0.65183200  0.98296300  1
  P  P19  1  0.25970700  0.84816800  0.48296200  1
  H  H20  1  0.44474600  0.51548500  0.23667200  1
  H  H21  1  0.55525400  0.98451500  0.73667300  1
  H  H22  1  0.55525400  0.48451500  0.76332700  1
  H  H23  1  0.44474600  0.01548500  0.26332700  1
  H  H24  1  0.35676200  0.47737200  0.34778400  1
  H  H25  1  0.64323800  0.02262800  0.84778500  1
  H  H26  1  0.64323800  0.52262800  0.65221600  1
  H  H27  1  0.35676200  0.97737200  0.15221600  1
  O  O28  1  0.11304700  0.33934000  0.39874500  1
  O  O29  1  0.88695300  0.16066000  0.89874500  1
  O  O30  1  0.88695200  0.66066000  0.60125500  1
  O  O31  1  0.11304800  0.83934100  0.10125500  1
  O  O32  1  0.18176100  0.26335400  0.58300700  1
  O  O33  1  0.81823900  0.23664600  0.08300800  1
  O  O34  1  0.81823900  0.73664600  0.41699300  1
  O  O35  1  0.18176200  0.76335400  0.91699300  1
  O  O36  1  0.15598300  0.50452000  0.56248500  1
  O  O37  1  0.84401800  0.99548000  0.06248500  1
  O  O38  1  0.84401800  0.49548200  0.43751400  1
  O  O39  1  0.15598400  0.00452000  0.93751500  1
  O  O40  1  0.31544400  0.11420000  0.76850300  1
  O  O41  1  0.68455600  0.38580000  0.26850200  1
  O  O42  1  0.68455600  0.88579900  0.23149600  1
  O  O43  1  0.31544600  0.61420100  0.73149700  1
  O  O44  1  0.53386100  0.84682300  0.04983400  1
  O  O45  1  0.46613800  0.65317700  0.54983200  1
  O  O46  1  0.46613800  0.15317700  0.95016700  1
  O  O47  1  0.53386100  0.34682300  0.45016700  1
  O  O48  1  0.71864300  0.22498200  0.40666200  1
  O  O49  1  0.28135700  0.27501700  0.90666300  1
  O  O50  1  0.28135700  0.77501700  0.59333700  1
  O  O51  1  0.71864200  0.72498300  0.09333800  1
  O  O52  1  0.75060100  0.01339500  0.48596900  1
  O  O53  1  0.24939900  0.48660500  0.98597000  1
  O  O54  1  0.24939900  0.98660500  0.51403100  1
  O  O55  1  0.75060200  0.51339600  0.01403200  1
  O  O56  1  0.61935800  0.64575000  0.89938800  1
  O  O57  1  0.38064400  0.85424900  0.39938900  1
  O  O58  1  0.38064400  0.35425000  0.10061200  1
  O  O59  1  0.61935500  0.14575000  0.60061100  1
  O  O60  1  0.08509300  0.22796700  0.06235800  1
  O  O61  1  0.91490700  0.27203300  0.56235700  1
  O  O62  1  0.91490700  0.77203300  0.93764300  1
  O  O63  1  0.08509400  0.72796700  0.43764300  1
  O  O64  1  0.42393000  0.06032700  0.19919700  1
  O  O65  1  0.57606700  0.43967200  0.69919600  1
  O  O66  1  0.57606900  0.93967200  0.80080300  1
  O  O67  1  0.42393000  0.56032800  0.30080300  1
