# generated using pymatgen
data_ThV2H4O9
_symmetry_space_group_name_H-M   'P 1'
_cell_length_a   7.12569581
_cell_length_b   7.48832630
_cell_length_c   7.83941776
_cell_angle_alpha   77.81671806
_cell_angle_beta   74.59833351
_cell_angle_gamma   85.04881059
_symmetry_Int_Tables_number   1
_chemical_formula_structural   ThV2H4O9
_chemical_formula_sum   'Th2 V4 H8 O18'
_cell_volume   393.99904617
_cell_formula_units_Z   2
loop_
 _symmetry_equiv_pos_site_id
 _symmetry_equiv_pos_as_xyz
  1  'x, y, z'
loop_
 _atom_site_type_symbol
 _atom_site_label
 _atom_site_symmetry_multiplicity
 _atom_site_fract_x
 _atom_site_fract_y
 _atom_site_fract_z
 _atom_site_occupancy
  Th  Th0  1  0.64177600  0.75534600  0.91698400  1
  Th  Th1  1  0.35822400  0.24465400  0.08301600  1
  V  V2  1  0.20631200  0.66423500  0.74586800  1
  V  V3  1  0.79368800  0.33576500  0.25413200  1
  V  V4  1  0.27212000  0.70744900  0.29270500  1
  V  V5  1  0.72788000  0.29255100  0.70729500  1
  H  H6  1  0.60206200  0.82659200  0.50886600  1
  H  H7  1  0.39793800  0.17340800  0.49113400  1
  H  H8  1  0.82978800  0.78912300  0.48721000  1
  H  H9  1  0.17021200  0.21087700  0.51279000  1
  H  H10  1  0.76663000  0.00885200  0.13422700  1
  H  H11  1  0.23337000  0.99114800  0.86577300  1
  H  H12  1  0.90456200  0.82390300  0.15701300  1
  H  H13  1  0.09543800  0.17609700  0.84298700  1
  O  O14  1  0.38272100  0.54718200  0.15802100  1
  O  O15  1  0.61727900  0.45281800  0.84197900  1
  O  O16  1  0.34326600  0.80417200  0.81419600  1
  O  O17  1  0.65673400  0.19582800  0.18580400  1
  O  O18  1  0.39315800  0.90394100  0.15888000  1
  O  O19  1  0.60684200  0.09605900  0.84112000  1
  O  O20  1  0.97136600  0.74897600  0.76521800  1
  O  O21  1  0.02863400  0.25102400  0.23478200  1
  O  O22  1  0.20954000  0.45547900  0.88092000  1
  O  O23  1  0.79046000  0.54452100  0.11908000  1
  O  O24  1  0.32696200  0.65758700  0.51020000  1
  O  O25  1  0.67303800  0.34241300  0.48980000  1
  O  O26  1  0.03158500  0.72869600  0.31801400  1
  O  O27  1  0.96841500  0.27130400  0.68198600  1
  O  O28  1  0.70624000  0.82577600  0.56897500  1
  O  O29  1  0.29376000  0.17422400  0.43102500  1
  O  O30  1  0.81134600  0.89231500  0.09022500  1
  O  O31  1  0.18865400  0.10768500  0.90977500  1
