# generated using pymatgen
data_MgSiO3
_symmetry_space_group_name_H-M   'P 1'
_cell_length_a   8.94090800
_cell_length_b   5.26336700
_cell_length_c   18.62369252
_cell_angle_alpha   89.42909378
_cell_angle_beta   90.00000000
_cell_angle_gamma   90.00000000
_symmetry_Int_Tables_number   1
_chemical_formula_structural   MgSiO3
_chemical_formula_sum   'Mg16 Si16 O48'
_cell_volume   876.37405587
_cell_formula_units_Z   16
loop_
 _symmetry_equiv_pos_site_id
 _symmetry_equiv_pos_as_xyz
  1  'x, y, z'
loop_
 _atom_site_type_symbol
 _atom_site_label
 _atom_site_symmetry_multiplicity
 _atom_site_fract_x
 _atom_site_fract_y
 _atom_site_fract_z
 _atom_site_occupancy
  Mg  Mg0  1  0.39879300  0.75000000  0.00000000  1
  Mg  Mg1  1  0.60120700  0.25000000  0.00000000  1
  Mg  Mg2  1  0.24533000  0.25000000  0.00000000  1
  Mg  Mg3  1  0.75467000  0.75000000  0.00000000  1
  Mg  Mg4  1  0.90140500  0.81926300  0.25114200  1
  Mg  Mg5  1  0.90140500  0.68073700  0.74885800  1
  Mg  Mg6  1  0.09859500  0.18073700  0.74885800  1
  Mg  Mg7  1  0.09859500  0.31926300  0.25114200  1
  Mg  Mg8  1  0.25995700  0.82000800  0.24943200  1
  Mg  Mg9  1  0.25995700  0.67999200  0.75056800  1
  Mg  Mg10  1  0.74004300  0.17999200  0.75056800  1
  Mg  Mg11  1  0.74004300  0.32000800  0.24943200  1
  Mg  Mg12  1  0.59859500  0.25000000  0.50000000  1
  Mg  Mg13  1  0.40140500  0.75000000  0.50000000  1
  Mg  Mg14  1  0.24145600  0.25000000  0.50000000  1
  Mg  Mg15  1  0.75854400  0.75000000  0.50000000  1
  Si  Si16  1  0.91222500  0.02975700  0.89622300  1
  Si  Si17  1  0.91222500  0.47024300  0.10377700  1
  Si  Si18  1  0.08777500  0.97024300  0.10377700  1
  Si  Si19  1  0.08777500  0.52975700  0.89622300  1
  Si  Si20  1  0.41179200  0.09033700  0.85081500  1
  Si  Si21  1  0.41179200  0.40966300  0.14918500  1
  Si  Si22  1  0.58820800  0.90966300  0.14918500  1
  Si  Si23  1  0.58820800  0.59033700  0.85081500  1
  Si  Si24  1  0.91043300  0.15367400  0.39884700  1
  Si  Si25  1  0.91043300  0.34632600  0.60115300  1
  Si  Si26  1  0.08956700  0.84632600  0.60115300  1
  Si  Si27  1  0.08956700  0.65367400  0.39884700  1
  Si  Si28  1  0.58870900  0.60555700  0.35255000  1
  Si  Si29  1  0.58870900  0.89444300  0.64745000  1
  Si  Si30  1  0.41129100  0.39444300  0.64745000  1
  Si  Si31  1  0.41129100  0.10555700  0.35255000  1
  O  O32  1  0.91174700  0.02317000  0.80834000  1
  O  O33  1  0.91174700  0.47683000  0.19166000  1
  O  O34  1  0.08825300  0.97683000  0.19166000  1
  O  O35  1  0.08825300  0.52317000  0.80834000  1
  O  O36  1  0.75880400  0.06821400  0.93918500  1
  O  O37  1  0.75880400  0.43178600  0.06081500  1
  O  O38  1  0.24119600  0.93178600  0.06081500  1
  O  O39  1  0.24119600  0.56821400  0.93918500  1
  O  O40  1  0.04016500  0.23612400  0.92393300  1
  O  O41  1  0.04016500  0.26387600  0.07606700  1
  O  O42  1  0.95983500  0.76387600  0.07606700  1
  O  O43  1  0.95983500  0.73612400  0.92393300  1
  O  O44  1  0.40978900  0.08134900  0.93890100  1
  O  O45  1  0.40978900  0.41865100  0.06109900  1
  O  O46  1  0.59021100  0.91865100  0.06109900  1
  O  O47  1  0.59021100  0.58134900  0.93890100  1
  O  O48  1  0.26308900  0.99781200  0.80926600  1
  O  O49  1  0.26308900  0.50218800  0.19073400  1
  O  O50  1  0.73691100  0.00218800  0.19073400  1
  O  O51  1  0.73691100  0.49781200  0.80926600  1
  O  O52  1  0.54725900  0.88871000  0.82408500  1
  O  O53  1  0.54725900  0.61129000  0.17591500  1
  O  O54  1  0.45274100  0.11129000  0.17591500  1
  O  O55  1  0.45274100  0.38871000  0.82408500  1
  O  O56  1  0.90766700  0.15035800  0.31096200  1
  O  O57  1  0.90766700  0.34964200  0.68903800  1
  O  O58  1  0.09233300  0.84964200  0.68903800  1
  O  O59  1  0.09233300  0.65035800  0.31096200  1
  O  O60  1  0.75896700  0.06804500  0.43974200  1
  O  O61  1  0.75896700  0.43195500  0.56025800  1
  O  O62  1  0.24103300  0.93195500  0.56025800  1
  O  O63  1  0.24103300  0.56804500  0.43974200  1
  O  O64  1  0.04170500  0.94456800  0.42624500  1
  O  O65  1  0.04170500  0.55543200  0.57375500  1
  O  O66  1  0.95829500  0.05543200  0.57375500  1
  O  O67  1  0.95829500  0.44456800  0.42624500  1
  O  O68  1  0.58775400  0.59366700  0.44031500  1
  O  O69  1  0.58775400  0.90633300  0.55968500  1
  O  O70  1  0.41224600  0.40633300  0.55968500  1
  O  O71  1  0.41224600  0.09366700  0.44031500  1
  O  O72  1  0.74491800  0.63839000  0.31165700  1
  O  O73  1  0.74491800  0.86161000  0.68834300  1
  O  O74  1  0.25508200  0.36161000  0.68834300  1
  O  O75  1  0.25508200  0.13839000  0.31165700  1
  O  O76  1  0.53722200  0.31665600  0.32315500  1
  O  O77  1  0.53722200  0.18334400  0.67684500  1
  O  O78  1  0.46277800  0.68334400  0.67684500  1
  O  O79  1  0.46277800  0.81665600  0.32315500  1
