# generated using pymatgen
data_NaS2N(O2F)2
_symmetry_space_group_name_H-M   'P 1'
_cell_length_a   9.32339700
_cell_length_b   7.56191900
_cell_length_c   9.21056893
_cell_angle_alpha   73.49414731
_cell_angle_beta   90.00000000
_cell_angle_gamma   90.00000000
_symmetry_Int_Tables_number   1
_chemical_formula_structural   NaS2N(O2F)2
_chemical_formula_sum   'Na4 S8 N4 O16 F8'
_cell_volume   622.61055167
_cell_formula_units_Z   4
loop_
 _symmetry_equiv_pos_site_id
 _symmetry_equiv_pos_as_xyz
  1  'x, y, z'
loop_
 _atom_site_type_symbol
 _atom_site_label
 _atom_site_symmetry_multiplicity
 _atom_site_fract_x
 _atom_site_fract_y
 _atom_site_fract_z
 _atom_site_occupancy
  Na  Na0  1  0.48359600  0.24494900  0.06837200  1
  Na  Na1  1  0.01640400  0.24494900  0.56837200  1
  Na  Na2  1  0.51640400  0.75505100  0.93162800  1
  Na  Na3  1  0.98359600  0.75505100  0.43162800  1
  S  S4  1  0.72484500  0.13597400  0.38755800  1
  S  S5  1  0.77515500  0.13597400  0.88755800  1
  S  S6  1  0.27515500  0.86402600  0.61244200  1
  S  S7  1  0.22484500  0.86402600  0.11244200  1
  S  S8  1  0.71948100  0.52125100  0.27018900  1
  S  S9  1  0.78051900  0.52125100  0.77018900  1
  S  S10  1  0.28051900  0.47874900  0.72981100  1
  S  S11  1  0.21948100  0.47874900  0.22981100  1
  N  N12  1  0.79410700  0.33399100  0.35973200  1
  N  N13  1  0.70589300  0.33399100  0.85973200  1
  N  N14  1  0.20589300  0.66600900  0.64026800  1
  N  N15  1  0.29410700  0.66600900  0.14026800  1
  O  O16  1  0.63398200  0.10709300  0.27062600  1
  O  O17  1  0.86601800  0.10709300  0.77062600  1
  O  O18  1  0.36601800  0.89290700  0.72937400  1
  O  O19  1  0.13398200  0.89290700  0.22937400  1
  O  O20  1  0.63790300  0.51657100  0.13772200  1
  O  O21  1  0.86209700  0.51657100  0.63772200  1
  O  O22  1  0.36209700  0.48342900  0.86227800  1
  O  O23  1  0.13790300  0.48342900  0.36227800  1
  O  O24  1  0.83605100  0.00436300  0.44928600  1
  O  O25  1  0.66394900  0.00436300  0.94928600  1
  O  O26  1  0.16394900  0.99563700  0.55071400  1
  O  O27  1  0.33605100  0.99563700  0.05071400  1
  O  O28  1  0.82014700  0.66772500  0.25776900  1
  O  O29  1  0.67985300  0.66772500  0.75776900  1
  O  O30  1  0.17985300  0.33227500  0.74223100  1
  O  O31  1  0.32014700  0.33227500  0.24223100  1
  F  F32  1  0.61867500  0.12377500  0.52667000  1
  F  F33  1  0.88132500  0.12377500  0.02667000  1
  F  F34  1  0.38132500  0.87622500  0.47333000  1
  F  F35  1  0.11867500  0.87622500  0.97333000  1
  F  F36  1  0.59920600  0.55105400  0.38554900  1
  F  F37  1  0.90079400  0.55105400  0.88554900  1
  F  F38  1  0.40079400  0.44894600  0.61445100  1
  F  F39  1  0.09920600  0.44894600  0.11445100  1
