# generated using pymatgen
data_NaZn(BH4)3
_symmetry_space_group_name_H-M   'P 1'
_cell_length_a   8.24129900
_cell_length_b   5.00649000
_cell_length_c   17.45617471
_cell_angle_alpha   90.00000000
_cell_angle_beta   98.90966947
_cell_angle_gamma   90.00000000
_symmetry_Int_Tables_number   1
_chemical_formula_structural   NaZn(BH4)3
_chemical_formula_sum   'Na4 Zn4 B12 H48'
_cell_volume   711.55081830
_cell_formula_units_Z   4
loop_
 _symmetry_equiv_pos_site_id
 _symmetry_equiv_pos_as_xyz
  1  'x, y, z'
loop_
 _atom_site_type_symbol
 _atom_site_label
 _atom_site_symmetry_multiplicity
 _atom_site_fract_x
 _atom_site_fract_y
 _atom_site_fract_z
 _atom_site_occupancy
  Na  Na0  1  0.70096000  0.39188800  0.34368600  1
  Na  Na1  1  0.29904000  0.89188800  0.15631400  1
  Na  Na2  1  0.29904000  0.60811200  0.65631400  1
  Na  Na3  1  0.70096000  0.10811200  0.84368600  1
  Zn  Zn4  1  0.23082500  0.01020000  0.39427500  1
  Zn  Zn5  1  0.76917500  0.51020000  0.10572500  1
  Zn  Zn6  1  0.76917500  0.98980000  0.60572500  1
  Zn  Zn7  1  0.23082500  0.48980000  0.89427500  1
  B  B8  1  0.73313400  0.38193600  0.98330300  1
  B  B9  1  0.26686600  0.88193600  0.51669700  1
  B  B10  1  0.26686600  0.61806400  0.01669700  1
  B  B11  1  0.73313400  0.11806400  0.48330300  1
  B  B12  1  0.40987200  0.70151400  0.82471800  1
  B  B13  1  0.59012800  0.20151400  0.67528200  1
  B  B14  1  0.59012800  0.29848600  0.17528200  1
  B  B15  1  0.40987200  0.79848600  0.32471800  1
  B  B16  1  0.03261400  0.29431400  0.35301500  1
  B  B17  1  0.96738600  0.79431400  0.14698500  1
  B  B18  1  0.96738600  0.70568600  0.64698500  1
  B  B19  1  0.03261400  0.20568600  0.85301500  1
  H  H20  1  0.77956500  0.49568400  0.92921100  1
  H  H21  1  0.22043500  0.99568400  0.57078900  1
  H  H22  1  0.22043500  0.50431600  0.07078900  1
  H  H23  1  0.77956500  0.00431600  0.42921100  1
  H  H24  1  0.63936900  0.54452300  0.00844100  1
  H  H25  1  0.36063100  0.04452300  0.49155900  1
  H  H26  1  0.36063100  0.45547700  0.99155900  1
  H  H27  1  0.63936900  0.95547700  0.50844100  1
  H  H28  1  0.86074900  0.32465900  0.02893500  1
  H  H29  1  0.13925100  0.82465900  0.47106500  1
  H  H30  1  0.13925100  0.67534100  0.97106500  1
  H  H31  1  0.86074900  0.17534100  0.52893500  1
  H  H32  1  0.65704000  0.17508400  0.96963500  1
  H  H33  1  0.34296000  0.67508400  0.53036500  1
  H  H34  1  0.34296000  0.82491600  0.03036500  1
  H  H35  1  0.65704000  0.32491600  0.46963500  1
  H  H36  1  0.49277200  0.65694100  0.77433800  1
  H  H37  1  0.50722800  0.15694100  0.72566200  1
  H  H38  1  0.50722800  0.34305900  0.22566200  1
  H  H39  1  0.49277200  0.84305900  0.27433800  1
  H  H40  1  0.26512000  0.73346800  0.79510300  1
  H  H41  1  0.73488000  0.23346800  0.70489700  1
  H  H42  1  0.73488000  0.26653200  0.20489700  1
  H  H43  1  0.26512000  0.76653200  0.29510300  1
  H  H44  1  0.45656100  0.89028600  0.86589700  1
  H  H45  1  0.54343900  0.39028600  0.63410300  1
  H  H46  1  0.54343900  0.10971400  0.13410300  1
  H  H47  1  0.45656100  0.60971400  0.36589700  1
  H  H48  1  0.43348300  0.49058100  0.86429600  1
  H  H49  1  0.56651700  0.99058100  0.63570400  1
  H  H50  1  0.56651700  0.50941900  0.13570400  1
  H  H51  1  0.43348300  0.00941900  0.36429600  1
  H  H52  1  0.18248500  0.35092300  0.35942900  1
  H  H53  1  0.81751500  0.85092300  0.14057100  1
  H  H54  1  0.81751500  0.64907700  0.64057100  1
  H  H55  1  0.18248500  0.14907700  0.85942900  1
  H  H56  1  0.98101000  0.40104400  0.40671700  1
  H  H57  1  0.01899000  0.90104400  0.09328300  1
  H  H58  1  0.01899000  0.59895600  0.59328300  1
  H  H59  1  0.98101000  0.09895600  0.90671700  1
  H  H60  1  0.00300200  0.04893000  0.35538300  1
  H  H61  1  0.99699800  0.54893000  0.14461700  1
  H  H62  1  0.99699800  0.95107000  0.64461700  1
  H  H63  1  0.00300200  0.45107000  0.85538300  1
  H  H64  1  0.97640500  0.36794100  0.28831700  1
  H  H65  1  0.02359500  0.86794100  0.21168300  1
  H  H66  1  0.02359500  0.63205900  0.71168300  1
  H  H67  1  0.97640500  0.13205900  0.78831700  1
