# generated using pymatgen
data_Na2FeH8(SO6)2
_symmetry_space_group_name_H-M   'P 1'
_cell_length_a   8.27947800
_cell_length_b   5.61473100
_cell_length_c   11.34490355
_cell_angle_alpha   79.60953137
_cell_angle_beta   90.00000000
_cell_angle_gamma   90.00000000
_symmetry_Int_Tables_number   1
_chemical_formula_structural   Na2FeH8(SO6)2
_chemical_formula_sum   'Na4 Fe2 H16 S4 O24'
_cell_volume   518.74257710
_cell_formula_units_Z   2
loop_
 _symmetry_equiv_pos_site_id
 _symmetry_equiv_pos_as_xyz
  1  'x, y, z'
loop_
 _atom_site_type_symbol
 _atom_site_label
 _atom_site_symmetry_multiplicity
 _atom_site_fract_x
 _atom_site_fract_y
 _atom_site_fract_z
 _atom_site_occupancy
  Na  Na0  1  0.06978600  0.36929000  0.36248600  1
  Na  Na1  1  0.56978600  0.63071000  0.13751400  1
  Na  Na2  1  0.93021400  0.63071000  0.63751400  1
  Na  Na3  1  0.43021400  0.36929000  0.86248600  1
  Fe  Fe4  1  0.00000000  0.50000000  0.00000000  1
  Fe  Fe5  1  0.50000000  0.50000000  0.50000000  1
  H  H6  1  0.13997000  0.72602600  0.15872700  1
  H  H7  1  0.63997000  0.27397400  0.34127300  1
  H  H8  1  0.86003000  0.27397400  0.84127300  1
  H  H9  1  0.36003000  0.72602600  0.65872700  1
  H  H10  1  0.94843100  0.72907000  0.18649600  1
  H  H11  1  0.44843100  0.27093000  0.31350400  1
  H  H12  1  0.05156900  0.27093000  0.81350400  1
  H  H13  1  0.55156900  0.72907000  0.68649600  1
  H  H14  1  0.20082300  0.82147400  0.85149700  1
  H  H15  1  0.70082300  0.17852600  0.64850300  1
  H  H16  1  0.79917700  0.17852600  0.14850300  1
  H  H17  1  0.29917700  0.82147400  0.35149700  1
  H  H18  1  0.28481800  0.73664900  0.97392100  1
  H  H19  1  0.78481800  0.26335100  0.52607900  1
  H  H20  1  0.71518200  0.26335100  0.02607900  1
  H  H21  1  0.21518200  0.73664900  0.47392100  1
  S  S22  1  0.28756700  0.12691400  0.13461400  1
  S  S23  1  0.78756700  0.87308600  0.36538600  1
  S  S24  1  0.71243300  0.87308600  0.86538600  1
  S  S25  1  0.21243300  0.12691400  0.63461400  1
  O  O26  1  0.12927700  0.18743000  0.07304500  1
  O  O27  1  0.62927700  0.81257000  0.42695500  1
  O  O28  1  0.87072300  0.81257000  0.92695500  1
  O  O29  1  0.37072300  0.18743000  0.57304500  1
  O  O30  1  0.41642400  0.28763000  0.07647400  1
  O  O31  1  0.91642400  0.71237000  0.42352600  1
  O  O32  1  0.58357600  0.71237000  0.92352600  1
  O  O33  1  0.08357600  0.28763000  0.57647400  1
  O  O34  1  0.32333200  0.86639700  0.12849300  1
  O  O35  1  0.82333200  0.13360300  0.37150700  1
  O  O36  1  0.67666800  0.13360300  0.87150700  1
  O  O37  1  0.17666800  0.86639700  0.62849300  1
  O  O38  1  0.27404800  0.14585700  0.26506100  1
  O  O39  1  0.77404800  0.85414300  0.23493900  1
  O  O40  1  0.72595200  0.85414300  0.73493900  1
  O  O41  1  0.22595200  0.14585700  0.76506100  1
  O  O42  1  0.03917900  0.62682400  0.16647900  1
  O  O43  1  0.53917900  0.37317600  0.33352100  1
  O  O44  1  0.96082100  0.37317600  0.83352100  1
  O  O45  1  0.46082100  0.62682400  0.66647900  1
  O  O46  1  0.22071800  0.67470600  0.91298200  1
  O  O47  1  0.72071800  0.32529400  0.58701800  1
  O  O48  1  0.77928200  0.32529400  0.08701800  1
  O  O49  1  0.27928200  0.67470600  0.41298200  1
