# generated using pymatgen
data_Pr(Ga5Mo)8
_symmetry_space_group_name_H-M   'P 1'
_cell_length_a   9.64005233
_cell_length_b   9.64005233
_cell_length_c   9.64005211
_cell_angle_alpha   94.27405196
_cell_angle_beta   94.27405196
_cell_angle_gamma   94.27405107
_symmetry_Int_Tables_number   1
_chemical_formula_structural   Pr(Ga5Mo)8
_chemical_formula_sum   'Pr1 Ga40 Mo8'
_cell_volume   887.98675067
_cell_formula_units_Z   1
loop_
 _symmetry_equiv_pos_site_id
 _symmetry_equiv_pos_as_xyz
  1  'x, y, z'
loop_
 _atom_site_type_symbol
 _atom_site_label
 _atom_site_symmetry_multiplicity
 _atom_site_fract_x
 _atom_site_fract_y
 _atom_site_fract_z
 _atom_site_occupancy
  Pr  Pr0  1  0.00000000  0.00000000  0.00000000  1
  Ga  Ga1  1  0.50000000  0.50000000  0.50000000  1
  Ga  Ga2  1  0.00000000  0.50000000  0.50000000  1
  Ga  Ga3  1  0.50000000  0.00000000  0.50000000  1
  Ga  Ga4  1  0.50000000  0.50000000  0.00000000  1
  Ga  Ga5  1  0.26931800  0.63932100  0.61140900  1
  Ga  Ga6  1  0.61140900  0.26931800  0.63932100  1
  Ga  Ga7  1  0.63932100  0.61140900  0.26931800  1
  Ga  Ga8  1  0.73068200  0.36067900  0.38859100  1
  Ga  Ga9  1  0.38859100  0.73068200  0.36067900  1
  Ga  Ga10  1  0.36067900  0.38859100  0.73068200  1
  Ga  Ga11  1  0.67376600  0.77604100  0.53089500  1
  Ga  Ga12  1  0.53089500  0.67376600  0.77604100  1
  Ga  Ga13  1  0.77604100  0.53089500  0.67376600  1
  Ga  Ga14  1  0.32623400  0.22395900  0.46910500  1
  Ga  Ga15  1  0.46910500  0.32623400  0.22395900  1
  Ga  Ga16  1  0.22395900  0.46910500  0.32623400  1
  Ga  Ga17  1  0.77917900  0.07225800  0.44263800  1
  Ga  Ga18  1  0.44263800  0.77917900  0.07225800  1
  Ga  Ga19  1  0.07225800  0.44263800  0.77917900  1
  Ga  Ga20  1  0.22082100  0.92774200  0.55736200  1
  Ga  Ga21  1  0.55736200  0.22082100  0.92774200  1
  Ga  Ga22  1  0.92774200  0.55736200  0.22082100  1
  Ga  Ga23  1  0.96507700  0.78590300  0.59539700  1
  Ga  Ga24  1  0.59539700  0.96507700  0.78590300  1
  Ga  Ga25  1  0.78590300  0.59539700  0.96507700  1
  Ga  Ga26  1  0.03492300  0.21409700  0.40460300  1
  Ga  Ga27  1  0.40460300  0.03492300  0.21409700  1
  Ga  Ga28  1  0.21409700  0.40460300  0.03492300  1
  Ga  Ga29  1  0.03986300  0.70972300  0.85824100  1
  Ga  Ga30  1  0.85824100  0.03986300  0.70972300  1
  Ga  Ga31  1  0.70972300  0.85824100  0.03986300  1
  Ga  Ga32  1  0.96013700  0.29027700  0.14175900  1
  Ga  Ga33  1  0.14175900  0.96013700  0.29027700  1
  Ga  Ga34  1  0.29027700  0.14175900  0.96013700  1
  Ga  Ga35  1  0.12075200  0.17057200  0.69108300  1
  Ga  Ga36  1  0.69108300  0.12075200  0.17057200  1
  Ga  Ga37  1  0.17057200  0.69108300  0.12075200  1
  Ga  Ga38  1  0.87924800  0.82942800  0.30891700  1
  Ga  Ga39  1  0.30891700  0.87924800  0.82942800  1
  Ga  Ga40  1  0.82942800  0.30891700  0.87924800  1
  Mo  Mo41  1  0.78818100  0.78818100  0.78818100  1
  Mo  Mo42  1  0.21181900  0.21181900  0.21181900  1
  Mo  Mo43  1  0.29009200  0.61047800  0.88614400  1
  Mo  Mo44  1  0.88614400  0.29009200  0.61047800  1
  Mo  Mo45  1  0.61047800  0.88614400  0.29009200  1
  Mo  Mo46  1  0.70990800  0.38952200  0.11385600  1
  Mo  Mo47  1  0.11385600  0.70990800  0.38952200  1
  Mo  Mo48  1  0.38952200  0.11385600  0.70990800  1
