# generated using pymatgen
data_NaB6S4(Br3O4)2
_symmetry_space_group_name_H-M   'P 1'
_cell_length_a   21.72555600
_cell_length_b   10.15172900
_cell_length_c   10.33113655
_cell_angle_alpha   76.41843671
_cell_angle_beta   90.00000000
_cell_angle_gamma   90.00000000
_symmetry_Int_Tables_number   1
_chemical_formula_structural   NaB6S4(Br3O4)2
_chemical_formula_sum   'Na4 B24 S16 Br24 O32'
_cell_volume   2214.83634518
_cell_formula_units_Z   4
loop_
 _symmetry_equiv_pos_site_id
 _symmetry_equiv_pos_as_xyz
  1  'x, y, z'
loop_
 _atom_site_type_symbol
 _atom_site_label
 _atom_site_symmetry_multiplicity
 _atom_site_fract_x
 _atom_site_fract_y
 _atom_site_fract_z
 _atom_site_occupancy
  Na  Na0  1  0.34429100  0.85109700  0.62470100  1
  Na  Na1  1  0.84429100  0.14890300  0.87529900  1
  Na  Na2  1  0.65570900  0.14890300  0.37529900  1
  Na  Na3  1  0.15570900  0.85109700  0.12470100  1
  B  B4  1  0.52460300  0.46681300  0.85426500  1
  B  B5  1  0.02460300  0.53318700  0.64573500  1
  B  B6  1  0.47539700  0.53318700  0.14573500  1
  B  B7  1  0.97539700  0.46681300  0.35426500  1
  B  B8  1  0.47726000  0.34944000  0.96914000  1
  B  B9  1  0.97726000  0.65056000  0.53086000  1
  B  B10  1  0.52274000  0.65056000  0.03086000  1
  B  B11  1  0.02274000  0.34944000  0.46914000  1
  B  B12  1  0.55515700  0.37944900  0.01130100  1
  B  B13  1  0.05515700  0.62055100  0.48869900  1
  B  B14  1  0.44484300  0.62055100  0.98869900  1
  B  B15  1  0.94484300  0.37944900  0.51130100  1
  B  B16  1  0.57218200  0.55531000  0.94756200  1
  B  B17  1  0.07218200  0.44469000  0.55243800  1
  B  B18  1  0.42781800  0.44469000  0.05243800  1
  B  B19  1  0.92781800  0.55531000  0.44756200  1
  B  B20  1  0.50436100  0.63389200  0.86685800  1
  B  B21  1  0.00436100  0.36610800  0.63314200  1
  B  B22  1  0.49563900  0.36610800  0.13314200  1
  B  B23  1  0.99563900  0.63389200  0.36685800  1
  B  B24  1  0.44602800  0.50717700  0.87999200  1
  B  B25  1  0.94602800  0.49282300  0.62000800  1
  B  B26  1  0.55397200  0.49282300  0.12000800  1
  B  B27  1  0.05397200  0.50717700  0.37999200  1
  S  S28  1  0.23112500  0.10244200  0.41165000  1
  S  S29  1  0.73112500  0.89755800  0.08835000  1
  S  S30  1  0.76887500  0.89755800  0.58835000  1
  S  S31  1  0.26887500  0.10244200  0.91165000  1
  S  S32  1  0.39706000  0.22680600  0.56869100  1
  S  S33  1  0.89706000  0.77319400  0.93130900  1
  S  S34  1  0.60294000  0.77319400  0.43130900  1
  S  S35  1  0.10294000  0.22680600  0.06869100  1
  S  S36  1  0.40332600  0.93474400  0.26969500  1
  S  S37  1  0.90332600  0.06525600  0.23030500  1
  S  S38  1  0.59667400  0.06525600  0.73030500  1
  S  S39  1  0.09667400  0.93474400  0.76969500  1
  S  S40  1  0.22755100  0.62058700  0.85984100  1
  S  S41  1  0.72755100  0.37941300  0.64015900  1
  S  S42  1  0.77244900  0.37941300  0.14015900  1
  S  S43  1  0.27244900  0.62058700  0.35984100  1
  Br  Br44  1  0.55201600  0.42953200  0.68548400  1
  Br  Br45  1  0.05201600  0.57046800  0.81451600  1
  Br  Br46  1  0.44798400  0.57046800  0.31451600  1
  Br  Br47  1  0.94798400  0.42953200  0.18548400  1
  Br  Br48  1  0.45191900  0.17649700  0.93266600  1
  Br  Br49  1  0.95191900  0.82350300  0.56733400  1
  Br  Br50  1  0.54808100  0.82350300  0.06733400  1
  Br  Br51  1  0.04808100  0.17649700  0.43266600  1
  Br  Br52  1  0.61895100  0.23946800  0.02678600  1
  Br  Br53  1  0.11895100  0.76053200  0.47321400  1
  Br  Br54  1  0.38104900  0.76053200  0.97321400  1
  Br  Br55  1  0.88104900  0.23946800  0.52678600  1
  Br  Br56  1  0.65549300  0.61656400  0.88871500  1
  Br  Br57  1  0.15549300  0.38343600  0.61128500  1
  Br  Br58  1  0.34450700  0.38343600  0.11128500  1
  Br  Br59  1  0.84450700  0.61656400  0.38871500  1
  Br  Br60  1  0.50583600  0.78875300  0.71075900  1
  Br  Br61  1  0.00583600  0.21124700  0.78924100  1
  Br  Br62  1  0.49416400  0.21124700  0.28924100  1
  Br  Br63  1  0.99416400  0.78875300  0.21075900  1
  Br  Br64  1  0.38414400  0.51771100  0.73927200  1
  Br  Br65  1  0.88414400  0.48228900  0.76072800  1
  Br  Br66  1  0.61585600  0.48228900  0.26072800  1
  Br  Br67  1  0.11585600  0.51771100  0.23927200  1
  O  O68  1  0.20012300  0.07342100  0.29725800  1
  O  O69  1  0.70012300  0.92657900  0.20274200  1
  O  O70  1  0.79987700  0.92657900  0.70274200  1
  O  O71  1  0.29987700  0.07342100  0.79725800  1
  O  O72  1  0.26453600  0.99174700  0.49728000  1
  O  O73  1  0.76453600  0.00825300  0.00272000  1
  O  O74  1  0.73546400  0.00825300  0.50272000  1
  O  O75  1  0.23546400  0.99174700  0.99728000  1
  O  O76  1  0.40190100  0.07977900  0.60223200  1
  O  O77  1  0.90190100  0.92022100  0.89776800  1
  O  O78  1  0.59809900  0.92022100  0.39776800  1
  O  O79  1  0.09809900  0.07977900  0.10223200  1
  O  O80  1  0.33949500  0.28451400  0.51000700  1
  O  O81  1  0.83949500  0.71548600  0.98999300  1
  O  O82  1  0.66050500  0.71548600  0.48999300  1
  O  O83  1  0.16050500  0.28451400  0.01000700  1
  O  O84  1  0.40582900  0.88522300  0.41397600  1
  O  O85  1  0.90582900  0.11477700  0.08602400  1
  O  O86  1  0.59417100  0.11477700  0.58602400  1
  O  O87  1  0.09417100  0.88522300  0.91397600  1
  O  O88  1  0.34597500  0.99707900  0.21487100  1
  O  O89  1  0.84597500  0.00292100  0.28512900  1
  O  O90  1  0.65402500  0.00292100  0.78512900  1
  O  O91  1  0.15402500  0.99707900  0.71487100  1
  O  O92  1  0.25051300  0.72642000  0.75030800  1
  O  O93  1  0.75051300  0.27358000  0.74969200  1
  O  O94  1  0.74948700  0.27358000  0.24969200  1
  O  O95  1  0.24948700  0.72642000  0.25030800  1
  O  O96  1  0.20101300  0.66352400  0.97204600  1
  O  O97  1  0.70101300  0.33647600  0.52795400  1
  O  O98  1  0.79898700  0.33647600  0.02795400  1
  O  O99  1  0.29898700  0.66352400  0.47204600  1
