# generated using pymatgen
data_KB3O5
_symmetry_space_group_name_H-M   'P 1'
_cell_length_a   6.56611967
_cell_length_b   6.56611967
_cell_length_c   9.19094519
_cell_angle_alpha   79.59477440
_cell_angle_beta   79.59477440
_cell_angle_gamma   84.74175403
_symmetry_Int_Tables_number   1
_chemical_formula_structural   KB3O5
_chemical_formula_sum   'K4 B12 O20'
_cell_volume   382.61777174
_cell_formula_units_Z   4
loop_
 _symmetry_equiv_pos_site_id
 _symmetry_equiv_pos_as_xyz
  1  'x, y, z'
loop_
 _atom_site_type_symbol
 _atom_site_label
 _atom_site_symmetry_multiplicity
 _atom_site_fract_x
 _atom_site_fract_y
 _atom_site_fract_z
 _atom_site_occupancy
  K  K0  1  0.25987800  0.58379400  0.94129300  1
  K  K1  1  0.41620600  0.74012200  0.55870700  1
  K  K2  1  0.74012200  0.41620600  0.05870700  1
  K  K3  1  0.58379400  0.25987800  0.44129300  1
  B  B4  1  0.79347900  0.79049800  0.73965600  1
  B  B5  1  0.20950200  0.20652100  0.76034400  1
  B  B6  1  0.20652100  0.20950200  0.26034400  1
  B  B7  1  0.79049800  0.79347900  0.23965600  1
  B  B8  1  0.91599200  0.43132300  0.68210200  1
  B  B9  1  0.56867700  0.08400800  0.81789800  1
  B  B10  1  0.08400800  0.56867700  0.31789800  1
  B  B11  1  0.43132300  0.91599200  0.18210200  1
  B  B12  1  0.03452700  0.11812000  0.56416800  1
  B  B13  1  0.88188000  0.96547300  0.93583200  1
  B  B14  1  0.96547300  0.88188000  0.43583200  1
  B  B15  1  0.11812000  0.03452700  0.06416800  1
  O  O16  1  0.93227500  0.90490600  0.60075200  1
  O  O17  1  0.09509400  0.06772500  0.89924800  1
  O  O18  1  0.06772500  0.09509400  0.39924800  1
  O  O19  1  0.90490600  0.93227500  0.10075200  1
  O  O20  1  0.88647800  0.78165500  0.87304600  1
  O  O21  1  0.21834500  0.11352200  0.62695400  1
  O  O22  1  0.11352200  0.21834500  0.12695400  1
  O  O23  1  0.78165500  0.88647800  0.37304600  1
  O  O24  1  0.09289600  0.41184300  0.74656600  1
  O  O25  1  0.58815700  0.90710400  0.75343400  1
  O  O26  1  0.90710400  0.58815700  0.25343400  1
  O  O27  1  0.41184300  0.09289600  0.24656600  1
  O  O28  1  0.76411200  0.58764000  0.70504200  1
  O  O29  1  0.41236000  0.23588800  0.79495800  1
  O  O30  1  0.23588800  0.41236000  0.29495800  1
  O  O31  1  0.58764000  0.76411200  0.20504200  1
  O  O32  1  0.88486100  0.28919500  0.59459000  1
  O  O33  1  0.71080500  0.11513900  0.90541000  1
  O  O34  1  0.11513900  0.71080500  0.40541000  1
  O  O35  1  0.28919500  0.88486100  0.09459000  1
