# generated using pymatgen
data_YB3H18C2S
_symmetry_space_group_name_H-M   'P 1'
_cell_length_a   5.52763400
_cell_length_b   22.54731600
_cell_length_c   8.27757552
_cell_angle_alpha   90.00000000
_cell_angle_beta   100.71660081
_cell_angle_gamma   90.00000000
_symmetry_Int_Tables_number   1
_chemical_formula_structural   YB3H18C2S
_chemical_formula_sum   'Y4 B12 H72 C8 S4'
_cell_volume   1013.66838901
_cell_formula_units_Z   4
loop_
 _symmetry_equiv_pos_site_id
 _symmetry_equiv_pos_as_xyz
  1  'x, y, z'
loop_
 _atom_site_type_symbol
 _atom_site_label
 _atom_site_symmetry_multiplicity
 _atom_site_fract_x
 _atom_site_fract_y
 _atom_site_fract_z
 _atom_site_occupancy
  Y  Y0  1  0.67645000  0.66629800  0.11810900  1
  Y  Y1  1  0.32355000  0.16629800  0.38189100  1
  Y  Y2  1  0.32355000  0.33370200  0.88189100  1
  Y  Y3  1  0.67645000  0.83370200  0.61810900  1
  B  B4  1  0.16335700  0.83306900  0.56814700  1
  B  B5  1  0.83664300  0.33306900  0.93185300  1
  B  B6  1  0.83664300  0.16693100  0.43185300  1
  B  B7  1  0.16335700  0.66693100  0.06814700  1
  B  B8  1  0.80433200  0.91837600  0.80621400  1
  B  B9  1  0.19566800  0.41837600  0.69378600  1
  B  B10  1  0.19566800  0.08162400  0.19378600  1
  B  B11  1  0.80433200  0.58162400  0.30621400  1
  B  B12  1  0.32022300  0.24495400  0.12277400  1
  B  B13  1  0.67977700  0.74495400  0.37722600  1
  B  B14  1  0.67977700  0.75504600  0.87722600  1
  B  B15  1  0.32022300  0.25504600  0.62277400  1
  H  H16  1  0.27278800  0.80409400  0.47790100  1
  H  H17  1  0.72721200  0.30409400  0.02209900  1
  H  H18  1  0.72721200  0.19590600  0.52209900  1
  H  H19  1  0.27278800  0.69590600  0.97790100  1
  H  H20  1  0.29754800  0.86748300  0.65914400  1
  H  H21  1  0.70245200  0.36748300  0.84085600  1
  H  H22  1  0.70245200  0.13251700  0.34085600  1
  H  H23  1  0.29754800  0.63251700  0.15914400  1
  H  H24  1  0.07708800  0.79734900  0.65431000  1
  H  H25  1  0.92291200  0.29734900  0.84569000  1
  H  H26  1  0.92291200  0.20265100  0.34569000  1
  H  H27  1  0.07708800  0.70265100  0.15431000  1
  H  H28  1  0.00293100  0.86302000  0.48119300  1
  H  H29  1  0.99706900  0.36302000  0.01880700  1
  H  H30  1  0.99706900  0.13698000  0.51880700  1
  H  H31  1  0.00293100  0.63698000  0.98119300  1
  H  H32  1  0.88960700  0.96171000  0.88071400  1
  H  H33  1  0.11039300  0.46171000  0.61928600  1
  H  H34  1  0.11039300  0.03829000  0.11928600  1
  H  H35  1  0.88960700  0.53829000  0.38071400  1
  H  H36  1  0.96316700  0.87958900  0.80574900  1
  H  H37  1  0.03683300  0.37958900  0.69425100  1
  H  H38  1  0.03683300  0.12041100  0.19425100  1
  H  H39  1  0.96316700  0.62041100  0.30574900  1
  H  H40  1  0.72419000  0.93121200  0.65956300  1
  H  H41  1  0.27581000  0.43121200  0.84043700  1
  H  H42  1  0.27581000  0.06878800  0.34043700  1
  H  H43  1  0.72419000  0.56878800  0.15956300  1
  H  H44  1  0.63178600  0.89499100  0.85801800  1
  H  H45  1  0.36821400  0.39499100  0.64198200  1
  H  H46  1  0.36821400  0.10500900  0.14198200  1
  H  H47  1  0.63178600  0.60500900  0.35801800  1
  H  H48  1  0.13577300  0.23365400  0.18033000  1
  H  H49  1  0.86422700  0.73365400  0.31967000  1
  H  H50  1  0.86422700  0.76634600  0.81967000  1
  H  H51  1  0.13577300  0.26634600  0.68033000  1
  H  H52  1  0.36969100  0.29754200  0.15090600  1
  H  H53  1  0.63030900  0.79754200  0.34909400  1
  H  H54  1  0.63030900  0.70245800  0.84909400  1
  H  H55  1  0.36969100  0.20245800  0.65090600  1
  H  H56  1  0.27393400  0.23329800  0.97518600  1
  H  H57  1  0.72606600  0.73329800  0.52481400  1
  H  H58  1  0.72606600  0.76670200  0.02481400  1
  H  H59  1  0.27393400  0.26670200  0.47518600  1
  H  H60  1  0.50190300  0.21577600  0.18531800  1
  H  H61  1  0.49809700  0.71577600  0.31468200  1
  H  H62  1  0.49809700  0.78422400  0.81468200  1
  H  H63  1  0.50190300  0.28422400  0.68531800  1
  H  H64  1  0.82221000  0.98627700  0.41922200  1
  H  H65  1  0.17779000  0.48627700  0.08077800  1
  H  H66  1  0.17779000  0.01372300  0.58077800  1
  H  H67  1  0.82221000  0.51372300  0.91922200  1
  H  H68  1  0.86432000  0.93692500  0.25669900  1
  H  H69  1  0.13568000  0.43692500  0.24330100  1
  H  H70  1  0.13568000  0.06307500  0.74330100  1
  H  H71  1  0.86432000  0.56307500  0.75669900  1
  H  H72  1  0.65353300  0.99831700  0.21610600  1
  H  H73  1  0.34646700  0.49831700  0.28389400  1
  H  H74  1  0.34646700  0.00168300  0.78389400  1
  H  H75  1  0.65353300  0.50168300  0.71610600  1
  H  H76  1  0.21712400  0.85638100  0.18130600  1
  H  H77  1  0.78287600  0.35638100  0.31869400  1
  H  H78  1  0.78287600  0.14361900  0.81869400  1
  H  H79  1  0.21712400  0.64361900  0.68130600  1
  H  H80  1  0.28557500  0.92170700  0.07526900  1
  H  H81  1  0.71442500  0.42170700  0.42473100  1
  H  H82  1  0.71442500  0.07829300  0.92473100  1
  H  H83  1  0.28557500  0.57829300  0.57526900  1
  H  H84  1  0.50697300  0.86231800  0.11523700  1
  H  H85  1  0.49302700  0.36231800  0.38476300  1
  H  H86  1  0.49302700  0.13768200  0.88476300  1
  H  H87  1  0.50697300  0.63768200  0.61523700  1
  C  C88  1  0.73139800  0.96444600  0.30593900  1
  C  C89  1  0.26860200  0.46444600  0.19406100  1
  C  C90  1  0.26860200  0.03555400  0.69406100  1
  C  C91  1  0.73139800  0.53555400  0.80593900  1
  C  C92  1  0.36348300  0.88693300  0.16233200  1
  C  C93  1  0.63651700  0.38693300  0.33766800  1
  C  C94  1  0.63651700  0.11306700  0.83766800  1
  C  C95  1  0.36348300  0.61306700  0.66233200  1
  S  S96  1  0.48476500  0.92041100  0.35876500  1
  S  S97  1  0.51523500  0.42041100  0.14123500  1
  S  S98  1  0.51523500  0.07958900  0.64123500  1
  S  S99  1  0.48476500  0.57958900  0.85876500  1
