# generated using pymatgen
data_Mg3Sb2
_symmetry_space_group_name_H-M   'P 1'
_cell_length_a   11.62729171
_cell_length_b   11.62729171
_cell_length_c   11.62729171
_cell_angle_alpha   109.47122063
_cell_angle_beta   109.47122063
_cell_angle_gamma   109.47122063
_symmetry_Int_Tables_number   1
_chemical_formula_structural   Mg3Sb2
_chemical_formula_sum   'Mg24 Sb16'
_cell_volume   1210.07925187
_cell_formula_units_Z   8
loop_
 _symmetry_equiv_pos_site_id
 _symmetry_equiv_pos_as_xyz
  1  'x, y, z'
loop_
 _atom_site_type_symbol
 _atom_site_label
 _atom_site_symmetry_multiplicity
 _atom_site_fract_x
 _atom_site_fract_y
 _atom_site_fract_z
 _atom_site_occupancy
  Mg  Mg0  1  0.49508900  0.24052400  0.48212900  1
  Mg  Mg1  1  0.24160500  0.25947600  0.75456500  1
  Mg  Mg2  1  0.00491100  0.48704000  0.74543500  1
  Mg  Mg3  1  0.25839500  0.01296000  0.01787100  1
  Mg  Mg4  1  0.24052400  0.48212900  0.49508900  1
  Mg  Mg5  1  0.25947600  0.75456500  0.24160500  1
  Mg  Mg6  1  0.48704000  0.74543500  0.00491100  1
  Mg  Mg7  1  0.01296000  0.01787100  0.25839500  1
  Mg  Mg8  1  0.48212900  0.49508900  0.24052400  1
  Mg  Mg9  1  0.75456500  0.24160500  0.25947600  1
  Mg  Mg10  1  0.74543500  0.00491100  0.48704000  1
  Mg  Mg11  1  0.01787100  0.25839500  0.01296000  1
  Mg  Mg12  1  0.50491100  0.75947600  0.51787100  1
  Mg  Mg13  1  0.75839500  0.74052400  0.24543500  1
  Mg  Mg14  1  0.99508900  0.51296000  0.25456500  1
  Mg  Mg15  1  0.74160500  0.98704000  0.98212900  1
  Mg  Mg16  1  0.75947600  0.51787100  0.50491100  1
  Mg  Mg17  1  0.74052400  0.24543500  0.75839500  1
  Mg  Mg18  1  0.51296000  0.25456500  0.99508900  1
  Mg  Mg19  1  0.98704000  0.98212900  0.74160500  1
  Mg  Mg20  1  0.51787100  0.50491100  0.75947600  1
  Mg  Mg21  1  0.24543500  0.75839500  0.74052400  1
  Mg  Mg22  1  0.25456500  0.99508900  0.51296000  1
  Mg  Mg23  1  0.98212900  0.74160500  0.98704000  1
  Sb  Sb24  1  0.50000000  0.00000000  0.50000000  1
  Sb  Sb25  1  0.50000000  0.50000000  0.00000000  1
  Sb  Sb26  1  0.00000000  0.50000000  0.50000000  1
  Sb  Sb27  1  0.00000000  0.00000000  0.00000000  1
  Sb  Sb28  1  0.76254800  0.25000000  0.01254800  1
  Sb  Sb29  1  0.73745200  0.75000000  0.48745200  1
  Sb  Sb30  1  0.25000000  0.01254800  0.76254800  1
  Sb  Sb31  1  0.75000000  0.48745200  0.73745200  1
  Sb  Sb32  1  0.01254800  0.76254800  0.25000000  1
  Sb  Sb33  1  0.48745200  0.73745200  0.75000000  1
  Sb  Sb34  1  0.23745200  0.75000000  0.98745200  1
  Sb  Sb35  1  0.26254800  0.25000000  0.51254800  1
  Sb  Sb36  1  0.75000000  0.98745200  0.23745200  1
  Sb  Sb37  1  0.25000000  0.51254800  0.26254800  1
  Sb  Sb38  1  0.98745200  0.23745200  0.75000000  1
  Sb  Sb39  1  0.51254800  0.26254800  0.25000000  1
