# generated using pymatgen
data_Y2Ni17
_symmetry_space_group_name_H-M   'P 1'
_cell_length_a   8.25236635
_cell_length_b   8.25236635
_cell_length_c   8.01611800
_cell_angle_alpha   90.00000000
_cell_angle_beta   90.00000000
_cell_angle_gamma   120.00000280
_symmetry_Int_Tables_number   1
_chemical_formula_structural   Y2Ni17
_chemical_formula_sum   'Y4 Ni34'
_cell_volume   472.77196996
_cell_formula_units_Z   2
loop_
 _symmetry_equiv_pos_site_id
 _symmetry_equiv_pos_as_xyz
  1  'x, y, z'
loop_
 _atom_site_type_symbol
 _atom_site_label
 _atom_site_symmetry_multiplicity
 _atom_site_fract_x
 _atom_site_fract_y
 _atom_site_fract_z
 _atom_site_occupancy
  Y  Y0  1  0.00000000  0.00000000  0.25000000  1
  Y  Y1  1  0.00000000  0.00000000  0.75000000  1
  Y  Y2  1  0.33333300  0.66666700  0.75000000  1
  Y  Y3  1  0.66666700  0.33333300  0.25000000  1
  Ni  Ni4  1  0.33333300  0.66666700  0.39715900  1
  Ni  Ni5  1  0.66666700  0.33333300  0.60284100  1
  Ni  Ni6  1  0.66666700  0.33333300  0.89715900  1
  Ni  Ni7  1  0.33333300  0.66666700  0.10284100  1
  Ni  Ni8  1  0.50000000  0.50000000  0.50000000  1
  Ni  Ni9  1  0.50000000  0.00000000  0.50000000  1
  Ni  Ni10  1  0.00000000  0.50000000  0.50000000  1
  Ni  Ni11  1  0.50000000  0.50000000  0.00000000  1
  Ni  Ni12  1  0.50000000  0.00000000  0.00000000  1
  Ni  Ni13  1  0.00000000  0.50000000  0.00000000  1
  Ni  Ni14  1  0.32771500  0.37167100  0.25000000  1
  Ni  Ni15  1  0.62832900  0.95604400  0.25000000  1
  Ni  Ni16  1  0.04395600  0.67228500  0.25000000  1
  Ni  Ni17  1  0.62832900  0.67228500  0.25000000  1
  Ni  Ni18  1  0.04395600  0.37167100  0.25000000  1
  Ni  Ni19  1  0.32771500  0.95604400  0.25000000  1
  Ni  Ni20  1  0.67228500  0.62832900  0.75000000  1
  Ni  Ni21  1  0.37167100  0.04395600  0.75000000  1
  Ni  Ni22  1  0.95604400  0.32771500  0.75000000  1
  Ni  Ni23  1  0.37167100  0.32771500  0.75000000  1
  Ni  Ni24  1  0.95604400  0.62832900  0.75000000  1
  Ni  Ni25  1  0.67228500  0.04395600  0.75000000  1
  Ni  Ni26  1  0.16518700  0.83481300  0.52181600  1
  Ni  Ni27  1  0.16518700  0.33037400  0.52181600  1
  Ni  Ni28  1  0.66962600  0.83481300  0.52181600  1
  Ni  Ni29  1  0.83481300  0.16518700  0.47818400  1
  Ni  Ni30  1  0.83481300  0.66962600  0.47818400  1
  Ni  Ni31  1  0.33037400  0.16518700  0.47818400  1
  Ni  Ni32  1  0.83481300  0.16518700  0.02181600  1
  Ni  Ni33  1  0.83481300  0.66962600  0.02181600  1
  Ni  Ni34  1  0.33037400  0.16518700  0.02181600  1
  Ni  Ni35  1  0.16518700  0.83481300  0.97818400  1
  Ni  Ni36  1  0.16518700  0.33037400  0.97818400  1
  Ni  Ni37  1  0.66962600  0.83481300  0.97818400  1
