# generated using pymatgen
data_C9Cl
_symmetry_space_group_name_H-M   'P 1'
_cell_length_a   11.55583869
_cell_length_b   14.87336865
_cell_length_c   20.70620414
_cell_angle_alpha   71.36346869
_cell_angle_beta   73.93210120
_cell_angle_gamma   69.83238998
_symmetry_Int_Tables_number   1
_chemical_formula_structural   C9Cl
_chemical_formula_sum   'C216 Cl24'
_cell_volume   3109.47126799
_cell_formula_units_Z   24
loop_
 _symmetry_equiv_pos_site_id
 _symmetry_equiv_pos_as_xyz
  1  'x, y, z'
loop_
 _atom_site_type_symbol
 _atom_site_label
 _atom_site_symmetry_multiplicity
 _atom_site_fract_x
 _atom_site_fract_y
 _atom_site_fract_z
 _atom_site_occupancy
  C  C0  1  0.58216851  0.82424581  0.21717784  1
  C  C1  1  0.41783149  0.17575419  0.78282216  1
  C  C2  1  0.60727624  0.73389442  0.27056458  1
  C  C3  1  0.39272376  0.26610558  0.72943542  1
  C  C4  1  0.55215665  0.73398625  0.34199011  1
  C  C5  1  0.44784335  0.26601375  0.65800989  1
  C  C6  1  0.49557591  0.82629448  0.35893579  1
  C  C7  1  0.50442409  0.17370552  0.64106421  1
  C  C8  1  0.47232492  0.91625401  0.30612123  1
  C  C9  1  0.52767508  0.08374599  0.69387877  1
  C  C10  1  0.50343107  0.91482942  0.23538617  1
  C  C11  1  0.49656893  0.08517058  0.76461383  1
  C  C12  1  0.42181754  0.98737490  0.19020292  1
  C  C13  1  0.57818246  0.01262510  0.80979708  1
  C  C14  1  0.41804745  0.97086566  0.12630755  1
  C  C15  1  0.58195255  0.02913434  0.87369245  1
  C  C16  1  0.51601674  0.89198370  0.10201731  1
  C  C17  1  0.48398326  0.10801630  0.89798269  1
  C  C18  1  0.59927098  0.82011864  0.14647832  1
  C  C19  1  0.40072902  0.17988136  0.85352168  1
  C  C20  1  0.66465776  0.72856145  0.12935825  1
  C  C21  1  0.33534224  0.27143855  0.87064175  1
  C  C22  1  0.69154221  0.63912152  0.18212477  1
  C  C23  1  0.30845779  0.36087848  0.81787523  1
  C  C24  1  0.65125906  0.64000015  0.25297743  1
  C  C25  1  0.34874094  0.35999985  0.74702257  1
  C  C26  1  0.61361908  0.55595700  0.30026000  1
  C  C27  1  0.38638092  0.44404300  0.69974000  1
  C  C28  1  0.53248985  0.56381809  0.36582059  1
  C  C29  1  0.46751015  0.43618191  0.63417941  1
  C  C30  1  0.51328176  0.65004852  0.38877441  1
  C  C31  1  0.48671824  0.34995148  0.61122559  1
  C  C32  1  0.41829277  0.66603534  0.44770559  1
  C  C33  1  0.58170723  0.33396466  0.55229441  1
  C  C34  1  0.36451452  0.75985685  0.46285935  1
  C  C35  1  0.63548548  0.24014315  0.53714065  1
  C  C36  1  0.40324573  0.83913227  0.41961111  1
  C  C37  1  0.59675427  0.16086773  0.58038889  1
  C  C38  1  0.31883017  0.94426739  0.40940129  1
  C  C39  1  0.68116983  0.05573261  0.59059871  1
  C  C40  1  0.36676552  0.98671665  0.33395133  1
  C  C41  1  0.63323448  0.01328335  0.66604867  1
  C  C42  1  0.28928001  0.05505996  0.29119107  1
  C  C43  1  0.71071999  0.94494004  0.70880893  1
  C  C44  1  0.31633473  0.05480350  0.22014703  1
  C  C45  1  0.68366527  0.94519650  0.77985297  1
  C  C46  1  0.20513101  0.09556661  0.19291135  1
  C  C47  1  0.79486899  0.90443339  0.80708865  1
  C  C48  1  0.19701073  0.07417109  0.13437161  1
  C  C49  1  0.80298927  0.92582891  0.86562839  1
  C  C50  1  0.30354498  0.01222201  0.09902372  1
  C  C51  1  0.69645502  0.98777799  0.90097628  1
  C  C52  1  0.28542932  0.96870336  0.05014282  1
  C  C53  1  0.71457068  0.03129664  0.94985718  1
  C  C54  1  0.38768518  0.90219819  0.02102117  1
  C  C55  1  0.61231482  0.09780181  0.97897883  1
  C  C56  1  0.50239061  0.86519846  0.04514913  1
  C  C57  1  0.49760939  0.13480154  0.95485087  1
  C  C58  1  0.57080970  0.77292614  0.02941375  1
  C  C59  1  0.42919030  0.22707386  0.97058625  1
  C  C60  1  0.65214851  0.70535635  0.07043336  1
  C  C61  1  0.34785149  0.29464365  0.92956664  1
  C  C62  1  0.67983513  0.59459557  0.08204933  1
  C  C63  1  0.32016487  0.40540443  0.91795067  1
  C  C64  1  0.69871680  0.55888924  0.15624167  1
  C  C65  1  0.30128320  0.44111076  0.84375833  1
  C  C66  1  0.66237610  0.47961950  0.20100192  1
  C  C67  1  0.33762390  0.52038050  0.79899808  1
  C  C68  1  0.61985506  0.47844668  0.27230516  1
  C  C69  1  0.38014494  0.52155332  0.72769484  1
  C  C70  1  0.53852283  0.41810407  0.30342372  1
  C  C71  1  0.46147717  0.58189593  0.69657628  1
  C  C72  1  0.45281503  0.43011303  0.36388096  1
  C  C73  1  0.54718497  0.56988697  0.63611904  1
  C  C74  1  0.44831734  0.50260868  0.39708297  1
  C  C75  1  0.55168266  0.49739132  0.60291703  1
  C  C76  1  0.33848066  0.53354247  0.44854202  1
  C  C77  1  0.66151934  0.46645753  0.55145798  1
  C  C78  1  0.33162094  0.60938589  0.47582690  1
  C  C79  1  0.66837906  0.39061411  0.52417310  1
  C  C80  1  0.21168671  0.66469238  0.51517978  1
  C  C81  1  0.78831329  0.33530762  0.48482022  1
  C  C82  1  0.23521656  0.77089432  0.50604173  1
  C  C83  1  0.76478344  0.22910568  0.49395827  1
  C  C84  1  0.14487335  0.86144421  0.46787216  1
  C  C85  1  0.85512665  0.13855579  0.53212784  1
  C  C86  1  0.18164508  0.94500533  0.42021551  1
  C  C87  1  0.81835492  0.05499467  0.57978449  1
  C  C88  1  0.10293536  0.01501147  0.37357730  1
  C  C89  1  0.89706464  0.98498853  0.62642270  1
  C  C90  1  0.15113134  0.09651318  0.31670712  1
  C  C91  1  0.84886866  0.90348682  0.68329288  1
  C  C92  1  0.09436987  0.13482395  0.24630625  1
  C  C93  1  0.90563013  0.86517605  0.75369375  1
  C  C94  1  0.98610145  0.09865509  0.24822258  1
  C  C95  1  0.01389855  0.90134491  0.75177742  1
  C  C96  1  0.97033488  0.09479238  0.18479314  1
  C  C97  1  0.02966512  0.90520762  0.81520686  1
  C  C98  1  0.06904923  0.09987482  0.11828031  1
  C  C99  1  0.93095077  0.90012518  0.88171969  1
  C  C100  1  0.05798836  0.02233224  0.08911861  1
  C  C101  1  0.94201164  0.97766776  0.91088139  1
  C  C102  1  0.15919774  0.96361529  0.05330776  1
  C  C103  1  0.84080226  0.03638471  0.94669224  1
  C  C104  1  0.14595066  0.87359699  0.04629202  1
  C  C105  1  0.85404934  0.12640301  0.95370798  1
  C  C106  1  0.25435074  0.80783538  0.01498951  1
  C  C107  1  0.74564926  0.19216462  0.98501049  1
  C  C108  1  0.37602681  0.83487756  0.98350814  1
  C  C109  1  0.62397319  0.16512244  0.01649186  1
  C  C110  1  0.50537467  0.74282034  0.99001889  1
  C  C111  1  0.49462533  0.25717966  0.00998111  1
  C  C112  1  0.48596254  0.64170275  0.03034814  1
  C  C113  1  0.51403746  0.35829725  0.96965186  1
  C  C114  1  0.56541632  0.56960040  0.07619564  1
  C  C115  1  0.43458368  0.43039960  0.92380436  1
  C  C116  1  0.52646161  0.48797941  0.12478674  1
  C  C117  1  0.47353839  0.51202059  0.87521326  1
  C  C118  1  0.60599576  0.41887864  0.17921725  1
  C  C119  1  0.39400424  0.58112136  0.82078275  1
  C  C120  1  0.53005316  0.36792097  0.25189973  1
  C  C121  1  0.46994684  0.63207903  0.74810027  1
  C  C122  1  0.39366205  0.38079259  0.25438420  1
  C  C123  1  0.60633795  0.61920741  0.74561580  1
  C  C124  1  0.31567436  0.37564518  0.31949093  1
  C  C125  1  0.68432564  0.62435482  0.68050907  1
  C  C126  1  0.34845234  0.38250010  0.38392625  1
  C  C127  1  0.65154766  0.61749990  0.61607375  1
  C  C128  1  0.22645955  0.44762733  0.41540517  1
  C  C129  1  0.77354045  0.55237267  0.58459483  1
  C  C130  1  0.22063270  0.51563646  0.44945322  1
  C  C131  1  0.77936730  0.48436354  0.55054678  1
  C  C132  1  0.10392266  0.59349046  0.45828044  1
  C  C133  1  0.89607734  0.40650954  0.54171956  1
  C  C134  1  0.10136715  0.66968566  0.48738495  1
  C  C135  1  0.89863285  0.33031434  0.51261505  1
  C  C136  1  0.00676960  0.75707806  0.47926684  1
  C  C137  1  0.99323040  0.24292194  0.52073316  1
  C  C138  1  0.02908705  0.85272546  0.46838273  1
  C  C139  1  0.97091295  0.14727454  0.53161727  1
  C  C140  1  0.94785925  0.92499539  0.42491393  1
  C  C141  1  0.05214075  0.07500461  0.57508607  1
  C  C142  1  0.98465933  0.00443927  0.37361214  1
  C  C143  1  0.01534067  0.99556073  0.62638786  1
  C  C144  1  0.92494665  0.04590542  0.31209092  1
  C  C145  1  0.07505335  0.95409458  0.68790908  1
  C  C146  1  0.83760120  0.00129538  0.30763993  1
  C  C147  1  0.16239880  0.99870462  0.69236007  1
  C  C148  1  0.82801702  0.99308149  0.24268775  1
  C  C149  1  0.17198298  0.00691851  0.75731225  1
  C  C150  1  0.89608884  0.03760393  0.18255401  1
  C  C151  1  0.10391116  0.96239607  0.81744599  1
  C  C152  1  0.95191520  0.98910993  0.12713273  1
  C  C153  1  0.04808480  0.01089007  0.87286727  1
  C  C154  1  0.94529730  0.89331195  0.13335827  1
  C  C155  1  0.05470270  0.10668805  0.86664173  1
  C  C156  1  0.04050640  0.83694483  0.08874876  1
  C  C157  1  0.95949360  0.16305517  0.91125124  1
  C  C158  1  0.04743730  0.73423105  0.10214230  1
  C  C159  1  0.95256270  0.26576895  0.89785770  1
  C  C160  1  0.15260390  0.67556518  0.06551579  1
  C  C161  1  0.84739610  0.32443482  0.93448421  1
  C  C162  1  0.25660492  0.71113907  0.02522437  1
  C  C163  1  0.74339508  0.28886093  0.97477563  1
  C  C164  1  0.37117246  0.62862641  0.03378554  1
  C  C165  1  0.62882754  0.37137359  0.96621446  1
  C  C166  1  0.33521899  0.54500204  0.07955058  1
  C  C167  1  0.66478101  0.45499796  0.92044942  1
  C  C168  1  0.40730442  0.47560725  0.12874643  1
  C  C169  1  0.59269558  0.52439275  0.87125357  1
  C  C170  1  0.34034986  0.42181488  0.19256359  1
  C  C171  1  0.65965014  0.57818512  0.80743641  1
  C  C172  1  0.20788649  0.44566232  0.20115711  1
  C  C173  1  0.79211351  0.55433768  0.79884289  1
  C  C174  1  0.12939720  0.44577395  0.26768058  1
  C  C175  1  0.87060280  0.55422605  0.73231942  1
  C  C176  1  0.18339785  0.41268162  0.32558414  1
  C  C177  1  0.81660215  0.58731838  0.67441586  1
  C  C178  1  0.12928605  0.46127513  0.38095270  1
  C  C179  1  0.87071395  0.53872487  0.61904730  1
  C  C180  1  0.02490383  0.54652814  0.37641505  1
  C  C181  1  0.97509617  0.45347186  0.62358495  1
  C  C182  1  0.00753791  0.61047491  0.41970098  1
  C  C183  1  0.99246209  0.38952509  0.58029902  1
  C  C184  1  0.91337048  0.70442700  0.40824353  1
  C  C185  1  0.08662952  0.29557300  0.59175647  1
  C  C186  1  0.91055981  0.77312505  0.44303112  1
  C  C187  1  0.08944019  0.22687495  0.55696888  1
  C  C188  1  0.86686923  0.87734000  0.41524475  1
  C  C189  1  0.13313077  0.12266000  0.58475525  1
  C  C190  1  0.81419199  0.91359150  0.35749048  1
  C  C191  1  0.18580801  0.08640850  0.64250952  1
  C  C192  1  0.80853720  0.84620434  0.32238368  1
  C  C193  1  0.19146280  0.15379566  0.67761632  1
  C  C194  1  0.81753384  0.89602161  0.25029510  1
  C  C195  1  0.18246616  0.10397839  0.74970490  1
  C  C196  1  0.87805437  0.84410760  0.19823804  1
  C  C197  1  0.12194563  0.15589240  0.80176196  1
  C  C198  1  0.91040891  0.73745338  0.21984290  1
  C  C199  1  0.08959109  0.26254662  0.78015710  1
  C  C200  1  0.98243931  0.68438446  0.16762904  1
  C  C201  1  0.01756069  0.31561554  0.83237096  1
  C  C202  1  0.02572783  0.58014595  0.19015414  1
  C  C203  1  0.97427217  0.41985405  0.80984586  1
  C  C204  1  0.13757544  0.52416940  0.15301485  1
  C  C205  1  0.86242456  0.47583060  0.84698515  1
  C  C206  1  0.20040052  0.57182657  0.09330737  1
  C  C207  1  0.79959948  0.42817343  0.90669263  1
  C  C208  1  0.02097299  0.53101483  0.26213629  1
  C  C209  1  0.97902701  0.46898517  0.73786371  1
  C  C210  1  0.97068049  0.58399760  0.31392476  1
  C  C211  1  0.02931951  0.41600240  0.68607524  1
  C  C212  1  0.90318783  0.68704322  0.29308050  1
  C  C213  1  0.09681217  0.31295678  0.70691950  1
  C  C214  1  0.86140997  0.74296969  0.34482607  1
  C  C215  1  0.13859003  0.25703031  0.65517393  1
  Cl  Cl216  1  0.34191408  0.00675422  0.46599732  1
  Cl  Cl217  1  0.65808592  0.99324578  0.53400268  1
  Cl  Cl218  1  0.82138462  0.54659048  0.02252316  1
  Cl  Cl219  1  0.17861538  0.45340952  0.97747684  1
  Cl  Cl220  1  0.18308127  0.59775615  0.60591376  1
  Cl  Cl221  1  0.81691873  0.40224385  0.39408624  1
  Cl  Cl222  1  0.23478895  0.79097590  0.58779337  1
  Cl  Cl223  1  0.76521105  0.20902410  0.41220663  1
  Cl  Cl224  1  0.12459709  0.19487262  0.35737696  1
  Cl  Cl225  1  0.87540291  0.80512738  0.64262304  1
  Cl  Cl226  1  0.04575407  0.26921954  0.21753951  1
  Cl  Cl227  1  0.95424593  0.73078046  0.78246049  1
  Cl  Cl228  1  0.03661266  0.22186722  0.05616757  1
  Cl  Cl229  1  0.96338734  0.77813278  0.94383243  1
  Cl  Cl230  1  0.36425080  0.89958767  0.89337943  1
  Cl  Cl231  1  0.63574920  0.10041233  0.10662057  1
  Cl  Cl232  1  0.60339374  0.73156840  0.90635733  1
  Cl  Cl233  1  0.39660626  0.26843160  0.09364267  1
  Cl  Cl234  1  0.72693803  0.32987758  0.13639208  1
  Cl  Cl235  1  0.27306197  0.67012242  0.86360792  1
  Cl  Cl236  1  0.60374997  0.23554491  0.27875727  1
  Cl  Cl237  1  0.39625003  0.76445509  0.72124273  1
  Cl  Cl238  1  0.38980058  0.26078672  0.44563549  1
  Cl  Cl239  1  0.61019942  0.73921328  0.55436451  1
