# generated using pymatgen
data_V4Cu9(ClO9)2
_symmetry_space_group_name_H-M   'P 1'
_cell_length_a   6.50970332
_cell_length_b   8.38002516
_cell_length_c   9.29856257
_cell_angle_alpha   104.94121472
_cell_angle_beta   96.05738938
_cell_angle_gamma   107.78104117
_symmetry_Int_Tables_number   1
_chemical_formula_structural   V4Cu9(ClO9)2
_chemical_formula_sum   'V4 Cu9 Cl2 O18'
_cell_volume   457.23354469
_cell_formula_units_Z   1
loop_
 _symmetry_equiv_pos_site_id
 _symmetry_equiv_pos_as_xyz
  1  'x, y, z'
loop_
 _atom_site_type_symbol
 _atom_site_label
 _atom_site_symmetry_multiplicity
 _atom_site_fract_x
 _atom_site_fract_y
 _atom_site_fract_z
 _atom_site_occupancy
  V  V0  1  0.11026000  0.58348800  0.35002600  1
  V  V1  1  0.88974000  0.41651200  0.64997400  1
  V  V2  1  0.67553600  0.75022700  0.14879600  1
  V  V3  1  0.32446400  0.24977300  0.85120400  1
  Cu  Cu4  1  0.85908700  0.28228400  0.97003100  1
  Cu  Cu5  1  0.14091300  0.71771600  0.02996900  1
  Cu  Cu6  1  0.58232500  0.45436600  0.35757700  1
  Cu  Cu7  1  0.41767500  0.54563400  0.64242300  1
  Cu  Cu8  1  0.83069000  0.16849300  0.31224400  1
  Cu  Cu9  1  0.16931000  0.83150700  0.68775600  1
  Cu  Cu10  1  0.50000000  0.00000000  0.00000000  1
  Cu  Cu11  1  0.00000000  0.00000000  0.00000000  1
  Cu  Cu12  1  0.00000000  0.00000000  0.50000000  1
  Cl  Cl13  1  0.34822200  0.13047000  0.27665200  1
  Cl  Cl14  1  0.65177800  0.86953000  0.72334800  1
  O  O15  1  0.60866500  0.56099500  0.19316500  1
  O  O16  1  0.39133500  0.43900500  0.80683500  1
  O  O17  1  0.86060700  0.40823800  0.34058600  1
  O  O18  1  0.13939300  0.59176200  0.65941400  1
  O  O19  1  0.65978700  0.46372000  0.58088600  1
  O  O20  1  0.34021300  0.53628000  0.41911400  1
  O  O21  1  0.90976000  0.21943600  0.53551600  1
  O  O22  1  0.09024000  0.78056400  0.46448400  1
  O  O23  1  0.89165600  0.41555800  0.83355300  1
  O  O24  1  0.10834400  0.58444200  0.16644700  1
  O  O25  1  0.12207200  0.22561800  0.96772400  1
  O  O26  1  0.87792800  0.77438200  0.03227600  1
  O  O27  1  0.80913800  0.11032800  0.09416000  1
  O  O28  1  0.19086200  0.88967200  0.90584000  1
  O  O29  1  0.54936000  0.21827700  0.95048600  1
  O  O30  1  0.45064000  0.78172300  0.04951400  1
  O  O31  1  0.78653200  0.93143700  0.31651000  1
  O  O32  1  0.21346800  0.06856300  0.68349000  1
