# generated using pymatgen
data_KH25C13(NO4)2
_symmetry_space_group_name_H-M   'P 1'
_cell_length_a   14.71688200
_cell_length_b   8.61568000
_cell_length_c   8.64202517
_cell_angle_alpha   77.31867813
_cell_angle_beta   90.00000000
_cell_angle_gamma   90.00000000
_symmetry_Int_Tables_number   1
_chemical_formula_structural   KH25C13(NO4)2
_chemical_formula_sum   'K2 H50 C26 N4 O16'
_cell_volume   1069.04362750
_cell_formula_units_Z   2
loop_
 _symmetry_equiv_pos_site_id
 _symmetry_equiv_pos_as_xyz
  1  'x, y, z'
loop_
 _atom_site_type_symbol
 _atom_site_label
 _atom_site_symmetry_multiplicity
 _atom_site_fract_x
 _atom_site_fract_y
 _atom_site_fract_z
 _atom_site_occupancy
  K  K0  1  0.24740800  0.82129100  0.26192900  1
  K  K1  1  0.75259200  0.82129100  0.76192900  1
  H  H2  1  0.26413100  0.72540100  0.70232200  1
  H  H3  1  0.73586900  0.72540100  0.20232200  1
  H  H4  1  0.51796700  0.81752100  0.32193200  1
  H  H5  1  0.48203300  0.81752100  0.82193200  1
  H  H6  1  0.55431500  0.79356800  0.13099400  1
  H  H7  1  0.44568500  0.79356800  0.63099400  1
  H  H8  1  0.43221200  0.58604200  0.13881500  1
  H  H9  1  0.56778800  0.58604200  0.63881500  1
  H  H10  1  0.51918400  0.53368300  0.28696000  1
  H  H11  1  0.48081600  0.53368300  0.78696000  1
  H  H12  1  0.41293400  0.35032200  0.45465200  1
  H  H13  1  0.58706600  0.35032200  0.95465200  1
  H  H14  1  0.33400500  0.40260000  0.29389500  1
  H  H15  1  0.66599500  0.40260000  0.79389500  1
  H  H16  1  0.26283700  0.29366600  0.55963200  1
  H  H17  1  0.73716300  0.29366600  0.05963200  1
  H  H18  1  0.30325200  0.46493900  0.62639900  1
  H  H19  1  0.69674800  0.46493900  0.12639900  1
  H  H20  1  0.14422900  0.54066300  0.65479800  1
  H  H21  1  0.85577100  0.54066300  0.15479800  1
  H  H22  1  0.10728900  0.37151500  0.58235500  1
  H  H23  1  0.89271100  0.37151500  0.08235500  1
  H  H24  1  0.03852800  0.55727100  0.34419900  1
  H  H25  1  0.96147200  0.55727100  0.84419900  1
  H  H26  1  0.98868300  0.57310300  0.52896700  1
  H  H27  1  0.01131700  0.57310300  0.02896700  1
  H  H28  1  0.94381000  0.85009600  0.42624700  1
  H  H29  1  0.05619000  0.85009600  0.92624700  1
  H  H30  1  0.98384000  0.82561400  0.23778600  1
  H  H31  1  0.01616000  0.82561400  0.73778600  1
  H  H32  1  0.97938100  0.10968400  0.27283700  1
  H  H33  1  0.02061900  0.10968400  0.77283700  1
  H  H34  1  0.06593000  0.05870600  0.42216800  1
  H  H35  1  0.93407000  0.05870600  0.92216800  1
  H  H36  1  0.16441700  0.24452600  0.26208100  1
  H  H37  1  0.83558300  0.24452600  0.76208100  1
  H  H38  1  0.08521200  0.29174500  0.10067400  1
  H  H39  1  0.91478800  0.29174500  0.60067400  1
  H  H40  1  0.19775600  0.16502600  0.93745800  1
  H  H41  1  0.80224400  0.16502600  0.43745800  1
  H  H42  1  0.23370200  0.34695800  0.99011900  1
  H  H43  1  0.76629800  0.34695800  0.49011900  1
  H  H44  1  0.39414200  0.27372200  0.97972800  1
  H  H45  1  0.60585800  0.27372200  0.47972800  1
  H  H46  1  0.35425300  0.10406400  0.90989200  1
  H  H47  1  0.64574700  0.10406400  0.40989200  1
  H  H48  1  0.51108300  0.07128900  0.03563000  1
  H  H49  1  0.48891700  0.07128900  0.53563000  1
  H  H50  1  0.46076100  0.08734100  0.22012000  1
  H  H51  1  0.53923900  0.08734100  0.72012000  1
  C  C52  1  0.49526000  0.78400400  0.21165600  1
  C  C53  1  0.50474000  0.78400400  0.71165600  1
  C  C54  1  0.46118300  0.61470800  0.24745300  1
  C  C55  1  0.53881700  0.61470800  0.74745300  1
  C  C56  1  0.35849100  0.43481500  0.40356100  1
  C  C57  1  0.64150900  0.43481500  0.90356100  1
  C  C58  1  0.28171600  0.42045800  0.52119900  1
  C  C59  1  0.71828400  0.42045800  0.02119900  1
  C  C60  1  0.12833400  0.49770400  0.54607800  1
  C  C61  1  0.87166600  0.49770400  0.04607800  1
  C  C62  1  0.05157300  0.59456700  0.45700600  1
  C  C63  1  0.94842700  0.59456700  0.95700600  1
  C  C64  1  0.00424900  0.86006800  0.34894800  1
  C  C65  1  0.99575100  0.86006800  0.84894800  1
  C  C66  1  0.03762100  0.02966000  0.31328600  1
  C  C67  1  0.96237900  0.02966000  0.81328600  1
  C  C68  1  0.14006700  0.20904900  0.15383000  1
  C  C69  1  0.85993300  0.20904900  0.65383000  1
  C  C70  1  0.21713000  0.21997400  0.03705000  1
  C  C71  1  0.78287000  0.21997400  0.53705000  1
  C  C72  1  0.37168800  0.14817700  0.01717100  1
  C  C73  1  0.62831200  0.14817700  0.51717100  1
  C  C74  1  0.44800400  0.05059200  0.10700900  1
  C  C75  1  0.55199600  0.05059200  0.60700900  1
  C  C76  1  0.25219800  0.82395600  0.76265600  1
  C  C77  1  0.74780200  0.82395600  0.26265600  1
  N  N78  1  0.23840700  0.79768000  0.92020100  1
  N  N79  1  0.76159300  0.79768000  0.42020100  1
  N  N80  1  0.25169700  0.97718600  0.68236300  1
  N  N81  1  0.74830300  0.97718600  0.18236300  1
  O  O82  1  0.42374200  0.88632300  0.13806700  1
  O  O83  1  0.57625800  0.88632300  0.63806700  1
  O  O84  1  0.39327100  0.59406200  0.36843300  1
  O  O85  1  0.60672900  0.59406200  0.86843300  1
  O  O86  1  0.20612100  0.51197200  0.44597100  1
  O  O87  1  0.79387900  0.51197200  0.94597100  1
  O  O88  1  0.07564100  0.75868300  0.42561200  1
  O  O89  1  0.92435900  0.75868300  0.92561200  1
  O  O90  1  0.10585600  0.04963100  0.19306000  1
  O  O91  1  0.89414400  0.04963100  0.69306000  1
  O  O92  1  0.29429500  0.13830500  0.11795700  1
  O  O93  1  0.70570500  0.13830500  0.61795700  1
  O  O94  1  0.24011900  0.65129300  0.99544700  1
  O  O95  1  0.75988100  0.65129300  0.49544700  1
  O  O96  1  0.26635700  0.99927300  0.53279700  1
  O  O97  1  0.73364300  0.99927300  0.03279700  1
