# generated using pymatgen
data_TbH7C4O11
_symmetry_space_group_name_H-M   'P 1'
_cell_length_a   8.83878500
_cell_length_b   8.83878500
_cell_length_c   13.00876800
_cell_angle_alpha   90.00000000
_cell_angle_beta   90.00000000
_cell_angle_gamma   90.00000000
_symmetry_Int_Tables_number   1
_chemical_formula_structural   TbH7C4O11
_chemical_formula_sum   'Tb4 H28 C16 O44'
_cell_volume   1016.29855588
_cell_formula_units_Z   4
loop_
 _symmetry_equiv_pos_site_id
 _symmetry_equiv_pos_as_xyz
  1  'x, y, z'
loop_
 _atom_site_type_symbol
 _atom_site_label
 _atom_site_symmetry_multiplicity
 _atom_site_fract_x
 _atom_site_fract_y
 _atom_site_fract_z
 _atom_site_occupancy
  Tb  Tb0  1  0.00000000  0.50000000  0.96488300  1
  Tb  Tb1  1  0.00000000  0.50000000  0.46488300  1
  Tb  Tb2  1  0.50000000  0.00000000  0.53511700  1
  Tb  Tb3  1  0.50000000  0.00000000  0.03511700  1
  H  H4  1  0.00000000  0.00000000  0.73579100  1
  H  H5  1  0.50000000  0.50000000  0.23579100  1
  H  H6  1  0.50000000  0.50000000  0.76420900  1
  H  H7  1  0.00000000  0.00000000  0.26420900  1
  H  H8  1  0.02384200  0.19696600  0.68253000  1
  H  H9  1  0.97615800  0.80303400  0.68253000  1
  H  H10  1  0.69696600  0.47615800  0.18253000  1
  H  H11  1  0.30303400  0.52384200  0.18253000  1
  H  H12  1  0.47615800  0.30303400  0.81747000  1
  H  H13  1  0.52384200  0.69696600  0.81747000  1
  H  H14  1  0.80303400  0.02384200  0.31747000  1
  H  H15  1  0.19696600  0.97615800  0.31747000  1
  H  H16  1  0.93570300  0.18701400  0.79555600  1
  H  H17  1  0.06429700  0.81298600  0.79555600  1
  H  H18  1  0.68701400  0.56429700  0.29555600  1
  H  H19  1  0.31298600  0.43570300  0.29555600  1
  H  H20  1  0.56429700  0.31298600  0.70444400  1
  H  H21  1  0.43570300  0.68701400  0.70444400  1
  H  H22  1  0.81298600  0.93570300  0.20444400  1
  H  H23  1  0.18701400  0.06429700  0.20444400  1
  H  H24  1  0.08872700  0.51215200  0.73160700  1
  H  H25  1  0.91127300  0.48784800  0.73160700  1
  H  H26  1  0.01215200  0.41127300  0.23160700  1
  H  H27  1  0.98784800  0.58872700  0.23160700  1
  H  H28  1  0.41127300  0.98784800  0.76839300  1
  H  H29  1  0.58872700  0.01215200  0.76839300  1
  H  H30  1  0.48784800  0.08872700  0.26839300  1
  H  H31  1  0.51215200  0.91127300  0.26839300  1
  C  C32  1  0.28239800  0.27453700  0.95115700  1
  C  C33  1  0.71760200  0.72546300  0.95115700  1
  C  C34  1  0.77453700  0.21760200  0.45115700  1
  C  C35  1  0.22546300  0.78239800  0.45115700  1
  C  C36  1  0.21760200  0.22546300  0.54884300  1
  C  C37  1  0.78239800  0.77453700  0.54884300  1
  C  C38  1  0.72546300  0.28239800  0.04884300  1
  C  C39  1  0.27453700  0.71760200  0.04884300  1
  C  C40  1  0.20656500  0.22596900  0.05313600  1
  C  C41  1  0.79343500  0.77403100  0.05313600  1
  C  C42  1  0.72596900  0.29343500  0.55313600  1
  C  C43  1  0.27403100  0.70656500  0.55313600  1
  C  C44  1  0.29343500  0.27403100  0.44686400  1
  C  C45  1  0.70656500  0.72596900  0.44686400  1
  C  C46  1  0.77403100  0.20656500  0.94686400  1
  C  C47  1  0.22596900  0.79343500  0.94686400  1
  O  O48  1  0.96466600  0.13155300  0.73051400  1
  O  O49  1  0.03533400  0.86844700  0.73051400  1
  O  O50  1  0.63155300  0.53533400  0.23051400  1
  O  O51  1  0.36844700  0.46466600  0.23051400  1
  O  O52  1  0.53533400  0.36844700  0.76948600  1
  O  O53  1  0.46466600  0.63155300  0.76948600  1
  O  O54  1  0.86844700  0.96466600  0.26948600  1
  O  O55  1  0.13155300  0.03533400  0.26948600  1
  O  O56  1  0.00000000  0.50000000  0.77580600  1
  O  O57  1  0.00000000  0.50000000  0.27580600  1
  O  O58  1  0.50000000  0.00000000  0.72419400  1
  O  O59  1  0.50000000  0.00000000  0.22419400  1
  O  O60  1  0.21939000  0.37817000  0.90057600  1
  O  O61  1  0.78061000  0.62183000  0.90057600  1
  O  O62  1  0.87817000  0.28061000  0.40057600  1
  O  O63  1  0.12183000  0.71939000  0.40057600  1
  O  O64  1  0.28061000  0.12183000  0.59942400  1
  O  O65  1  0.71939000  0.87817000  0.59942400  1
  O  O66  1  0.62183000  0.21939000  0.09942400  1
  O  O67  1  0.37817000  0.78061000  0.09942400  1
  O  O68  1  0.40443100  0.20694400  0.92611100  1
  O  O69  1  0.59556900  0.79305600  0.92611100  1
  O  O70  1  0.70694400  0.09556900  0.42611100  1
  O  O71  1  0.29305600  0.90443100  0.42611100  1
  O  O72  1  0.09556900  0.29305600  0.57388900  1
  O  O73  1  0.90443100  0.70694400  0.57388900  1
  O  O74  1  0.79305600  0.40443100  0.07388900  1
  O  O75  1  0.20694400  0.59556900  0.07388900  1
  O  O76  1  0.26846300  0.11538900  0.10036000  1
  O  O77  1  0.73153700  0.88461100  0.10036000  1
  O  O78  1  0.61538900  0.23153700  0.60036000  1
  O  O79  1  0.38461100  0.76846300  0.60036000  1
  O  O80  1  0.23153700  0.38461100  0.39964000  1
  O  O81  1  0.76846300  0.61538900  0.39964000  1
  O  O82  1  0.88461100  0.26846300  0.89964000  1
  O  O83  1  0.11538900  0.73153700  0.89964000  1
  O  O84  1  0.09093900  0.29792200  0.08157600  1
  O  O85  1  0.90906100  0.70207800  0.08157600  1
  O  O86  1  0.79792200  0.40906100  0.58157600  1
  O  O87  1  0.20207800  0.59093900  0.58157600  1
  O  O88  1  0.40906100  0.20207800  0.41842400  1
  O  O89  1  0.59093900  0.79792200  0.41842400  1
  O  O90  1  0.70207800  0.09093900  0.91842400  1
  O  O91  1  0.29792200  0.90906100  0.91842400  1
