# generated using pymatgen
data_NaAg(SO2)2
_symmetry_space_group_name_H-M   'P 1'
_cell_length_a   8.53232400
_cell_length_b   7.88962200
_cell_length_c   8.36833454
_cell_angle_alpha   85.83132334
_cell_angle_beta   90.00000000
_cell_angle_gamma   90.00000000
_symmetry_Int_Tables_number   1
_chemical_formula_structural   NaAg(SO2)2
_chemical_formula_sum   'Na4 Ag4 S8 O16'
_cell_volume   561.83923257
_cell_formula_units_Z   4
loop_
 _symmetry_equiv_pos_site_id
 _symmetry_equiv_pos_as_xyz
  1  'x, y, z'
loop_
 _atom_site_type_symbol
 _atom_site_label
 _atom_site_symmetry_multiplicity
 _atom_site_fract_x
 _atom_site_fract_y
 _atom_site_fract_z
 _atom_site_occupancy
  Na  Na0  1  0.42356500  0.03959500  0.15321900  1
  Na  Na1  1  0.57643500  0.03959500  0.65321900  1
  Na  Na2  1  0.48924600  0.54324500  0.14767300  1
  Na  Na3  1  0.51075400  0.54324500  0.64767300  1
  Ag  Ag4  1  0.04787900  0.97872600  0.46747700  1
  Ag  Ag5  1  0.95212100  0.97872600  0.96747700  1
  Ag  Ag6  1  0.93289900  0.47270000  0.21391500  1
  Ag  Ag7  1  0.06710100  0.47270000  0.71391500  1
  S  S8  1  0.06585400  0.29970700  0.47194800  1
  S  S9  1  0.93414600  0.29970700  0.97194800  1
  S  S10  1  0.93698000  0.78827100  0.25141000  1
  S  S11  1  0.06302000  0.78827100  0.75141000  1
  S  S12  1  0.30783900  0.32738700  0.40074000  1
  S  S13  1  0.69216100  0.32738700  0.90074000  1
  S  S14  1  0.71040700  0.82095000  0.35790100  1
  S  S15  1  0.28959300  0.82095000  0.85790100  1
  O  O16  1  0.30895300  0.29206300  0.23016400  1
  O  O17  1  0.69104700  0.29206300  0.73016400  1
  O  O18  1  0.34912500  0.50505000  0.42154500  1
  O  O19  1  0.65087500  0.50505000  0.92154500  1
  O  O20  1  0.39267500  0.20362600  0.50576900  1
  O  O21  1  0.60732500  0.20362600  0.00576900  1
  O  O22  1  0.59369200  0.80590900  0.23116000  1
  O  O23  1  0.40630800  0.80590900  0.73116000  1
  O  O24  1  0.70124300  0.68828600  0.48932100  1
  O  O25  1  0.29875700  0.68828600  0.98932100  1
  O  O26  1  0.71934400  0.99348200  0.41414400  1
  O  O27  1  0.28065600  0.99348200  0.91414400  1
  O  O28  1  0.26106600  0.91238400  0.36955600  1
  O  O29  1  0.73893400  0.91238400  0.86955600  1
  O  O30  1  0.70813100  0.41351900  0.29995800  1
  O  O31  1  0.29186900  0.41351900  0.79995800  1
