# generated using pymatgen
data_Mn7Zn4Si2(AsO12)2
_symmetry_space_group_name_H-M   'P 1'
_cell_length_a   8.65741700
_cell_length_b   9.99879772
_cell_length_c   11.67458100
_cell_angle_alpha   90.00000000
_cell_angle_beta   90.00000000
_cell_angle_gamma   115.65319503
_symmetry_Int_Tables_number   1
_chemical_formula_structural   Mn7Zn4Si2(AsO12)2
_chemical_formula_sum   'Mn14 Zn8 Si4 As4 O48'
_cell_volume   910.98221867
_cell_formula_units_Z   2
loop_
 _symmetry_equiv_pos_site_id
 _symmetry_equiv_pos_as_xyz
  1  'x, y, z'
loop_
 _atom_site_type_symbol
 _atom_site_label
 _atom_site_symmetry_multiplicity
 _atom_site_fract_x
 _atom_site_fract_y
 _atom_site_fract_z
 _atom_site_occupancy
  Mn  Mn0  1  0.50000000  0.00000000  0.50000000  1
  Mn  Mn1  1  0.00000000  0.00000000  0.00000000  1
  Mn  Mn2  1  0.66689700  0.33379300  0.50000000  1
  Mn  Mn3  1  0.16689700  0.33379300  0.00000000  1
  Mn  Mn4  1  0.33310300  0.66620700  0.50000000  1
  Mn  Mn5  1  0.83310300  0.66620700  0.00000000  1
  Mn  Mn6  1  0.84666100  0.18267400  0.36811200  1
  Mn  Mn7  1  0.33601300  0.18267400  0.63188800  1
  Mn  Mn8  1  0.83601300  0.18267400  0.86811200  1
  Mn  Mn9  1  0.34666100  0.18267400  0.13188800  1
  Mn  Mn10  1  0.15333900  0.81732600  0.63188800  1
  Mn  Mn11  1  0.66398700  0.81732600  0.36811200  1
  Mn  Mn12  1  0.16398700  0.81732600  0.13188800  1
  Mn  Mn13  1  0.65333900  0.81732600  0.86811200  1
  Zn  Zn14  1  0.31608700  0.34801800  0.38380000  1
  Zn  Zn15  1  0.03193100  0.34801800  0.61620000  1
  Zn  Zn16  1  0.53193100  0.34801800  0.88380000  1
  Zn  Zn17  1  0.81608700  0.34801800  0.11619900  1
  Zn  Zn18  1  0.68391300  0.65198200  0.61620000  1
  Zn  Zn19  1  0.96806900  0.65198200  0.38380000  1
  Zn  Zn20  1  0.46806900  0.65198200  0.11619900  1
  Zn  Zn21  1  0.18391300  0.65198200  0.88380000  1
  Si  Si22  1  0.13749500  0.50000000  0.25000000  1
  Si  Si23  1  0.36250500  0.50000000  0.75000000  1
  Si  Si24  1  0.86250500  0.50000000  0.75000000  1
  Si  Si25  1  0.63749500  0.50000000  0.25000000  1
  As  As26  1  0.12108500  0.00000000  0.36432700  1
  As  As27  1  0.87891500  0.00000000  0.63567300  1
  As  As28  1  0.37891500  0.00000000  0.86432700  1
  As  As29  1  0.62108500  0.00000000  0.13567300  1
  O  O30  1  0.76587500  0.00000000  0.51439200  1
  O  O31  1  0.23412500  0.00000000  0.48560800  1
  O  O32  1  0.73412500  0.00000000  0.01439200  1
  O  O33  1  0.26587500  0.00000000  0.98560800  1
  O  O34  1  0.08875300  0.15863600  0.36579100  1
  O  O35  1  0.06988400  0.15863600  0.63420900  1
  O  O36  1  0.56988400  0.15863600  0.86579100  1
  O  O37  1  0.58875300  0.15863600  0.13420900  1
  O  O38  1  0.91124700  0.84136400  0.63420900  1
  O  O39  1  0.93011600  0.84136400  0.36579100  1
  O  O40  1  0.43011600  0.84136400  0.13420900  1
  O  O41  1  0.41124700  0.84136400  0.86579100  1
  O  O42  1  0.73863600  0.49558600  0.36944800  1
  O  O43  1  0.75695000  0.49558600  0.63055200  1
  O  O44  1  0.25695000  0.49558600  0.86944800  1
  O  O45  1  0.23863600  0.49558600  0.13055200  1
  O  O46  1  0.26136400  0.50441400  0.63055200  1
  O  O47  1  0.24305000  0.50441400  0.36944800  1
  O  O48  1  0.74305000  0.50441400  0.13055200  1
  O  O49  1  0.76136400  0.50441400  0.86944800  1
  O  O50  1  0.74466500  0.00000000  0.25615300  1
  O  O51  1  0.25533500  0.00000000  0.74384700  1
  O  O52  1  0.75533500  0.00000000  0.75615300  1
  O  O53  1  0.24466500  0.00000000  0.24384700  1
  O  O54  1  0.95683800  0.34847600  0.24762500  1
  O  O55  1  0.39163700  0.34847600  0.75237500  1
  O  O56  1  0.89163700  0.34847600  0.74762500  1
  O  O57  1  0.45683800  0.34847600  0.25237500  1
  O  O58  1  0.04316200  0.65152400  0.75237500  1
  O  O59  1  0.60836300  0.65152400  0.24762500  1
  O  O60  1  0.10836300  0.65152400  0.25237500  1
  O  O61  1  0.54316200  0.65152400  0.74762500  1
  O  O62  1  0.88792200  0.32673200  0.48560200  1
  O  O63  1  0.43881000  0.32673200  0.51439800  1
  O  O64  1  0.93881000  0.32673200  0.98560200  1
  O  O65  1  0.38792200  0.32673200  0.01439800  1
  O  O66  1  0.11207800  0.67326800  0.51439800  1
  O  O67  1  0.56119000  0.67326800  0.48560200  1
  O  O68  1  0.06119000  0.67326800  0.01439800  1
  O  O69  1  0.61207800  0.67326800  0.98560200  1
  O  O70  1  0.61462400  0.15859900  0.39185100  1
  O  O71  1  0.54397500  0.15859900  0.60814900  1
  O  O72  1  0.04397500  0.15859900  0.89185100  1
  O  O73  1  0.11462400  0.15859900  0.10814900  1
  O  O74  1  0.38537600  0.84140100  0.60814900  1
  O  O75  1  0.45602500  0.84140100  0.39185100  1
  O  O76  1  0.95602500  0.84140100  0.10814900  1
  O  O77  1  0.88537600  0.84140100  0.89185100  1
