# generated using pymatgen
data_B8PH24RhC7
_symmetry_space_group_name_H-M   'P 1'
_cell_length_a   11.15924000
_cell_length_b   12.57848462
_cell_length_c   13.91394629
_cell_angle_alpha   67.68579662
_cell_angle_beta   68.11802646
_cell_angle_gamma   74.91730928
_symmetry_Int_Tables_number   1
_chemical_formula_structural   B8PH24RhC7
_chemical_formula_sum   'B32 P4 H96 Rh4 C28'
_cell_volume   1660.51713568
_cell_formula_units_Z   4
loop_
 _symmetry_equiv_pos_site_id
 _symmetry_equiv_pos_as_xyz
  1  'x, y, z'
loop_
 _atom_site_type_symbol
 _atom_site_label
 _atom_site_symmetry_multiplicity
 _atom_site_fract_x
 _atom_site_fract_y
 _atom_site_fract_z
 _atom_site_occupancy
  B  B0  1  0.40633700  0.25646300  0.81346700  1
  B  B1  1  0.59366300  0.74353700  0.18653300  1
  B  B2  1  0.51376100  0.18666500  0.91710800  1
  B  B3  1  0.48623900  0.81333500  0.08289200  1
  B  B4  1  0.45346800  0.31821200  0.95697600  1
  B  B5  1  0.54653200  0.68178800  0.04302400  1
  B  B6  1  0.35645200  0.37968100  0.86356900  1
  B  B7  1  0.64354800  0.62031900  0.13643100  1
  B  B8  1  0.61356300  0.29728800  0.86876700  1
  B  B9  1  0.38643700  0.70271200  0.13123300  1
  B  B10  1  0.50505900  0.43185400  0.83199400  1
  B  B11  1  0.49494100  0.56814600  0.16800600  1
  B  B12  1  0.47342700  0.38861200  0.73224400  1
  B  B13  1  0.52657300  0.61138800  0.26775600  1
  B  B14  1  0.63099000  0.38696200  0.73386200  1
  B  B15  1  0.36901000  0.61303800  0.26613800  1
  B  B16  1  0.02380600  0.13384700  0.81331800  1
  B  B17  1  0.97619400  0.86615300  0.18668200  1
  B  B18  1  0.85422800  0.06086500  0.89301400  1
  B  B19  1  0.14577200  0.93913500  0.10698600  1
  B  B20  1  0.92491300  0.96534200  0.80728800  1
  B  B21  1  0.07508700  0.03465800  0.19271200  1
  B  B22  1  0.07462800  0.03115300  0.73792900  1
  B  B23  1  0.92537200  0.96884700  0.26207100  1
  B  B24  1  0.80317600  0.08463800  0.77901300  1
  B  B25  1  0.19682400  0.91536200  0.22098700  1
  B  B26  1  0.95445400  0.06437700  0.67154000  1
  B  B27  1  0.04554600  0.93562300  0.32846000  1
  B  B28  1  0.02224100  0.18054000  0.67565100  1
  B  B29  1  0.97775900  0.81946000  0.32434900  1
  B  B30  1  0.86549200  0.19785300  0.66544100  1
  B  B31  1  0.13450800  0.80214700  0.33455900  1
  P  P32  1  0.56788300  0.16557900  0.61474700  1
  P  P33  1  0.43211700  0.83442100  0.38525300  1
  P  P34  1  0.92501300  0.39543500  0.81079700  1
  P  P35  1  0.07498700  0.60456500  0.18920300  1
  H  H36  1  0.28375600  0.20497500  0.00416100  1
  H  H37  1  0.71624400  0.79502500  0.99583900  1
  H  H38  1  0.33684200  0.21814600  0.79048500  1
  H  H39  1  0.66315800  0.78185400  0.20951500  1
  H  H40  1  0.54025600  0.09002500  0.97184700  1
  H  H41  1  0.45974400  0.90997500  0.02815300  1
  H  H42  1  0.43242800  0.32918700  0.04364500  1
  H  H43  1  0.56757200  0.67081300  0.95635500  1
  H  H44  1  0.25478300  0.44239300  0.87407300  1
  H  H45  1  0.74521700  0.55760700  0.12592700  1
  H  H46  1  0.70022000  0.27743100  0.91465000  1
  H  H47  1  0.29978000  0.72256900  0.08535000  1
  H  H48  1  0.50453500  0.52743800  0.83167600  1
  H  H49  1  0.49546500  0.47256200  0.16832400  1
  H  H50  1  0.44714600  0.45134900  0.65084100  1
  H  H51  1  0.55285400  0.54865100  0.34915900  1
  H  H52  1  0.71519900  0.44018800  0.66305500  1
  H  H53  1  0.28480100  0.55981200  0.33694500  1
  H  H54  1  0.67092100  0.07524600  0.47354300  1
  H  H55  1  0.32907900  0.92475400  0.52645700  1
  H  H56  1  0.77893000  0.06346900  0.54416100  1
  H  H57  1  0.22107000  0.93653100  0.45583900  1
  H  H58  1  0.80457500  0.27802500  0.44237100  1
  H  H59  1  0.19542500  0.72197500  0.55762900  1
  H  H60  1  0.85630800  0.19169800  0.35481200  1
  H  H61  1  0.14369200  0.80830200  0.64518800  1
  H  H62  1  0.70431800  0.28329600  0.36664600  1
  H  H63  1  0.29568200  0.71670400  0.63335400  1
  H  H64  1  0.45858700  0.02452600  0.61599200  1
  H  H65  1  0.54141300  0.97547400  0.38400800  1
  H  H66  1  0.38782200  0.06192500  0.73756200  1
  H  H67  1  0.61217800  0.93807500  0.26243800  1
  H  H68  1  0.57014900  0.93364800  0.81009300  1
  H  H69  1  0.42985100  0.06635200  0.18990700  1
  H  H70  1  0.49578800  0.85398600  0.77234800  1
  H  H71  1  0.50421200  0.14601400  0.22765200  1
  H  H72  1  0.64865100  0.89978700  0.68600100  1
  H  H73  1  0.35134900  0.10021300  0.31399900  1
  H  H74  1  0.50755200  0.35408400  0.49810700  1
  H  H75  1  0.49244800  0.64591600  0.50189300  1
  H  H76  1  0.37103700  0.29659900  0.60247900  1
  H  H77  1  0.62896300  0.70340100  0.39752100  1
  H  H78  1  0.36577000  0.17153900  0.49977200  1
  H  H79  1  0.63423000  0.82846100  0.50022800  1
  H  H80  1  0.37008400  0.31758800  0.41462900  1
  H  H81  1  0.62991600  0.68241200  0.58537100  1
  H  H82  1  0.51303300  0.21643400  0.39744900  1
  H  H83  1  0.48696700  0.78356600  0.60255100  1
  H  H84  1  0.04562000  0.93650900  0.92917000  1
  H  H85  1  0.95438000  0.06349100  0.07083000  1
  H  H86  1  0.09601200  0.16249500  0.84181600  1
  H  H87  1  0.90398800  0.83750500  0.15818400  1
  H  H88  1  0.78380600  0.03938700  0.98523000  1
  H  H89  1  0.21619400  0.96061300  0.01477000  1
  H  H90  1  0.91157100  0.86668400  0.82924600  1
  H  H91  1  0.08842900  0.13331600  0.17075400  1
  H  H92  1  0.18230800  0.98494900  0.70374000  1
  H  H93  1  0.81769200  0.01505100  0.29626000  1
  H  H94  1  0.69232800  0.06139100  0.79524900  1
  H  H95  1  0.30767200  0.93860900  0.20475100  1
  H  H96  1  0.97334400  0.03220900  0.59560000  1
  H  H97  1  0.02665600  0.96779100  0.40440000  1
  H  H98  1  0.09763000  0.24098200  0.60179200  1
  H  H99  1  0.90237000  0.75901800  0.39820800  1
  H  H100  1  0.81645600  0.26733100  0.59718900  1
  H  H101  1  0.18354400  0.73266900  0.40281100  1
  H  H102  1  0.15348500  0.34729200  0.72690600  1
  H  H103  1  0.84651500  0.65270800  0.27309400  1
  H  H104  1  0.11870600  0.48310500  0.74782400  1
  H  H105  1  0.88129400  0.51689500  0.25217600  1
  H  H106  1  0.03359100  0.57655900  0.58545100  1
  H  H107  1  0.96640900  0.42344100  0.41454900  1
  H  H108  1  0.19353600  0.50339500  0.54657800  1
  H  H109  1  0.80646400  0.49660500  0.45342200  1
  H  H110  1  0.05846500  0.43904800  0.56726700  1
  H  H111  1  0.94153500  0.56095200  0.43273300  1
  H  H112  1  0.98723100  0.42852100  0.94353000  1
  H  H113  1  0.01276900  0.57147900  0.05647000  1
  H  H114  1  0.02711200  0.28151100  0.94900800  1
  H  H115  1  0.97288800  0.71848900  0.05099200  1
  H  H116  1  0.79200800  0.24987000  0.04987100  1
  H  H117  1  0.20799200  0.75013000  0.95012900  1
  H  H118  1  0.85042900  0.30743300  0.11958300  1
  H  H119  1  0.14957100  0.69256700  0.88041700  1
  H  H120  1  0.74704000  0.39867000  0.04125600  1
  H  H121  1  0.25296000  0.60133000  0.95874400  1
  H  H122  1  0.72537600  0.52266100  0.85492200  1
  H  H123  1  0.27462400  0.47733900  0.14507800  1
  H  H124  1  0.80751600  0.56375500  0.71458900  1
  H  H125  1  0.19248400  0.43624500  0.28541100  1
  H  H126  1  0.96801900  0.65248000  0.74425800  1
  H  H127  1  0.03198100  0.34752000  0.25574200  1
  H  H128  1  0.80464200  0.71487900  0.79117600  1
  H  H129  1  0.19535800  0.28512100  0.20882400  1
  H  H130  1  0.88139800  0.61297900  0.88627900  1
  H  H131  1  0.11860200  0.38702100  0.11372100  1
  Rh  Rh132  1  0.61973900  0.22174400  0.73917900  1
  Rh  Rh133  1  0.38026100  0.77825600  0.26082100  1
  Rh  Rh134  1  0.84151000  0.24810200  0.79700400  1
  Rh  Rh135  1  0.15849000  0.75189800  0.20299600  1
  C  C136  1  0.36564000  0.24583000  0.94083800  1
  C  C137  1  0.63436000  0.75417000  0.05916200  1
  C  C138  1  0.70720100  0.12433300  0.50543100  1
  C  C139  1  0.29279900  0.87566700  0.49456900  1
  C  C140  1  0.77108600  0.22552500  0.41228800  1
  C  C141  1  0.22891400  0.77447500  0.58771200  1
  C  C142  1  0.48129500  0.03717500  0.68114200  1
  C  C143  1  0.51870500  0.96282500  0.31885800  1
  C  C144  1  0.55378000  0.92537400  0.74036800  1
  C  C145  1  0.44622000  0.07462600  0.25963200  1
  C  C146  1  0.45998500  0.27531700  0.54016800  1
  C  C147  1  0.54001500  0.72468300  0.45983200  1
  C  C148  1  0.42611000  0.24207300  0.45898500  1
  C  C149  1  0.57389000  0.75792700  0.54101500  1
  C  C150  1  0.00136600  0.99874900  0.86820900  1
  C  C151  1  0.99863400  0.00125100  0.13179100  1
  C  C152  1  0.08719300  0.42960100  0.71713300  1
  C  C153  1  0.91280700  0.57039900  0.28286700  1
  C  C154  1  0.09276400  0.49056400  0.59770200  1
  C  C155  1  0.90723600  0.50943600  0.40229800  1
  C  C156  1  0.94852600  0.35543500  0.94533900  1
  C  C157  1  0.05147400  0.64456500  0.05466100  1
  C  C158  1  0.82744100  0.32652100  0.04399000  1
  C  C159  1  0.17255900  0.67347900  0.95601000  1
  C  C160  1  0.82174000  0.53798700  0.79485600  1
  C  C161  1  0.17826000  0.46201300  0.20514400  1
  C  C162  1  0.87274600  0.63405100  0.80477400  1
  C  C163  1  0.12725400  0.36594900  0.19522600  1
