# generated using pymatgen
data_CdP14Pb
_symmetry_space_group_name_H-M   'P 1'
_cell_length_a   9.77400000
_cell_length_b   12.12746100
_cell_length_c   15.01930900
_cell_angle_alpha   90.00000000
_cell_angle_beta   90.00000000
_cell_angle_gamma   90.00000000
_symmetry_Int_Tables_number   1
_chemical_formula_structural   CdP14Pb
_chemical_formula_sum   'Cd4 P56 Pb4'
_cell_volume   1780.29582643
_cell_formula_units_Z   4
loop_
 _symmetry_equiv_pos_site_id
 _symmetry_equiv_pos_as_xyz
  1  'x, y, z'
loop_
 _atom_site_type_symbol
 _atom_site_label
 _atom_site_symmetry_multiplicity
 _atom_site_fract_x
 _atom_site_fract_y
 _atom_site_fract_z
 _atom_site_occupancy
  Cd  Cd0  1  0.25000000  0.85384000  0.87463600  1
  Cd  Cd1  1  0.25000000  0.64616000  0.37463600  1
  Cd  Cd2  1  0.75000000  0.14616000  0.12536400  1
  Cd  Cd3  1  0.75000000  0.35384000  0.62536400  1
  P  P4  1  0.25000000  0.68085900  0.54452900  1
  P  P5  1  0.25000000  0.81914100  0.04452900  1
  P  P6  1  0.75000000  0.31914100  0.45547100  1
  P  P7  1  0.75000000  0.18085900  0.95547100  1
  P  P8  1  0.25000000  0.26664100  0.96380600  1
  P  P9  1  0.25000000  0.23335900  0.46380600  1
  P  P10  1  0.75000000  0.73335900  0.03619400  1
  P  P11  1  0.75000000  0.76664100  0.53619400  1
  P  P12  1  0.25000000  0.12191800  0.58452400  1
  P  P13  1  0.25000000  0.37808200  0.08452400  1
  P  P14  1  0.75000000  0.87808200  0.41547600  1
  P  P15  1  0.75000000  0.62191800  0.91547600  1
  P  P16  1  0.25000000  0.64426100  0.85042100  1
  P  P17  1  0.25000000  0.85573900  0.35042100  1
  P  P18  1  0.75000000  0.35573900  0.14957900  1
  P  P19  1  0.75000000  0.14426100  0.64957900  1
  P  P20  1  0.07041100  0.15881200  0.98412700  1
  P  P21  1  0.42958900  0.34118800  0.48412700  1
  P  P22  1  0.57041100  0.84118800  0.01587300  1
  P  P23  1  0.92958900  0.65881200  0.51587300  1
  P  P24  1  0.92958900  0.84118800  0.01587300  1
  P  P25  1  0.57041100  0.65881200  0.51587300  1
  P  P26  1  0.42958900  0.15881200  0.98412700  1
  P  P27  1  0.07041100  0.34118800  0.48412700  1
  P  P28  1  0.07251700  0.79217900  0.55904300  1
  P  P29  1  0.42748300  0.70782100  0.05904300  1
  P  P30  1  0.57251700  0.20782100  0.44095700  1
  P  P31  1  0.92748300  0.29217900  0.94095700  1
  P  P32  1  0.92748300  0.20782100  0.44095700  1
  P  P33  1  0.57251700  0.29217900  0.94095700  1
  P  P34  1  0.42748300  0.79217900  0.55904300  1
  P  P35  1  0.07251700  0.70782100  0.05904300  1
  P  P36  1  0.07555300  0.59363900  0.93281300  1
  P  P37  1  0.42444700  0.90636100  0.43281300  1
  P  P38  1  0.57555300  0.40636100  0.06718700  1
  P  P39  1  0.92444700  0.09363900  0.56718700  1
  P  P40  1  0.92444700  0.40636100  0.06718700  1
  P  P41  1  0.57555300  0.09363900  0.56718700  1
  P  P42  1  0.42444700  0.59363900  0.93281300  1
  P  P43  1  0.07555300  0.90636100  0.43281300  1
  P  P44  1  0.06910100  0.17618300  0.66124000  1
  P  P45  1  0.43089900  0.32381700  0.16124000  1
  P  P46  1  0.56910100  0.82381700  0.33876000  1
  P  P47  1  0.93089900  0.67618300  0.83876000  1
  P  P48  1  0.93089900  0.82381700  0.33876000  1
  P  P49  1  0.56910100  0.67618300  0.83876000  1
  P  P50  1  0.43089900  0.17618300  0.66124000  1
  P  P51  1  0.06910100  0.32381700  0.16124000  1
  P  P52  1  0.03415100  0.35189900  0.62882400  1
  P  P53  1  0.46584900  0.14810100  0.12882400  1
  P  P54  1  0.53415100  0.64810100  0.37117600  1
  P  P55  1  0.96584900  0.85189900  0.87117600  1
  P  P56  1  0.96584900  0.64810100  0.37117600  1
  P  P57  1  0.53415100  0.85189900  0.87117600  1
  P  P58  1  0.46584900  0.35189900  0.62882400  1
  P  P59  1  0.03415100  0.14810100  0.12882400  1
  Pb  Pb60  1  0.25000000  0.50659800  0.68279500  1
  Pb  Pb61  1  0.25000000  0.99340200  0.18279500  1
  Pb  Pb62  1  0.75000000  0.49340200  0.31720500  1
  Pb  Pb63  1  0.75000000  0.00659800  0.81720500  1
