# generated using pymatgen
data_KMn(CN)3
_symmetry_space_group_name_H-M   'P 1'
_cell_length_a   7.10045700
_cell_length_b   6.70875500
_cell_length_c   11.80504548
_cell_angle_alpha   55.85498406
_cell_angle_beta   90.00000000
_cell_angle_gamma   90.00000000
_symmetry_Int_Tables_number   1
_chemical_formula_structural   KMn(CN)3
_chemical_formula_sum   'K4 Mn4 C12 N12'
_cell_volume   465.40030620
_cell_formula_units_Z   4
loop_
 _symmetry_equiv_pos_site_id
 _symmetry_equiv_pos_as_xyz
  1  'x, y, z'
loop_
 _atom_site_type_symbol
 _atom_site_label
 _atom_site_symmetry_multiplicity
 _atom_site_fract_x
 _atom_site_fract_y
 _atom_site_fract_z
 _atom_site_occupancy
  K  K0  1  0.56782500  0.27172100  0.74884400  1
  K  K1  1  0.93217500  0.27172100  0.24884400  1
  K  K2  1  0.43217500  0.72827900  0.25115600  1
  K  K3  1  0.06782500  0.72827900  0.75115600  1
  Mn  Mn4  1  0.50000000  0.00000000  0.50000000  1
  Mn  Mn5  1  0.00000000  0.00000000  0.00000000  1
  Mn  Mn6  1  0.00000000  0.50000000  0.50000000  1
  Mn  Mn7  1  0.50000000  0.50000000  0.00000000  1
  C  C8  1  0.84333700  0.25666700  0.97035800  1
  C  C9  1  0.65666300  0.25666700  0.47035800  1
  C  C10  1  0.15666300  0.74333300  0.02964200  1
  C  C11  1  0.34333700  0.74333300  0.52964200  1
  C  C12  1  0.72074900  0.81194800  0.53380900  1
  C  C13  1  0.77925100  0.81194800  0.03380900  1
  C  C14  1  0.27925100  0.18805200  0.46619100  1
  C  C15  1  0.22074900  0.18805200  0.96619100  1
  C  C16  1  0.98665900  0.12525400  0.81002200  1
  C  C17  1  0.51334100  0.12525400  0.31002200  1
  C  C18  1  0.01334100  0.87474600  0.18997800  1
  C  C19  1  0.48665900  0.87474600  0.68997800  1
  N  N20  1  0.26372500  0.59534100  0.04298400  1
  N  N21  1  0.23627500  0.59534100  0.54298400  1
  N  N22  1  0.73627500  0.40465900  0.95701600  1
  N  N23  1  0.76372500  0.40465900  0.45701600  1
  N  N24  1  0.14703900  0.30988000  0.45088500  1
  N  N25  1  0.35296100  0.30988000  0.95088500  1
  N  N26  1  0.85296100  0.69012000  0.54911500  1
  N  N27  1  0.64703900  0.69012000  0.04911500  1
  N  N28  1  0.02122900  0.78026000  0.31021400  1
  N  N29  1  0.47877100  0.78026000  0.81021400  1
  N  N30  1  0.97877100  0.21974000  0.68978600  1
  N  N31  1  0.52122900  0.21974000  0.18978600  1
