# generated using pymatgen
data_Na2ZrP2O11
_symmetry_space_group_name_H-M   'P 1'
_cell_length_a   5.32234500
_cell_length_b   8.95921344
_cell_length_c   11.20588845
_cell_angle_alpha   111.65141494
_cell_angle_beta   90.28120114
_cell_angle_gamma   90.91300169
_symmetry_Int_Tables_number   1
_chemical_formula_structural   Na2ZrP2O11
_chemical_formula_sum   'Na4 Zr2 P4 O22'
_cell_volume   496.54528046
_cell_formula_units_Z   2
loop_
 _symmetry_equiv_pos_site_id
 _symmetry_equiv_pos_as_xyz
  1  'x, y, z'
loop_
 _atom_site_type_symbol
 _atom_site_label
 _atom_site_symmetry_multiplicity
 _atom_site_fract_x
 _atom_site_fract_y
 _atom_site_fract_z
 _atom_site_occupancy
  Na  Na0  1  0.04422000  0.01865200  0.31264400  1
  Na  Na1  1  0.50189600  0.34313300  0.17315700  1
  Na  Na2  1  0.98506000  0.91840400  0.65492800  1
  Na  Na3  1  0.47040800  0.67407200  0.61022800  1
  Zr  Zr4  1  0.98629400  0.01215300  0.99387000  1
  Zr  Zr5  1  0.52439200  0.49638600  0.91649800  1
  P  P6  1  0.49380200  0.90661000  0.14063300  1
  P  P7  1  0.02684400  0.61717300  0.77657300  1
  P  P8  1  0.48457700  0.06403100  0.80096500  1
  P  P9  1  0.01930900  0.43334000  0.10794500  1
  O  O10  1  0.30686500  0.02600900  0.11271800  1
  O  O11  1  0.76494200  0.98001800  0.14271100  1
  O  O12  1  0.48153400  0.74005100  0.03041300  1
  O  O13  1  0.42640300  0.90601000  0.27209900  1
  O  O14  1  0.78535300  0.52304800  0.78584900  1
  O  O15  1  0.26452600  0.52191200  0.78390100  1
  O  O16  1  0.03123900  0.77420700  0.89865000  1
  O  O17  1  0.02938500  0.65656200  0.65497800  1
  O  O18  1  0.68230600  0.00004600  0.87261900  1
  O  O19  1  0.22454500  0.06691200  0.86599300  1
  O  O20  1  0.55945300  0.24090800  0.82083300  1
  O  O21  1  0.46734500  0.95103500  0.66113200  1
  O  O22  1  0.25111300  0.42457300  0.02107300  1
  O  O23  1  0.79327200  0.50751400  0.06299800  1
  O  O24  1  0.92538100  0.25771900  0.08834300  1
  O  O25  1  0.10054200  0.51190100  0.24778200  1
  O  O26  1  0.97397700  0.20672700  0.74474200  1
  O  O27  1  0.51463800  0.27746600  0.42888800  1
  O  O28  1  0.68619100  0.37999900  0.45920000  1
  O  O29  1  0.74953900  0.75979100  0.34980200  1
  O  O30  1  0.86647500  0.88126600  0.43839600  1
  O  O31  1  0.64717500  0.65417300  0.38723900  1
