# generated using pymatgen
data_GeP2O9
_symmetry_space_group_name_H-M   'P 1'
_cell_length_a   4.87650500
_cell_length_b   8.41757901
_cell_length_c   15.60203500
_cell_angle_alpha   99.61125826
_cell_angle_beta   90.00000000
_cell_angle_gamma   90.00000000
_symmetry_Int_Tables_number   1
_chemical_formula_structural   GeP2O9
_chemical_formula_sum   'Ge4 P8 O36'
_cell_volume   631.44837563
_cell_formula_units_Z   4
loop_
 _symmetry_equiv_pos_site_id
 _symmetry_equiv_pos_as_xyz
  1  'x, y, z'
loop_
 _atom_site_type_symbol
 _atom_site_label
 _atom_site_symmetry_multiplicity
 _atom_site_fract_x
 _atom_site_fract_y
 _atom_site_fract_z
 _atom_site_occupancy
  Ge  Ge0  1  0.25636200  0.74589600  0.99978300  1
  Ge  Ge1  1  0.75636200  0.75410400  0.50021700  1
  Ge  Ge2  1  0.74363800  0.25410400  0.00021700  1
  Ge  Ge3  1  0.24363800  0.24589600  0.49978300  1
  P  P4  1  0.74802200  0.89058200  0.89857500  1
  P  P5  1  0.24802200  0.60941800  0.60142500  1
  P  P6  1  0.25197800  0.10941800  0.10142500  1
  P  P7  1  0.75197800  0.39058200  0.39857500  1
  P  P8  1  0.25275000  0.88635400  0.39805800  1
  P  P9  1  0.75275000  0.61364600  0.10194200  1
  P  P10  1  0.74725000  0.11364600  0.60194200  1
  P  P11  1  0.24725000  0.38635400  0.89805800  1
  O  O12  1  0.63009800  0.06094300  0.92807300  1
  O  O13  1  0.13009800  0.43905700  0.57192700  1
  O  O14  1  0.36990200  0.93905700  0.07192700  1
  O  O15  1  0.86990200  0.56094300  0.42807300  1
  O  O16  1  0.04278000  0.87698100  0.93405800  1
  O  O17  1  0.54278000  0.62301900  0.56594200  1
  O  O18  1  0.95722000  0.12301900  0.06594200  1
  O  O19  1  0.45722000  0.37698100  0.43405800  1
  O  O20  1  0.55009300  0.76172000  0.92193200  1
  O  O21  1  0.05009300  0.73828000  0.57806800  1
  O  O22  1  0.44990700  0.23828000  0.07806800  1
  O  O23  1  0.94990700  0.26172000  0.42193200  1
  O  O24  1  0.81852000  0.85875800  0.80020600  1
  O  O25  1  0.31852000  0.64124200  0.69979400  1
  O  O26  1  0.18148000  0.14124200  0.19979400  1
  O  O27  1  0.68148000  0.35875800  0.30020600  1
  O  O28  1  0.44430400  0.76044300  0.42812100  1
  O  O29  1  0.94430400  0.73955700  0.07187900  1
  O  O30  1  0.55569600  0.23955700  0.57187900  1
  O  O31  1  0.05569600  0.26044300  0.92812100  1
  O  O32  1  0.95598500  0.87251000  0.43008000  1
  O  O33  1  0.45598500  0.62749000  0.06992000  1
  O  O34  1  0.04401500  0.12749000  0.56992000  1
  O  O35  1  0.54401500  0.37251000  0.93008000  1
  O  O36  1  0.25732600  0.85336500  0.29521000  1
  O  O37  1  0.75732600  0.64663500  0.20479000  1
  O  O38  1  0.74267400  0.14663500  0.70479000  1
  O  O39  1  0.24267400  0.35336500  0.79521000  1
  O  O40  1  0.63769400  0.94022100  0.57486900  1
  O  O41  1  0.13769400  0.55977900  0.92513100  1
  O  O42  1  0.36230600  0.05977900  0.42513100  1
  O  O43  1  0.86230600  0.44022100  0.07486900  1
  O  O44  1  0.34957700  0.60596600  0.24798200  1
  O  O45  1  0.84957700  0.89403400  0.25201800  1
  O  O46  1  0.65042300  0.39403400  0.75201800  1
  O  O47  1  0.15042300  0.10596600  0.74798200  1
