# generated using pymatgen
data_Ho2(MoO4)3
_symmetry_space_group_name_H-M   'P 1'
_cell_length_a   10.44493000
_cell_length_b   10.45512400
_cell_length_c   10.65976700
_cell_angle_alpha   90.00000000
_cell_angle_beta   90.00000000
_cell_angle_gamma   90.00000000
_symmetry_Int_Tables_number   1
_chemical_formula_structural   Ho2(MoO4)3
_chemical_formula_sum   'Ho8 Mo12 O48'
_cell_volume   1164.07894420
_cell_formula_units_Z   4
loop_
 _symmetry_equiv_pos_site_id
 _symmetry_equiv_pos_as_xyz
  1  'x, y, z'
loop_
 _atom_site_type_symbol
 _atom_site_label
 _atom_site_symmetry_multiplicity
 _atom_site_fract_x
 _atom_site_fract_y
 _atom_site_fract_z
 _atom_site_occupancy
  Ho  Ho0  1  0.68660900  0.00123200  0.75166100  1
  Ho  Ho1  1  0.31339100  0.99876800  0.75166100  1
  Ho  Ho2  1  0.81339100  0.50123200  0.75166100  1
  Ho  Ho3  1  0.18660900  0.49876800  0.75166100  1
  Ho  Ho4  1  0.00108300  0.18694900  0.27685700  1
  Ho  Ho5  1  0.99891700  0.81305100  0.27685700  1
  Ho  Ho6  1  0.49891700  0.68694900  0.27685700  1
  Ho  Ho7  1  0.50108300  0.31305100  0.27685700  1
  Mo  Mo8  1  0.70514300  0.00833700  0.36940200  1
  Mo  Mo9  1  0.29485700  0.99166300  0.36940200  1
  Mo  Mo10  1  0.79485700  0.50833700  0.36940200  1
  Mo  Mo11  1  0.20514300  0.49166300  0.36940200  1
  Mo  Mo12  1  0.50687600  0.29612500  0.65900600  1
  Mo  Mo13  1  0.49312400  0.70387500  0.65900600  1
  Mo  Mo14  1  0.99312400  0.79612500  0.65900600  1
  Mo  Mo15  1  0.00687600  0.20387500  0.65900600  1
  Mo  Mo16  1  0.75599900  0.25442200  0.01366900  1
  Mo  Mo17  1  0.24400100  0.74557800  0.01366900  1
  Mo  Mo18  1  0.74400100  0.75442200  0.01366900  1
  Mo  Mo19  1  0.25599900  0.24557800  0.01366900  1
  O  O20  1  0.69390600  0.00281800  0.53615000  1
  O  O21  1  0.30609400  0.99718200  0.53615000  1
  O  O22  1  0.80609400  0.50281800  0.53615000  1
  O  O23  1  0.19390600  0.49718200  0.53615000  1
  O  O24  1  0.98614300  0.18988000  0.49337900  1
  O  O25  1  0.01385700  0.81012000  0.49337900  1
  O  O26  1  0.51385700  0.68988000  0.49337900  1
  O  O27  1  0.48614300  0.31012000  0.49337900  1
  O  O28  1  0.62714800  0.49409100  0.32086700  1
  O  O29  1  0.37285200  0.50590900  0.32086700  1
  O  O30  1  0.87285200  0.99409100  0.32086700  1
  O  O31  1  0.12714800  0.00590900  0.32086700  1
  O  O32  1  0.99586200  0.37263000  0.70556500  1
  O  O33  1  0.00413800  0.62737000  0.70556500  1
  O  O34  1  0.50413800  0.87263000  0.70556500  1
  O  O35  1  0.49586200  0.12737000  0.70556500  1
  O  O36  1  0.66406900  0.34699900  0.70264100  1
  O  O37  1  0.33593100  0.65300100  0.70264100  1
  O  O38  1  0.83593100  0.84699900  0.70264100  1
  O  O39  1  0.16406900  0.15300100  0.70264100  1
  O  O40  1  0.65367800  0.16362800  0.32167500  1
  O  O41  1  0.34632200  0.83637200  0.32167500  1
  O  O42  1  0.84632200  0.66362800  0.32167500  1
  O  O43  1  0.15367800  0.33637200  0.32167500  1
  O  O44  1  0.88468900  0.11196300  0.73339600  1
  O  O45  1  0.11531100  0.88803700  0.73339600  1
  O  O46  1  0.61531100  0.61196300  0.73339600  1
  O  O47  1  0.38468900  0.38803700  0.73339600  1
  O  O48  1  0.88715800  0.38212700  0.30172500  1
  O  O49  1  0.11284200  0.61787300  0.30172500  1
  O  O50  1  0.61284200  0.88212700  0.30172500  1
  O  O51  1  0.38715800  0.11787300  0.30172500  1
  O  O52  1  0.63407000  0.32233100  0.11057100  1
  O  O53  1  0.36593000  0.67766900  0.11057100  1
  O  O54  1  0.86593000  0.82233100  0.11057100  1
  O  O55  1  0.13407000  0.17766900  0.11057100  1
  O  O56  1  0.83118600  0.37728600  0.92186600  1
  O  O57  1  0.16881400  0.62271400  0.92186600  1
  O  O58  1  0.66881400  0.87728600  0.92186600  1
  O  O59  1  0.33118600  0.12271400  0.92186600  1
  O  O60  1  0.86978100  0.17557700  0.11289500  1
  O  O61  1  0.13021900  0.82442300  0.11289500  1
  O  O62  1  0.63021900  0.67557700  0.11289500  1
  O  O63  1  0.36978100  0.32442300  0.11289500  1
  O  O64  1  0.68396600  0.14175600  0.90897600  1
  O  O65  1  0.31603400  0.85824400  0.90897600  1
  O  O66  1  0.81603400  0.64175600  0.90897600  1
  O  O67  1  0.18396600  0.35824400  0.90897600  1
