# generated using pymatgen
data_MgB6H14O17
_symmetry_space_group_name_H-M   'P 1'
_cell_length_a   10.15631800
_cell_length_b   11.42342000
_cell_length_c   12.85440236
_cell_angle_alpha   69.92226359
_cell_angle_beta   90.00000000
_cell_angle_gamma   90.00000000
_symmetry_Int_Tables_number   1
_chemical_formula_structural   MgB6H14O17
_chemical_formula_sum   'Mg4 B24 H56 O68'
_cell_volume   1400.73256590
_cell_formula_units_Z   4
loop_
 _symmetry_equiv_pos_site_id
 _symmetry_equiv_pos_as_xyz
  1  'x, y, z'
loop_
 _atom_site_type_symbol
 _atom_site_label
 _atom_site_symmetry_multiplicity
 _atom_site_fract_x
 _atom_site_fract_y
 _atom_site_fract_z
 _atom_site_occupancy
  Mg  Mg0  1  0.50000000  0.50000000  0.00000000  1
  Mg  Mg1  1  0.00000000  0.00000000  0.00000000  1
  Mg  Mg2  1  0.50000000  0.00000000  0.50000000  1
  Mg  Mg3  1  0.00000000  0.50000000  0.50000000  1
  B  B4  1  0.62717300  0.48491900  0.22512400  1
  B  B5  1  0.12717300  0.01508100  0.77487600  1
  B  B6  1  0.37282700  0.51508100  0.77487600  1
  B  B7  1  0.87282700  0.98491900  0.22512400  1
  B  B8  1  0.61713600  0.71208500  0.08239400  1
  B  B9  1  0.11713600  0.78791500  0.91760600  1
  B  B10  1  0.38286400  0.28791500  0.91760600  1
  B  B11  1  0.88286400  0.21208500  0.08239400  1
  B  B12  1  0.40424500  0.60299200  0.18503100  1
  B  B13  1  0.90424500  0.89700800  0.81496900  1
  B  B14  1  0.59575500  0.39700800  0.81496900  1
  B  B15  1  0.09575500  0.10299200  0.18503100  1
  B  B16  1  0.44917400  0.44296400  0.36877800  1
  B  B17  1  0.94917400  0.05703600  0.63122200  1
  B  B18  1  0.55082600  0.55703600  0.63122200  1
  B  B19  1  0.05082600  0.94296400  0.36877800  1
  B  B20  1  0.42544100  0.83492400  0.10666300  1
  B  B21  1  0.92544100  0.66507600  0.89333700  1
  B  B22  1  0.57455900  0.16507600  0.89333700  1
  B  B23  1  0.07455900  0.33492400  0.10666300  1
  B  B24  1  0.82502100  0.61690400  0.17433600  1
  B  B25  1  0.32502100  0.88309600  0.82566400  1
  B  B26  1  0.17497900  0.38309600  0.82566400  1
  B  B27  1  0.67497900  0.11690400  0.17433600  1
  H  H28  1  0.67825700  0.36243000  0.14128900  1
  H  H29  1  0.17825700  0.13757000  0.85871100  1
  H  H30  1  0.32174300  0.63757000  0.85871100  1
  H  H31  1  0.82174300  0.86243000  0.14128900  1
  H  H32  1  0.28024100  0.50742100  0.10969700  1
  H  H33  1  0.78024100  0.99257900  0.89030300  1
  H  H34  1  0.71975900  0.49257900  0.89030300  1
  H  H35  1  0.21975900  0.00742100  0.10969700  1
  H  H36  1  0.67620700  0.69671900  0.93428300  1
  H  H37  1  0.17620700  0.80328100  0.06571700  1
  H  H38  1  0.32379300  0.30328100  0.06571700  1
  H  H39  1  0.82379300  0.19671900  0.93428300  1
  H  H40  1  0.47751800  0.33618500  0.52512300  1
  H  H41  1  0.97751800  0.16381500  0.47487700  1
  H  H42  1  0.52248200  0.66381500  0.47487700  1
  H  H43  1  0.02248200  0.83618500  0.52512300  1
  H  H44  1  0.99805100  0.70050700  0.12264500  1
  H  H45  1  0.49805100  0.79949300  0.87735500  1
  H  H46  1  0.00194900  0.29949300  0.87735500  1
  H  H47  1  0.50194900  0.20050700  0.12264500  1
  H  H48  1  0.40564500  0.02355000  0.03487400  1
  H  H49  1  0.90564500  0.47645000  0.96512600  1
  H  H50  1  0.59435500  0.97645000  0.96512600  1
  H  H51  1  0.09435500  0.52355000  0.03487400  1
  H  H52  1  0.69645600  0.97300700  0.66255800  1
  H  H53  1  0.19645600  0.52699300  0.33744200  1
  H  H54  1  0.30354400  0.02699300  0.33744200  1
  H  H55  1  0.80354400  0.47300700  0.66255800  1
  H  H56  1  0.55145000  0.95039900  0.71443200  1
  H  H57  1  0.05145000  0.54960100  0.28556800  1
  H  H58  1  0.44855000  0.04960100  0.28556800  1
  H  H59  1  0.94855000  0.45039900  0.71443200  1
  H  H60  1  0.39294800  0.75608500  0.61331500  1
  H  H61  1  0.89294800  0.74391500  0.38668500  1
  H  H62  1  0.60705200  0.24391500  0.38668500  1
  H  H63  1  0.10705200  0.25608500  0.61331500  1
  H  H64  1  0.28300200  0.85447700  0.55216600  1
  H  H65  1  0.78300200  0.64552300  0.44783400  1
  H  H66  1  0.71699800  0.14552300  0.44783400  1
  H  H67  1  0.21699800  0.35447700  0.55216600  1
  H  H68  1  0.32183200  0.06312800  0.62435300  1
  H  H69  1  0.82183200  0.43687200  0.37564700  1
  H  H70  1  0.67816800  0.93687200  0.37564700  1
  H  H71  1  0.17816800  0.56312800  0.62435300  1
  H  H72  1  0.27774600  0.13897400  0.50094500  1
  H  H73  1  0.77774600  0.36102600  0.49905500  1
  H  H74  1  0.72225400  0.86102600  0.49905500  1
  H  H75  1  0.22225400  0.63897400  0.50094500  1
  H  H76  1  0.86700500  0.68030600  0.61572000  1
  H  H77  1  0.36700500  0.81969400  0.38428000  1
  H  H78  1  0.13299500  0.31969400  0.38428000  1
  H  H79  1  0.63299500  0.18030600  0.61572000  1
  H  H80  1  0.85371500  0.77959100  0.67398800  1
  H  H81  1  0.35371500  0.72040900  0.32601200  1
  H  H82  1  0.14628500  0.22040900  0.32601200  1
  H  H83  1  0.64628500  0.27959100  0.67398800  1
  O  O84  1  0.61108900  0.42382900  0.14209800  1
  O  O85  1  0.11108900  0.07617100  0.85790200  1
  O  O86  1  0.38891100  0.57617100  0.85790200  1
  O  O87  1  0.88891100  0.92382900  0.14209800  1
  O  O88  1  0.36693500  0.54989900  0.10124700  1
  O  O89  1  0.86693500  0.95010100  0.89875300  1
  O  O90  1  0.63306500  0.45010100  0.89875300  1
  O  O91  1  0.13306500  0.04989900  0.10124700  1
  O  O92  1  0.59551200  0.68034300  0.97887800  1
  O  O93  1  0.09551200  0.81965700  0.02112200  1
  O  O94  1  0.40448800  0.31965700  0.02112200  1
  O  O95  1  0.90448800  0.18034300  0.97887800  1
  O  O96  1  0.40786000  0.38698900  0.47654200  1
  O  O97  1  0.90786000  0.11301100  0.52345800  1
  O  O98  1  0.59214000  0.61301100  0.52345800  1
  O  O99  1  0.09214000  0.88698900  0.47654200  1
  O  O100  1  0.96052500  0.62406300  0.17775300  1
  O  O101  1  0.46052500  0.87593700  0.82224700  1
  O  O102  1  0.03947500  0.37593700  0.82224700  1
  O  O103  1  0.53947500  0.12406300  0.17775300  1
  O  O104  1  0.36212700  0.94753900  0.08536500  1
  O  O105  1  0.86212700  0.55246100  0.91463500  1
  O  O106  1  0.63787300  0.05246100  0.91463500  1
  O  O107  1  0.13787300  0.44753900  0.08536500  1
  O  O108  1  0.55434100  0.61002700  0.17880800  1
  O  O109  1  0.05434100  0.88997300  0.82119200  1
  O  O110  1  0.44565900  0.38997300  0.82119200  1
  O  O111  1  0.94565900  0.11002700  0.17880800  1
  O  O112  1  0.76602400  0.50899100  0.24058600  1
  O  O113  1  0.26602400  0.99100900  0.75941400  1
  O  O114  1  0.23397600  0.49100900  0.75941400  1
  O  O115  1  0.73397600  0.00899100  0.24058600  1
  O  O116  1  0.75601700  0.71720800  0.10523000  1
  O  O117  1  0.25601700  0.78279200  0.89477000  1
  O  O118  1  0.24398300  0.28279200  0.89477000  1
  O  O119  1  0.74398300  0.21720800  0.10523000  1
  O  O120  1  0.55161200  0.83077500  0.06946900  1
  O  O121  1  0.05161200  0.66922500  0.93053100  1
  O  O122  1  0.44838800  0.16922500  0.93053100  1
  O  O123  1  0.94838800  0.33077500  0.06946900  1
  O  O124  1  0.35444400  0.73044000  0.16478100  1
  O  O125  1  0.85444400  0.76956000  0.83521900  1
  O  O126  1  0.64555600  0.26956000  0.83521900  1
  O  O127  1  0.14555600  0.23044000  0.16478100  1
  O  O128  1  0.36433300  0.52799200  0.29776000  1
  O  O129  1  0.86433300  0.97200800  0.70224000  1
  O  O130  1  0.63566700  0.47200800  0.70224000  1
  O  O131  1  0.13566700  0.02799200  0.29776000  1
  O  O132  1  0.56874400  0.41411700  0.33248600  1
  O  O133  1  0.06874400  0.08588300  0.66751400  1
  O  O134  1  0.43125600  0.58588300  0.66751400  1
  O  O135  1  0.93125600  0.91411700  0.33248600  1
  O  O136  1  0.60200700  0.99210700  0.64434200  1
  O  O137  1  0.10200700  0.50789300  0.35565800  1
  O  O138  1  0.39799300  0.00789300  0.35565800  1
  O  O139  1  0.89799300  0.49210700  0.64434200  1
  O  O140  1  0.35421400  0.09970700  0.54681700  1
  O  O141  1  0.85421400  0.40029300  0.45318300  1
  O  O142  1  0.64578600  0.90029300  0.45318300  1
  O  O143  1  0.14578600  0.59970700  0.54681700  1
  O  O144  1  0.37238400  0.84609900  0.58328100  1
  O  O145  1  0.87238400  0.65390100  0.41671900  1
  O  O146  1  0.62761600  0.15390100  0.41671900  1
  O  O147  1  0.12761600  0.34609900  0.58328100  1
  O  O148  1  0.86110100  0.77072900  0.60090800  1
  O  O149  1  0.36110100  0.72927100  0.39909200  1
  O  O150  1  0.13889900  0.22927100  0.39909200  1
  O  O151  1  0.63889900  0.27072900  0.60090800  1
