# generated using pymatgen
data_Ce18C18Cl11
_symmetry_space_group_name_H-M   'P 1'
_cell_length_a   6.65326200
_cell_length_b   7.61458673
_cell_length_c   18.74649013
_cell_angle_alpha   89.15033534
_cell_angle_beta   99.34004587
_cell_angle_gamma   104.24247280
_symmetry_Int_Tables_number   1
_chemical_formula_structural   Ce18C18Cl11
_chemical_formula_sum   'Ce18 C18 Cl11'
_cell_volume   908.02313546
_cell_formula_units_Z   1
loop_
 _symmetry_equiv_pos_site_id
 _symmetry_equiv_pos_as_xyz
  1  'x, y, z'
loop_
 _atom_site_type_symbol
 _atom_site_label
 _atom_site_symmetry_multiplicity
 _atom_site_fract_x
 _atom_site_fract_y
 _atom_site_fract_z
 _atom_site_occupancy
  Ce  Ce0  1  0.90876800  0.85316500  0.06046100  1
  Ce  Ce1  1  0.09123200  0.14683500  0.93953900  1
  Ce  Ce2  1  0.12909600  0.81388000  0.49036800  1
  Ce  Ce3  1  0.87090400  0.18612000  0.50963200  1
  Ce  Ce4  1  0.56997800  0.87906300  0.38613100  1
  Ce  Ce5  1  0.43002200  0.12093700  0.61386900  1
  Ce  Ce6  1  0.30854600  0.24818200  0.40039200  1
  Ce  Ce7  1  0.69145400  0.75181800  0.59960800  1
  Ce  Ce8  1  0.00175300  0.94292800  0.27334500  1
  Ce  Ce9  1  0.99824700  0.05707200  0.72665500  1
  Ce  Ce10  1  0.63275200  0.22103800  0.04549300  1
  Ce  Ce11  1  0.36724800  0.77896200  0.95450700  1
  Ce  Ce12  1  0.45138000  0.93303400  0.17322200  1
  Ce  Ce13  1  0.54862000  0.06696600  0.82677800  1
  Ce  Ce14  1  0.17408600  0.30145900  0.15394900  1
  Ce  Ce15  1  0.82591400  0.69854100  0.84605100  1
  Ce  Ce16  1  0.74086100  0.31185500  0.29088400  1
  Ce  Ce17  1  0.25913900  0.68814500  0.70911600  1
  C  C18  1  0.46171900  0.06572400  0.47928500  1
  C  C19  1  0.53828100  0.93427600  0.52071500  1
  C  C20  1  0.25686200  0.10726000  0.07637900  1
  C  C21  1  0.74313800  0.89274000  0.92362100  1
  C  C22  1  0.41239100  0.05790400  0.30325300  1
  C  C23  1  0.58760900  0.94209600  0.69674700  1
  C  C24  1  0.70754600  0.02875700  0.96519200  1
  C  C25  1  0.29245400  0.97124300  0.03480800  1
  C  C26  1  0.90083200  0.13173000  0.37029300  1
  C  C27  1  0.09916800  0.86827000  0.62970700  1
  C  C28  1  0.80644000  0.16556000  0.19318600  1
  C  C29  1  0.19356000  0.83444000  0.80681400  1
  C  C30  1  0.97822300  0.00169500  0.41179300  1
  C  C31  1  0.02177700  0.99830500  0.58820700  1
  C  C32  1  0.83370800  0.04444200  0.14311800  1
  C  C33  1  0.16629200  0.95555800  0.85688200  1
  C  C34  1  0.33557800  0.17103200  0.25259600  1
  C  C35  1  0.66442200  0.82896800  0.74740400  1
  Cl  Cl36  1  0.06119800  0.65456300  0.18174400  1
  Cl  Cl37  1  0.93880200  0.34543700  0.81825600  1
  Cl  Cl38  1  0.52142300  0.59155100  0.08719400  1
  Cl  Cl39  1  0.47857700  0.40844900  0.91280600  1
  Cl  Cl40  1  0.15628800  0.60846400  0.36157300  1
  Cl  Cl41  1  0.84371200  0.39153600  0.63842700  1
  Cl  Cl42  1  0.00000000  0.50000000  0.00000000  1
  Cl  Cl43  1  0.60347200  0.66034600  0.26710000  1
  Cl  Cl44  1  0.39652800  0.33965400  0.73290000  1
  Cl  Cl45  1  0.71746800  0.53907900  0.45449000  1
  Cl  Cl46  1  0.28253200  0.46092100  0.54551000  1
