# generated using pymatgen
data_Pr6InFe13
_symmetry_space_group_name_H-M   'P 1'
_cell_length_a   13.20647844
_cell_length_b   13.20647844
_cell_length_c   13.20647844
_cell_angle_alpha   144.21084647
_cell_angle_beta   144.21084647
_cell_angle_gamma   51.51211948
_symmetry_Int_Tables_number   1
_chemical_formula_structural   Pr6InFe13
_chemical_formula_sum   'Pr12 In2 Fe26'
_cell_volume   783.44548311
_cell_formula_units_Z   2
loop_
 _symmetry_equiv_pos_site_id
 _symmetry_equiv_pos_as_xyz
  1  'x, y, z'
loop_
 _atom_site_type_symbol
 _atom_site_label
 _atom_site_symmetry_multiplicity
 _atom_site_fract_x
 _atom_site_fract_y
 _atom_site_fract_z
 _atom_site_occupancy
  Pr  Pr0  1  0.60411600  0.60411600  0.00000000  1
  Pr  Pr1  1  0.10411600  0.10411600  0.00000000  1
  Pr  Pr2  1  0.39588400  0.39588400  0.00000000  1
  Pr  Pr3  1  0.89588400  0.89588400  0.00000000  1
  Pr  Pr4  1  0.47889700  0.97889700  0.82639800  1
  Pr  Pr5  1  0.15250000  0.65250000  0.17360200  1
  Pr  Pr6  1  0.97889700  0.15250000  0.50000000  1
  Pr  Pr7  1  0.65250000  0.47889700  0.50000000  1
  Pr  Pr8  1  0.52110300  0.02110300  0.17360200  1
  Pr  Pr9  1  0.84750000  0.34750000  0.82639800  1
  Pr  Pr10  1  0.02110300  0.84750000  0.50000000  1
  Pr  Pr11  1  0.34750000  0.52110300  0.50000000  1
  In  In12  1  0.25000000  0.25000000  0.00000000  1
  In  In13  1  0.75000000  0.75000000  0.00000000  1
  Fe  Fe14  1  0.50000000  0.00000000  0.50000000  1
  Fe  Fe15  1  0.00000000  0.50000000  0.50000000  1
  Fe  Fe16  1  0.56677000  0.71050200  0.27727100  1
  Fe  Fe17  1  0.43323000  0.28949800  0.72272900  1
  Fe  Fe18  1  0.06677000  0.78949800  0.85626800  1
  Fe  Fe19  1  0.93323000  0.21050200  0.14373200  1
  Fe  Fe20  1  0.28949800  0.56677000  0.85626800  1
  Fe  Fe21  1  0.71050200  0.43323000  0.14373200  1
  Fe  Fe22  1  0.21050200  0.06677000  0.27727100  1
  Fe  Fe23  1  0.78949800  0.93323000  0.72272900  1
  Fe  Fe24  1  0.62111900  0.12111900  0.85769300  1
  Fe  Fe25  1  0.26342600  0.76342600  0.14230700  1
  Fe  Fe26  1  0.12111900  0.26342600  0.50000000  1
  Fe  Fe27  1  0.76342600  0.62111900  0.50000000  1
  Fe  Fe28  1  0.37888100  0.87888100  0.14230700  1
  Fe  Fe29  1  0.73657400  0.23657400  0.85769300  1
  Fe  Fe30  1  0.87888100  0.73657400  0.50000000  1
  Fe  Fe31  1  0.23657400  0.37888100  0.50000000  1
  Fe  Fe32  1  0.79544500  0.29544500  0.27548100  1
  Fe  Fe33  1  0.01996400  0.51996400  0.72451900  1
  Fe  Fe34  1  0.29544500  0.01996400  0.50000000  1
  Fe  Fe35  1  0.51996400  0.79544500  0.50000000  1
  Fe  Fe36  1  0.20455500  0.70455500  0.72451900  1
  Fe  Fe37  1  0.98003600  0.48003600  0.27548100  1
  Fe  Fe38  1  0.70455500  0.98003600  0.50000000  1
  Fe  Fe39  1  0.48003600  0.20455500  0.50000000  1
