# generated using pymatgen
data_Na2Fe2P2O8F
_symmetry_space_group_name_H-M   'P 1'
_cell_length_a   5.17789800
_cell_length_b   11.16812700
_cell_length_c   14.45781900
_cell_angle_alpha   90.00000000
_cell_angle_beta   90.00000000
_cell_angle_gamma   90.00000000
_symmetry_Int_Tables_number   1
_chemical_formula_structural   Na2Fe2P2O8F
_chemical_formula_sum   'Na8 Fe8 P8 O32 F4'
_cell_volume   836.05840712
_cell_formula_units_Z   4
loop_
 _symmetry_equiv_pos_site_id
 _symmetry_equiv_pos_as_xyz
  1  'x, y, z'
loop_
 _atom_site_type_symbol
 _atom_site_label
 _atom_site_symmetry_multiplicity
 _atom_site_fract_x
 _atom_site_fract_y
 _atom_site_fract_z
 _atom_site_occupancy
  Na  Na0  1  0.25489000  0.34497500  0.75422100  1
  Na  Na1  1  0.24511000  0.84497500  0.74577900  1
  Na  Na2  1  0.75489000  0.65502500  0.74577900  1
  Na  Na3  1  0.74511000  0.15502500  0.75422100  1
  Na  Na4  1  0.74511000  0.65502500  0.24577900  1
  Na  Na5  1  0.75489000  0.15502500  0.25422100  1
  Na  Na6  1  0.24511000  0.34497500  0.25422100  1
  Na  Na7  1  0.25489000  0.84497500  0.24577900  1
  Fe  Fe8  1  0.17854700  0.33674600  0.98981600  1
  Fe  Fe9  1  0.32145300  0.83674600  0.51018400  1
  Fe  Fe10  1  0.67854700  0.66325400  0.51018400  1
  Fe  Fe11  1  0.82145300  0.16325400  0.98981600  1
  Fe  Fe12  1  0.82145300  0.66325400  0.01018400  1
  Fe  Fe13  1  0.67854700  0.16325400  0.48981600  1
  Fe  Fe14  1  0.32145300  0.33674600  0.48981600  1
  Fe  Fe15  1  0.17854700  0.83674600  0.01018400  1
  P  P16  1  0.17060400  0.09053200  0.61311500  1
  P  P17  1  0.32939600  0.59053200  0.88688500  1
  P  P18  1  0.67060400  0.90946800  0.88688500  1
  P  P19  1  0.82939600  0.40946800  0.61311500  1
  P  P20  1  0.82939600  0.90946800  0.38688500  1
  P  P21  1  0.67060400  0.40946800  0.11311500  1
  P  P22  1  0.32939600  0.09053200  0.11311500  1
  P  P23  1  0.17060400  0.59053200  0.38688500  1
  O  O24  1  0.22589900  0.95430000  0.60354800  1
  O  O25  1  0.27410100  0.45430000  0.89645200  1
  O  O26  1  0.72589900  0.04570000  0.89645200  1
  O  O27  1  0.77410100  0.54570000  0.60354800  1
  O  O28  1  0.77410100  0.04570000  0.39645200  1
  O  O29  1  0.72589900  0.54570000  0.10354800  1
  O  O30  1  0.27410100  0.95430000  0.10354800  1
  O  O31  1  0.22589900  0.45430000  0.39645200  1
  O  O32  1  0.26422700  0.13700400  0.70561100  1
  O  O33  1  0.23577300  0.63700400  0.79438900  1
  O  O34  1  0.76422700  0.86299600  0.79438900  1
  O  O35  1  0.73577300  0.36299600  0.70561100  1
  O  O36  1  0.73577300  0.86299600  0.29438900  1
  O  O37  1  0.76422700  0.36299600  0.20561100  1
  O  O38  1  0.23577300  0.13700400  0.20561100  1
  O  O39  1  0.26422700  0.63700400  0.29438900  1
  O  O40  1  0.87510300  0.11316300  0.59956400  1
  O  O41  1  0.62489700  0.61316300  0.90043600  1
  O  O42  1  0.37510300  0.88683700  0.90043600  1
  O  O43  1  0.12489700  0.38683700  0.59956400  1
  O  O44  1  0.12489700  0.88683700  0.40043600  1
  O  O45  1  0.37510300  0.38683700  0.09956400  1
  O  O46  1  0.62489700  0.11316300  0.09956400  1
  O  O47  1  0.87510300  0.61316300  0.40043600  1
  O  O48  1  0.30554900  0.15592600  0.52774100  1
  O  O49  1  0.19445100  0.65592600  0.97225900  1
  O  O50  1  0.80554900  0.84407400  0.97225900  1
  O  O51  1  0.69445100  0.34407400  0.52774100  1
  O  O52  1  0.69445100  0.84407400  0.47225900  1
  O  O53  1  0.80554900  0.34407400  0.02774100  1
  O  O54  1  0.19445100  0.15592600  0.02774100  1
  O  O55  1  0.30554900  0.65592600  0.47225900  1
  F  F56  1  0.00000000  0.25000000  0.87809700  1
  F  F57  1  0.50000000  0.75000000  0.62190300  1
  F  F58  1  0.00000000  0.75000000  0.12190300  1
  F  F59  1  0.50000000  0.25000000  0.37809700  1
