# generated using pymatgen
data_Tl2CoH12(SO7)2
_symmetry_space_group_name_H-M   'P 1'
_cell_length_a   12.50831000
_cell_length_b   6.22951800
_cell_length_c   9.25319841
_cell_angle_alpha   74.10704987
_cell_angle_beta   90.00000000
_cell_angle_gamma   90.00000000
_symmetry_Int_Tables_number   1
_chemical_formula_structural   Tl2CoH12(SO7)2
_chemical_formula_sum   'Tl4 Co2 H24 S4 O28'
_cell_volume   693.45525645
_cell_formula_units_Z   2
loop_
 _symmetry_equiv_pos_site_id
 _symmetry_equiv_pos_as_xyz
  1  'x, y, z'
loop_
 _atom_site_type_symbol
 _atom_site_label
 _atom_site_symmetry_multiplicity
 _atom_site_fract_x
 _atom_site_fract_y
 _atom_site_fract_z
 _atom_site_occupancy
  Tl  Tl0  1  0.14614100  0.65025800  0.62865800  1
  Tl  Tl1  1  0.64614100  0.34974200  0.87134200  1
  Tl  Tl2  1  0.85385900  0.34974200  0.37134200  1
  Tl  Tl3  1  0.35385900  0.65025800  0.12865800  1
  Co  Co4  1  0.50000000  0.00000000  0.50000000  1
  Co  Co5  1  0.00000000  0.00000000  0.00000000  1
  H  H6  1  0.40634500  0.68416700  0.71045300  1
  H  H7  1  0.90634500  0.31583300  0.78954700  1
  H  H8  1  0.59365500  0.31583300  0.28954700  1
  H  H9  1  0.09365500  0.68416700  0.21045300  1
  H  H10  1  0.37297800  0.91854200  0.74119000  1
  H  H11  1  0.87297800  0.08145800  0.75881000  1
  H  H12  1  0.62702200  0.08145800  0.25881000  1
  H  H13  1  0.12702200  0.91854200  0.24119000  1
  H  H14  1  0.40320000  0.06269300  0.23087800  1
  H  H15  1  0.90320000  0.93730700  0.26912200  1
  H  H16  1  0.59680000  0.93730700  0.76912200  1
  H  H17  1  0.09680000  0.06269300  0.73087800  1
  H  H18  1  0.31348300  0.99998700  0.35780800  1
  H  H19  1  0.81348300  0.00001300  0.14219200  1
  H  H20  1  0.68651700  0.00001300  0.64219200  1
  H  H21  1  0.18651700  0.99998700  0.85780800  1
  H  H22  1  0.55759900  0.66385600  0.40655500  1
  H  H23  1  0.05759900  0.33614400  0.09344500  1
  H  H24  1  0.44240100  0.33614400  0.59344500  1
  H  H25  1  0.94240100  0.66385600  0.90655500  1
  H  H26  1  0.64158100  0.67911700  0.53138200  1
  H  H27  1  0.14158100  0.32088300  0.96861800  1
  H  H28  1  0.35841900  0.32088300  0.46861800  1
  H  H29  1  0.85841900  0.67911700  0.03138200  1
  S  S30  1  0.36202400  0.26420500  0.90583100  1
  S  S31  1  0.86202400  0.73579500  0.59416900  1
  S  S32  1  0.63797600  0.73579500  0.09416900  1
  S  S33  1  0.13797600  0.26420500  0.40583100  1
  O  O34  1  0.26794400  0.40617800  0.91880200  1
  O  O35  1  0.76794400  0.59382200  0.58119800  1
  O  O36  1  0.73205600  0.59382200  0.08119800  1
  O  O37  1  0.23205600  0.40617800  0.41880200  1
  O  O38  1  0.42761600  0.21600100  0.04486000  1
  O  O39  1  0.92761600  0.78399900  0.45514000  1
  O  O40  1  0.57238400  0.78399900  0.95514000  1
  O  O41  1  0.07238400  0.21600100  0.54486000  1
  O  O42  1  0.42940000  0.38927200  0.77548000  1
  O  O43  1  0.92940000  0.61072800  0.72452000  1
  O  O44  1  0.57060000  0.61072800  0.22452000  1
  O  O45  1  0.07060000  0.38927200  0.27548000  1
  O  O46  1  0.32319800  0.05011900  0.87806400  1
  O  O47  1  0.82319800  0.94988100  0.62193600  1
  O  O48  1  0.67680200  0.94988100  0.12193600  1
  O  O49  1  0.17680200  0.05011900  0.37806400  1
  O  O50  1  0.38841800  0.84306800  0.66197600  1
  O  O51  1  0.88841800  0.15693200  0.83802400  1
  O  O52  1  0.61158200  0.15693200  0.33802400  1
  O  O53  1  0.11158200  0.84306800  0.16197600  1
  O  O54  1  0.38796500  0.96558200  0.33334700  1
  O  O55  1  0.88796500  0.03441800  0.16665300  1
  O  O56  1  0.61203500  0.03441800  0.66665300  1
  O  O57  1  0.11203500  0.96558200  0.83334700  1
  O  O58  1  0.56440500  0.70233200  0.50321700  1
  O  O59  1  0.06440500  0.29766800  0.99678300  1
  O  O60  1  0.43559500  0.29766800  0.49678300  1
  O  O61  1  0.93559500  0.70233200  0.00321700  1
