# generated using pymatgen
data_RbH18RuN6(ClO2)4
_symmetry_space_group_name_H-M   'P 1'
_cell_length_a   7.39914652
_cell_length_b   7.39914652
_cell_length_c   10.20440201
_cell_angle_alpha   68.74331457
_cell_angle_beta   68.74331457
_cell_angle_gamma   59.99999537
_symmetry_Int_Tables_number   1
_chemical_formula_structural   RbH18RuN6(ClO2)4
_chemical_formula_sum   'Rb1 H18 Ru1 N6 Cl4 O8'
_cell_volume   439.38138354
_cell_formula_units_Z   1
loop_
 _symmetry_equiv_pos_site_id
 _symmetry_equiv_pos_as_xyz
  1  'x, y, z'
loop_
 _atom_site_type_symbol
 _atom_site_label
 _atom_site_symmetry_multiplicity
 _atom_site_fract_x
 _atom_site_fract_y
 _atom_site_fract_z
 _atom_site_occupancy
  Rb  Rb0  1  0.50000000  0.50000000  0.50000000  1
  H  H1  1  0.57505900  0.18155300  0.06183600  1
  H  H2  1  0.18155300  0.18155300  0.06183600  1
  H  H3  1  0.18155300  0.57505900  0.06183600  1
  H  H4  1  0.42494100  0.81844700  0.93816400  1
  H  H5  1  0.81844700  0.81844700  0.93816400  1
  H  H6  1  0.81844700  0.42494100  0.93816400  1
  H  H7  1  0.64746900  0.96873200  0.19417000  1
  H  H8  1  0.96873200  0.18962900  0.19417000  1
  H  H9  1  0.18962900  0.64746900  0.19417000  1
  H  H10  1  0.64746900  0.18962900  0.19417000  1
  H  H11  1  0.18962900  0.96873200  0.19417000  1
  H  H12  1  0.96873200  0.64746900  0.19417000  1
  H  H13  1  0.35253100  0.03126800  0.80583000  1
  H  H14  1  0.03126800  0.81037100  0.80583000  1
  H  H15  1  0.81037100  0.35253100  0.80583000  1
  H  H16  1  0.35253100  0.81037100  0.80583000  1
  H  H17  1  0.81037100  0.03126800  0.80583000  1
  H  H18  1  0.03126800  0.35253100  0.80583000  1
  Ru  Ru19  1  0.00000000  0.00000000  0.00000000  1
  N  N20  1  0.68347500  0.09430000  0.12792500  1
  N  N21  1  0.09430000  0.09430000  0.12792500  1
  N  N22  1  0.09430000  0.68347500  0.12792500  1
  N  N23  1  0.31652500  0.90570000  0.87207500  1
  N  N24  1  0.90570000  0.90570000  0.87207500  1
  N  N25  1  0.90570000  0.31652500  0.87207500  1
  Cl  Cl26  1  0.36996800  0.36996800  0.89009600  1
  Cl  Cl27  1  0.63003200  0.63003200  0.10990400  1
  Cl  Cl28  1  0.18684800  0.18684800  0.43945700  1
  Cl  Cl29  1  0.81315200  0.81315200  0.56054300  1
  O  O30  1  0.13443000  0.13443000  0.59671100  1
  O  O31  1  0.86557000  0.86557000  0.40328900  1
  O  O32  1  0.98939900  0.31241800  0.38576600  1
  O  O33  1  0.31241800  0.31241800  0.38576600  1
  O  O34  1  0.31241800  0.98939900  0.38576600  1
  O  O35  1  0.01060100  0.68758200  0.61423400  1
  O  O36  1  0.68758200  0.68758200  0.61423400  1
  O  O37  1  0.68758200  0.01060100  0.61423400  1
