# generated using pymatgen
data_KAl(SO10)2
_symmetry_space_group_name_H-M   'P 1'
_cell_length_a   11.36062900
_cell_length_b   11.36062900
_cell_length_c   11.36062900
_cell_angle_alpha   90.00000000
_cell_angle_beta   90.00000000
_cell_angle_gamma   90.00000000
_symmetry_Int_Tables_number   1
_chemical_formula_structural   KAl(SO10)2
_chemical_formula_sum   'K4 Al4 S8 O80'
_cell_volume   1466.24698608
_cell_formula_units_Z   4
loop_
 _symmetry_equiv_pos_site_id
 _symmetry_equiv_pos_as_xyz
  1  'x, y, z'
loop_
 _atom_site_type_symbol
 _atom_site_label
 _atom_site_symmetry_multiplicity
 _atom_site_fract_x
 _atom_site_fract_y
 _atom_site_fract_z
 _atom_site_occupancy
  K  K0  1  0.50000000  0.50000000  0.00000000  1
  K  K1  1  0.50000000  0.00000000  0.50000000  1
  K  K2  1  0.00000000  0.50000000  0.50000000  1
  K  K3  1  0.00000000  0.00000000  0.00000000  1
  Al  Al4  1  0.00000000  0.00000000  0.50000000  1
  Al  Al5  1  0.00000000  0.50000000  0.00000000  1
  Al  Al6  1  0.50000000  0.00000000  0.00000000  1
  Al  Al7  1  0.50000000  0.50000000  0.50000000  1
  S  S8  1  0.30055200  0.69944800  0.19944800  1
  S  S9  1  0.69944800  0.19944800  0.30055200  1
  S  S10  1  0.19944800  0.30055200  0.69944800  1
  S  S11  1  0.80055200  0.80055200  0.80055200  1
  S  S12  1  0.69944800  0.30055200  0.80055200  1
  S  S13  1  0.30055200  0.80055200  0.69944800  1
  S  S14  1  0.80055200  0.69944800  0.30055200  1
  S  S15  1  0.19944800  0.19944800  0.19944800  1
  O  O16  1  0.22196600  0.77803400  0.27803400  1
  O  O17  1  0.77803400  0.27803400  0.22196600  1
  O  O18  1  0.27803400  0.22196600  0.77803400  1
  O  O19  1  0.72196600  0.72196600  0.72196600  1
  O  O20  1  0.77803400  0.22196600  0.72196600  1
  O  O21  1  0.22196600  0.72196600  0.77803400  1
  O  O22  1  0.72196600  0.77803400  0.22196600  1
  O  O23  1  0.27803400  0.27803400  0.27803400  1
  O  O24  1  0.25288800  0.57764700  0.20048800  1
  O  O25  1  0.74711200  0.07764700  0.29951200  1
  O  O26  1  0.24711200  0.42235300  0.70048800  1
  O  O27  1  0.75288800  0.92235300  0.79951200  1
  O  O28  1  0.20048800  0.25288800  0.57764700  1
  O  O29  1  0.29951200  0.74711200  0.07764700  1
  O  O30  1  0.70048800  0.24711200  0.42235300  1
  O  O31  1  0.79951200  0.75288800  0.92235300  1
  O  O32  1  0.57764700  0.20048800  0.25288800  1
  O  O33  1  0.07764700  0.29951200  0.74711200  1
  O  O34  1  0.42235300  0.70048800  0.24711200  1
  O  O35  1  0.92235300  0.79951200  0.75288800  1
  O  O36  1  0.74711200  0.42235300  0.79951200  1
  O  O37  1  0.25288800  0.92235300  0.70048800  1
  O  O38  1  0.75288800  0.57764700  0.29951200  1
  O  O39  1  0.24711200  0.07764700  0.20048800  1
  O  O40  1  0.79951200  0.74711200  0.42235300  1
  O  O41  1  0.70048800  0.25288800  0.92235300  1
  O  O42  1  0.29951200  0.75288800  0.57764700  1
  O  O43  1  0.20048800  0.24711200  0.07764700  1
  O  O44  1  0.42235300  0.79951200  0.74711200  1
  O  O45  1  0.92235300  0.70048800  0.25288800  1
  O  O46  1  0.57764700  0.29951200  0.75288800  1
  O  O47  1  0.07764700  0.20048800  0.24711200  1
  O  O48  1  0.15182600  0.71592200  0.45161300  1
  O  O49  1  0.84817400  0.21592200  0.04838700  1
  O  O50  1  0.34817400  0.28407800  0.95161300  1
  O  O51  1  0.65182600  0.78407800  0.54838700  1
  O  O52  1  0.45161300  0.15182600  0.71592200  1
  O  O53  1  0.04838700  0.84817400  0.21592200  1
  O  O54  1  0.95161300  0.34817400  0.28407800  1
  O  O55  1  0.54838700  0.65182600  0.78407800  1
  O  O56  1  0.71592200  0.45161300  0.15182600  1
  O  O57  1  0.21592200  0.04838700  0.84817400  1
  O  O58  1  0.28407800  0.95161300  0.34817400  1
  O  O59  1  0.78407800  0.54838700  0.65182600  1
  O  O60  1  0.84817400  0.28407800  0.54838700  1
  O  O61  1  0.15182600  0.78407800  0.95161300  1
  O  O62  1  0.65182600  0.71592200  0.04838700  1
  O  O63  1  0.34817400  0.21592200  0.45161300  1
  O  O64  1  0.54838700  0.84817400  0.28407800  1
  O  O65  1  0.95161300  0.15182600  0.78407800  1
  O  O66  1  0.04838700  0.65182600  0.71592200  1
  O  O67  1  0.45161300  0.34817400  0.21592200  1
  O  O68  1  0.28407800  0.54838700  0.84817400  1
  O  O69  1  0.78407800  0.95161300  0.15182600  1
  O  O70  1  0.71592200  0.04838700  0.65182600  1
  O  O71  1  0.21592200  0.45161300  0.34817400  1
  O  O72  1  0.16252500  0.51370700  0.97885300  1
  O  O73  1  0.83747500  0.01370700  0.52114700  1
  O  O74  1  0.33747500  0.48629300  0.47885300  1
  O  O75  1  0.66252500  0.98629300  0.02114700  1
  O  O76  1  0.97885300  0.16252500  0.51370700  1
  O  O77  1  0.52114700  0.83747500  0.01370700  1
  O  O78  1  0.47885300  0.33747500  0.48629300  1
  O  O79  1  0.02114700  0.66252500  0.98629300  1
  O  O80  1  0.51370700  0.97885300  0.16252500  1
  O  O81  1  0.01370700  0.52114700  0.83747500  1
  O  O82  1  0.48629300  0.47885300  0.33747500  1
  O  O83  1  0.98629300  0.02114700  0.66252500  1
  O  O84  1  0.83747500  0.48629300  0.02114700  1
  O  O85  1  0.16252500  0.98629300  0.47885300  1
  O  O86  1  0.66252500  0.51370700  0.52114700  1
  O  O87  1  0.33747500  0.01370700  0.97885300  1
  O  O88  1  0.02114700  0.83747500  0.48629300  1
  O  O89  1  0.47885300  0.16252500  0.98629300  1
  O  O90  1  0.52114700  0.66252500  0.51370700  1
  O  O91  1  0.97885300  0.33747500  0.01370700  1
  O  O92  1  0.48629300  0.02114700  0.83747500  1
  O  O93  1  0.98629300  0.47885300  0.16252500  1
  O  O94  1  0.51370700  0.52114700  0.66252500  1
  O  O95  1  0.01370700  0.97885300  0.33747500  1
