# generated using pymatgen
data_CoH18S2Br(N3O2)2
_symmetry_space_group_name_H-M   'P 1'
_cell_length_a   7.35551000
_cell_length_b   13.07217100
_cell_length_c   13.69177200
_cell_angle_alpha   90.00000000
_cell_angle_beta   90.00000000
_cell_angle_gamma   90.00000000
_symmetry_Int_Tables_number   1
_chemical_formula_structural   CoH18S2Br(N3O2)2
_chemical_formula_sum   'Co4 H72 S8 Br4 N24 O16'
_cell_volume   1316.49789517
_cell_formula_units_Z   4
loop_
 _symmetry_equiv_pos_site_id
 _symmetry_equiv_pos_as_xyz
  1  'x, y, z'
loop_
 _atom_site_type_symbol
 _atom_site_label
 _atom_site_symmetry_multiplicity
 _atom_site_fract_x
 _atom_site_fract_y
 _atom_site_fract_z
 _atom_site_occupancy
  Co  Co0  1  0.00000000  0.50000000  0.00000000  1
  Co  Co1  1  0.00000000  0.00000000  0.50000000  1
  Co  Co2  1  0.50000000  0.00000000  0.00000000  1
  Co  Co3  1  0.50000000  0.50000000  0.50000000  1
  H  H4  1  0.30935800  0.55374600  0.06411600  1
  H  H5  1  0.30935800  0.44625400  0.93588400  1
  H  H6  1  0.69064200  0.05374600  0.43588400  1
  H  H7  1  0.69064200  0.94625400  0.56411600  1
  H  H8  1  0.69064200  0.44625400  0.93588400  1
  H  H9  1  0.69064200  0.55374600  0.06411600  1
  H  H10  1  0.30935800  0.94625400  0.56411600  1
  H  H11  1  0.30935800  0.05374600  0.43588400  1
  H  H12  1  0.15198900  0.59425900  0.14075000  1
  H  H13  1  0.15198900  0.40574100  0.85925000  1
  H  H14  1  0.84801100  0.09425900  0.35925000  1
  H  H15  1  0.84801100  0.90574100  0.64075000  1
  H  H16  1  0.84801100  0.40574100  0.85925000  1
  H  H17  1  0.84801100  0.59425900  0.14075000  1
  H  H18  1  0.15198900  0.90574100  0.64075000  1
  H  H19  1  0.15198900  0.09425900  0.35925000  1
  H  H20  1  0.21677700  0.47371500  0.14537500  1
  H  H21  1  0.21677700  0.52628500  0.85462500  1
  H  H22  1  0.78322300  0.97371500  0.35462500  1
  H  H23  1  0.78322300  0.02628500  0.64537500  1
  H  H24  1  0.78322300  0.52628500  0.85462500  1
  H  H25  1  0.78322300  0.47371500  0.14537500  1
  H  H26  1  0.21677700  0.02628500  0.64537500  1
  H  H27  1  0.21677700  0.97371500  0.35462500  1
  H  H28  1  0.25040200  0.96556900  0.87511100  1
  H  H29  1  0.25040200  0.03443100  0.12488900  1
  H  H30  1  0.74959800  0.46556900  0.62488900  1
  H  H31  1  0.74959800  0.53443100  0.37511100  1
  H  H32  1  0.74959800  0.03443100  0.12488900  1
  H  H33  1  0.74959800  0.96556900  0.87511100  1
  H  H34  1  0.25040200  0.53443100  0.37511100  1
  H  H35  1  0.25040200  0.46556900  0.62488900  1
  H  H36  1  0.35541100  0.85658400  0.90029600  1
  H  H37  1  0.35541100  0.14341600  0.09970400  1
  H  H38  1  0.64458900  0.35658400  0.59970400  1
  H  H39  1  0.64458900  0.64341600  0.40029600  1
  H  H40  1  0.64458900  0.14341600  0.09970400  1
  H  H41  1  0.64458900  0.85658400  0.90029600  1
  H  H42  1  0.35541100  0.64341600  0.40029600  1
  H  H43  1  0.35541100  0.35658400  0.59970400  1
  H  H44  1  0.20325300  0.90290700  0.97811700  1
  H  H45  1  0.20325300  0.09709300  0.02188300  1
  H  H46  1  0.79674700  0.40290700  0.52188300  1
  H  H47  1  0.79674700  0.59709300  0.47811700  1
  H  H48  1  0.79674700  0.09709300  0.02188300  1
  H  H49  1  0.79674700  0.90290700  0.97811700  1
  H  H50  1  0.20325300  0.59709300  0.47811700  1
  H  H51  1  0.20325300  0.40290700  0.52188300  1
  H  H52  1  0.38731500  0.89248900  0.14479900  1
  H  H53  1  0.38731500  0.10751100  0.85520100  1
  H  H54  1  0.61268500  0.39248900  0.35520100  1
  H  H55  1  0.61268500  0.60751100  0.64479900  1
  H  H56  1  0.61268500  0.10751100  0.85520100  1
  H  H57  1  0.61268500  0.89248900  0.14479900  1
  H  H58  1  0.38731500  0.60751100  0.64479900  1
  H  H59  1  0.38731500  0.39248900  0.35520100  1
  H  H60  1  0.50000000  0.81895500  0.06730200  1
  H  H61  1  0.50000000  0.18104500  0.93269800  1
  H  H62  1  0.50000000  0.31895500  0.43269800  1
  H  H63  1  0.50000000  0.68104500  0.56730200  1
  H  H64  1  0.00000000  0.69636400  0.01960600  1
  H  H65  1  0.00000000  0.30363600  0.98039400  1
  H  H66  1  0.00000000  0.19636400  0.48039400  1
  H  H67  1  0.00000000  0.80363600  0.51960600  1
  H  H68  1  0.11300300  0.66510100  0.92099000  1
  H  H69  1  0.11300300  0.33489900  0.07901000  1
  H  H70  1  0.88699700  0.16510100  0.57901000  1
  H  H71  1  0.88699700  0.83489900  0.42099000  1
  H  H72  1  0.88699700  0.33489900  0.07901000  1
  H  H73  1  0.88699700  0.66510100  0.92099000  1
  H  H74  1  0.11300300  0.83489900  0.42099000  1
  H  H75  1  0.11300300  0.16510100  0.57901000  1
  S  S76  1  0.00000000  0.86426300  0.17832500  1
  S  S77  1  0.00000000  0.13573700  0.82167500  1
  S  S78  1  0.00000000  0.36426300  0.32167500  1
  S  S79  1  0.00000000  0.63573700  0.67832500  1
  S  S80  1  0.00000000  0.72224900  0.23931600  1
  S  S81  1  0.00000000  0.27775100  0.76068400  1
  S  S82  1  0.00000000  0.22224900  0.26068400  1
  S  S83  1  0.00000000  0.77775100  0.73931600  1
  Br  Br84  1  0.50000000  0.82779800  0.44503400  1
  Br  Br85  1  0.50000000  0.17220200  0.55496600  1
  Br  Br86  1  0.50000000  0.32779800  0.05496600  1
  Br  Br87  1  0.50000000  0.67220200  0.94503400  1
  N  N88  1  0.18968400  0.53274600  0.09771000  1
  N  N89  1  0.18968400  0.46725400  0.90229000  1
  N  N90  1  0.81031600  0.03274600  0.40229000  1
  N  N91  1  0.81031600  0.96725400  0.59771000  1
  N  N92  1  0.81031600  0.46725400  0.90229000  1
  N  N93  1  0.81031600  0.53274600  0.09771000  1
  N  N94  1  0.18968400  0.96725400  0.59771000  1
  N  N95  1  0.18968400  0.03274600  0.40229000  1
  N  N96  1  0.00000000  0.64611700  0.96162800  1
  N  N97  1  0.00000000  0.35388300  0.03837200  1
  N  N98  1  0.00000000  0.14611700  0.53837200  1
  N  N99  1  0.00000000  0.85388300  0.46162800  1
  N  N100  1  0.50000000  0.89028600  0.09982100  1
  N  N101  1  0.50000000  0.10971400  0.90017900  1
  N  N102  1  0.50000000  0.39028600  0.40017900  1
  N  N103  1  0.50000000  0.60971400  0.59982100  1
  N  N104  1  0.30651600  0.92314500  0.93088900  1
  N  N105  1  0.30651600  0.07685500  0.06911100  1
  N  N106  1  0.69348400  0.42314500  0.56911100  1
  N  N107  1  0.69348400  0.57685500  0.43088900  1
  N  N108  1  0.69348400  0.07685500  0.06911100  1
  N  N109  1  0.69348400  0.92314500  0.93088900  1
  N  N110  1  0.30651600  0.57685500  0.43088900  1
  N  N111  1  0.30651600  0.42314500  0.56911100  1
  O  O112  1  0.00000000  0.85525700  0.06969400  1
  O  O113  1  0.00000000  0.14474300  0.93030600  1
  O  O114  1  0.00000000  0.35525700  0.43030600  1
  O  O115  1  0.00000000  0.64474300  0.56969400  1
  O  O116  1  0.16580200  0.91850300  0.21283300  1
  O  O117  1  0.16580200  0.08149700  0.78716700  1
  O  O118  1  0.83419800  0.41850300  0.28716700  1
  O  O119  1  0.83419800  0.58149700  0.71283300  1
  O  O120  1  0.83419800  0.08149700  0.78716700  1
  O  O121  1  0.83419800  0.91850300  0.21283300  1
  O  O122  1  0.16580200  0.58149700  0.71283300  1
  O  O123  1  0.16580200  0.41850300  0.28716700  1
  O  O124  1  0.50000000  0.68002800  0.24708700  1
  O  O125  1  0.50000000  0.31997200  0.75291300  1
  O  O126  1  0.50000000  0.18002800  0.25291300  1
  O  O127  1  0.50000000  0.81997200  0.74708700  1
