# generated using pymatgen
data_RbMg6BO7
_symmetry_space_group_name_H-M   'P 1'
_cell_length_a   5.01332000
_cell_length_b   5.01332000
_cell_length_c   7.80193900
_cell_angle_alpha   90.00000000
_cell_angle_beta   90.00000000
_cell_angle_gamma   90.00000000
_symmetry_Int_Tables_number   1
_chemical_formula_structural   RbMg6BO7
_chemical_formula_sum   'Rb1 Mg6 B1 O7'
_cell_volume   196.08907751
_cell_formula_units_Z   1
loop_
 _symmetry_equiv_pos_site_id
 _symmetry_equiv_pos_as_xyz
  1  'x, y, z'
loop_
 _atom_site_type_symbol
 _atom_site_label
 _atom_site_symmetry_multiplicity
 _atom_site_fract_x
 _atom_site_fract_y
 _atom_site_fract_z
 _atom_site_occupancy
  Rb  Rb0  1  0.00000000  0.00000000  0.00132300  1
  Mg  Mg1  1  0.50000000  0.50000000  0.00441200  1
  Mg  Mg2  1  0.50000000  0.50000000  0.49631800  1
  Mg  Mg3  1  0.00000000  0.50000000  0.25536900  1
  Mg  Mg4  1  0.00000000  0.50000000  0.74342100  1
  Mg  Mg5  1  0.50000000  0.00000000  0.25536900  1
  Mg  Mg6  1  0.50000000  0.00000000  0.74342100  1
  B  B7  1  0.00000000  0.00000000  0.50056200  1
  O  O8  1  0.00000000  0.00000000  0.33307500  1
  O  O9  1  0.00000000  0.00000000  0.66909600  1
  O  O10  1  0.50000000  0.50000000  0.75080800  1
  O  O11  1  0.00000000  0.50000000  0.99910700  1
  O  O12  1  0.00000000  0.50000000  0.49930700  1
  O  O13  1  0.50000000  0.00000000  0.99910700  1
  O  O14  1  0.50000000  0.00000000  0.49930700  1
