# generated using pymatgen
data_SrTi(OF3)2
_symmetry_space_group_name_H-M   'P 1'
_cell_length_a   10.45840400
_cell_length_b   6.17437900
_cell_length_c   11.73192917
_cell_angle_alpha   66.57957977
_cell_angle_beta   90.00000000
_cell_angle_gamma   90.00000000
_symmetry_Int_Tables_number   1
_chemical_formula_structural   SrTi(OF3)2
_chemical_formula_sum   'Sr4 Ti4 O8 F24'
_cell_volume   695.16468209
_cell_formula_units_Z   4
loop_
 _symmetry_equiv_pos_site_id
 _symmetry_equiv_pos_as_xyz
  1  'x, y, z'
loop_
 _atom_site_type_symbol
 _atom_site_label
 _atom_site_symmetry_multiplicity
 _atom_site_fract_x
 _atom_site_fract_y
 _atom_site_fract_z
 _atom_site_occupancy
  Sr  Sr0  1  0.71635200  0.27678700  0.55443200  1
  Sr  Sr1  1  0.21635200  0.72321300  0.94556800  1
  Sr  Sr2  1  0.28364800  0.72321300  0.44556800  1
  Sr  Sr3  1  0.78364800  0.27678700  0.05443200  1
  Ti  Ti4  1  0.53040400  0.63184300  0.75180300  1
  Ti  Ti5  1  0.03040400  0.36815700  0.74819700  1
  Ti  Ti6  1  0.46959600  0.36815700  0.24819700  1
  Ti  Ti7  1  0.96959600  0.63184300  0.25180300  1
  O  O8  1  0.68104900  0.90270400  0.99881400  1
  O  O9  1  0.18104900  0.09729600  0.50118600  1
  O  O10  1  0.31895100  0.09729600  0.00118600  1
  O  O11  1  0.81895100  0.90270400  0.49881400  1
  O  O12  1  0.93632200  0.67558200  0.90756600  1
  O  O13  1  0.43632200  0.32441800  0.59243400  1
  O  O14  1  0.06367800  0.32441800  0.09243400  1
  O  O15  1  0.56367800  0.67558200  0.40756600  1
  F  F16  1  0.63110200  0.91175400  0.69898700  1
  F  F17  1  0.13110200  0.08824600  0.80101300  1
  F  F18  1  0.36889800  0.08824600  0.30101300  1
  F  F19  1  0.86889800  0.91175400  0.19898700  1
  F  F20  1  0.64782800  0.51960200  0.66208400  1
  F  F21  1  0.14782800  0.48039800  0.83791600  1
  F  F22  1  0.35217200  0.48039800  0.33791600  1
  F  F23  1  0.85217200  0.51960200  0.16208400  1
  F  F24  1  0.91498300  0.23089700  0.67378500  1
  F  F25  1  0.41498300  0.76910300  0.82621500  1
  F  F26  1  0.08501700  0.76910300  0.32621500  1
  F  F27  1  0.58501700  0.23089700  0.17378500  1
  F  F28  1  0.92924300  0.24034600  0.89784800  1
  F  F29  1  0.42924300  0.75965400  0.60215200  1
  F  F30  1  0.07075700  0.75965400  0.10215200  1
  F  F31  1  0.57075700  0.24034600  0.39784800  1
  F  F32  1  0.93592200  0.64454700  0.70020200  1
  F  F33  1  0.43592200  0.35545300  0.79979800  1
  F  F34  1  0.06407800  0.35545300  0.29979800  1
  F  F35  1  0.56407800  0.64454700  0.20020200  1
  F  F36  1  0.63217200  0.49781300  0.89417100  1
  F  F37  1  0.13217200  0.50218700  0.60582900  1
  F  F38  1  0.36782800  0.50218700  0.10582900  1
  F  F39  1  0.86782800  0.49781300  0.39417100  1
