# generated using pymatgen
data_Mg7(SiO7)2
_symmetry_space_group_name_H-M   'P 1'
_cell_length_a   7.88769007
_cell_length_b   7.88769007
_cell_length_c   9.80091000
_cell_angle_alpha   90.00000000
_cell_angle_beta   90.00000000
_cell_angle_gamma   120.00000060
_symmetry_Int_Tables_number   1
_chemical_formula_structural   Mg7(SiO7)2
_chemical_formula_sum   'Mg14 Si4 O28'
_cell_volume   528.07633497
_cell_formula_units_Z   2
loop_
 _symmetry_equiv_pos_site_id
 _symmetry_equiv_pos_as_xyz
  1  'x, y, z'
loop_
 _atom_site_type_symbol
 _atom_site_label
 _atom_site_symmetry_multiplicity
 _atom_site_fract_x
 _atom_site_fract_y
 _atom_site_fract_z
 _atom_site_occupancy
  Mg  Mg0  1  0.07762600  0.46310400  0.11689000  1
  Mg  Mg1  1  0.53689600  0.61452200  0.11689000  1
  Mg  Mg2  1  0.38547800  0.92237400  0.11689000  1
  Mg  Mg3  1  0.92237400  0.53689600  0.61689000  1
  Mg  Mg4  1  0.46310400  0.38547800  0.61689000  1
  Mg  Mg5  1  0.61452200  0.07762600  0.61689000  1
  Mg  Mg6  1  0.02485700  0.24123300  0.38760200  1
  Mg  Mg7  1  0.75876700  0.78362400  0.38760200  1
  Mg  Mg8  1  0.21637600  0.97514300  0.38760200  1
  Mg  Mg9  1  0.97514300  0.75876700  0.88760200  1
  Mg  Mg10  1  0.24123300  0.21637600  0.88760200  1
  Mg  Mg11  1  0.78362400  0.02485700  0.88760200  1
  Mg  Mg12  1  0.33333300  0.66666700  0.41315700  1
  Mg  Mg13  1  0.66666700  0.33333300  0.91315700  1
  Si  Si14  1  0.66666700  0.33333300  0.32983000  1
  Si  Si15  1  0.33333300  0.66666700  0.82983000  1
  Si  Si16  1  0.00000000  0.00000000  0.10058300  1
  Si  Si17  1  0.00000000  0.00000000  0.60058300  1
  O  O18  1  0.82461300  0.02605200  0.52666800  1
  O  O19  1  0.97394800  0.79856000  0.52666800  1
  O  O20  1  0.20144000  0.17538700  0.52666800  1
  O  O21  1  0.17538700  0.97394800  0.02666800  1
  O  O22  1  0.02605200  0.20144000  0.02666800  1
  O  O23  1  0.79856000  0.82461300  0.02666800  1
  O  O24  1  0.61251000  0.08535900  0.00035600  1
  O  O25  1  0.91464100  0.52715000  0.00035600  1
  O  O26  1  0.47285000  0.38749000  0.00035600  1
  O  O27  1  0.38749000  0.91464100  0.50035600  1
  O  O28  1  0.08535900  0.47285000  0.50035600  1
  O  O29  1  0.52715000  0.61251000  0.50035600  1
  O  O30  1  0.86113900  0.32379800  0.27438000  1
  O  O31  1  0.67620200  0.53734100  0.27438000  1
  O  O32  1  0.46265900  0.13886100  0.27438000  1
  O  O33  1  0.13886100  0.67620200  0.77438000  1
  O  O34  1  0.32379800  0.46265900  0.77438000  1
  O  O35  1  0.53734100  0.86113900  0.77438000  1
  O  O36  1  0.28216900  0.47111500  0.25576800  1
  O  O37  1  0.52888500  0.81105400  0.25576800  1
  O  O38  1  0.18894600  0.71783100  0.25576800  1
  O  O39  1  0.71783100  0.52888500  0.75576800  1
  O  O40  1  0.47111500  0.18894600  0.75576800  1
  O  O41  1  0.81105400  0.28216900  0.75576800  1
  O  O42  1  0.66666700  0.33333300  0.49946600  1
  O  O43  1  0.33333300  0.66666700  0.99946600  1
  O  O44  1  0.00000000  0.00000000  0.26899000  1
  O  O45  1  0.00000000  0.00000000  0.76899000  1
