# generated using pymatgen
data_Nd(CO3)3
_symmetry_space_group_name_H-M   'P 1'
_cell_length_a   9.22269600
_cell_length_b   11.38956100
_cell_length_c   12.04339987
_cell_angle_alpha   69.27514838
_cell_angle_beta   90.00000000
_cell_angle_gamma   90.00000000
_symmetry_Int_Tables_number   1
_chemical_formula_structural   Nd(CO3)3
_chemical_formula_sum   'Nd4 C12 O36'
_cell_volume   1183.20655289
_cell_formula_units_Z   4
loop_
 _symmetry_equiv_pos_site_id
 _symmetry_equiv_pos_as_xyz
  1  'x, y, z'
loop_
 _atom_site_type_symbol
 _atom_site_label
 _atom_site_symmetry_multiplicity
 _atom_site_fract_x
 _atom_site_fract_y
 _atom_site_fract_z
 _atom_site_occupancy
  Nd  Nd0  1  0.51307200  0.28338700  0.82497800  1
  Nd  Nd1  1  0.01307200  0.21661300  0.17502200  1
  Nd  Nd2  1  0.48692800  0.71661300  0.17502200  1
  Nd  Nd3  1  0.98692800  0.78338700  0.82497800  1
  C  C4  1  0.40038600  0.36309700  0.51245700  1
  C  C5  1  0.90038600  0.13690300  0.48754300  1
  C  C6  1  0.59961400  0.63690300  0.48754300  1
  C  C7  1  0.09961400  0.86309700  0.51245700  1
  C  C8  1  0.42212500  0.99663200  0.97532200  1
  C  C9  1  0.92212500  0.50336800  0.02467800  1
  C  C10  1  0.57787500  0.00336800  0.02467800  1
  C  C11  1  0.07787500  0.49663200  0.97532200  1
  C  C12  1  0.45957200  0.36891900  0.10193300  1
  C  C13  1  0.95957200  0.13108100  0.89806700  1
  C  C14  1  0.54042800  0.63108100  0.89806700  1
  C  C15  1  0.04042800  0.86891900  0.10193300  1
  O  O16  1  0.41682400  0.28715000  0.60805200  1
  O  O17  1  0.91682400  0.21285000  0.39194800  1
  O  O18  1  0.58317600  0.71285000  0.39194800  1
  O  O19  1  0.08317600  0.78715000  0.60805200  1
  O  O20  1  0.38444900  0.43780800  0.41736700  1
  O  O21  1  0.88444900  0.06219200  0.58263300  1
  O  O22  1  0.61555100  0.56219200  0.58263300  1
  O  O23  1  0.11555100  0.93780800  0.41736700  1
  O  O24  1  0.37533000  0.09762200  0.89743000  1
  O  O25  1  0.87533000  0.40237800  0.10257000  1
  O  O26  1  0.62467000  0.90237800  0.10257000  1
  O  O27  1  0.12467000  0.59762200  0.89743000  1
  O  O28  1  0.64326800  0.10657300  0.98295700  1
  O  O29  1  0.14326800  0.39342700  0.01704300  1
  O  O30  1  0.35673200  0.89342700  0.01704300  1
  O  O31  1  0.85673200  0.60657300  0.98295700  1
  O  O32  1  0.49965300  0.31579100  0.03965000  1
  O  O33  1  0.99965300  0.18420900  0.96035000  1
  O  O34  1  0.50034700  0.68420900  0.96035000  1
  O  O35  1  0.00034700  0.81579100  0.03965000  1
  O  O36  1  0.57640100  0.57554400  0.83746900  1
  O  O37  1  0.07640100  0.92445600  0.16253100  1
  O  O38  1  0.42359900  0.42445600  0.16253100  1
  O  O39  1  0.92359900  0.07554400  0.83746900  1
  O  O40  1  0.35575500  0.44083900  0.76904700  1
  O  O41  1  0.85575500  0.05916100  0.23095300  1
  O  O42  1  0.64424500  0.55916100  0.23095300  1
  O  O43  1  0.14424500  0.94083900  0.76904700  1
  O  O44  1  0.71129300  0.29799200  0.69641100  1
  O  O45  1  0.21129300  0.20200800  0.30358900  1
  O  O46  1  0.28870700  0.70200800  0.30358900  1
  O  O47  1  0.78870700  0.79799200  0.69641100  1
  O  O48  1  0.76339900  0.33119500  0.78548100  1
  O  O49  1  0.26339900  0.16880500  0.21451900  1
  O  O50  1  0.23660100  0.66880500  0.21451900  1
  O  O51  1  0.73660100  0.83119500  0.78548100  1
