# generated using pymatgen
data_ZnSi4H35C13ClO
_symmetry_space_group_name_H-M   'P 1'
_cell_length_a   10.14546528
_cell_length_b   13.36608522
_cell_length_c   21.64558110
_cell_angle_alpha   90.00000000
_cell_angle_beta   90.00000000
_cell_angle_gamma   104.82960481
_symmetry_Int_Tables_number   1
_chemical_formula_structural   ZnSi4H35C13ClO
_chemical_formula_sum   'Zn4 Si16 H140 C52 Cl4 O4'
_cell_volume   2837.48282141
_cell_formula_units_Z   4
loop_
 _symmetry_equiv_pos_site_id
 _symmetry_equiv_pos_as_xyz
  1  'x, y, z'
loop_
 _atom_site_type_symbol
 _atom_site_label
 _atom_site_symmetry_multiplicity
 _atom_site_fract_x
 _atom_site_fract_y
 _atom_site_fract_z
 _atom_site_occupancy
  Zn  Zn0  1  0.42310011  0.42308978  0.56216390  1
  Zn  Zn1  1  0.92310011  0.92308978  0.93783610  1
  Zn  Zn2  1  0.57689989  0.57691022  0.43783610  1
  Zn  Zn3  1  0.07689989  0.07691022  0.06216390  1
  Si  Si4  1  0.38974065  0.26889592  0.62270527  1
  Si  Si5  1  0.88974065  0.76889592  0.87729473  1
  Si  Si6  1  0.61025935  0.73110408  0.37729473  1
  Si  Si7  1  0.11025935  0.23110408  0.12270527  1
  Si  Si8  1  0.60968504  0.24575014  0.64051926  1
  Si  Si9  1  0.10968504  0.74575014  0.85948074  1
  Si  Si10  1  0.39031496  0.75424986  0.35948074  1
  Si  Si11  1  0.89031496  0.25424986  0.14051926  1
  Si  Si12  1  0.28857469  0.28087501  0.72014333  1
  Si  Si13  1  0.78857469  0.78087501  0.77985667  1
  Si  Si14  1  0.71142531  0.71912499  0.27985667  1
  Si  Si15  1  0.21142531  0.21912499  0.22014333  1
  Si  Si16  1  0.25729972  0.12938944  0.56466352  1
  Si  Si17  1  0.75729972  0.62938944  0.93533648  1
  Si  Si18  1  0.74270028  0.87061056  0.43533648  1
  Si  Si19  1  0.24270028  0.37061056  0.06466352  1
  H  H20  1  0.56126964  0.05136170  0.63891664  1
  H  H21  1  0.06126964  0.55136170  0.86108336  1
  H  H22  1  0.43873036  0.94863830  0.36108336  1
  H  H23  1  0.93873036  0.44863830  0.13891664  1
  H  H24  1  0.56233338  0.09700027  0.71619669  1
  H  H25  1  0.06233338  0.59700027  0.78380331  1
  H  H26  1  0.43766662  0.90299973  0.28380331  1
  H  H27  1  0.93766662  0.40299973  0.21619669  1
  H  H28  1  0.71854337  0.11053741  0.67552268  1
  H  H29  1  0.21854337  0.61053741  0.82447732  1
  H  H30  1  0.28145663  0.88946259  0.32447732  1
  H  H31  1  0.78145663  0.38946259  0.17552268  1
  H  H32  1  0.67011150  0.20890307  0.53139394  1
  H  H33  1  0.17011150  0.70890307  0.96860606  1
  H  H34  1  0.32988850  0.79109693  0.46860606  1
  H  H35  1  0.82988850  0.29109693  0.03139394  1
  H  H36  1  0.81657082  0.25477714  0.57876992  1
  H  H37  1  0.31657082  0.75477714  0.92123008  1
  H  H38  1  0.18342918  0.74522286  0.42123008  1
  H  H39  1  0.68342918  0.24522286  0.07876992  1
  H  H40  1  0.72764427  0.34342241  0.54873632  1
  H  H41  1  0.22764427  0.84342241  0.95126368  1
  H  H42  1  0.27235573  0.65657759  0.45126368  1
  H  H43  1  0.77235573  0.15657759  0.04873632  1
  H  H44  1  0.65751992  0.33657589  0.74357765  1
  H  H45  1  0.15751992  0.83657589  0.75642235  1
  H  H46  1  0.34248008  0.66342411  0.25642235  1
  H  H47  1  0.84248008  0.16342411  0.24357765  1
  H  H48  1  0.71920870  0.42303224  0.68137659  1
  H  H49  1  0.21920870  0.92303224  0.81862341  1
  H  H50  1  0.28079130  0.57696776  0.31862341  1
  H  H51  1  0.78079130  0.07696776  0.18137659  1
  H  H52  1  0.80915429  0.33073086  0.70411828  1
  H  H53  1  0.30915429  0.83073086  0.79588172  1
  H  H54  1  0.19084571  0.66926914  0.29588172  1
  H  H55  1  0.69084571  0.16926914  0.20411828  1
  H  H56  1  0.42777489  0.19073445  0.78581401  1
  H  H57  1  0.92777489  0.69073445  0.71418599  1
  H  H58  1  0.57222511  0.80926555  0.21418599  1
  H  H59  1  0.07222511  0.30926555  0.28581401  1
  H  H60  1  0.27227357  0.10282891  0.76309848  1
  H  H61  1  0.77227357  0.60282891  0.73690152  1
  H  H62  1  0.72772643  0.89717109  0.23690152  1
  H  H63  1  0.22772643  0.39717109  0.26309848  1
  H  H64  1  0.27222187  0.19525634  0.82214291  1
  H  H65  1  0.77222187  0.69525634  0.67785709  1
  H  H66  1  0.72777813  0.80474366  0.17785709  1
  H  H67  1  0.22777813  0.30474366  0.32214291  1
  H  H68  1  0.46971263  0.43097777  0.76213055  1
  H  H69  1  0.96971263  0.93097777  0.73786945  1
  H  H70  1  0.53028737  0.56902223  0.23786945  1
  H  H71  1  0.03028737  0.06902223  0.26213055  1
  H  H72  1  0.31127445  0.41331573  0.80163426  1
  H  H73  1  0.81127445  0.91331573  0.69836574  1
  H  H74  1  0.68872555  0.58668427  0.19836574  1
  H  H75  1  0.18872555  0.08668427  0.30163426  1
  H  H76  1  0.33437340  0.47351474  0.72749433  1
  H  H77  1  0.83437340  0.97351474  0.77250567  1
  H  H78  1  0.66562660  0.52648526  0.27250567  1
  H  H79  1  0.16562660  0.02648526  0.22749433  1
  H  H80  1  0.04399526  0.18465196  0.69869417  1
  H  H81  1  0.54399526  0.68465196  0.80130583  1
  H  H82  1  0.95600474  0.81534804  0.30130583  1
  H  H83  1  0.45600474  0.31534804  0.19869417  1
  H  H84  1  0.06859111  0.32043765  0.68835383  1
  H  H85  1  0.56859111  0.82043765  0.81164617  1
  H  H86  1  0.93140889  0.67956235  0.31164617  1
  H  H87  1  0.43140889  0.17956235  0.18835383  1
  H  H88  1  0.06164995  0.26757569  0.76417111  1
  H  H89  1  0.56164995  0.76757569  0.73582889  1
  H  H90  1  0.93835005  0.73242431  0.23582889  1
  H  H91  1  0.43835005  0.23242431  0.26417111  1
  H  H92  1  0.02684329  0.16380227  0.58184678  1
  H  H93  1  0.52684329  0.66380227  0.91815322  1
  H  H94  1  0.97315671  0.83619773  0.41815322  1
  H  H95  1  0.47315671  0.33619773  0.08184678  1
  H  H96  1  0.03186090  0.08938613  0.51404933  1
  H  H97  1  0.53186090  0.58938613  0.98595067  1
  H  H98  1  0.96813910  0.91061387  0.48595067  1
  H  H99  1  0.46813910  0.41061387  0.01404933  1
  H  H100  1  0.10548739  0.22514005  0.51309872  1
  H  H101  1  0.60548739  0.72514005  0.98690128  1
  H  H102  1  0.89451261  0.77485995  0.48690128  1
  H  H103  1  0.39451261  0.27485995  0.01309872  1
  H  H104  1  0.16150315  0.00091429  0.64953555  1
  H  H105  1  0.66150315  0.50091429  0.85046445  1
  H  H106  1  0.83849685  0.99908571  0.35046445  1
  H  H107  1  0.33849685  0.49908571  0.14953555  1
  H  H108  1  0.31096329  0.97662180  0.61657529  1
  H  H109  1  0.81096329  0.47662180  0.88342471  1
  H  H110  1  0.68903671  0.02337820  0.38342471  1
  H  H111  1  0.18903671  0.52337820  0.11657529  1
  H  H112  1  0.15389753  0.94170092  0.57551002  1
  H  H113  1  0.65389753  0.44170092  0.92448998  1
  H  H114  1  0.84610247  0.05829908  0.42448998  1
  H  H115  1  0.34610247  0.55829908  0.07551002  1
  H  H116  1  0.36643034  0.17884452  0.46097137  1
  H  H117  1  0.86643034  0.67884452  0.03902863  1
  H  H118  1  0.63356966  0.82115548  0.53902863  1
  H  H119  1  0.13356966  0.32115548  0.96097137  1
  H  H120  1  0.27425027  0.04626927  0.46456966  1
  H  H121  1  0.77425027  0.54626927  0.03543034  1
  H  H122  1  0.72574973  0.95373073  0.53543034  1
  H  H123  1  0.22574973  0.45373073  0.96456966  1
  H  H124  1  0.43931879  0.08668181  0.49843279  1
  H  H125  1  0.93931879  0.58668181  0.00156721  1
  H  H126  1  0.56068121  0.91331819  0.50156721  1
  H  H127  1  0.06068121  0.41331819  0.99843279  1
  H  H128  1  0.09742508  0.41962878  0.59171610  1
  H  H129  1  0.59742508  0.91962878  0.90828390  1
  H  H130  1  0.90257492  0.58037122  0.40828390  1
  H  H131  1  0.40257492  0.08037122  0.09171610  1
  H  H132  1  0.12894146  0.49790960  0.52401324  1
  H  H133  1  0.62894146  0.99790960  0.97598676  1
  H  H134  1  0.87105854  0.50209040  0.47598676  1
  H  H135  1  0.37105854  0.00209040  0.02401324  1
  H  H136  1  0.01077216  0.54312397  0.64574835  1
  H  H137  1  0.51077216  0.04312397  0.85425165  1
  H  H138  1  0.98922784  0.45687603  0.35425165  1
  H  H139  1  0.48922784  0.95687603  0.14574835  1
  H  H140  1  0.00271168  0.60176985  0.57337879  1
  H  H141  1  0.50271168  0.10176985  0.92662121  1
  H  H142  1  0.99728832  0.39823015  0.42662121  1
  H  H143  1  0.49728832  0.89823015  0.07337879  1
  H  H144  1  0.18234652  0.68911231  0.67404843  1
  H  H145  1  0.68234652  0.18911231  0.82595157  1
  H  H146  1  0.81765348  0.31088769  0.32595157  1
  H  H147  1  0.31765348  0.81088769  0.17404843  1
  H  H148  1  0.19263988  0.73899606  0.59818710  1
  H  H149  1  0.69263988  0.23899606  0.90181290  1
  H  H150  1  0.80736012  0.26100394  0.40181290  1
  H  H151  1  0.30736012  0.76100394  0.09818710  1
  H  H152  1  0.39074422  0.68293903  0.58024012  1
  H  H153  1  0.89074422  0.18293903  0.91975988  1
  H  H154  1  0.60925578  0.31706097  0.41975988  1
  H  H155  1  0.10925578  0.81706097  0.08024012  1
  H  H156  1  0.38145668  0.63295474  0.65681821  1
  H  H157  1  0.88145668  0.13295474  0.84318179  1
  H  H158  1  0.61854332  0.36704526  0.34318179  1
  H  H159  1  0.11854332  0.86704526  0.15681821  1
  C  C160  1  0.61144848  0.11340542  0.67078744  1
  C  C161  1  0.11144848  0.61340542  0.82921256  1
  C  C162  1  0.38855152  0.88659458  0.32921256  1
  C  C163  1  0.88855152  0.38659458  0.17078744  1
  C  C164  1  0.71498865  0.26515660  0.56742907  1
  C  C165  1  0.21498865  0.76515660  0.93257093  1
  C  C166  1  0.28501135  0.73484340  0.43257093  1
  C  C167  1  0.78501135  0.23484340  0.06742907  1
  C  C168  1  0.70694269  0.34352270  0.69804490  1
  C  C169  1  0.20694269  0.84352270  0.80195510  1
  C  C170  1  0.29305731  0.65647730  0.30195510  1
  C  C171  1  0.79305731  0.15647730  0.19804490  1
  C  C172  1  0.31882602  0.18271726  0.77770264  1
  C  C173  1  0.81882602  0.68271726  0.72229736  1
  C  C174  1  0.68117398  0.81728274  0.22229736  1
  C  C175  1  0.18117398  0.31728274  0.27770264  1
  C  C176  1  0.35876250  0.41259041  0.75586439  1
  C  C177  1  0.85876250  0.91259041  0.74413561  1
  C  C178  1  0.64123750  0.58740959  0.24413561  1
  C  C179  1  0.14123750  0.08740959  0.25586439  1
  C  C180  1  0.09738725  0.26106392  0.71647912  1
  C  C181  1  0.59738725  0.76106392  0.78352088  1
  C  C182  1  0.90261275  0.73893608  0.28352088  1
  C  C183  1  0.40261275  0.23893608  0.21647912  1
  C  C184  1  0.08940404  0.15522161  0.54177696  1
  C  C185  1  0.58940404  0.65522161  0.95822304  1
  C  C186  1  0.91059596  0.84477839  0.45822304  1
  C  C187  1  0.41059596  0.34477839  0.04177696  1
  C  C188  1  0.21760208  0.00055859  0.60619486  1
  C  C189  1  0.71760208  0.50055859  0.89380514  1
  C  C190  1  0.78239792  0.99944141  0.39380514  1
  C  C191  1  0.28239792  0.49944141  0.10619486  1
  C  C192  1  0.34424641  0.10940350  0.49019498  1
  C  C193  1  0.84424641  0.60940350  0.00980502  1
  C  C194  1  0.65575359  0.89059650  0.50980502  1
  C  C195  1  0.15575359  0.39059650  0.99019498  1
  C  C196  1  0.13869767  0.49912339  0.57484786  1
  C  C197  1  0.63869767  0.99912339  0.92515214  1
  C  C198  1  0.86130233  0.50087661  0.42515214  1
  C  C199  1  0.36130233  0.00087661  0.07484786  1
  C  C200  1  0.07232462  0.57737513  0.60547267  1
  C  C201  1  0.57232462  0.07737513  0.89452733  1
  C  C202  1  0.92767538  0.42262487  0.39452733  1
  C  C203  1  0.42767538  0.92262487  0.10547267  1
  C  C204  1  0.19152101  0.66922799  0.62515088  1
  C  C205  1  0.69152101  0.16922799  0.87484912  1
  C  C206  1  0.80847899  0.33077201  0.37484912  1
  C  C207  1  0.30847899  0.83077201  0.12515088  1
  C  C208  1  0.32259076  0.63417609  0.61432262  1
  C  C209  1  0.82259076  0.13417609  0.88567738  1
  C  C210  1  0.67740924  0.36582391  0.38567738  1
  C  C211  1  0.17740924  0.86582391  0.11432262  1
  Cl  Cl212  1  0.62220562  0.56438871  0.54761764  1
  Cl  Cl213  1  0.12220562  0.06438871  0.95238236  1
  Cl  Cl214  1  0.37779438  0.43561129  0.45238236  1
  Cl  Cl215  1  0.87779438  0.93561129  0.04761764  1
  O  O216  1  0.28194812  0.52814877  0.59158785  1
  O  O217  1  0.78194812  0.02814877  0.90841215  1
  O  O218  1  0.71805188  0.47185123  0.40841215  1
  O  O219  1  0.21805188  0.97185123  0.09158785  1
