# generated using pymatgen
data_Rb2MnH12(SO7)2
_symmetry_space_group_name_H-M   'P 1'
_cell_length_a   12.65695100
_cell_length_b   6.24224400
_cell_length_c   9.28637798
_cell_angle_alpha   74.23202795
_cell_angle_beta   90.00000000
_cell_angle_gamma   90.00000000
_symmetry_Int_Tables_number   1
_chemical_formula_structural   Rb2MnH12(SO7)2
_chemical_formula_sum   'Rb4 Mn2 H24 S4 O28'
_cell_volume   706.08712550
_cell_formula_units_Z   2
loop_
 _symmetry_equiv_pos_site_id
 _symmetry_equiv_pos_as_xyz
  1  'x, y, z'
loop_
 _atom_site_type_symbol
 _atom_site_label
 _atom_site_symmetry_multiplicity
 _atom_site_fract_x
 _atom_site_fract_y
 _atom_site_fract_z
 _atom_site_occupancy
  Rb  Rb0  1  0.14827100  0.65164600  0.63099500  1
  Rb  Rb1  1  0.64827100  0.34835400  0.86900500  1
  Rb  Rb2  1  0.85172900  0.34835400  0.36900500  1
  Rb  Rb3  1  0.35172900  0.65164600  0.13099500  1
  Mn  Mn4  1  0.50000000  0.00000000  0.50000000  1
  Mn  Mn5  1  0.00000000  0.00000000  0.00000000  1
  H  H6  1  0.40464900  0.67854800  0.71620800  1
  H  H7  1  0.90464900  0.32145200  0.78379200  1
  H  H8  1  0.59535100  0.32145200  0.28379200  1
  H  H9  1  0.09535100  0.67854800  0.21620800  1
  H  H10  1  0.36873700  0.91560700  0.74147500  1
  H  H11  1  0.86873700  0.08439300  0.75852500  1
  H  H12  1  0.63126300  0.08439300  0.25852500  1
  H  H13  1  0.13126300  0.91560700  0.24147500  1
  H  H14  1  0.39899200  0.06778200  0.22468900  1
  H  H15  1  0.89899200  0.93221800  0.27531100  1
  H  H16  1  0.60100800  0.93221800  0.77531100  1
  H  H17  1  0.10100800  0.06778200  0.72468900  1
  H  H18  1  0.31071800  0.00812100  0.35178500  1
  H  H19  1  0.81071800  0.99187900  0.14821500  1
  H  H20  1  0.68928200  0.99187900  0.64821500  1
  H  H21  1  0.18928200  0.00812100  0.85178500  1
  H  H22  1  0.56118700  0.65024400  0.40767600  1
  H  H23  1  0.06118700  0.34975600  0.09232400  1
  H  H24  1  0.43881300  0.34975600  0.59232400  1
  H  H25  1  0.93881300  0.65024400  0.90767600  1
  H  H26  1  0.64660400  0.66814900  0.52892200  1
  H  H27  1  0.14660400  0.33185100  0.97107800  1
  H  H28  1  0.35339600  0.33185100  0.47107800  1
  H  H29  1  0.85339600  0.66814900  0.02892200  1
  S  S30  1  0.35994800  0.26919800  0.90404800  1
  S  S31  1  0.85994800  0.73080200  0.59595200  1
  S  S32  1  0.64005200  0.73080200  0.09595200  1
  S  S33  1  0.14005200  0.26919800  0.40404800  1
  O  O34  1  0.26754000  0.41415000  0.91309200  1
  O  O35  1  0.76754000  0.58585000  0.58690800  1
  O  O36  1  0.73246000  0.58585000  0.08690800  1
  O  O37  1  0.23246000  0.41415000  0.41309200  1
  O  O38  1  0.42279400  0.22245400  0.04469800  1
  O  O39  1  0.92279400  0.77754600  0.45530200  1
  O  O40  1  0.57720600  0.77754600  0.95530200  1
  O  O41  1  0.07720600  0.22245400  0.54469800  1
  O  O42  1  0.42857300  0.39140600  0.77647800  1
  O  O43  1  0.92857300  0.60859400  0.72352200  1
  O  O44  1  0.57142700  0.60859400  0.22352200  1
  O  O45  1  0.07142700  0.39140600  0.27647800  1
  O  O46  1  0.32170200  0.05571600  0.87742800  1
  O  O47  1  0.82170200  0.94428400  0.62257200  1
  O  O48  1  0.67829800  0.94428400  0.12257200  1
  O  O49  1  0.17829800  0.05571600  0.37742800  1
  O  O50  1  0.38826100  0.83691300  0.66547800  1
  O  O51  1  0.88826100  0.16308700  0.83452200  1
  O  O52  1  0.61173900  0.16308700  0.33452200  1
  O  O53  1  0.11173900  0.83691300  0.16547800  1
  O  O54  1  0.38337500  0.97032600  0.32651900  1
  O  O55  1  0.88337500  0.02967400  0.17348100  1
  O  O56  1  0.61662500  0.02967400  0.67348100  1
  O  O57  1  0.11662500  0.97032600  0.82651900  1
  O  O58  1  0.56995600  0.68948000  0.50363300  1
  O  O59  1  0.06995600  0.31052000  0.99636700  1
  O  O60  1  0.43004400  0.31052000  0.49636700  1
  O  O61  1  0.93004400  0.68948000  0.00363300  1
