# generated using pymatgen
data_TbSbMo2O9
_symmetry_space_group_name_H-M   'P 1'
_cell_length_a   9.71274446
_cell_length_b   9.71274446
_cell_length_c   10.87340736
_cell_angle_alpha   68.06814701
_cell_angle_beta   68.06814701
_cell_angle_gamma   95.20363908
_symmetry_Int_Tables_number   1
_chemical_formula_structural   TbSbMo2O9
_chemical_formula_sum   'Tb4 Sb4 Mo8 O36'
_cell_volume   850.49766317
_cell_formula_units_Z   4
loop_
 _symmetry_equiv_pos_site_id
 _symmetry_equiv_pos_as_xyz
  1  'x, y, z'
loop_
 _atom_site_type_symbol
 _atom_site_label
 _atom_site_symmetry_multiplicity
 _atom_site_fract_x
 _atom_site_fract_y
 _atom_site_fract_z
 _atom_site_occupancy
  Tb  Tb0  1  0.67149300  0.32850700  0.75000000  1
  Tb  Tb1  1  0.32850700  0.67149300  0.25000000  1
  Tb  Tb2  1  0.12535100  0.87464900  0.75000000  1
  Tb  Tb3  1  0.87464900  0.12535100  0.25000000  1
  Sb  Sb4  1  0.65144100  0.61781000  0.96467700  1
  Sb  Sb5  1  0.38219000  0.34855900  0.53532300  1
  Sb  Sb6  1  0.34855900  0.38219000  0.03532300  1
  Sb  Sb7  1  0.61781000  0.65144100  0.46467700  1
  Mo  Mo8  1  0.04700900  0.25996400  0.47317100  1
  Mo  Mo9  1  0.74003600  0.95299100  0.02682900  1
  Mo  Mo10  1  0.95299100  0.74003600  0.52682900  1
  Mo  Mo11  1  0.25996400  0.04700900  0.97317100  1
  Mo  Mo12  1  0.05900500  0.43415700  0.80549700  1
  Mo  Mo13  1  0.56584300  0.94099500  0.69450300  1
  Mo  Mo14  1  0.94099500  0.56584300  0.19450300  1
  Mo  Mo15  1  0.43415700  0.05900500  0.30549700  1
  O  O16  1  0.06489000  0.09496000  0.60191000  1
  O  O17  1  0.90504000  0.93511000  0.89809000  1
  O  O18  1  0.93511000  0.90504000  0.39809000  1
  O  O19  1  0.09496000  0.06489000  0.10191000  1
  O  O20  1  0.87053400  0.29974600  0.56486200  1
  O  O21  1  0.70025400  0.12946600  0.93513800  1
  O  O22  1  0.12946600  0.70025400  0.43513800  1
  O  O23  1  0.29974600  0.87053400  0.06486200  1
  O  O24  1  0.04547100  0.22177300  0.32391900  1
  O  O25  1  0.77822700  0.95452900  0.17608100  1
  O  O26  1  0.95452900  0.77822700  0.67608100  1
  O  O27  1  0.22177300  0.04547100  0.82391900  1
  O  O28  1  0.77742000  0.59552900  0.57936500  1
  O  O29  1  0.40447100  0.22258000  0.92063500  1
  O  O30  1  0.22258000  0.40447100  0.42063500  1
  O  O31  1  0.59552900  0.77742000  0.07936500  1
  O  O32  1  0.97917100  0.30429100  0.99601900  1
  O  O33  1  0.69570900  0.02082900  0.50398100  1
  O  O34  1  0.02082900  0.69570900  0.00398100  1
  O  O35  1  0.30429100  0.97917100  0.49601900  1
  O  O36  1  0.14484000  0.62004600  0.77437400  1
  O  O37  1  0.37995400  0.85516000  0.72562600  1
  O  O38  1  0.85516000  0.37995400  0.22562600  1
  O  O39  1  0.62004600  0.14484000  0.27437400  1
  O  O40  1  0.90847100  0.44500200  0.74854400  1
  O  O41  1  0.55499800  0.09152900  0.75145600  1
  O  O42  1  0.09152900  0.55499800  0.25145600  1
  O  O43  1  0.44500200  0.90847100  0.24854400  1
  O  O44  1  0.21027200  0.36577800  0.69985200  1
  O  O45  1  0.63422200  0.78972800  0.80014800  1
  O  O46  1  0.78972800  0.63422200  0.30014800  1
  O  O47  1  0.36577800  0.21027200  0.19985200  1
  O  O48  1  0.57600900  0.45974400  0.89834500  1
  O  O49  1  0.54025600  0.42399100  0.60165500  1
  O  O50  1  0.42399100  0.54025600  0.10165500  1
  O  O51  1  0.45974400  0.57600900  0.39834500  1
