# generated using pymatgen
data_AgH12C4S2N5O3
_symmetry_space_group_name_H-M   'P 1'
_cell_length_a   10.38791374
_cell_length_b   10.38791374
_cell_length_c   18.93154822
_cell_angle_alpha   89.20678351
_cell_angle_beta   89.20678351
_cell_angle_gamma   38.07435070
_symmetry_Int_Tables_number   1
_chemical_formula_structural   AgH12C4S2N5O3
_chemical_formula_sum   'Ag4 H48 C16 S8 N20 O12'
_cell_volume   1259.67518700
_cell_formula_units_Z   4
loop_
 _symmetry_equiv_pos_site_id
 _symmetry_equiv_pos_as_xyz
  1  'x, y, z'
loop_
 _atom_site_type_symbol
 _atom_site_label
 _atom_site_symmetry_multiplicity
 _atom_site_fract_x
 _atom_site_fract_y
 _atom_site_fract_z
 _atom_site_occupancy
  Ag  Ag0  1  0.80501000  0.19499000  0.25000000  1
  Ag  Ag1  1  0.19499000  0.80501000  0.75000000  1
  Ag  Ag2  1  0.30685000  0.69315000  0.25000000  1
  Ag  Ag3  1  0.69315000  0.30685000  0.75000000  1
  H  H4  1  0.49942500  0.18121500  0.42454700  1
  H  H5  1  0.81878500  0.50057500  0.07545300  1
  H  H6  1  0.50057500  0.81878500  0.57545300  1
  H  H7  1  0.18121500  0.49942500  0.92454700  1
  H  H8  1  0.25611100  0.49816300  0.47193200  1
  H  H9  1  0.50183700  0.74388900  0.02806800  1
  H  H10  1  0.74388900  0.50183700  0.52806800  1
  H  H11  1  0.49816300  0.25611100  0.97193200  1
  H  H12  1  0.69192100  0.09569300  0.36830400  1
  H  H13  1  0.90430700  0.30807900  0.13169600  1
  H  H14  1  0.30807900  0.90430700  0.63169600  1
  H  H15  1  0.09569300  0.69192100  0.86830400  1
  H  H16  1  0.96395900  0.69680000  0.08668600  1
  H  H17  1  0.30320000  0.03604100  0.41331400  1
  H  H18  1  0.03604100  0.30320000  0.91331400  1
  H  H19  1  0.69680000  0.96395900  0.58668600  1
  H  H20  1  0.63313500  0.96407800  0.12527100  1
  H  H21  1  0.03592200  0.36686500  0.37472900  1
  H  H22  1  0.36686500  0.03592200  0.87472900  1
  H  H23  1  0.96407800  0.63313500  0.62527100  1
  H  H24  1  0.16360200  0.61748500  0.13457100  1
  H  H25  1  0.38251500  0.83639800  0.36542900  1
  H  H26  1  0.83639800  0.38251500  0.86542900  1
  H  H27  1  0.61748500  0.16360200  0.63457100  1
  H  H28  1  0.26999800  0.75796800  0.47408000  1
  H  H29  1  0.24203200  0.73000200  0.02592000  1
  H  H30  1  0.73000200  0.24203200  0.52592000  1
  H  H31  1  0.75796800  0.26999800  0.97408000  1
  H  H32  1  0.11945800  0.83891300  0.39828100  1
  H  H33  1  0.16108700  0.88054200  0.10171900  1
  H  H34  1  0.88054200  0.16108700  0.60171900  1
  H  H35  1  0.83891300  0.11945800  0.89828100  1
  H  H36  1  0.04198100  0.83824500  0.48284500  1
  H  H37  1  0.16175500  0.95801900  0.01715500  1
  H  H38  1  0.95801900  0.16175500  0.51715500  1
  H  H39  1  0.83824500  0.04198100  0.98284500  1
  H  H40  1  0.49136300  0.22325400  0.24084500  1
  H  H41  1  0.77674600  0.50863700  0.25915500  1
  H  H42  1  0.50863700  0.77674600  0.75915500  1
  H  H43  1  0.22325400  0.49136300  0.74084500  1
  H  H44  1  0.54562000  0.02282400  0.27397300  1
  H  H45  1  0.97717600  0.45438000  0.22602700  1
  H  H46  1  0.45438000  0.97717600  0.72602700  1
  H  H47  1  0.02282400  0.54562000  0.77397300  1
  H  H48  1  0.36804700  0.18416400  0.20187000  1
  H  H49  1  0.81583600  0.63195300  0.29813000  1
  H  H50  1  0.63195300  0.81583600  0.79813000  1
  H  H51  1  0.18416400  0.36804700  0.70187000  1
  C  C52  1  0.46828900  0.39884200  0.40078600  1
  C  C53  1  0.60115800  0.53171100  0.09921400  1
  C  C54  1  0.53171100  0.60115800  0.59921400  1
  C  C55  1  0.39884200  0.46828900  0.90078600  1
  C  C56  1  0.17644800  0.75608000  0.44921100  1
  C  C57  1  0.24392000  0.82355200  0.05078900  1
  C  C58  1  0.82355200  0.24392000  0.55078900  1
  C  C59  1  0.75608000  0.17644800  0.94921100  1
  C  C60  1  0.87675000  0.83916400  0.18242600  1
  C  C61  1  0.16083600  0.12325000  0.31757400  1
  C  C62  1  0.12325000  0.16083600  0.81757400  1
  C  C63  1  0.83916400  0.87675000  0.68242600  1
  C  C64  1  0.51225600  0.10556600  0.22580900  1
  C  C65  1  0.89443400  0.48774400  0.27419100  1
  C  C66  1  0.48774400  0.89443400  0.77419100  1
  C  C67  1  0.10556600  0.51225600  0.72580900  1
  S  S68  1  0.56816100  0.45228400  0.35465400  1
  S  S69  1  0.54771600  0.43183900  0.14534600  1
  S  S70  1  0.43183900  0.54771600  0.64534600  1
  S  S71  1  0.45228400  0.56816100  0.85465400  1
  S  S72  1  0.95771500  0.84085600  0.26137600  1
  S  S73  1  0.15914400  0.04228500  0.23862400  1
  S  S74  1  0.04228500  0.15914400  0.73862400  1
  S  S75  1  0.84085600  0.95771500  0.76137600  1
  N  N76  1  0.29621900  0.54483100  0.44035300  1
  N  N77  1  0.45516900  0.70378100  0.05964700  1
  N  N78  1  0.70378100  0.45516900  0.55964700  1
  N  N79  1  0.54483100  0.29621900  0.94035300  1
  N  N80  1  0.56636400  0.20775600  0.40037600  1
  N  N81  1  0.79224400  0.43363600  0.09962400  1
  N  N82  1  0.43363600  0.79224400  0.59962400  1
  N  N83  1  0.20775600  0.56636400  0.90037600  1
  N  N84  1  0.67734600  0.96152600  0.17377300  1
  N  N85  1  0.03847400  0.32265400  0.32622700  1
  N  N86  1  0.32265400  0.03847400  0.82622700  1
  N  N87  1  0.96152600  0.67734600  0.67377300  1
  N  N88  1  0.01095000  0.71326200  0.12919200  1
  N  N89  1  0.28673800  0.98905000  0.37080800  1
  N  N90  1  0.98905000  0.28673800  0.87080800  1
  N  N91  1  0.71326200  0.01095000  0.62919200  1
  N  N92  1  0.27165600  0.23791800  0.02056700  1
  N  N93  1  0.76208200  0.72834400  0.47943300  1
  N  N94  1  0.72834400  0.76208200  0.97943300  1
  N  N95  1  0.23791800  0.27165600  0.52056700  1
  O  O96  1  0.37791900  0.24731700  0.04490700  1
  O  O97  1  0.75268300  0.62208100  0.45509300  1
  O  O98  1  0.62208100  0.75268300  0.95509300  1
  O  O99  1  0.24731700  0.37791900  0.54490700  1
  O  O100  1  0.20416000  0.30031800  0.95674200  1
  O  O101  1  0.69968200  0.79584000  0.54325800  1
  O  O102  1  0.79584000  0.69968200  0.04325800  1
  O  O103  1  0.30031800  0.20416000  0.45674200  1
  O  O104  1  0.23386900  0.16976400  0.05748600  1
  O  O105  1  0.83023600  0.76613100  0.44251400  1
  O  O106  1  0.76613100  0.83023600  0.94251400  1
  O  O107  1  0.16976400  0.23386900  0.55748600  1
