# generated using pymatgen
data_ZnTe(H2N)4
_symmetry_space_group_name_H-M   'P 1'
_cell_length_a   11.60989000
_cell_length_b   7.33374900
_cell_length_c   7.50132947
_cell_angle_alpha   78.81322769
_cell_angle_beta   90.00000000
_cell_angle_gamma   90.00000000
_symmetry_Int_Tables_number   1
_chemical_formula_structural   ZnTe(H2N)4
_chemical_formula_sum   'Zn4 Te4 H32 N16'
_cell_volume   626.55814890
_cell_formula_units_Z   4
loop_
 _symmetry_equiv_pos_site_id
 _symmetry_equiv_pos_as_xyz
  1  'x, y, z'
loop_
 _atom_site_type_symbol
 _atom_site_label
 _atom_site_symmetry_multiplicity
 _atom_site_fract_x
 _atom_site_fract_y
 _atom_site_fract_z
 _atom_site_occupancy
  Zn  Zn0  1  0.26327000  0.05962000  0.90065200  1
  Zn  Zn1  1  0.76327000  0.94038000  0.09934800  1
  Zn  Zn2  1  0.32922100  0.59206700  0.67370200  1
  Zn  Zn3  1  0.82922100  0.40793300  0.32629800  1
  Te  Te4  1  0.25525800  0.69203800  0.96670400  1
  Te  Te5  1  0.75525800  0.30796200  0.03329600  1
  Te  Te6  1  0.37626000  0.25676300  0.62864500  1
  Te  Te7  1  0.87626000  0.74323700  0.37135500  1
  H  H8  1  0.29336800  0.06487200  0.24641600  1
  H  H9  1  0.79336800  0.93512800  0.75358400  1
  H  H10  1  0.28154800  0.28340800  0.13563500  1
  H  H11  1  0.78154800  0.71659200  0.86436500  1
  H  H12  1  0.47060800  0.26010900  0.02202600  1
  H  H13  1  0.97060800  0.73989100  0.97797400  1
  H  H14  1  0.46376100  0.24504200  0.24588600  1
  H  H15  1  0.96376100  0.75495800  0.75411400  1
  H  H16  1  0.03821800  0.03869900  0.88828200  1
  H  H17  1  0.53821800  0.96130100  0.11171800  1
  H  H18  1  0.06920900  0.15058300  0.05524200  1
  H  H19  1  0.56920900  0.84941700  0.94475800  1
  H  H20  1  0.97878000  0.36359600  0.86162300  1
  H  H21  1  0.47878000  0.63640400  0.13837700  1
  H  H22  1  0.11513200  0.41277900  0.80791600  1
  H  H23  1  0.61513200  0.58722100  0.19208400  1
  H  H24  1  0.44917900  0.89809200  0.56503400  1
  H  H25  1  0.94917900  0.10190800  0.43496600  1
  H  H26  1  0.48830100  0.74328900  0.43607800  1
  H  H27  1  0.98830100  0.25671100  0.56392200  1
  H  H28  1  0.56805200  0.58460700  0.74309000  1
  H  H29  1  0.06805200  0.41539300  0.25691000  1
  H  H30  1  0.64375100  0.73215700  0.59398300  1
  H  H31  1  0.14375100  0.26784300  0.40601700  1
  H  H32  1  0.13359300  0.62129400  0.48323500  1
  H  H33  1  0.63359300  0.37870600  0.51676500  1
  H  H34  1  0.24017100  0.66517400  0.33656400  1
  H  H35  1  0.74017100  0.33482600  0.66343600  1
  H  H36  1  0.18313300  0.92362100  0.55480600  1
  H  H37  1  0.68313300  0.07637900  0.44519400  1
  H  H38  1  0.10822600  0.91519800  0.36940300  1
  H  H39  1  0.60822600  0.08480200  0.63059700  1
  N  N40  1  0.32106600  0.15802200  0.13258200  1
  N  N41  1  0.82106600  0.84197800  0.86741800  1
  N  N42  1  0.44453300  0.17707800  0.14207300  1
  N  N43  1  0.94453300  0.82292200  0.85792700  1
  N  N44  1  0.08791400  0.14515500  0.92149700  1
  N  N45  1  0.58791400  0.85484500  0.07850300  1
  N  N46  1  0.05134600  0.31667400  0.80383100  1
  N  N47  1  0.55134600  0.68332600  0.19616900  1
  N  N48  1  0.47042600  0.76153900  0.56750400  1
  N  N49  1  0.97042600  0.23846100  0.43249600  1
  N  N50  1  0.57290300  0.72081900  0.67891500  1
  N  N51  1  0.07290300  0.27918100  0.32108500  1
  N  N52  1  0.21017600  0.69306800  0.45801900  1
  N  N53  1  0.71017600  0.30693200  0.54198100  1
  N  N54  1  0.18853600  0.89049000  0.42820700  1
  N  N55  1  0.68853600  0.10951000  0.57179300  1
