# generated using pymatgen
data_Ho5Bi3
_symmetry_space_group_name_H-M   'P 1'
_cell_length_a   8.29748900
_cell_length_b   9.44713100
_cell_length_c   12.03408100
_cell_angle_alpha   90.00000000
_cell_angle_beta   90.00000000
_cell_angle_gamma   90.00000000
_symmetry_Int_Tables_number   1
_chemical_formula_structural   Ho5Bi3
_chemical_formula_sum   'Ho20 Bi12'
_cell_volume   943.32110986
_cell_formula_units_Z   4
loop_
 _symmetry_equiv_pos_site_id
 _symmetry_equiv_pos_as_xyz
  1  'x, y, z'
loop_
 _atom_site_type_symbol
 _atom_site_label
 _atom_site_symmetry_multiplicity
 _atom_site_fract_x
 _atom_site_fract_y
 _atom_site_fract_z
 _atom_site_occupancy
  Ho  Ho0  1  0.80643200  0.56145300  0.06619400  1
  Ho  Ho1  1  0.69356800  0.93854700  0.56619400  1
  Ho  Ho2  1  0.19356800  0.06145300  0.93380600  1
  Ho  Ho3  1  0.30643200  0.43854700  0.43380600  1
  Ho  Ho4  1  0.19356800  0.43854700  0.93380600  1
  Ho  Ho5  1  0.30643200  0.06145300  0.43380600  1
  Ho  Ho6  1  0.80643200  0.93854700  0.06619400  1
  Ho  Ho7  1  0.69356800  0.56145300  0.56619400  1
  Ho  Ho8  1  0.17450500  0.75000000  0.23085700  1
  Ho  Ho9  1  0.32549500  0.75000000  0.73085700  1
  Ho  Ho10  1  0.82549500  0.25000000  0.76914300  1
  Ho  Ho11  1  0.67450500  0.25000000  0.26914300  1
  Ho  Ho12  1  0.47482600  0.75000000  0.00528100  1
  Ho  Ho13  1  0.02517400  0.75000000  0.50528100  1
  Ho  Ho14  1  0.52517400  0.25000000  0.99471900  1
  Ho  Ho15  1  0.97482600  0.25000000  0.49471900  1
  Ho  Ho16  1  0.65582600  0.75000000  0.29067400  1
  Ho  Ho17  1  0.84417400  0.75000000  0.79067400  1
  Ho  Ho18  1  0.34417400  0.25000000  0.70932600  1
  Ho  Ho19  1  0.15582600  0.25000000  0.20932600  1
  Bi  Bi20  1  0.40357900  0.75000000  0.47654600  1
  Bi  Bi21  1  0.09642100  0.75000000  0.97654600  1
  Bi  Bi22  1  0.59642100  0.25000000  0.52345400  1
  Bi  Bi23  1  0.90357900  0.25000000  0.02345400  1
  Bi  Bi24  1  0.93373100  0.50951800  0.32522500  1
  Bi  Bi25  1  0.56626900  0.99048200  0.82522500  1
  Bi  Bi26  1  0.06626900  0.00951800  0.67477500  1
  Bi  Bi27  1  0.43373100  0.49048200  0.17477500  1
  Bi  Bi28  1  0.06626900  0.49048200  0.67477500  1
  Bi  Bi29  1  0.43373100  0.00951800  0.17477500  1
  Bi  Bi30  1  0.93373100  0.99048200  0.32522500  1
  Bi  Bi31  1  0.56626900  0.50951800  0.82522500  1
