# generated using pymatgen
data_La4Cd4In2S13
_symmetry_space_group_name_H-M   'P 1'
_cell_length_a   4.03496900
_cell_length_b   20.69918100
_cell_length_c   25.44053400
_cell_angle_alpha   90.00000000
_cell_angle_beta   90.00000000
_cell_angle_gamma   90.00000000
_symmetry_Int_Tables_number   1
_chemical_formula_structural   La4Cd4In2S13
_chemical_formula_sum   'La16 Cd16 In8 S52'
_cell_volume   2124.80748510
_cell_formula_units_Z   4
loop_
 _symmetry_equiv_pos_site_id
 _symmetry_equiv_pos_as_xyz
  1  'x, y, z'
loop_
 _atom_site_type_symbol
 _atom_site_label
 _atom_site_symmetry_multiplicity
 _atom_site_fract_x
 _atom_site_fract_y
 _atom_site_fract_z
 _atom_site_occupancy
  La  La0  1  0.50000000  0.88191500  0.25322500  1
  La  La1  1  0.50000000  0.11808500  0.74677500  1
  La  La2  1  0.50000000  0.38191500  0.24677500  1
  La  La3  1  0.50000000  0.61808500  0.75322500  1
  La  La4  1  0.50000000  0.67405900  0.22189900  1
  La  La5  1  0.50000000  0.32594100  0.77810100  1
  La  La6  1  0.50000000  0.17405900  0.27810100  1
  La  La7  1  0.50000000  0.82594100  0.72189900  1
  La  La8  1  0.50000000  0.53529900  0.34928700  1
  La  La9  1  0.50000000  0.46470100  0.65071300  1
  La  La10  1  0.50000000  0.03529900  0.15071300  1
  La  La11  1  0.50000000  0.96470100  0.84928700  1
  La  La12  1  0.50000000  0.68056000  0.06090300  1
  La  La13  1  0.50000000  0.31944000  0.93909700  1
  La  La14  1  0.50000000  0.18056000  0.43909700  1
  La  La15  1  0.50000000  0.81944000  0.56090300  1
  Cd  Cd16  1  0.00000000  0.52234300  0.16029900  1
  Cd  Cd17  1  0.00000000  0.47765700  0.83970100  1
  Cd  Cd18  1  0.00000000  0.02234300  0.33970100  1
  Cd  Cd19  1  0.00000000  0.97765700  0.66029900  1
  Cd  Cd20  1  0.50000000  0.88938400  0.41296100  1
  Cd  Cd21  1  0.50000000  0.11061600  0.58703900  1
  Cd  Cd22  1  0.50000000  0.38938400  0.08703900  1
  Cd  Cd23  1  0.50000000  0.61061600  0.91296100  1
  Cd  Cd24  1  0.50000000  0.65524200  0.48153500  1
  Cd  Cd25  1  0.50000000  0.34475800  0.51846500  1
  Cd  Cd26  1  0.50000000  0.15524200  0.01846500  1
  Cd  Cd27  1  0.50000000  0.84475800  0.98153500  1
  Cd  Cd28  1  0.00000000  0.84805700  0.11164200  1
  Cd  Cd29  1  0.00000000  0.15194300  0.88835800  1
  Cd  Cd30  1  0.00000000  0.34805700  0.38835800  1
  Cd  Cd31  1  0.00000000  0.65194300  0.61164200  1
  In  In32  1  0.00000000  0.73163000  0.35056900  1
  In  In33  1  0.00000000  0.26837000  0.64943100  1
  In  In34  1  0.00000000  0.23163000  0.14943100  1
  In  In35  1  0.00000000  0.76837000  0.85056900  1
  In  In36  1  0.00000000  0.50000000  0.00000000  1
  In  In37  1  0.00000000  0.00000000  0.50000000  1
  In  In38  1  0.00000000  0.50000000  0.50000000  1
  In  In39  1  0.00000000  0.00000000  0.00000000  1
  S  S40  1  0.00000000  0.58606600  0.42734700  1
  S  S41  1  0.00000000  0.41393400  0.57265300  1
  S  S42  1  0.00000000  0.08606600  0.07265300  1
  S  S43  1  0.00000000  0.91393400  0.92734700  1
  S  S44  1  0.00000000  0.87690400  0.48763300  1
  S  S45  1  0.00000000  0.12309600  0.51236700  1
  S  S46  1  0.00000000  0.37690400  0.01236700  1
  S  S47  1  0.00000000  0.62309600  0.98763300  1
  S  S48  1  0.50000000  0.93831300  0.05292200  1
  S  S49  1  0.50000000  0.06168700  0.94707800  1
  S  S50  1  0.50000000  0.43831300  0.44707800  1
  S  S51  1  0.50000000  0.56168700  0.55292200  1
  S  S52  1  0.50000000  0.78792500  0.15373300  1
  S  S53  1  0.50000000  0.21207500  0.84626700  1
  S  S54  1  0.50000000  0.28792500  0.34626700  1
  S  S55  1  0.50000000  0.71207500  0.65373300  1
  S  S56  1  0.50000000  0.52748700  0.22861000  1
  S  S57  1  0.50000000  0.47251300  0.77139000  1
  S  S58  1  0.50000000  0.02748700  0.27139000  1
  S  S59  1  0.50000000  0.97251300  0.72861000  1
  S  S60  1  0.00000000  0.89565200  0.33999600  1
  S  S61  1  0.00000000  0.10434800  0.66000400  1
  S  S62  1  0.00000000  0.39565200  0.16000400  1
  S  S63  1  0.00000000  0.60434800  0.83999600  1
  S  S64  1  0.50000000  0.51603300  0.07152600  1
  S  S65  1  0.50000000  0.48396700  0.92847400  1
  S  S66  1  0.50000000  0.01603300  0.42847400  1
  S  S67  1  0.50000000  0.98396700  0.57152600  1
  S  S68  1  0.00000000  0.62478200  0.30233500  1
  S  S69  1  0.00000000  0.37521800  0.69766500  1
  S  S70  1  0.00000000  0.12478200  0.19766500  1
  S  S71  1  0.00000000  0.87521800  0.80233500  1
  S  S72  1  0.50000000  0.75238400  0.40563600  1
  S  S73  1  0.50000000  0.24761600  0.59436400  1
  S  S74  1  0.50000000  0.25238400  0.09436400  1
  S  S75  1  0.50000000  0.74761600  0.90563600  1
  S  S76  1  0.00000000  0.64712600  0.14098100  1
  S  S77  1  0.00000000  0.35287400  0.85901900  1
  S  S78  1  0.00000000  0.14712600  0.35901900  1
  S  S79  1  0.00000000  0.85287400  0.64098100  1
  S  S80  1  0.00000000  0.77680800  0.02739000  1
  S  S81  1  0.00000000  0.22319200  0.97261000  1
  S  S82  1  0.00000000  0.27680800  0.47261000  1
  S  S83  1  0.00000000  0.72319200  0.52739000  1
  S  S84  1  0.00000000  0.77339400  0.25808700  1
  S  S85  1  0.00000000  0.22660600  0.74191300  1
  S  S86  1  0.00000000  0.27339400  0.24191300  1
  S  S87  1  0.00000000  0.72660600  0.75808700  1
  S  S88  1  0.00000000  0.94064500  0.18262700  1
  S  S89  1  0.00000000  0.05935500  0.81737300  1
  S  S90  1  0.00000000  0.44064500  0.31737300  1
  S  S91  1  0.00000000  0.55935500  0.68262700  1
