# generated using pymatgen
data_K2CrMo6H23O32
_symmetry_space_group_name_H-M   'P 1'
_cell_length_a   10.89900600
_cell_length_b   11.20124575
_cell_length_c   12.85777663
_cell_angle_alpha   99.87913014
_cell_angle_beta   94.68821395
_cell_angle_gamma   98.52542329
_symmetry_Int_Tables_number   1
_chemical_formula_structural   K2CrMo6H23O32
_chemical_formula_sum   'K4 Cr2 Mo12 H46 O64'
_cell_volume   1520.06499292
_cell_formula_units_Z   2
loop_
 _symmetry_equiv_pos_site_id
 _symmetry_equiv_pos_as_xyz
  1  'x, y, z'
loop_
 _atom_site_type_symbol
 _atom_site_label
 _atom_site_symmetry_multiplicity
 _atom_site_fract_x
 _atom_site_fract_y
 _atom_site_fract_z
 _atom_site_occupancy
  K  K0  1  0.92895200  0.97539900  0.32985300  1
  K  K1  1  0.07104800  0.02460100  0.67014700  1
  K  K2  1  0.05981500  0.41720500  0.21991800  1
  K  K3  1  0.94018500  0.58279500  0.78008200  1
  Cr  Cr4  1  0.50000000  0.00000000  0.00000000  1
  Cr  Cr5  1  0.50000000  0.50000000  0.50000000  1
  Mo  Mo6  1  0.75987000  0.86585400  0.00463300  1
  Mo  Mo7  1  0.24013000  0.13414600  0.99536700  1
  Mo  Mo8  1  0.78321300  0.16927200  0.09709500  1
  Mo  Mo9  1  0.21678700  0.83072800  0.90290500  1
  Mo  Mo10  1  0.52272600  0.30694100  0.08463200  1
  Mo  Mo11  1  0.47727400  0.69305900  0.91536800  1
  Mo  Mo12  1  0.21390600  0.57470700  0.53970200  1
  Mo  Mo13  1  0.78609400  0.42529300  0.46029800  1
  Mo  Mo14  1  0.47872700  0.80020900  0.56846300  1
  Mo  Mo15  1  0.52127300  0.19979100  0.43153700  1
  Mo  Mo16  1  0.76209400  0.72348600  0.53244500  1
  Mo  Mo17  1  0.23790600  0.27651400  0.46755500  1
  H  H18  1  0.58116400  0.89998500  0.82372900  1
  H  H19  1  0.41883600  0.10001500  0.17627100  1
  H  H20  1  0.62972500  0.96618500  0.17506200  1
  H  H21  1  0.37027500  0.03381500  0.82493800  1
  H  H22  1  0.61879900  0.16820000  0.90788400  1
  H  H23  1  0.38120100  0.83180000  0.09211600  1
  H  H24  1  0.66000700  0.27506100  0.27632400  1
  H  H25  1  0.33999300  0.72493900  0.72367600  1
  H  H26  1  0.58167600  0.63702500  0.68553400  1
  H  H27  1  0.41832400  0.36297500  0.31446600  1
  H  H28  1  0.63599700  0.56473200  0.34315600  1
  H  H29  1  0.36400300  0.43526800  0.65684400  1
  H  H30  1  0.62906700  0.38904200  0.62156300  1
  H  H31  1  0.37093300  0.61095800  0.37843700  1
  H  H32  1  0.21846000  0.93162100  0.46861800  1
  H  H33  1  0.78154000  0.06837900  0.53138200  1
  H  H34  1  0.10966600  0.82998100  0.47058800  1
  H  H35  1  0.89033400  0.17001900  0.52941200  1
  H  H36  1  0.14586300  0.94670700  0.14745100  1
  H  H37  1  0.85413700  0.05329300  0.85254900  1
  H  H38  1  0.17554600  0.02077000  0.26439500  1
  H  H39  1  0.82445400  0.97923000  0.73560500  1
  H  H40  1  0.63196900  0.88429600  0.35969100  1
  H  H41  1  0.36803100  0.11570400  0.64030900  1
  H  H42  1  0.66195300  0.79699400  0.26036000  1
  H  H43  1  0.33804700  0.20300600  0.73964000  1
  H  H44  1  0.37197700  0.52998000  0.21616400  1
  H  H45  1  0.62802300  0.47002000  0.78383600  1
  H  H46  1  0.33336100  0.66386700  0.23135000  1
  H  H47  1  0.66663900  0.33613300  0.76865000  1
  H  H48  1  0.18484100  0.51662600  0.00735600  1
  H  H49  1  0.81515900  0.48337400  0.99264400  1
  H  H50  1  0.16989200  0.38104700  0.02352000  1
  H  H51  1  0.83010800  0.61895300  0.97648000  1
  H  H52  1  0.01031400  0.67571300  0.30551800  1
  H  H53  1  0.98968600  0.32428700  0.69448200  1
  H  H54  1  0.01433600  0.71815600  0.19646400  1
  H  H55  1  0.98566400  0.28184400  0.80353600  1
  H  H56  1  0.71345800  0.13280700  0.77507000  1
  H  H57  1  0.28654200  0.86719300  0.22493000  1
  H  H58  1  0.56758000  0.13472700  0.74582800  1
  H  H59  1  0.43242000  0.86527300  0.25417200  1
  H  H60  1  0.78450900  0.64202300  0.23084000  1
  H  H61  1  0.21549100  0.35797700  0.76916000  1
  H  H62  1  0.65765400  0.60205100  0.15814500  1
  H  H63  1  0.34234600  0.39794900  0.84185500  1
  O  O64  1  0.58373800  0.88826400  0.89880100  1
  O  O65  1  0.41626200  0.11173600  0.10119900  1
  O  O66  1  0.64270200  0.99143400  0.10597100  1
  O  O67  1  0.35729800  0.00856600  0.89402900  1
  O  O68  1  0.60516500  0.15763700  0.98336900  1
  O  O69  1  0.39483500  0.84236300  0.01663100  1
  O  O70  1  0.81868200  0.03595900  0.98940400  1
  O  O71  1  0.18131800  0.96404100  0.01059600  1
  O  O72  1  0.65707600  0.25351000  0.17323100  1
  O  O73  1  0.34292400  0.74649000  0.82676900  1
  O  O74  1  0.38047500  0.26288800  0.97985000  1
  O  O75  1  0.61952500  0.73711200  0.02015000  1
  O  O76  1  0.85386700  0.85790100  0.11844000  1
  O  O77  1  0.14613300  0.14209900  0.88156000  1
  O  O78  1  0.82197800  0.78524200  0.89920800  1
  O  O79  1  0.17802200  0.21475800  0.10079200  1
  O  O80  1  0.87294100  0.15558800  0.21155400  1
  O  O81  1  0.12705900  0.84441200  0.78844600  1
  O  O82  1  0.86250600  0.29315600  0.05270900  1
  O  O83  1  0.13749400  0.70684400  0.94729100  1
  O  O84  1  0.61221600  0.42197500  0.03596000  1
  O  O85  1  0.38778400  0.57802500  0.96404000  1
  O  O86  1  0.45896000  0.38364400  0.19442400  1
  O  O87  1  0.54104000  0.61635600  0.80557600  1
  O  O88  1  0.58510600  0.64603600  0.60954900  1
  O  O89  1  0.41489400  0.35396400  0.39045100  1
  O  O90  1  0.64359900  0.55166800  0.41772600  1
  O  O91  1  0.35640100  0.44833200  0.58227400  1
  O  O92  1  0.60798000  0.38141300  0.54083600  1
  O  O93  1  0.39202000  0.61858700  0.45916400  1
  O  O94  1  0.34141100  0.70656800  0.63660400  1
  O  O95  1  0.65858900  0.29343200  0.36339600  1
  O  O96  1  0.17626500  0.42315300  0.43579700  1
  O  O97  1  0.82373500  0.57684700  0.56420300  1
  O  O98  1  0.62008400  0.80290900  0.48801700  1
  O  O99  1  0.37991600  0.19709100  0.51198300  1
  O  O100  1  0.12641900  0.54530600  0.64173500  1
  O  O101  1  0.87358100  0.45469400  0.35826500  1
  O  O102  1  0.13594100  0.66740400  0.47096900  1
  O  O103  1  0.86405900  0.33259600  0.52903100  1
  O  O104  1  0.38845800  0.88292900  0.50029300  1
  O  O105  1  0.61154200  0.11707100  0.49970700  1
  O  O106  1  0.53968200  0.89761500  0.68910900  1
  O  O107  1  0.46031800  0.10238500  0.31089100  1
  O  O108  1  0.85372500  0.76125000  0.43496300  1
  O  O109  1  0.14627500  0.23875000  0.56503700  1
  O  O110  1  0.82454800  0.82796600  0.64805800  1
  O  O111  1  0.17545200  0.17203400  0.35194200  1
  O  O112  1  0.12795000  0.91887400  0.47142400  1
  O  O113  1  0.87205000  0.08112600  0.52857600  1
  O  O114  1  0.15706300  0.93633200  0.22227300  1
  O  O115  1  0.84293700  0.06366800  0.77772700  1
  O  O116  1  0.64284200  0.88097500  0.28443900  1
  O  O117  1  0.35715800  0.11902500  0.71556100  1
  O  O118  1  0.32585800  0.58554400  0.25865700  1
  O  O119  1  0.67414200  0.41445600  0.74134300  1
  O  O120  1  0.13355800  0.45568600  0.03778700  1
  O  O121  1  0.86644200  0.54431400  0.96221300  1
  O  O122  1  0.97493000  0.65369300  0.23116200  1
  O  O123  1  0.02507000  0.34630700  0.76883800  1
  O  O124  1  0.64323300  0.18081800  0.78937400  1
  O  O125  1  0.35676700  0.81918200  0.21062600  1
  O  O126  1  0.69335100  0.63985800  0.23059900  1
  O  O127  1  0.30664900  0.36014200  0.76940100  1
