# generated using pymatgen
data_Ga40Mo8C
_symmetry_space_group_name_H-M   'P 1'
_cell_length_a   9.55691730
_cell_length_b   9.55691730
_cell_length_c   9.55691725
_cell_angle_alpha   94.10402885
_cell_angle_beta   94.10402885
_cell_angle_gamma   94.10402928
_symmetry_Int_Tables_number   1
_chemical_formula_structural   Ga40Mo8C
_chemical_formula_sum   'Ga40 Mo8 C1'
_cell_volume   865.82317931
_cell_formula_units_Z   1
loop_
 _symmetry_equiv_pos_site_id
 _symmetry_equiv_pos_as_xyz
  1  'x, y, z'
loop_
 _atom_site_type_symbol
 _atom_site_label
 _atom_site_symmetry_multiplicity
 _atom_site_fract_x
 _atom_site_fract_y
 _atom_site_fract_z
 _atom_site_occupancy
  Ga  Ga0  1  0.50000000  0.50000000  0.50000000  1
  Ga  Ga1  1  0.00000000  0.50000000  0.50000000  1
  Ga  Ga2  1  0.50000000  0.00000000  0.50000000  1
  Ga  Ga3  1  0.50000000  0.50000000  0.00000000  1
  Ga  Ga4  1  0.26397900  0.63392600  0.61007200  1
  Ga  Ga5  1  0.61007200  0.26397900  0.63392600  1
  Ga  Ga6  1  0.63392600  0.61007200  0.26397900  1
  Ga  Ga7  1  0.73602100  0.36607400  0.38992800  1
  Ga  Ga8  1  0.38992800  0.73602100  0.36607400  1
  Ga  Ga9  1  0.36607400  0.38992800  0.73602100  1
  Ga  Ga10  1  0.67324800  0.77939500  0.53133200  1
  Ga  Ga11  1  0.53133200  0.67324800  0.77939500  1
  Ga  Ga12  1  0.77939500  0.53133200  0.67324800  1
  Ga  Ga13  1  0.32675200  0.22060500  0.46866800  1
  Ga  Ga14  1  0.46866800  0.32675200  0.22060500  1
  Ga  Ga15  1  0.22060500  0.46866800  0.32675200  1
  Ga  Ga16  1  0.77698600  0.07496300  0.45088900  1
  Ga  Ga17  1  0.45088900  0.77698600  0.07496300  1
  Ga  Ga18  1  0.07496300  0.45088900  0.77698600  1
  Ga  Ga19  1  0.22301400  0.92503700  0.54911100  1
  Ga  Ga20  1  0.54911100  0.22301400  0.92503700  1
  Ga  Ga21  1  0.92503700  0.54911100  0.22301400  1
  Ga  Ga22  1  0.96770600  0.78500200  0.60006700  1
  Ga  Ga23  1  0.60006700  0.96770600  0.78500200  1
  Ga  Ga24  1  0.78500200  0.60006700  0.96770600  1
  Ga  Ga25  1  0.03229400  0.21499800  0.39993300  1
  Ga  Ga26  1  0.39993300  0.03229400  0.21499800  1
  Ga  Ga27  1  0.21499800  0.39993300  0.03229400  1
  Ga  Ga28  1  0.04967700  0.77406800  0.89011300  1
  Ga  Ga29  1  0.89011300  0.04967700  0.77406800  1
  Ga  Ga30  1  0.77406800  0.89011300  0.04967700  1
  Ga  Ga31  1  0.95032300  0.22593200  0.10988700  1
  Ga  Ga32  1  0.10988700  0.95032300  0.22593200  1
  Ga  Ga33  1  0.22593200  0.10988700  0.95032300  1
  Ga  Ga34  1  0.12621100  0.17695700  0.68128200  1
  Ga  Ga35  1  0.68128200  0.12621100  0.17695700  1
  Ga  Ga36  1  0.17695700  0.68128200  0.12621100  1
  Ga  Ga37  1  0.87378900  0.82304300  0.31871800  1
  Ga  Ga38  1  0.31871800  0.87378900  0.82304300  1
  Ga  Ga39  1  0.82304300  0.31871800  0.87378900  1
  Mo  Mo40  1  0.78933800  0.78933800  0.78933800  1
  Mo  Mo41  1  0.21066200  0.21066200  0.21066200  1
  Mo  Mo42  1  0.28435700  0.61509400  0.89156200  1
  Mo  Mo43  1  0.89156200  0.28435700  0.61509400  1
  Mo  Mo44  1  0.61509400  0.89156200  0.28435700  1
  Mo  Mo45  1  0.71564300  0.38490600  0.10843800  1
  Mo  Mo46  1  0.10843800  0.71564300  0.38490600  1
  Mo  Mo47  1  0.38490600  0.10843800  0.71564300  1
  C  C48  1  0.00000000  0.00000000  0.00000000  1
