# generated using pymatgen
data_Nb6I11
_symmetry_space_group_name_H-M   'P 1'
_cell_length_a   11.63456600
_cell_length_b   13.86747400
_cell_length_c   16.07136700
_cell_angle_alpha   90.00000000
_cell_angle_beta   90.00000000
_cell_angle_gamma   90.00000000
_symmetry_Int_Tables_number   1
_chemical_formula_structural   Nb6I11
_chemical_formula_sum   'Nb24 I44'
_cell_volume   2592.98716158
_cell_formula_units_Z   4
loop_
 _symmetry_equiv_pos_site_id
 _symmetry_equiv_pos_as_xyz
  1  'x, y, z'
loop_
 _atom_site_type_symbol
 _atom_site_label
 _atom_site_symmetry_multiplicity
 _atom_site_fract_x
 _atom_site_fract_y
 _atom_site_fract_z
 _atom_site_occupancy
  Nb  Nb0  1  0.90485100  0.27245800  0.60462500  1
  Nb  Nb1  1  0.40485100  0.72754200  0.39537500  1
  Nb  Nb2  1  0.40485100  0.22754200  0.10462500  1
  Nb  Nb3  1  0.90485100  0.77245800  0.89537500  1
  Nb  Nb4  1  0.10679200  0.22415800  0.40204300  1
  Nb  Nb5  1  0.60679200  0.77584200  0.59795700  1
  Nb  Nb6  1  0.60679200  0.27584200  0.90204300  1
  Nb  Nb7  1  0.10679200  0.72415800  0.09795700  1
  Nb  Nb8  1  0.86736500  0.17174700  0.45427600  1
  Nb  Nb9  1  0.36736500  0.82825300  0.54572400  1
  Nb  Nb10  1  0.36736500  0.32825300  0.95427600  1
  Nb  Nb11  1  0.86736500  0.67174700  0.04572400  1
  Nb  Nb12  1  0.12897000  0.33006700  0.54907900  1
  Nb  Nb13  1  0.62897000  0.66993300  0.45092100  1
  Nb  Nb14  1  0.62897000  0.16993300  0.04907900  1
  Nb  Nb15  1  0.12897000  0.83006700  0.95092100  1
  Nb  Nb16  1  0.06795700  0.12853900  0.54918600  1
  Nb  Nb17  1  0.56795700  0.87146100  0.45081400  1
  Nb  Nb18  1  0.56795700  0.37146100  0.04918600  1
  Nb  Nb19  1  0.06795700  0.62853900  0.95081400  1
  Nb  Nb20  1  0.92929100  0.36906000  0.45103400  1
  Nb  Nb21  1  0.42929100  0.63094000  0.54896600  1
  Nb  Nb22  1  0.42929100  0.13094000  0.95103400  1
  Nb  Nb23  1  0.92929100  0.86906000  0.04896600  1
  I  I24  1  0.84221700  0.07141700  0.61065100  1
  I  I25  1  0.34221700  0.92858300  0.38934900  1
  I  I26  1  0.34221700  0.42858300  0.11065100  1
  I  I27  1  0.84221700  0.57141700  0.88934900  1
  I  I28  1  0.15269800  0.42762700  0.38925300  1
  I  I29  1  0.65269800  0.57237300  0.61074700  1
  I  I30  1  0.65269800  0.07237300  0.88925300  1
  I  I31  1  0.15269800  0.92762700  0.11074700  1
  I  I32  1  0.96806400  0.47512200  0.60400400  1
  I  I33  1  0.46806400  0.52487800  0.39599600  1
  I  I34  1  0.46806400  0.02487800  0.10400400  1
  I  I35  1  0.96806400  0.97512200  0.89599600  1
  I  I36  1  0.02283500  0.02824000  0.39272700  1
  I  I37  1  0.52283500  0.97176000  0.60727300  1
  I  I38  1  0.52283500  0.47176000  0.89272700  1
  I  I39  1  0.02283500  0.52824000  0.10727300  1
  I  I40  1  0.09920700  0.22860400  0.70835900  1
  I  I41  1  0.59920700  0.77139600  0.29164100  1
  I  I42  1  0.59920700  0.27139600  0.20835900  1
  I  I43  1  0.09920700  0.72860400  0.79164100  1
  I  I44  1  0.91237800  0.26659700  0.29373700  1
  I  I45  1  0.41237800  0.73340300  0.70626300  1
  I  I46  1  0.41237800  0.23340300  0.79373700  1
  I  I47  1  0.91237800  0.76659700  0.20626300  1
  I  I48  1  0.70242700  0.31415600  0.50488500  1
  I  I49  1  0.20242700  0.68584400  0.49511500  1
  I  I50  1  0.20242700  0.18584400  0.00488500  1
  I  I51  1  0.70242700  0.81415600  0.99511500  1
  I  I52  1  0.29992100  0.18749000  0.50886900  1
  I  I53  1  0.79992100  0.81251000  0.49113100  1
  I  I54  1  0.79992100  0.31251000  0.00886900  1
  I  I55  1  0.29992100  0.68749000  0.99113100  1
  I  I56  1  0.16485700  0.94187800  0.61276100  1
  I  I57  1  0.66485700  0.05812200  0.38723900  1
  I  I58  1  0.66485700  0.55812200  0.11276100  1
  I  I59  1  0.16485700  0.44187800  0.88723900  1
  I  I60  1  0.81757800  0.54451900  0.37635900  1
  I  I61  1  0.31757800  0.45548100  0.62364100  1
  I  I62  1  0.31757800  0.95548100  0.87635900  1
  I  I63  1  0.81757800  0.04451900  0.12364100  1
  I  I64  1  0.76569300  0.32067500  0.75892600  1
  I  I65  1  0.26569300  0.67932500  0.24107400  1
  I  I66  1  0.26569300  0.17932500  0.25892600  1
  I  I67  1  0.76569300  0.82067500  0.74107400  1
