# generated using pymatgen
data_Mn5Fe2BC2
_symmetry_space_group_name_H-M   'P 1'
_cell_length_a   4.40335200
_cell_length_b   6.76280100
_cell_length_c   12.03845700
_cell_angle_alpha   90.00000000
_cell_angle_beta   90.00000000
_cell_angle_gamma   90.00000000
_symmetry_Int_Tables_number   1
_chemical_formula_structural   Mn5Fe2BC2
_chemical_formula_sum   'Mn20 Fe8 B4 C8'
_cell_volume   358.49313045
_cell_formula_units_Z   4
loop_
 _symmetry_equiv_pos_site_id
 _symmetry_equiv_pos_as_xyz
  1  'x, y, z'
loop_
 _atom_site_type_symbol
 _atom_site_label
 _atom_site_symmetry_multiplicity
 _atom_site_fract_x
 _atom_site_fract_y
 _atom_site_fract_z
 _atom_site_occupancy
  Mn  Mn0  1  0.75297900  0.25000000  0.09331600  1
  Mn  Mn1  1  0.25297900  0.25000000  0.40668400  1
  Mn  Mn2  1  0.24702100  0.75000000  0.90668400  1
  Mn  Mn3  1  0.74702100  0.75000000  0.59331600  1
  Mn  Mn4  1  0.55894300  0.06208800  0.69125900  1
  Mn  Mn5  1  0.05894300  0.43791200  0.80874100  1
  Mn  Mn6  1  0.44105700  0.56208800  0.30874100  1
  Mn  Mn7  1  0.94105700  0.93791200  0.19125900  1
  Mn  Mn8  1  0.44105700  0.93791200  0.30874100  1
  Mn  Mn9  1  0.94105700  0.56208800  0.19125900  1
  Mn  Mn10  1  0.55894300  0.43791200  0.69125900  1
  Mn  Mn11  1  0.05894300  0.06208800  0.80874100  1
  Mn  Mn12  1  0.75259800  0.06183900  0.47561300  1
  Mn  Mn13  1  0.25259800  0.43816100  0.02438700  1
  Mn  Mn14  1  0.24740200  0.56183900  0.52438700  1
  Mn  Mn15  1  0.74740200  0.93816100  0.97561300  1
  Mn  Mn16  1  0.24740200  0.93816100  0.52438700  1
  Mn  Mn17  1  0.74740200  0.56183900  0.97561300  1
  Mn  Mn18  1  0.75259800  0.43816100  0.47561300  1
  Mn  Mn19  1  0.25259800  0.06183900  0.02438700  1
  Fe  Fe20  1  0.54940000  0.25000000  0.87031700  1
  Fe  Fe21  1  0.04940000  0.25000000  0.62968300  1
  Fe  Fe22  1  0.45060000  0.75000000  0.12968300  1
  Fe  Fe23  1  0.95060000  0.75000000  0.37031700  1
  Fe  Fe24  1  0.76881900  0.25000000  0.29830100  1
  Fe  Fe25  1  0.26881900  0.25000000  0.20169900  1
  Fe  Fe26  1  0.23118100  0.75000000  0.70169900  1
  Fe  Fe27  1  0.73118100  0.75000000  0.79830100  1
  B  B28  1  0.95929400  0.25000000  0.94150700  1
  B  B29  1  0.45929400  0.25000000  0.55849300  1
  B  B30  1  0.04070600  0.75000000  0.05849300  1
  B  B31  1  0.54070600  0.75000000  0.44150700  1
  C  C32  1  0.52624800  0.02673700  0.15398100  1
  C  C33  1  0.02624800  0.47326300  0.34601900  1
  C  C34  1  0.47375200  0.52673700  0.84601900  1
  C  C35  1  0.97375200  0.97326300  0.65398100  1
  C  C36  1  0.47375200  0.97326300  0.84601900  1
  C  C37  1  0.97375200  0.52673700  0.65398100  1
  C  C38  1  0.52624800  0.47326300  0.15398100  1
  C  C39  1  0.02624800  0.02673700  0.34601900  1
