# generated using pymatgen
data_Gd2B4O9
_symmetry_space_group_name_H-M   'P 1'
_cell_length_a   4.45929170
_cell_length_b   12.96054961
_cell_length_c   25.04778391
_cell_angle_alpha   99.71359505
_cell_angle_beta   90.00000000
_cell_angle_gamma   99.90605930
_symmetry_Int_Tables_number   1
_chemical_formula_structural   Gd2B4O9
_chemical_formula_sum   'Gd20 B40 O90'
_cell_volume   1404.97805222
_cell_formula_units_Z   10
loop_
 _symmetry_equiv_pos_site_id
 _symmetry_equiv_pos_as_xyz
  1  'x, y, z'
loop_
 _atom_site_type_symbol
 _atom_site_label
 _atom_site_symmetry_multiplicity
 _atom_site_fract_x
 _atom_site_fract_y
 _atom_site_fract_z
 _atom_site_occupancy
  Gd  Gd0  1  0.13763611  0.87103527  0.42821001  1
  Gd  Gd1  1  0.26660083  0.12896473  0.07178999  1
  Gd  Gd2  1  0.86236389  0.12896473  0.57178999  1
  Gd  Gd3  1  0.73339917  0.87103527  0.92821001  1
  Gd  Gd4  1  0.99014224  0.56887606  0.37022665  1
  Gd  Gd5  1  0.42126618  0.43112394  0.12977335  1
  Gd  Gd6  1  0.00985776  0.43112394  0.62977335  1
  Gd  Gd7  1  0.57873382  0.56887606  0.87022665  1
  Gd  Gd8  1  0.65909483  0.97558771  0.32149548  1
  Gd  Gd9  1  0.68350712  0.02441229  0.17850452  1
  Gd  Gd10  1  0.34090517  0.02441229  0.67850452  1
  Gd  Gd11  1  0.31649288  0.97558771  0.82149548  1
  Gd  Gd12  1  0.81693141  0.28192055  0.29233426  1
  Gd  Gd13  1  0.53501085  0.71807945  0.20766574  1
  Gd  Gd14  1  0.18306859  0.71807945  0.70766574  1
  Gd  Gd15  1  0.46498915  0.28192055  0.79233426  1
  Gd  Gd16  1  0.07567918  0.69134507  0.53905225  1
  Gd  Gd17  1  0.38433410  0.30865493  0.96094775  1
  Gd  Gd18  1  0.92432082  0.30865493  0.46094775  1
  Gd  Gd19  1  0.61566590  0.69134507  0.03905225  1
  B  B20  1  0.48092047  0.51597877  0.46130420  1
  B  B21  1  0.96494169  0.48402123  0.03869580  1
  B  B22  1  0.51907953  0.48402123  0.53869580  1
  B  B23  1  0.03505831  0.51597877  0.96130420  1
  B  B24  1  0.91868747  0.49739664  0.21829891  1
  B  B25  1  0.42129083  0.50260336  0.28170109  1
  B  B26  1  0.08131253  0.50260336  0.78170109  1
  B  B27  1  0.57870917  0.49739664  0.71829891  1
  B  B28  1  0.37383104  0.14567862  0.46960199  1
  B  B29  1  0.22815243  0.85432138  0.03039801  1
  B  B30  1  0.62616896  0.85432138  0.53039801  1
  B  B31  1  0.77184757  0.14567862  0.96960199  1
  B  B32  1  0.57404417  0.70549955  0.44137967  1
  B  B33  1  0.86854462  0.29450045  0.05862033  1
  B  B34  1  0.42595583  0.29450045  0.55862033  1
  B  B35  1  0.13145538  0.70549955  0.94137967  1
  B  B36  1  0.07485005  0.80195313  0.30776315  1
  B  B37  1  0.27289691  0.19804687  0.19223685  1
  B  B38  1  0.92514995  0.19804687  0.69223685  1
  B  B39  1  0.72710309  0.80195313  0.80776315  1
  B  B40  1  0.83817059  0.29122618  0.16287598  1
  B  B41  1  0.54694442  0.70877382  0.33712402  1
  B  B42  1  0.16182941  0.70877382  0.83712402  1
  B  B43  1  0.45305558  0.29122618  0.66287598  1
  B  B44  1  0.22958107  0.10420147  0.27527752  1
  B  B45  1  0.12537961  0.89579853  0.22472248  1
  B  B46  1  0.77041893  0.89579853  0.72472248  1
  B  B47  1  0.87462039  0.10420147  0.77527752  1
  B  B48  1  0.35366371  0.39073105  0.36655598  1
  B  B49  1  0.96293266  0.60926895  0.13344402  1
  B  B50  1  0.64633629  0.60926895  0.63344402  1
  B  B51  1  0.03706734  0.39073105  0.86655598  1
  B  B52  1  0.84484005  0.06023714  0.43457702  1
  B  B53  1  0.78460291  0.93976286  0.06542298  1
  B  B54  1  0.15515995  0.93976286  0.56542298  1
  B  B55  1  0.21539709  0.06023714  0.93457702  1
  B  B56  1  0.22298149  0.18322034  0.37654566  1
  B  B57  1  0.03976115  0.81677966  0.12345434  1
  B  B58  1  0.77701851  0.81677966  0.62345434  1
  B  B59  1  0.96023885  0.18322034  0.87654566  1
  O  O60  1  0.25347944  0.45768384  0.41851674  1
  O  O61  1  0.79579561  0.54231616  0.08148326  1
  O  O62  1  0.74652056  0.54231616  0.58148326  1
  O  O63  1  0.20420439  0.45768384  0.91851674  1
  O  O64  1  0.68539787  0.60254099  0.44477172  1
  O  O65  1  0.08285689  0.39745901  0.05522828  1
  O  O66  1  0.31460213  0.39745901  0.55522828  1
  O  O67  1  0.91714311  0.60254099  0.94477172  1
  O  O68  1  0.33890436  0.55295655  0.51393100  1
  O  O69  1  0.78594781  0.44704345  0.98606900  1
  O  O70  1  0.66109564  0.44704345  0.48606900  1
  O  O71  1  0.21405219  0.55295655  0.01393100  1
  O  O72  1  0.31707038  0.87484239  0.52123222  1
  O  O73  1  0.44222799  0.12515761  0.97876778  1
  O  O74  1  0.68292962  0.12515761  0.47876778  1
  O  O75  1  0.55777201  0.87484239  0.02123222  1
  O  O76  1  0.38583020  0.19213974  0.24663396  1
  O  O77  1  0.19369046  0.80786026  0.25336604  1
  O  O78  1  0.61416980  0.80786026  0.75336604  1
  O  O79  1  0.80630954  0.19213974  0.74663396  1
  O  O80  1  0.31838445  -0.00000000  0.25000000  1
  O  O81  1  0.68161555  -0.00000000  0.75000000  1
  O  O82  1  0.08139174  0.87590859  0.61080238  1
  O  O83  1  0.20548314  0.12409141  0.88919762  1
  O  O84  1  0.91860826  0.12409141  0.38919762  1
  O  O85  1  0.79451686  0.87590859  0.11080238  1
  O  O86  1  0.66913301  0.95752411  0.41472448  1
  O  O87  1  0.71160890  0.04247589  0.08527552  1
  O  O88  1  0.33086699  0.04247589  0.58527552  1
  O  O89  1  0.28839110  0.95752411  0.91472448  1
  O  O90  1  0.97278352  0.23806736  0.20081868  1
  O  O91  1  0.73471615  0.76193264  0.29918132  1
  O  O92  1  0.02721648  0.76193264  0.79918132  1
  O  O93  1  0.26528385  0.23806736  0.70081868  1
  O  O94  1  0.95711137  0.25944032  0.10902356  1
  O  O95  1  0.69767105  0.74055968  0.39097644  1
  O  O96  1  0.04288863  0.74055968  0.89097644  1
  O  O97  1  0.30232895  0.25944032  0.60902356  1
  O  O98  1  0.14496847  0.05038384  0.45692992  1
  O  O99  1  0.09458463  0.94961616  0.04307008  1
  O  O100  1  0.85503153  0.94961616  0.54307008  1
  O  O101  1  0.90541537  0.05038384  0.95692992  1
  O  O102  1  0.37733537  0.13009491  0.33111476  1
  O  O103  1  0.24724046  0.86990509  0.16888524  1
  O  O104  1  0.62266463  0.86990509  0.66888524  1
  O  O105  1  0.75275954  0.13009491  0.83111476  1
  O  O106  1  0.74518139  0.78676137  0.48411932  1
  O  O107  1  0.95842002  0.21323863  0.01588068  1
  O  O108  1  0.25481861  0.21323863  0.51588068  1
  O  O109  1  0.04157998  0.78676137  0.98411932  1
  O  O110  1  0.25210851  0.69475522  0.44454178  1
  O  O111  1  0.55735329  0.30524478  0.05545822  1
  O  O112  1  0.74789149  0.30524478  0.55545822  1
  O  O113  1  0.44264671  0.69475522  0.94454178  1
  O  O114  1  0.59356372  0.78421935  0.57278720  1
  O  O115  1  0.80934437  0.21578065  0.92721280  1
  O  O116  1  0.40643628  0.21578065  0.42721280  1
  O  O117  1  0.19065563  0.78421935  0.07278720  1
  O  O118  1  0.12916029  0.90685456  0.34030794  1
  O  O119  1  0.22230574  0.09314544  0.15969206  1
  O  O120  1  0.87083971  0.09314544  0.65969206  1
  O  O121  1  0.77769426  0.90685456  0.84030794  1
  O  O122  1  0.94279060  0.40853004  0.17275289  1
  O  O123  1  0.53426056  0.59146996  0.32724711  1
  O  O124  1  0.05720940  0.59146996  0.82724711  1
  O  O125  1  0.46573944  0.40853004  0.67275289  1
  O  O126  1  0.66859338  0.39463633  0.36647751  1
  O  O127  1  0.27395704  0.60536367  0.13352249  1
  O  O128  1  0.33140662  0.60536367  0.63352249  1
  O  O129  1  0.72604296  0.39463633  0.86647751  1
  O  O130  1  0.91059236  0.10341612  0.27377823  1
  O  O131  1  0.80717624  0.89658388  0.22622177  1
  O  O132  1  0.08940764  0.89658388  0.72622177  1
  O  O133  1  0.19282376  0.10341612  0.77377823  1
  O  O134  1  0.80887480  0.57489320  0.18650918  1
  O  O135  1  0.23398160  0.42510680  0.31349082  1
  O  O136  1  0.19112520  0.42510680  0.81349082  1
  O  O137  1  0.76601840  0.57489320  0.68650918  1
  O  O138  1  0.22889788  0.54095329  0.24327743  1
  O  O139  1  0.68794459  0.45904671  0.25672257  1
  O  O140  1  0.77110212  0.45904671  0.75672257  1
  O  O141  1  0.31205541  0.54095329  0.74327743  1
  O  O142  1  0.49706652  0.27257999  0.16479177  1
  O  O143  1  0.22448653  0.72742001  0.33520823  1
  O  O144  1  0.50293348  0.72742001  0.83520823  1
  O  O145  1  0.77551347  0.27257999  0.66479177  1
  O  O146  1  0.14897087  0.28534109  0.36405060  1
  O  O147  1  0.86362978  0.71465891  0.13594940  1
  O  O148  1  0.85102913  0.71465891  0.63594940  1
  O  O149  1  0.13637022  0.28534109  0.86405060  1
