# generated using pymatgen
data_H8C2SBrNO
_symmetry_space_group_name_H-M   'P 1'
_cell_length_a   10.58406500
_cell_length_b   11.00502600
_cell_length_c   11.57820500
_cell_angle_alpha   90.00000000
_cell_angle_beta   90.00000000
_cell_angle_gamma   90.00000000
_symmetry_Int_Tables_number   1
_chemical_formula_structural   H8C2SBrNO
_chemical_formula_sum   'H64 C16 S8 Br8 N8 O8'
_cell_volume   1348.60512586
_cell_formula_units_Z   8
loop_
 _symmetry_equiv_pos_site_id
 _symmetry_equiv_pos_as_xyz
  1  'x, y, z'
loop_
 _atom_site_type_symbol
 _atom_site_label
 _atom_site_symmetry_multiplicity
 _atom_site_fract_x
 _atom_site_fract_y
 _atom_site_fract_z
 _atom_site_occupancy
  H  H0  1  0.02843200  0.90624300  0.23300800  1
  H  H1  1  0.47156800  0.40624300  0.26699200  1
  H  H2  1  0.52843200  0.09375700  0.26699200  1
  H  H3  1  0.97156800  0.59375700  0.23300800  1
  H  H4  1  0.97156800  0.09375700  0.76699200  1
  H  H5  1  0.52843200  0.59375700  0.73300800  1
  H  H6  1  0.47156800  0.90624300  0.73300800  1
  H  H7  1  0.02843200  0.40624300  0.76699200  1
  H  H8  1  0.02756100  0.03668900  0.32094300  1
  H  H9  1  0.47243900  0.53668900  0.17905700  1
  H  H10  1  0.52756100  0.96331100  0.17905700  1
  H  H11  1  0.97243900  0.46331100  0.32094300  1
  H  H12  1  0.97243900  0.96331100  0.67905700  1
  H  H13  1  0.52756100  0.46331100  0.82094300  1
  H  H14  1  0.47243900  0.03668900  0.82094300  1
  H  H15  1  0.02756100  0.53668900  0.67905700  1
  H  H16  1  0.15781400  0.73799000  0.39353900  1
  H  H17  1  0.34218600  0.23799000  0.10646100  1
  H  H18  1  0.65781400  0.26201000  0.10646100  1
  H  H19  1  0.84218600  0.76201000  0.39353900  1
  H  H20  1  0.84218600  0.26201000  0.60646100  1
  H  H21  1  0.65781400  0.76201000  0.89353900  1
  H  H22  1  0.34218600  0.73799000  0.89353900  1
  H  H23  1  0.15781400  0.23799000  0.60646100  1
  H  H24  1  0.32603800  0.75768900  0.36502600  1
  H  H25  1  0.17396200  0.25768900  0.13497400  1
  H  H26  1  0.82603800  0.24231100  0.13497400  1
  H  H27  1  0.67396200  0.74231100  0.36502600  1
  H  H28  1  0.67396200  0.24231100  0.63497400  1
  H  H29  1  0.82603800  0.74231100  0.86502600  1
  H  H30  1  0.17396200  0.75768900  0.86502600  1
  H  H31  1  0.32603800  0.25768900  0.63497400  1
  H  H32  1  0.21603800  0.73851000  0.24532600  1
  H  H33  1  0.28396200  0.23851000  0.25467400  1
  H  H34  1  0.71603800  0.26149000  0.25467400  1
  H  H35  1  0.78396200  0.76149000  0.24532600  1
  H  H36  1  0.78396200  0.26149000  0.75467400  1
  H  H37  1  0.71603800  0.76149000  0.74532600  1
  H  H38  1  0.28396200  0.73851000  0.74532600  1
  H  H39  1  0.21603800  0.23851000  0.75467400  1
  H  H40  1  0.16385300  0.93068200  0.52775300  1
  H  H41  1  0.33614700  0.43068200  0.97224700  1
  H  H42  1  0.66385300  0.06931800  0.97224700  1
  H  H43  1  0.83614700  0.56931800  0.52775300  1
  H  H44  1  0.83614700  0.06931800  0.47224700  1
  H  H45  1  0.66385300  0.56931800  0.02775300  1
  H  H46  1  0.33614700  0.93068200  0.02775300  1
  H  H47  1  0.16385300  0.43068200  0.47224700  1
  H  H48  1  0.20561800  0.08024300  0.47043700  1
  H  H49  1  0.29438200  0.58024300  0.02956300  1
  H  H50  1  0.70561800  0.91975700  0.02956300  1
  H  H51  1  0.79438200  0.41975700  0.47043700  1
  H  H52  1  0.79438200  0.91975700  0.52956300  1
  H  H53  1  0.70561800  0.41975700  0.97043700  1
  H  H54  1  0.29438200  0.08024300  0.97043700  1
  H  H55  1  0.20561800  0.58024300  0.52956300  1
  H  H56  1  0.32812000  0.96642900  0.49462700  1
  H  H57  1  0.17188000  0.46642900  0.00537300  1
  H  H58  1  0.82812000  0.03357100  0.00537300  1
  H  H59  1  0.67188000  0.53357100  0.49462700  1
  H  H60  1  0.67188000  0.03357100  0.50537300  1
  H  H61  1  0.82812000  0.53357100  0.99462700  1
  H  H62  1  0.17188000  0.96642900  0.99462700  1
  H  H63  1  0.32812000  0.46642900  0.50537300  1
  C  C64  1  0.22917200  0.77318200  0.33334900  1
  C  C65  1  0.27082800  0.27318200  0.16665100  1
  C  C66  1  0.72917200  0.22681800  0.16665100  1
  C  C67  1  0.77082800  0.72681800  0.33334900  1
  C  C68  1  0.77082800  0.22681800  0.66665100  1
  C  C69  1  0.72917200  0.72681800  0.83334900  1
  C  C70  1  0.27082800  0.77318200  0.83334900  1
  C  C71  1  0.22917200  0.27318200  0.66665100  1
  C  C72  1  0.22857200  0.98285800  0.47241700  1
  C  C73  1  0.27142800  0.48285800  0.02758300  1
  C  C74  1  0.72857200  0.01714200  0.02758300  1
  C  C75  1  0.77142800  0.51714200  0.47241700  1
  C  C76  1  0.77142800  0.01714200  0.52758300  1
  C  C77  1  0.72857200  0.51714200  0.97241700  1
  C  C78  1  0.27142800  0.98285800  0.97241700  1
  C  C79  1  0.22857200  0.48285800  0.52758300  1
  S  S80  1  0.20830100  0.93194300  0.32985700  1
  S  S81  1  0.29169900  0.43194300  0.17014300  1
  S  S82  1  0.70830100  0.06805700  0.17014300  1
  S  S83  1  0.79169900  0.56805700  0.32985700  1
  S  S84  1  0.79169900  0.06805700  0.67014300  1
  S  S85  1  0.70830100  0.56805700  0.82985700  1
  S  S86  1  0.29169900  0.93194300  0.82985700  1
  S  S87  1  0.20830100  0.43194300  0.67014300  1
  Br  Br88  1  0.00000000  0.75000000  0.07357400  1
  Br  Br89  1  0.50000000  0.25000000  0.42642600  1
  Br  Br90  1  0.00000000  0.25000000  0.92642600  1
  Br  Br91  1  0.50000000  0.75000000  0.57357400  1
  Br  Br92  1  0.00000000  0.25000000  0.38937500  1
  Br  Br93  1  0.50000000  0.75000000  0.11062500  1
  Br  Br94  1  0.00000000  0.75000000  0.61062500  1
  Br  Br95  1  0.50000000  0.25000000  0.88937500  1
  N  N96  1  0.05957100  0.94819100  0.30797500  1
  N  N97  1  0.44042900  0.44819100  0.19202500  1
  N  N98  1  0.55957100  0.05180900  0.19202500  1
  N  N99  1  0.94042900  0.55180900  0.30797500  1
  N  N100  1  0.94042900  0.05180900  0.69202500  1
  N  N101  1  0.55957100  0.55180900  0.80797500  1
  N  N102  1  0.44042900  0.94819100  0.80797500  1
  N  N103  1  0.05957100  0.44819100  0.69202500  1
  O  O104  1  0.29441500  0.99198300  0.25055500  1
  O  O105  1  0.20558500  0.49198300  0.24944500  1
  O  O106  1  0.79441500  0.00801700  0.24944500  1
  O  O107  1  0.70558500  0.50801700  0.25055500  1
  O  O108  1  0.70558500  0.00801700  0.74944500  1
  O  O109  1  0.79441500  0.50801700  0.75055500  1
  O  O110  1  0.20558500  0.99198300  0.75055500  1
  O  O111  1  0.29441500  0.49198300  0.74944500  1
