# generated using pymatgen
data_Tl2TeH6SeO10
_symmetry_space_group_name_H-M   'P 1'
_cell_length_a   7.75798100
_cell_length_b   11.83842000
_cell_length_c   12.78564497
_cell_angle_alpha   69.78387980
_cell_angle_beta   90.00000000
_cell_angle_gamma   90.00000000
_symmetry_Int_Tables_number   1
_chemical_formula_structural   Tl2TeH6SeO10
_chemical_formula_sum   'Tl8 Te4 H24 Se4 O40'
_cell_volume   1101.92279732
_cell_formula_units_Z   4
loop_
 _symmetry_equiv_pos_site_id
 _symmetry_equiv_pos_as_xyz
  1  'x, y, z'
loop_
 _atom_site_type_symbol
 _atom_site_label
 _atom_site_symmetry_multiplicity
 _atom_site_fract_x
 _atom_site_fract_y
 _atom_site_fract_z
 _atom_site_occupancy
  Tl  Tl0  1  0.97659400  0.13049000  0.16621100  1
  Tl  Tl1  1  0.47659400  0.36951000  0.83378900  1
  Tl  Tl2  1  0.02340600  0.86951000  0.83378900  1
  Tl  Tl3  1  0.52340600  0.63049000  0.16621100  1
  Tl  Tl4  1  0.03943300  0.39039400  0.35192700  1
  Tl  Tl5  1  0.53943300  0.10960600  0.64807300  1
  Tl  Tl6  1  0.96056700  0.60960600  0.64807300  1
  Tl  Tl7  1  0.46056700  0.89039400  0.35192700  1
  Te  Te8  1  0.00000000  0.00000000  0.50000000  1
  Te  Te9  1  0.50000000  0.50000000  0.50000000  1
  Te  Te10  1  0.00000000  0.50000000  0.00000000  1
  Te  Te11  1  0.50000000  0.00000000  0.00000000  1
  H  H12  1  0.20949700  0.83429900  0.60730700  1
  H  H13  1  0.70949700  0.66570100  0.39269300  1
  H  H14  1  0.79050300  0.16570100  0.39269300  1
  H  H15  1  0.29050300  0.33429900  0.60730700  1
  H  H16  1  0.99184600  0.86645800  0.38599200  1
  H  H17  1  0.49184600  0.63354200  0.61400800  1
  H  H18  1  0.00815400  0.13354200  0.61400800  1
  H  H19  1  0.50815400  0.36645800  0.38599200  1
  H  H20  1  0.24961100  0.12605000  0.40758900  1
  H  H21  1  0.74961100  0.37395000  0.59241100  1
  H  H22  1  0.75038900  0.87395000  0.59241100  1
  H  H23  1  0.25038900  0.62605000  0.40758900  1
  H  H24  1  0.16251500  0.59040700  0.11146900  1
  H  H25  1  0.66251500  0.90959300  0.88853100  1
  H  H26  1  0.83748500  0.40959300  0.88853100  1
  H  H27  1  0.33748500  0.09040700  0.11146900  1
  H  H28  1  0.24039300  0.60743400  0.86949800  1
  H  H29  1  0.74039300  0.89256600  0.13050200  1
  H  H30  1  0.75960700  0.39256600  0.13050200  1
  H  H31  1  0.25960700  0.10743400  0.86949800  1
  H  H32  1  0.10675900  0.36093700  0.90940100  1
  H  H33  1  0.60675900  0.13906300  0.09059900  1
  H  H34  1  0.89324100  0.63906300  0.09059900  1
  H  H35  1  0.39324100  0.86093700  0.90940100  1
  Se  Se36  1  0.99617500  0.74051700  0.25235600  1
  Se  Se37  1  0.49617500  0.75948300  0.74764400  1
  Se  Se38  1  0.00382500  0.25948300  0.74764400  1
  Se  Se39  1  0.50382500  0.24051700  0.25235600  1
  O  O40  1  0.08409700  0.85187000  0.61486400  1
  O  O41  1  0.58409700  0.64813000  0.38513600  1
  O  O42  1  0.91590300  0.14813000  0.38513600  1
  O  O43  1  0.41590300  0.35187000  0.61486400  1
  O  O44  1  0.06299500  0.93994100  0.38057500  1
  O  O45  1  0.56299500  0.56005900  0.61942500  1
  O  O46  1  0.93700500  0.06005900  0.61942500  1
  O  O47  1  0.43700500  0.43994100  0.38057500  1
  O  O48  1  0.22706800  0.07339800  0.48741000  1
  O  O49  1  0.72706800  0.42660200  0.51259000  1
  O  O50  1  0.77293200  0.92660200  0.51259000  1
  O  O51  1  0.27293200  0.57339800  0.48741000  1
  O  O52  1  0.19172200  0.51870800  0.09376400  1
  O  O53  1  0.69172200  0.98129200  0.90623600  1
  O  O54  1  0.80827800  0.48129200  0.90623600  1
  O  O55  1  0.30827800  0.01870800  0.09376400  1
  O  O56  1  0.11033500  0.60560600  0.86289200  1
  O  O57  1  0.61033500  0.89439400  0.13710800  1
  O  O58  1  0.88966500  0.39439400  0.13710800  1
  O  O59  1  0.38966500  0.10560600  0.86289200  1
  O  O60  1  0.11575600  0.35764900  0.98963600  1
  O  O61  1  0.61575600  0.14235100  0.01036400  1
  O  O62  1  0.88424400  0.64235100  0.01036400  1
  O  O63  1  0.38424400  0.85764900  0.98963600  1
  O  O64  1  0.90562300  0.74151000  0.37272000  1
  O  O65  1  0.40562300  0.75849000  0.62728000  1
  O  O66  1  0.09437700  0.25849000  0.62728000  1
  O  O67  1  0.59437700  0.24151000  0.37272000  1
  O  O68  1  0.20839900  0.71457500  0.27344400  1
  O  O69  1  0.70839900  0.78542500  0.72655600  1
  O  O70  1  0.79160100  0.28542500  0.72655600  1
  O  O71  1  0.29160100  0.21457500  0.27344400  1
  O  O72  1  0.95401400  0.86933500  0.14952100  1
  O  O73  1  0.45401400  0.63066500  0.85047900  1
  O  O74  1  0.04598600  0.13066500  0.85047900  1
  O  O75  1  0.54598600  0.36933500  0.14952100  1
  O  O76  1  0.90819200  0.62443500  0.22202500  1
  O  O77  1  0.40819200  0.87556500  0.77797500  1
  O  O78  1  0.09180800  0.37556500  0.77797500  1
  O  O79  1  0.59180800  0.12443500  0.22202500  1
