# generated using pymatgen
data_RbMg14BO15
_symmetry_space_group_name_H-M   'P 1'
_cell_length_a   4.31153800
_cell_length_b   8.14269800
_cell_length_c   9.71069900
_cell_angle_alpha   90.00000000
_cell_angle_beta   90.00000000
_cell_angle_gamma   90.00000000
_symmetry_Int_Tables_number   1
_chemical_formula_structural   RbMg14BO15
_chemical_formula_sum   'Rb1 Mg14 B1 O15'
_cell_volume   340.91886864
_cell_formula_units_Z   1
loop_
 _symmetry_equiv_pos_site_id
 _symmetry_equiv_pos_as_xyz
  1  'x, y, z'
loop_
 _atom_site_type_symbol
 _atom_site_label
 _atom_site_symmetry_multiplicity
 _atom_site_fract_x
 _atom_site_fract_y
 _atom_site_fract_z
 _atom_site_occupancy
  Rb  Rb0  1  0.00000000  0.00000000  0.05002400  1
  Mg  Mg1  1  0.00000000  0.00000000  0.51827700  1
  Mg  Mg2  1  0.00000000  0.50000000  0.49367200  1
  Mg  Mg3  1  0.50000000  0.74379600  0.97428500  1
  Mg  Mg4  1  0.50000000  0.25620400  0.97428500  1
  Mg  Mg5  1  0.50000000  0.74473400  0.52974100  1
  Mg  Mg6  1  0.50000000  0.25526600  0.52974100  1
  Mg  Mg7  1  0.50000000  0.00000000  0.74652300  1
  Mg  Mg8  1  0.50000000  0.50000000  0.75324500  1
  Mg  Mg9  1  0.50000000  0.00000000  0.29801900  1
  Mg  Mg10  1  0.50000000  0.50000000  0.20515900  1
  Mg  Mg11  1  0.00000000  0.75204800  0.74760700  1
  Mg  Mg12  1  0.00000000  0.24795200  0.74760700  1
  Mg  Mg13  1  0.00000000  0.74573700  0.28829800  1
  Mg  Mg14  1  0.00000000  0.25426300  0.28829800  1
  B  B15  1  0.00000000  0.50000000  0.91593900  1
  O  O16  1  0.00000000  0.00000000  0.72672900  1
  O  O17  1  0.00000000  0.00000000  0.31049000  1
  O  O18  1  0.00000000  0.50000000  0.28033300  1
  O  O19  1  0.50000000  0.74609900  0.74408200  1
  O  O20  1  0.50000000  0.25390100  0.74408200  1
  O  O21  1  0.50000000  0.75769900  0.23452700  1
  O  O22  1  0.50000000  0.24230100  0.23452700  1
  O  O23  1  0.50000000  0.00000000  0.94672300  1
  O  O24  1  0.50000000  0.50000000  0.98093900  1
  O  O25  1  0.50000000  0.00000000  0.51231400  1
  O  O26  1  0.50000000  0.50000000  0.52737100  1
  O  O27  1  0.00000000  0.67002400  0.96040800  1
  O  O28  1  0.00000000  0.32997600  0.96040800  1
  O  O29  1  0.00000000  0.74458200  0.51317400  1
  O  O30  1  0.00000000  0.25541800  0.51317400  1
