# generated using pymatgen
data_KPO3
_symmetry_space_group_name_H-M   'P 1'
_cell_length_a   16.08063130
_cell_length_b   16.08063130
_cell_length_c   16.08063130
_cell_angle_alpha   90.00000000
_cell_angle_beta   90.00000000
_cell_angle_gamma   90.00000000
_symmetry_Int_Tables_number   1
_chemical_formula_structural   KPO3
_chemical_formula_sum   'K48 P48 O144'
_cell_volume   4158.23743013
_cell_formula_units_Z   48
loop_
 _symmetry_equiv_pos_site_id
 _symmetry_equiv_pos_as_xyz
  1  'x, y, z'
loop_
 _atom_site_type_symbol
 _atom_site_label
 _atom_site_symmetry_multiplicity
 _atom_site_fract_x
 _atom_site_fract_y
 _atom_site_fract_z
 _atom_site_occupancy
  K  K0  1  -0.00000000  0.50000000  0.00000000  1
  K  K1  1  -0.00000000  -0.00000000  0.50000000  1
  K  K2  1  0.50000000  0.50000000  0.50000000  1
  K  K3  1  0.50000000  -0.00000000  0.00000000  1
  K  K4  1  -0.00000000  -0.00000000  0.00000000  1
  K  K5  1  -0.00000000  0.50000000  0.50000000  1
  K  K6  1  0.50000000  -0.00000000  0.50000000  1
  K  K7  1  0.50000000  0.50000000  0.00000000  1
  K  K8  1  0.76753945  0.23246055  0.73246055  1
  K  K9  1  0.23246055  0.73246055  0.76753945  1
  K  K10  1  0.73246055  0.76753945  0.23246055  1
  K  K11  1  0.26753945  0.26753945  0.26753945  1
  K  K12  1  0.23246055  0.76753945  0.26753945  1
  K  K13  1  0.76753945  0.26753945  0.23246055  1
  K  K14  1  0.26753945  0.23246055  0.76753945  1
  K  K15  1  0.73246055  0.73246055  0.73246055  1
  K  K16  1  0.55855729  0.25602924  0.62002337  1
  K  K17  1  0.44144271  0.75602924  0.87997663  1
  K  K18  1  0.94144271  0.74397076  0.12002337  1
  K  K19  1  0.05855729  0.24397076  0.37997663  1
  K  K20  1  0.62002337  0.55855729  0.25602924  1
  K  K21  1  0.87997663  0.44144271  0.75602924  1
  K  K22  1  0.12002337  0.94144271  0.74397076  1
  K  K23  1  0.37997663  0.05855729  0.24397076  1
  K  K24  1  0.25602924  0.62002337  0.55855729  1
  K  K25  1  0.75602924  0.87997663  0.44144271  1
  K  K26  1  0.74397076  0.12002337  0.94144271  1
  K  K27  1  0.24397076  0.37997663  0.05855729  1
  K  K28  1  0.44144271  0.74397076  0.37997663  1
  K  K29  1  0.55855729  0.24397076  0.12002337  1
  K  K30  1  0.05855729  0.25602924  0.87997663  1
  K  K31  1  0.94144271  0.75602924  0.62002337  1
  K  K32  1  0.37997663  0.44144271  0.74397076  1
  K  K33  1  0.12002337  0.55855729  0.24397076  1
  K  K34  1  0.87997663  0.05855729  0.25602924  1
  K  K35  1  0.62002337  0.94144271  0.75602924  1
  K  K36  1  0.74397076  0.37997663  0.44144271  1
  K  K37  1  0.24397076  0.12002337  0.55855729  1
  K  K38  1  0.25602924  0.87997663  0.05855729  1
  K  K39  1  0.75602924  0.62002337  0.94144271  1
  K  K40  1  0.37168506  0.62831494  0.12831494  1
  K  K41  1  0.62831494  0.12831494  0.37168506  1
  K  K42  1  0.12831494  0.37168506  0.62831494  1
  K  K43  1  0.87168506  0.87168506  0.87168506  1
  K  K44  1  0.62831494  0.37168506  0.87168506  1
  K  K45  1  0.37168506  0.87168506  0.62831494  1
  K  K46  1  0.87168506  0.62831494  0.37168506  1
  K  K47  1  0.12831494  0.12831494  0.12831494  1
  P  P48  1  0.72561129  0.07823635  0.55874787  1
  P  P49  1  0.27438871  0.57823635  0.94125213  1
  P  P50  1  0.77438871  0.92176365  0.05874787  1
  P  P51  1  0.22561129  0.42176365  0.44125213  1
  P  P52  1  0.55874787  0.72561129  0.07823635  1
  P  P53  1  0.94125213  0.27438871  0.57823635  1
  P  P54  1  0.05874787  0.77438871  0.92176365  1
  P  P55  1  0.44125213  0.22561129  0.42176365  1
  P  P56  1  0.07823635  0.55874787  0.72561129  1
  P  P57  1  0.57823635  0.94125213  0.27438871  1
  P  P58  1  0.92176365  0.05874787  0.77438871  1
  P  P59  1  0.42176365  0.44125213  0.22561129  1
  P  P60  1  0.27438871  0.92176365  0.44125213  1
  P  P61  1  0.72561129  0.42176365  0.05874787  1
  P  P62  1  0.22561129  0.07823635  0.94125213  1
  P  P63  1  0.77438871  0.57823635  0.55874787  1
  P  P64  1  0.44125213  0.27438871  0.92176365  1
  P  P65  1  0.05874787  0.72561129  0.42176365  1
  P  P66  1  0.94125213  0.22561129  0.07823635  1
  P  P67  1  0.55874787  0.77438871  0.57823635  1
  P  P68  1  0.92176365  0.44125213  0.27438871  1
  P  P69  1  0.42176365  0.05874787  0.72561129  1
  P  P70  1  0.07823635  0.94125213  0.22561129  1
  P  P71  1  0.57823635  0.55874787  0.77438871  1
  P  P72  1  0.54609605  0.15480314  0.82787863  1
  P  P73  1  0.45390395  0.65480314  0.67212137  1
  P  P74  1  0.95390395  0.84519686  0.32787863  1
  P  P75  1  0.04609605  0.34519686  0.17212137  1
  P  P76  1  0.82787863  0.54609605  0.15480314  1
  P  P77  1  0.67212137  0.45390395  0.65480314  1
  P  P78  1  0.32787863  0.95390395  0.84519686  1
  P  P79  1  0.17212137  0.04609605  0.34519686  1
  P  P80  1  0.15480314  0.82787863  0.54609605  1
  P  P81  1  0.65480314  0.67212137  0.45390395  1
  P  P82  1  0.84519686  0.32787863  0.95390395  1
  P  P83  1  0.34519686  0.17212137  0.04609605  1
  P  P84  1  0.45390395  0.84519686  0.17212137  1
  P  P85  1  0.54609605  0.34519686  0.32787863  1
  P  P86  1  0.04609605  0.15480314  0.67212137  1
  P  P87  1  0.95390395  0.65480314  0.82787863  1
  P  P88  1  0.17212137  0.45390395  0.84519686  1
  P  P89  1  0.32787863  0.54609605  0.34519686  1
  P  P90  1  0.67212137  0.04609605  0.15480314  1
  P  P91  1  0.82787863  0.95390395  0.65480314  1
  P  P92  1  0.84519686  0.17212137  0.45390395  1
  P  P93  1  0.34519686  0.32787863  0.54609605  1
  P  P94  1  0.15480314  0.67212137  0.04609605  1
  P  P95  1  0.65480314  0.82787863  0.95390395  1
  O  O96  1  0.81472296  0.09438912  0.51154453  1
  O  O97  1  0.18527704  0.59438912  0.98845547  1
  O  O98  1  0.68527704  0.90561088  0.01154453  1
  O  O99  1  0.31472296  0.40561088  0.48845547  1
  O  O100  1  0.51154453  0.81472296  0.09438912  1
  O  O101  1  0.98845547  0.18527704  0.59438912  1
  O  O102  1  0.01154453  0.68527704  0.90561088  1
  O  O103  1  0.48845547  0.31472296  0.40561088  1
  O  O104  1  0.09438912  0.51154453  0.81472296  1
  O  O105  1  0.59438912  0.98845547  0.18527704  1
  O  O106  1  0.90561088  0.01154453  0.68527704  1
  O  O107  1  0.40561088  0.48845547  0.31472296  1
  O  O108  1  0.18527704  0.90561088  0.48845547  1
  O  O109  1  0.81472296  0.40561088  0.01154453  1
  O  O110  1  0.31472296  0.09438912  0.98845547  1
  O  O111  1  0.68527704  0.59438912  0.51154453  1
  O  O112  1  0.48845547  0.18527704  0.90561088  1
  O  O113  1  0.01154453  0.81472296  0.40561088  1
  O  O114  1  0.98845547  0.31472296  0.09438912  1
  O  O115  1  0.51154453  0.68527704  0.59438912  1
  O  O116  1  0.90561088  0.48845547  0.18527704  1
  O  O117  1  0.40561088  0.01154453  0.81472296  1
  O  O118  1  0.09438912  0.98845547  0.31472296  1
  O  O119  1  0.59438912  0.51154453  0.68527704  1
  O  O120  1  0.75602451  0.02352310  0.63844177  1
  O  O121  1  0.24397549  0.52352310  0.86155823  1
  O  O122  1  0.74397549  0.97647690  0.13844177  1
  O  O123  1  0.25602451  0.47647690  0.36155823  1
  O  O124  1  0.63844177  0.75602451  0.02352310  1
  O  O125  1  0.86155823  0.24397549  0.52352310  1
  O  O126  1  0.13844177  0.74397549  0.97647690  1
  O  O127  1  0.36155823  0.25602451  0.47647690  1
  O  O128  1  0.02352310  0.63844177  0.75602451  1
  O  O129  1  0.52352310  0.86155823  0.24397549  1
  O  O130  1  0.97647690  0.13844177  0.74397549  1
  O  O131  1  0.47647690  0.36155823  0.25602451  1
  O  O132  1  0.24397549  0.97647690  0.36155823  1
  O  O133  1  0.75602451  0.47647690  0.13844177  1
  O  O134  1  0.25602451  0.02352310  0.86155823  1
  O  O135  1  0.74397549  0.52352310  0.63844177  1
  O  O136  1  0.36155823  0.24397549  0.97647690  1
  O  O137  1  0.13844177  0.75602451  0.47647690  1
  O  O138  1  0.86155823  0.25602451  0.02352310  1
  O  O139  1  0.63844177  0.74397549  0.52352310  1
  O  O140  1  0.97647690  0.36155823  0.24397549  1
  O  O141  1  0.47647690  0.13844177  0.75602451  1
  O  O142  1  0.02352310  0.86155823  0.25602451  1
  O  O143  1  0.52352310  0.63844177  0.74397549  1
  O  O144  1  0.67325201  0.02430553  0.50348860  1
  O  O145  1  0.32674799  0.52430553  0.99651140  1
  O  O146  1  0.82674799  0.97569447  0.00348860  1
  O  O147  1  0.17325201  0.47569447  0.49651140  1
  O  O148  1  0.50348860  0.67325201  0.02430553  1
  O  O149  1  0.99651140  0.32674799  0.52430553  1
  O  O150  1  0.00348860  0.82674799  0.97569447  1
  O  O151  1  0.49651140  0.17325201  0.47569447  1
  O  O152  1  0.02430553  0.50348860  0.67325201  1
  O  O153  1  0.52430553  0.99651140  0.32674799  1
  O  O154  1  0.97569447  0.00348860  0.82674799  1
  O  O155  1  0.47569447  0.49651140  0.17325201  1
  O  O156  1  0.32674799  0.97569447  0.49651140  1
  O  O157  1  0.67325201  0.47569447  0.00348860  1
  O  O158  1  0.17325201  0.02430553  0.99651140  1
  O  O159  1  0.82674799  0.52430553  0.50348860  1
  O  O160  1  0.49651140  0.32674799  0.97569447  1
  O  O161  1  0.00348860  0.67325201  0.47569447  1
  O  O162  1  0.99651140  0.17325201  0.02430553  1
  O  O163  1  0.50348860  0.82674799  0.52430553  1
  O  O164  1  0.97569447  0.49651140  0.32674799  1
  O  O165  1  0.47569447  0.00348860  0.67325201  1
  O  O166  1  0.02430553  0.99651140  0.17325201  1
  O  O167  1  0.52430553  0.50348860  0.82674799  1
  O  O168  1  0.69155850  0.15812752  0.59247217  1
  O  O169  1  0.30844150  0.65812752  0.90752783  1
  O  O170  1  0.80844150  0.84187248  0.09247217  1
  O  O171  1  0.19155850  0.34187248  0.40752783  1
  O  O172  1  0.59247217  0.69155850  0.15812752  1
  O  O173  1  0.90752783  0.30844150  0.65812752  1
  O  O174  1  0.09247217  0.80844150  0.84187248  1
  O  O175  1  0.40752783  0.19155850  0.34187248  1
  O  O176  1  0.15812752  0.59247217  0.69155850  1
  O  O177  1  0.65812752  0.90752783  0.30844150  1
  O  O178  1  0.84187248  0.09247217  0.80844150  1
  O  O179  1  0.34187248  0.40752783  0.19155850  1
  O  O180  1  0.30844150  0.84187248  0.40752783  1
  O  O181  1  0.69155850  0.34187248  0.09247217  1
  O  O182  1  0.19155850  0.15812752  0.90752783  1
  O  O183  1  0.80844150  0.65812752  0.59247217  1
  O  O184  1  0.40752783  0.30844150  0.84187248  1
  O  O185  1  0.09247217  0.69155850  0.34187248  1
  O  O186  1  0.90752783  0.19155850  0.15812752  1
  O  O187  1  0.59247217  0.80844150  0.65812752  1
  O  O188  1  0.84187248  0.40752783  0.30844150  1
  O  O189  1  0.34187248  0.09247217  0.69155850  1
  O  O190  1  0.15812752  0.90752783  0.19155850  1
  O  O191  1  0.65812752  0.59247217  0.80844150  1
  O  O192  1  0.58670467  0.07556234  0.85552413  1
  O  O193  1  0.41329533  0.57556234  0.64447587  1
  O  O194  1  0.91329533  0.92443766  0.35552413  1
  O  O195  1  0.08670467  0.42443766  0.14447587  1
  O  O196  1  0.85552413  0.58670467  0.07556234  1
  O  O197  1  0.64447587  0.41329533  0.57556234  1
  O  O198  1  0.35552413  0.91329533  0.92443766  1
  O  O199  1  0.14447587  0.08670467  0.42443766  1
  O  O200  1  0.07556234  0.85552413  0.58670467  1
  O  O201  1  0.57556234  0.64447587  0.41329533  1
  O  O202  1  0.92443766  0.35552413  0.91329533  1
  O  O203  1  0.42443766  0.14447587  0.08670467  1
  O  O204  1  0.41329533  0.92443766  0.14447587  1
  O  O205  1  0.58670467  0.42443766  0.35552413  1
  O  O206  1  0.08670467  0.07556234  0.64447587  1
  O  O207  1  0.91329533  0.57556234  0.85552413  1
  O  O208  1  0.14447587  0.41329533  0.92443766  1
  O  O209  1  0.35552413  0.58670467  0.42443766  1
  O  O210  1  0.64447587  0.08670467  0.07556234  1
  O  O211  1  0.85552413  0.91329533  0.57556234  1
  O  O212  1  0.92443766  0.14447587  0.41329533  1
  O  O213  1  0.42443766  0.35552413  0.58670467  1
  O  O214  1  0.07556234  0.64447587  0.08670467  1
  O  O215  1  0.57556234  0.85552413  0.91329533  1
  O  O216  1  0.59927129  0.22470072  0.79597951  1
  O  O217  1  0.40072871  0.72470072  0.70402049  1
  O  O218  1  0.90072871  0.77529928  0.29597951  1
  O  O219  1  0.09927129  0.27529928  0.20402049  1
  O  O220  1  0.79597951  0.59927129  0.22470072  1
  O  O221  1  0.70402049  0.40072871  0.72470072  1
  O  O222  1  0.29597951  0.90072871  0.77529928  1
  O  O223  1  0.20402049  0.09927129  0.27529928  1
  O  O224  1  0.22470072  0.79597951  0.59927129  1
  O  O225  1  0.72470072  0.70402049  0.40072871  1
  O  O226  1  0.77529928  0.29597951  0.90072871  1
  O  O227  1  0.27529928  0.20402049  0.09927129  1
  O  O228  1  0.40072871  0.77529928  0.20402049  1
  O  O229  1  0.59927129  0.27529928  0.29597951  1
  O  O230  1  0.09927129  0.22470072  0.70402049  1
  O  O231  1  0.90072871  0.72470072  0.79597951  1
  O  O232  1  0.20402049  0.40072871  0.77529928  1
  O  O233  1  0.29597951  0.59927129  0.27529928  1
  O  O234  1  0.70402049  0.09927129  0.22470072  1
  O  O235  1  0.79597951  0.90072871  0.72470072  1
  O  O236  1  0.77529928  0.20402049  0.40072871  1
  O  O237  1  0.27529928  0.29597951  0.59927129  1
  O  O238  1  0.22470072  0.70402049  0.09927129  1
  O  O239  1  0.72470072  0.79597951  0.90072871  1
