# generated using pymatgen
data_Cs2CuSi5O12
_symmetry_space_group_name_H-M   'P 1'
_cell_length_a   13.81245573
_cell_length_b   13.83089711
_cell_length_c   13.87285465
_cell_angle_alpha   90.00000000
_cell_angle_beta   90.00000000
_cell_angle_gamma   90.00000000
_symmetry_Int_Tables_number   1
_chemical_formula_structural   Cs2CuSi5O12
_chemical_formula_sum   'Cs16 Cu8 Si40 O96'
_cell_volume   2650.25148000
_cell_formula_units_Z   8
loop_
 _symmetry_equiv_pos_site_id
 _symmetry_equiv_pos_as_xyz
  1  'x, y, z'
loop_
 _atom_site_type_symbol
 _atom_site_label
 _atom_site_symmetry_multiplicity
 _atom_site_fract_x
 _atom_site_fract_y
 _atom_site_fract_z
 _atom_site_occupancy
  Cs  Cs0  1  0.87013919  0.37333905  0.64745973  1
  Cs  Cs1  1  0.62986081  0.87333905  0.35254027  1
  Cs  Cs2  1  0.37013919  0.62666095  0.85254027  1
  Cs  Cs3  1  0.12986081  0.12666095  0.14745973  1
  Cs  Cs4  1  0.12986081  0.62666095  0.35254027  1
  Cs  Cs5  1  0.37013919  0.12666095  0.64745973  1
  Cs  Cs6  1  0.62986081  0.37333905  0.14745973  1
  Cs  Cs7  1  0.87013919  0.87333905  0.85254027  1
  Cs  Cs8  1  0.61354453  0.12184146  0.88517814  1
  Cs  Cs9  1  0.88645547  0.62184146  0.11482186  1
  Cs  Cs10  1  0.11354453  0.87815854  0.61482186  1
  Cs  Cs11  1  0.38645547  0.37815854  0.38517814  1
  Cs  Cs12  1  0.38645547  0.87815854  0.11482186  1
  Cs  Cs13  1  0.11354453  0.37815854  0.88517814  1
  Cs  Cs14  1  0.88645547  0.12184146  0.38517814  1
  Cs  Cs15  1  0.61354453  0.62184146  0.61482186  1
  Cu  Cu16  1  0.16053055  0.12047575  0.43170086  1
  Cu  Cu17  1  0.33946945  0.62047575  0.56829914  1
  Cu  Cu18  1  0.66053055  0.87952425  0.06829914  1
  Cu  Cu19  1  0.83946945  0.37952425  0.93170086  1
  Cu  Cu20  1  0.83946945  0.87952425  0.56829914  1
  Cu  Cu21  1  0.66053055  0.37952425  0.43170086  1
  Cu  Cu22  1  0.33946945  0.12047575  0.93170086  1
  Cu  Cu23  1  0.16053055  0.62047575  0.06829914  1
  Si  Si24  1  0.32451290  0.36848086  0.09459108  1
  Si  Si25  1  0.17548710  0.86848086  0.90540892  1
  Si  Si26  1  0.82451290  0.63151914  0.40540892  1
  Si  Si27  1  0.67548710  0.13151914  0.59459108  1
  Si  Si28  1  0.67548710  0.63151914  0.90540892  1
  Si  Si29  1  0.82451290  0.13151914  0.09459108  1
  Si  Si30  1  0.17548710  0.36848086  0.59459108  1
  Si  Si31  1  0.32451290  0.86848086  0.40540892  1
  Si  Si32  1  0.87830576  0.91722168  0.13585597  1
  Si  Si33  1  0.62169424  0.41722168  0.86414403  1
  Si  Si34  1  0.37830576  0.08277832  0.36414403  1
  Si  Si35  1  0.12169424  0.58277832  0.63585597  1
  Si  Si36  1  0.12169424  0.08277832  0.86414403  1
  Si  Si37  1  0.37830576  0.58277832  0.13585597  1
  Si  Si38  1  0.62169424  0.91722168  0.63585597  1
  Si  Si39  1  0.87830576  0.41722168  0.36414403  1
  Si  Si40  1  0.40999360  0.83969378  0.61113463  1
  Si  Si41  1  0.09000640  0.33969378  0.38886537  1
  Si  Si42  1  0.90999360  0.16030622  0.88886537  1
  Si  Si43  1  0.59000640  0.66030622  0.11113463  1
  Si  Si44  1  0.59000640  0.16030622  0.38886537  1
  Si  Si45  1  0.90999360  0.66030622  0.61113463  1
  Si  Si46  1  0.09000640  0.83969378  0.11113463  1
  Si  Si47  1  0.40999360  0.33969378  0.88886537  1
  Si  Si48  1  0.62062197  0.59166601  0.32174595  1
  Si  Si49  1  0.87937803  0.09166601  0.67825405  1
  Si  Si50  1  0.12062197  0.40833399  0.17825405  1
  Si  Si51  1  0.37937803  0.90833399  0.82174595  1
  Si  Si52  1  0.37937803  0.40833399  0.67825405  1
  Si  Si53  1  0.12062197  0.90833399  0.32174595  1
  Si  Si54  1  0.87937803  0.59166601  0.82174595  1
  Si  Si55  1  0.62062197  0.09166601  0.17825405  1
  Si  Si56  1  0.09156679  0.66293529  0.85087542  1
  Si  Si57  1  0.40843321  0.16293529  0.14912458  1
  Si  Si58  1  0.59156679  0.33706471  0.64912458  1
  Si  Si59  1  0.90843321  0.83706471  0.35087542  1
  Si  Si60  1  0.90843321  0.33706471  0.14912458  1
  Si  Si61  1  0.59156679  0.83706471  0.85087542  1
  Si  Si62  1  0.40843321  0.66293529  0.35087542  1
  Si  Si63  1  0.09156679  0.16293529  0.64912458  1
  O  O64  1  0.63212591  0.03589665  0.64816020  1
  O  O65  1  0.86787409  0.53589665  0.35183980  1
  O  O66  1  0.13212591  0.96410335  0.85183980  1
  O  O67  1  0.36787409  0.46410335  0.14816020  1
  O  O68  1  0.36787409  0.96410335  0.35183980  1
  O  O69  1  0.13212591  0.46410335  0.64816020  1
  O  O70  1  0.86787409  0.03589665  0.14816020  1
  O  O71  1  0.63212591  0.53589665  0.85183980  1
  O  O72  1  0.51173421  0.39977474  0.90626086  1
  O  O73  1  0.98826579  0.89977474  0.09373914  1
  O  O74  1  0.01173421  0.60022526  0.59373914  1
  O  O75  1  0.48826579  0.10022526  0.40626086  1
  O  O76  1  0.48826579  0.60022526  0.09373914  1
  O  O77  1  0.01173421  0.10022526  0.90626086  1
  O  O78  1  0.98826579  0.39977474  0.40626086  1
  O  O79  1  0.51173421  0.89977474  0.59373914  1
  O  O80  1  0.83741888  0.12677982  0.97815105  1
  O  O81  1  0.66258112  0.62677982  0.02184895  1
  O  O82  1  0.33741888  0.87322018  0.52184895  1
  O  O83  1  0.16258112  0.37322018  0.47815105  1
  O  O84  1  0.16258112  0.87322018  0.02184895  1
  O  O85  1  0.33741888  0.37322018  0.97815105  1
  O  O86  1  0.66258112  0.12677982  0.47815105  1
  O  O87  1  0.83741888  0.62677982  0.52184895  1
  O  O88  1  0.57518730  0.77444011  0.11893531  1
  O  O89  1  0.92481270  0.27444011  0.88106469  1
  O  O90  1  0.07518730  0.22555989  0.38106469  1
  O  O91  1  0.42481270  0.72555989  0.61893531  1
  O  O92  1  0.42481270  0.22555989  0.88106469  1
  O  O93  1  0.07518730  0.72555989  0.11893531  1
  O  O94  1  0.92481270  0.77444011  0.61893531  1
  O  O95  1  0.57518730  0.27444011  0.38106469  1
  O  O96  1  0.29095398  0.85621802  0.88396093  1
  O  O97  1  0.20904602  0.35621802  0.11603907  1
  O  O98  1  0.79095398  0.14378198  0.61603907  1
  O  O99  1  0.70904602  0.64378198  0.38396093  1
  O  O100  1  0.70904602  0.14378198  0.11603907  1
  O  O101  1  0.79095398  0.64378198  0.88396093  1
  O  O102  1  0.20904602  0.85621802  0.38396093  1
  O  O103  1  0.29095398  0.35621802  0.61603907  1
  O  O104  1  0.36992773  0.12757181  0.25513313  1
  O  O105  1  0.13007227  0.62757181  0.74486687  1
  O  O106  1  0.86992773  0.87242819  0.24486687  1
  O  O107  1  0.63007227  0.37242819  0.75513313  1
  O  O108  1  0.63007227  0.87242819  0.74486687  1
  O  O109  1  0.86992773  0.37242819  0.25513313  1
  O  O110  1  0.13007227  0.12757181  0.75513313  1
  O  O111  1  0.36992773  0.62757181  0.24486687  1
  O  O112  1  0.10709978  0.52080125  0.15830147  1
  O  O113  1  0.39290022  0.02080125  0.84169853  1
  O  O114  1  0.60709978  0.47919875  0.34169853  1
  O  O115  1  0.89290022  0.97919875  0.65830147  1
  O  O116  1  0.89290022  0.47919875  0.84169853  1
  O  O117  1  0.60709978  0.97919875  0.15830147  1
  O  O118  1  0.39290022  0.52080125  0.65830147  1
  O  O119  1  0.10709978  0.02080125  0.34169853  1
  O  O120  1  0.02751121  0.84057964  0.35373322  1
  O  O121  1  0.47248879  0.34057964  0.64626678  1
  O  O122  1  0.52751121  0.15942036  0.14626678  1
  O  O123  1  0.97248879  0.65942036  0.85373322  1
  O  O124  1  0.97248879  0.15942036  0.64626678  1
  O  O125  1  0.52751121  0.65942036  0.35373322  1
  O  O126  1  0.47248879  0.84057964  0.85373322  1
  O  O127  1  0.02751121  0.34057964  0.14626678  1
  O  O128  1  0.35636608  0.59941175  0.43156641  1
  O  O129  1  0.14363392  0.09941175  0.56843359  1
  O  O130  1  0.85636608  0.40058825  0.06843359  1
  O  O131  1  0.64363392  0.90058825  0.93156641  1
  O  O132  1  0.64363392  0.40058825  0.56843359  1
  O  O133  1  0.85636608  0.90058825  0.43156641  1
  O  O134  1  0.14363392  0.59941175  0.93156641  1
  O  O135  1  0.35636608  0.09941175  0.06843359  1
  O  O136  1  0.11624204  0.27945877  0.64331696  1
  O  O137  1  0.38375796  0.77945877  0.35668304  1
  O  O138  1  0.61624204  0.72054123  0.85668304  1
  O  O139  1  0.88375796  0.22054123  0.14331696  1
  O  O140  1  0.88375796  0.72054123  0.35668304  1
  O  O141  1  0.61624204  0.22054123  0.64331696  1
  O  O142  1  0.38375796  0.27945877  0.14331696  1
  O  O143  1  0.11624204  0.77945877  0.85668304  1
  O  O144  1  0.80000714  0.37028638  0.43455404  1
  O  O145  1  0.69999286  0.87028638  0.56544596  1
  O  O146  1  0.30000714  0.62971362  0.06544596  1
  O  O147  1  0.19999286  0.12971362  0.93455404  1
  O  O148  1  0.19999286  0.62971362  0.56544596  1
  O  O149  1  0.30000714  0.12971362  0.43455404  1
  O  O150  1  0.69999286  0.37028638  0.93455404  1
  O  O151  1  0.80000714  0.87028638  0.06544596  1
  O  O152  1  0.85645590  0.61156209  0.70628987  1
  O  O153  1  0.64354410  0.11156209  0.29371013  1
  O  O154  1  0.35645590  0.38843791  0.79371013  1
  O  O155  1  0.14354410  0.88843791  0.20628987  1
  O  O156  1  0.14354410  0.38843791  0.29371013  1
  O  O157  1  0.35645590  0.88843791  0.70628987  1
  O  O158  1  0.64354410  0.61156209  0.20628987  1
  O  O159  1  0.85645590  0.11156209  0.79371013  1
