# generated using pymatgen
data_HgH36C14S8(O2F)6
_symmetry_space_group_name_H-M   'P 1'
_cell_length_a   7.01982700
_cell_length_b   12.53952735
_cell_length_c   12.54751375
_cell_angle_alpha   60.05261261
_cell_angle_beta   89.99747940
_cell_angle_gamma   89.98643400
_symmetry_Int_Tables_number   1
_chemical_formula_structural   HgH36C14S8(O2F)6
_chemical_formula_sum   'Hg1 H36 C14 S8 O12 F6'
_cell_volume   957.03071413
_cell_formula_units_Z   1
loop_
 _symmetry_equiv_pos_site_id
 _symmetry_equiv_pos_as_xyz
  1  'x, y, z'
loop_
 _atom_site_type_symbol
 _atom_site_label
 _atom_site_symmetry_multiplicity
 _atom_site_fract_x
 _atom_site_fract_y
 _atom_site_fract_z
 _atom_site_occupancy
  Hg  Hg0  1  0.00000000  0.00000000  0.00000000  1
  H  H1  1  0.53962100  0.67826300  0.40525400  1
  H  H2  1  0.53954700  0.40531900  0.91656500  1
  H  H3  1  0.53965900  0.91643300  0.67818200  1
  H  H4  1  0.46037900  0.32173700  0.59474600  1
  H  H5  1  0.46045300  0.59468100  0.08343500  1
  H  H6  1  0.46034100  0.08356700  0.32181800  1
  H  H7  1  0.57465900  0.62276200  0.29868200  1
  H  H8  1  0.57461200  0.29880600  0.07841700  1
  H  H9  1  0.57454700  0.07845200  0.62287100  1
  H  H10  1  0.42534100  0.37723800  0.70131800  1
  H  H11  1  0.42538800  0.70119400  0.92158300  1
  H  H12  1  0.42545300  0.92154800  0.37712900  1
  H  H13  1  0.45281100  0.76697600  0.25038900  1
  H  H14  1  0.45287100  0.25031800  0.98263900  1
  H  H15  1  0.45285800  0.98274000  0.76695600  1
  H  H16  1  0.54718900  0.23302400  0.74961100  1
  H  H17  1  0.54712900  0.74968200  0.01736100  1
  H  H18  1  0.54714200  0.01726000  0.23304400  1
  H  H19  1  0.91492700  0.64063500  0.45534300  1
  H  H20  1  0.91492700  0.45542000  0.90409700  1
  H  H21  1  0.91500700  0.90397300  0.64051100  1
  H  H22  1  0.08507300  0.35936500  0.54465700  1
  H  H23  1  0.08507300  0.54458000  0.09590300  1
  H  H24  1  0.08499300  0.09602700  0.35948900  1
  H  H25  1  0.08805900  0.69864700  0.33273800  1
  H  H26  1  0.08805500  0.33266300  0.96859600  1
  H  H27  1  0.08807300  0.96861100  0.69865500  1
  H  H28  1  0.91194100  0.30135300  0.66726200  1
  H  H29  1  0.91194500  0.66733700  0.03140400  1
  H  H30  1  0.91192700  0.03138900  0.30134500  1
  H  H31  1  0.91617800  0.58554300  0.34629700  1
  H  H32  1  0.91612700  0.34642200  0.06801100  1
  H  H33  1  0.91610600  0.06804900  0.58565900  1
  H  H34  1  0.08382200  0.41445700  0.65370300  1
  H  H35  1  0.08387300  0.65357800  0.93198900  1
  H  H36  1  0.08389400  0.93195100  0.41434100  1
  C  C37  1  0.62649600  0.33340700  0.33334300  1
  C  C38  1  0.37350400  0.66659300  0.66665700  1
  C  C39  1  0.56536400  0.70445500  0.30897200  1
  C  C40  1  0.56536300  0.30899300  0.98654500  1
  C  C41  1  0.56537100  0.98654800  0.70445900  1
  C  C42  1  0.43463600  0.29554500  0.69102800  1
  C  C43  1  0.43463700  0.69100700  0.01345500  1
  C  C44  1  0.43462900  0.01345200  0.29554100  1
  C  C45  1  0.94251000  0.66418800  0.35986100  1
  C  C46  1  0.94252200  0.35988600  0.97591600  1
  C  C47  1  0.94252900  0.97591000  0.66417900  1
  C  C48  1  0.05749000  0.33581200  0.64013900  1
  C  C49  1  0.05747800  0.64011400  0.02408400  1
  C  C50  1  0.05747100  0.02409000  0.33582100  1
  S  S51  1  0.78528900  0.78850400  0.26331600  1
  S  S52  1  0.78532200  0.26322100  0.94820300  1
  S  S53  1  0.78533300  0.94824500  0.78847700  1
  S  S54  1  0.21471100  0.21149600  0.73668400  1
  S  S55  1  0.21467800  0.73677900  0.05179700  1
  S  S56  1  0.21466700  0.05175500  0.21152300  1
  S  S57  1  0.35860300  0.33360300  0.33327400  1
  S  S58  1  0.64139700  0.66639700  0.66672600  1
  O  O59  1  0.81914800  0.81451800  0.13095600  1
  O  O60  1  0.81921000  0.13082000  0.05452300  1
  O  O61  1  0.81912700  0.05459400  0.81464800  1
  O  O62  1  0.18085200  0.18548200  0.86904400  1
  O  O63  1  0.18079000  0.86918000  0.94547700  1
  O  O64  1  0.18087300  0.94540600  0.18535200  1
  O  O65  1  0.31288800  0.44934200  0.32875000  1
  O  O66  1  0.31299500  0.32880400  0.22212200  1
  O  O67  1  0.31306300  0.22228700  0.44907100  1
  O  O68  1  0.68711200  0.55065800  0.67125000  1
  O  O69  1  0.68700500  0.67119600  0.77787800  1
  O  O70  1  0.68693700  0.77771300  0.55092900  1
  F  F71  1  0.69849600  0.33714600  0.43254100  1
  F  F72  1  0.69857900  0.43257200  0.23051900  1
  F  F73  1  0.69834800  0.23040100  0.33699100  1
  F  F74  1  0.30150400  0.66285400  0.56745900  1
  F  F75  1  0.30142100  0.56742800  0.76948100  1
  F  F76  1  0.30165200  0.76959900  0.66300900  1
