# generated using pymatgen
data_UBi4(AsO8)2
_symmetry_space_group_name_H-M   'P 1'
_cell_length_a   5.69453000
_cell_length_b   12.65447000
_cell_length_c   21.69085800
_cell_angle_alpha   90.00000000
_cell_angle_beta   90.00000000
_cell_angle_gamma   90.00000000
_symmetry_Int_Tables_number   1
_chemical_formula_structural   UBi4(AsO8)2
_chemical_formula_sum   'U4 Bi16 As8 O64'
_cell_volume   1563.07053734
_cell_formula_units_Z   4
loop_
 _symmetry_equiv_pos_site_id
 _symmetry_equiv_pos_as_xyz
  1  'x, y, z'
loop_
 _atom_site_type_symbol
 _atom_site_label
 _atom_site_symmetry_multiplicity
 _atom_site_fract_x
 _atom_site_fract_y
 _atom_site_fract_z
 _atom_site_occupancy
  U  U0  1  0.74942400  0.52800200  0.75000000  1
  U  U1  1  0.25057600  0.47199800  0.25000000  1
  U  U2  1  0.74942400  0.97199800  0.25000000  1
  U  U3  1  0.25057600  0.02800200  0.75000000  1
  Bi  Bi4  1  0.64343800  0.39138800  0.52298500  1
  Bi  Bi5  1  0.35656200  0.60861200  0.02298500  1
  Bi  Bi6  1  0.64343800  0.10861200  0.47701500  1
  Bi  Bi7  1  0.35656200  0.89138800  0.97701500  1
  Bi  Bi8  1  0.35656200  0.60861200  0.47701500  1
  Bi  Bi9  1  0.64343800  0.39138800  0.97701500  1
  Bi  Bi10  1  0.35656200  0.89138800  0.52298500  1
  Bi  Bi11  1  0.64343800  0.10861200  0.02298500  1
  Bi  Bi12  1  0.11668500  0.23239500  0.58894400  1
  Bi  Bi13  1  0.88331500  0.76760500  0.08894400  1
  Bi  Bi14  1  0.11668500  0.26760500  0.41105600  1
  Bi  Bi15  1  0.88331500  0.73239500  0.91105600  1
  Bi  Bi16  1  0.88331500  0.76760500  0.41105600  1
  Bi  Bi17  1  0.11668500  0.23239500  0.91105600  1
  Bi  Bi18  1  0.88331500  0.73239500  0.58894400  1
  Bi  Bi19  1  0.11668500  0.26760500  0.08894400  1
  As  As20  1  0.27180300  0.51174200  0.63316800  1
  As  As21  1  0.72819700  0.48825800  0.13316800  1
  As  As22  1  0.27180300  0.98825800  0.36683200  1
  As  As23  1  0.72819700  0.01174200  0.86683200  1
  As  As24  1  0.72819700  0.48825800  0.36683200  1
  As  As25  1  0.27180300  0.51174200  0.86683200  1
  As  As26  1  0.72819700  0.01174200  0.63316800  1
  As  As27  1  0.27180300  0.98825800  0.13316800  1
  O  O28  1  0.84040500  0.66607400  0.75000000  1
  O  O29  1  0.15959500  0.33392600  0.25000000  1
  O  O30  1  0.84040500  0.83392600  0.25000000  1
  O  O31  1  0.15959500  0.16607400  0.75000000  1
  O  O32  1  0.63314700  0.39520900  0.75000000  1
  O  O33  1  0.36685300  0.60479100  0.25000000  1
  O  O34  1  0.63314700  0.10479100  0.25000000  1
  O  O35  1  0.36685300  0.89520900  0.75000000  1
  O  O36  1  0.33865200  0.05766000  0.53376800  1
  O  O37  1  0.66134800  0.94234000  0.03376800  1
  O  O38  1  0.33865200  0.44234000  0.46623200  1
  O  O39  1  0.66134800  0.55766000  0.96623200  1
  O  O40  1  0.66134800  0.94234000  0.46623200  1
  O  O41  1  0.33865200  0.05766000  0.96623200  1
  O  O42  1  0.66134800  0.55766000  0.53376800  1
  O  O43  1  0.33865200  0.44234000  0.03376800  1
  O  O44  1  0.44828600  0.25000000  0.50000000  1
  O  O45  1  0.55171400  0.75000000  0.00000000  1
  O  O46  1  0.55171400  0.75000000  0.50000000  1
  O  O47  1  0.44828600  0.25000000  0.00000000  1
  O  O48  1  0.95928900  0.25000000  0.50000000  1
  O  O49  1  0.04071100  0.75000000  0.00000000  1
  O  O50  1  0.04071100  0.75000000  0.50000000  1
  O  O51  1  0.95928900  0.25000000  0.00000000  1
  O  O52  1  0.35107300  0.39271200  0.59793900  1
  O  O53  1  0.64892700  0.60728800  0.09793900  1
  O  O54  1  0.35107300  0.10728800  0.40206100  1
  O  O55  1  0.64892700  0.89271200  0.90206100  1
  O  O56  1  0.64892700  0.60728800  0.40206100  1
  O  O57  1  0.35107300  0.39271200  0.90206100  1
  O  O58  1  0.64892700  0.89271200  0.59793900  1
  O  O59  1  0.35107300  0.10728800  0.09793900  1
  O  O60  1  0.49951700  0.57228700  0.83030900  1
  O  O61  1  0.50048300  0.42771300  0.33030900  1
  O  O62  1  0.49951700  0.92771300  0.16969100  1
  O  O63  1  0.50048300  0.07228700  0.66969100  1
  O  O64  1  0.50048300  0.42771300  0.16969100  1
  O  O65  1  0.49951700  0.57228700  0.66969100  1
  O  O66  1  0.50048300  0.07228700  0.83030900  1
  O  O67  1  0.49951700  0.92771300  0.33030900  1
  O  O68  1  0.17368400  0.59532300  0.57293800  1
  O  O69  1  0.82631600  0.40467700  0.07293800  1
  O  O70  1  0.17368400  0.90467700  0.42706200  1
  O  O71  1  0.82631600  0.09532300  0.92706200  1
  O  O72  1  0.82631600  0.40467700  0.42706200  1
  O  O73  1  0.17368400  0.59532300  0.92706200  1
  O  O74  1  0.82631600  0.09532300  0.57293800  1
  O  O75  1  0.17368400  0.90467700  0.07293800  1
  O  O76  1  0.03786600  0.49230600  0.67971200  1
  O  O77  1  0.96213400  0.50769400  0.17971200  1
  O  O78  1  0.03786600  0.00769400  0.32028800  1
  O  O79  1  0.96213400  0.99230600  0.82028800  1
  O  O80  1  0.96213400  0.50769400  0.32028800  1
  O  O81  1  0.03786600  0.49230600  0.82028800  1
  O  O82  1  0.96213400  0.99230600  0.67971200  1
  O  O83  1  0.03786600  0.00769400  0.17971200  1
  O  O84  1  0.83137400  0.34586300  0.60086900  1
  O  O85  1  0.16862600  0.65413700  0.10086900  1
  O  O86  1  0.83137400  0.15413700  0.39913100  1
  O  O87  1  0.16862600  0.84586300  0.89913100  1
  O  O88  1  0.16862600  0.65413700  0.39913100  1
  O  O89  1  0.83137400  0.34586300  0.89913100  1
  O  O90  1  0.16862600  0.84586300  0.60086900  1
  O  O91  1  0.83137400  0.15413700  0.10086900  1
