# generated using pymatgen
data_Nd13Mg2Si4B8O43
_symmetry_space_group_name_H-M   'P 1'
_cell_length_a   16.09778300
_cell_length_b   9.32297700
_cell_length_c   11.92831622
_cell_angle_alpha   73.79638923
_cell_angle_beta   90.00000000
_cell_angle_gamma   90.00000000
_symmetry_Int_Tables_number   1
_chemical_formula_structural   Nd13Mg2Si4B8O43
_chemical_formula_sum   'Nd26 Mg4 Si8 B16 O86'
_cell_volume   1719.07943941
_cell_formula_units_Z   2
loop_
 _symmetry_equiv_pos_site_id
 _symmetry_equiv_pos_as_xyz
  1  'x, y, z'
loop_
 _atom_site_type_symbol
 _atom_site_label
 _atom_site_symmetry_multiplicity
 _atom_site_fract_x
 _atom_site_fract_y
 _atom_site_fract_z
 _atom_site_occupancy
  Nd  Nd0  1  0.62707300  0.32141000  0.63799400  1
  Nd  Nd1  1  0.12707300  0.67859000  0.36200600  1
  Nd  Nd2  1  0.37292700  0.67859000  0.36200600  1
  Nd  Nd3  1  0.87292700  0.32141000  0.63799400  1
  Nd  Nd4  1  0.36932800  0.82204800  0.64449400  1
  Nd  Nd5  1  0.86932800  0.17795200  0.35550600  1
  Nd  Nd6  1  0.63067200  0.17795200  0.35550600  1
  Nd  Nd7  1  0.13067200  0.82204800  0.64449400  1
  Nd  Nd8  1  0.25000000  0.05371700  0.36197300  1
  Nd  Nd9  1  0.75000000  0.94628300  0.63802700  1
  Nd  Nd10  1  0.25000000  0.46142300  0.65158600  1
  Nd  Nd11  1  0.75000000  0.53857700  0.34841400  1
  Nd  Nd12  1  0.42176600  0.14221900  0.80043700  1
  Nd  Nd13  1  0.92176600  0.85778100  0.19956300  1
  Nd  Nd14  1  0.57823400  0.85778100  0.19956300  1
  Nd  Nd15  1  0.07823400  0.14221900  0.80043700  1
  Nd  Nd16  1  0.41364800  0.35886800  0.21727300  1
  Nd  Nd17  1  0.91364800  0.64113200  0.78272700  1
  Nd  Nd18  1  0.58635200  0.64113200  0.78272700  1
  Nd  Nd19  1  0.08635200  0.35886800  0.21727300  1
  Nd  Nd20  1  0.39326100  0.73938700  0.00331600  1
  Nd  Nd21  1  0.89326100  0.26061300  0.99668400  1
  Nd  Nd22  1  0.60673900  0.26061300  0.99668400  1
  Nd  Nd23  1  0.10673900  0.73938700  0.00331600  1
  Nd  Nd24  1  0.25000000  0.27183000  0.01226000  1
  Nd  Nd25  1  0.75000000  0.72817000  0.98774000  1
  Mg  Mg26  1  0.41731100  0.24571900  0.50884200  1
  Mg  Mg27  1  0.91731100  0.75428100  0.49115800  1
  Mg  Mg28  1  0.58268900  0.75428100  0.49115800  1
  Mg  Mg29  1  0.08268900  0.24571900  0.50884200  1
  Si  Si30  1  0.40452700  0.04223300  0.11432500  1
  Si  Si31  1  0.90452700  0.95776700  0.88567500  1
  Si  Si32  1  0.59547300  0.95776700  0.88567500  1
  Si  Si33  1  0.09547300  0.04223300  0.11432500  1
  Si  Si34  1  0.41057200  0.46471100  0.87947100  1
  Si  Si35  1  0.91057200  0.53528900  0.12052900  1
  Si  Si36  1  0.58942800  0.53528900  0.12052900  1
  Si  Si37  1  0.08942800  0.46471100  0.87947100  1
  B  B38  1  0.53279100  0.99055300  0.61008400  1
  B  B39  1  0.03279100  0.00944700  0.38991600  1
  B  B40  1  0.46720900  0.00944700  0.38991600  1
  B  B41  1  0.96720900  0.99055300  0.61008400  1
  B  B42  1  0.46742900  0.49235600  0.61013800  1
  B  B43  1  0.96742900  0.50764400  0.38986200  1
  B  B44  1  0.53257100  0.50764400  0.38986200  1
  B  B45  1  0.03257100  0.49235600  0.61013800  1
  B  B46  1  0.25000000  0.14212800  0.62104800  1
  B  B47  1  0.75000000  0.85787200  0.37895200  1
  B  B48  1  0.25000000  0.87005500  0.85816100  1
  B  B49  1  0.75000000  0.12994500  0.14183900  1
  B  B50  1  0.25000000  0.52832500  0.18278200  1
  B  B51  1  0.75000000  0.47167500  0.81721800  1
  B  B52  1  0.25000000  0.35088600  0.40456500  1
  B  B53  1  0.75000000  0.64911400  0.59543500  1
  O  O54  1  0.41679700  0.86112100  0.17395400  1
  O  O55  1  0.91679700  0.13887900  0.82604600  1
  O  O56  1  0.58320300  0.13887900  0.82604600  1
  O  O57  1  0.08320300  0.86112100  0.17395400  1
  O  O58  1  0.47202500  0.16049700  0.38043500  1
  O  O59  1  0.97202500  0.83950300  0.61956500  1
  O  O60  1  0.52797500  0.83950300  0.61956500  1
  O  O61  1  0.02797500  0.16049700  0.38043500  1
  O  O62  1  0.39614700  0.92473400  0.42623900  1
  O  O63  1  0.89614700  0.07526600  0.57376100  1
  O  O64  1  0.60385300  0.07526600  0.57376100  1
  O  O65  1  0.10385300  0.92473400  0.42623900  1
  O  O66  1  0.42778700  0.64500400  0.82061700  1
  O  O67  1  0.92778700  0.35499600  0.17938300  1
  O  O68  1  0.57221300  0.35499600  0.17938300  1
  O  O69  1  0.07221300  0.64500400  0.82061700  1
  O  O70  1  0.32721600  0.91979500  0.81087900  1
  O  O71  1  0.82721600  0.08020500  0.18912100  1
  O  O72  1  0.67278400  0.08020500  0.18912100  1
  O  O73  1  0.17278400  0.91979500  0.81087900  1
  O  O74  1  0.47162200  0.33855300  0.62999000  1
  O  O75  1  0.97162200  0.66144700  0.37001000  1
  O  O76  1  0.52837800  0.66144700  0.37001000  1
  O  O77  1  0.02837800  0.33855300  0.62999000  1
  O  O78  1  0.60449900  0.42420100  0.42030600  1
  O  O79  1  0.10449900  0.57579900  0.57969400  1
  O  O80  1  0.39550100  0.57579900  0.57969400  1
  O  O81  1  0.89550100  0.42420100  0.42030600  1
  O  O82  1  0.45559700  0.44359900  0.38347200  1
  O  O83  1  0.95559700  0.55640100  0.61652800  1
  O  O84  1  0.54440300  0.55640100  0.61652800  1
  O  O85  1  0.04440300  0.44359900  0.38347200  1
  O  O86  1  0.25000000  0.01919700  0.57627200  1
  O  O87  1  0.75000000  0.98080300  0.42372800  1
  O  O88  1  0.45875800  0.05338000  0.63312900  1
  O  O89  1  0.95875800  0.94662000  0.36687100  1
  O  O90  1  0.54124200  0.94662000  0.36687100  1
  O  O91  1  0.04124200  0.05338000  0.63312900  1
  O  O92  1  0.34730100  0.13198500  0.18879800  1
  O  O93  1  0.84730100  0.86801500  0.81120200  1
  O  O94  1  0.65269900  0.86801500  0.81120200  1
  O  O95  1  0.15269900  0.13198500  0.18879800  1
  O  O96  1  0.32203400  0.21418300  0.63919700  1
  O  O97  1  0.82203400  0.78581700  0.36080300  1
  O  O98  1  0.67796600  0.78581700  0.36080300  1
  O  O99  1  0.17796600  0.21418300  0.63919700  1
  O  O100  1  0.67369300  0.40959600  0.80463600  1
  O  O101  1  0.17369300  0.59040400  0.19536400  1
  O  O102  1  0.32630700  0.59040400  0.19536400  1
  O  O103  1  0.82630700  0.40959600  0.80463600  1
  O  O104  1  0.33964100  0.37456700  0.82470300  1
  O  O105  1  0.83964100  0.62543300  0.17529700  1
  O  O106  1  0.66035900  0.62543300  0.17529700  1
  O  O107  1  0.16035900  0.37456700  0.82470300  1
  O  O108  1  0.25000000  0.48354500  0.43464300  1
  O  O109  1  0.75000000  0.51645500  0.56535700  1
  O  O110  1  0.32218500  0.27703800  0.38998100  1
  O  O111  1  0.82218500  0.72296200  0.61001900  1
  O  O112  1  0.67781500  0.72296200  0.61001900  1
  O  O113  1  0.17781500  0.27703800  0.38998100  1
  O  O114  1  0.37784200  0.45133400  0.01252400  1
  O  O115  1  0.87784200  0.54866600  0.98747600  1
  O  O116  1  0.62215800  0.54866600  0.98747600  1
  O  O117  1  0.12215800  0.45133400  0.01252400  1
  O  O118  1  0.49977800  0.38479700  0.87187600  1
  O  O119  1  0.99977800  0.61520300  0.12812400  1
  O  O120  1  0.50022200  0.61520300  0.12812400  1
  O  O121  1  0.00022200  0.38479700  0.87187600  1
  O  O122  1  0.50097800  0.10278900  0.09934600  1
  O  O123  1  0.00097800  0.89721100  0.90065400  1
  O  O124  1  0.49902200  0.89721100  0.90065400  1
  O  O125  1  0.99902200  0.10278900  0.09934600  1
  O  O126  1  0.25000000  0.82033300  0.32000000  1
  O  O127  1  0.75000000  0.17966700  0.68000000  1
  O  O128  1  0.25000000  0.68783300  0.68711300  1
  O  O129  1  0.75000000  0.31216700  0.31288700  1
  O  O130  1  0.25000000  0.38776200  0.16612600  1
  O  O131  1  0.75000000  0.61223800  0.83387400  1
  O  O132  1  0.35515000  0.07706100  0.98884400  1
  O  O133  1  0.85515000  0.92293900  0.01115600  1
  O  O134  1  0.64485000  0.92293900  0.01115600  1
  O  O135  1  0.14485000  0.07706100  0.98884400  1
  O  O136  1  0.25000000  0.75819700  0.96394400  1
  O  O137  1  0.75000000  0.24180300  0.03605600  1
  O  O138  1  0.75000000  0.22764700  0.54657400  1
  O  O139  1  0.25000000  0.77235300  0.45342600  1
