# generated using pymatgen
data_K2SIO7
_symmetry_space_group_name_H-M   'P 1'
_cell_length_a   7.25696300
_cell_length_b   7.59955100
_cell_length_c   15.53169652
_cell_angle_alpha   65.55481639
_cell_angle_beta   90.00000000
_cell_angle_gamma   90.00000000
_symmetry_Int_Tables_number   1
_chemical_formula_structural   K2SIO7
_chemical_formula_sum   'K8 S4 I4 O28'
_cell_volume   779.78299829
_cell_formula_units_Z   4
loop_
 _symmetry_equiv_pos_site_id
 _symmetry_equiv_pos_as_xyz
  1  'x, y, z'
loop_
 _atom_site_type_symbol
 _atom_site_label
 _atom_site_symmetry_multiplicity
 _atom_site_fract_x
 _atom_site_fract_y
 _atom_site_fract_z
 _atom_site_occupancy
  K  K0  1  0.33697100  0.07092300  0.82007200  1
  K  K1  1  0.83697100  0.92907700  0.67992800  1
  K  K2  1  0.66302900  0.92907700  0.17992800  1
  K  K3  1  0.16302900  0.07092300  0.32007200  1
  K  K4  1  0.38176900  0.58910500  0.08125700  1
  K  K5  1  0.88176900  0.41089500  0.41874300  1
  K  K6  1  0.61823100  0.41089500  0.91874300  1
  K  K7  1  0.11823100  0.58910500  0.58125700  1
  S  S8  1  0.35129600  0.58080700  0.34302900  1
  S  S9  1  0.85129600  0.41919300  0.15697100  1
  S  S10  1  0.64870400  0.41919300  0.65697100  1
  S  S11  1  0.14870400  0.58080700  0.84302900  1
  I  I12  1  0.35684400  0.12936300  0.55326000  1
  I  I13  1  0.85684400  0.87063700  0.94674000  1
  I  I14  1  0.64315600  0.87063700  0.44674000  1
  I  I15  1  0.14315600  0.12936300  0.05326000  1
  O  O16  1  0.26123000  0.67669500  0.89065600  1
  O  O17  1  0.76123000  0.32330500  0.60934400  1
  O  O18  1  0.73877000  0.32330500  0.10934400  1
  O  O19  1  0.23877000  0.67669500  0.39065600  1
  O  O20  1  0.04925600  0.41675400  0.13169200  1
  O  O21  1  0.54925600  0.58324600  0.36830800  1
  O  O22  1  0.95074400  0.58324600  0.86830800  1
  O  O23  1  0.45074400  0.41675400  0.63169200  1
  O  O24  1  0.28573000  0.37589900  0.37335400  1
  O  O25  1  0.78573000  0.62410100  0.12664600  1
  O  O26  1  0.71427000  0.62410100  0.62664600  1
  O  O27  1  0.21427000  0.37589900  0.87335400  1
  O  O28  1  0.20385600  0.95034300  0.00711300  1
  O  O29  1  0.70385600  0.04965700  0.49288700  1
  O  O30  1  0.79614400  0.04965700  0.99288700  1
  O  O31  1  0.29614400  0.95034300  0.50711300  1
  O  O32  1  0.43951800  0.97361100  0.67212000  1
  O  O33  1  0.93951800  0.02638900  0.82788000  1
  O  O34  1  0.56048200  0.02638900  0.32788000  1
  O  O35  1  0.06048200  0.97361100  0.17212000  1
  O  O36  1  0.13004900  0.20249800  0.57692400  1
  O  O37  1  0.63004900  0.79750200  0.92307600  1
  O  O38  1  0.86995100  0.79750200  0.42307600  1
  O  O39  1  0.36995100  0.20249800  0.07692400  1
  O  O40  1  0.33134800  0.68102500  0.23821900  1
  O  O41  1  0.83134800  0.31897500  0.26178100  1
  O  O42  1  0.66865200  0.31897500  0.76178100  1
  O  O43  1  0.16865200  0.68102500  0.73821900  1
