# generated using pymatgen
data_Na2WO6
_symmetry_space_group_name_H-M   'P 1'
_cell_length_a   8.53273900
_cell_length_b   10.65498500
_cell_length_c   15.12331200
_cell_angle_alpha   90.00000000
_cell_angle_beta   90.00000000
_cell_angle_gamma   90.00000000
_symmetry_Int_Tables_number   1
_chemical_formula_structural   Na2WO6
_chemical_formula_sum   'Na16 W8 O48'
_cell_volume   1374.95415001
_cell_formula_units_Z   8
loop_
 _symmetry_equiv_pos_site_id
 _symmetry_equiv_pos_as_xyz
  1  'x, y, z'
loop_
 _atom_site_type_symbol
 _atom_site_label
 _atom_site_symmetry_multiplicity
 _atom_site_fract_x
 _atom_site_fract_y
 _atom_site_fract_z
 _atom_site_occupancy
  Na  Na0  1  0.77315000  0.43749900  0.36284000  1
  Na  Na1  1  0.27315000  0.06250100  0.63716000  1
  Na  Na2  1  0.22685000  0.93749900  0.13716000  1
  Na  Na3  1  0.72685000  0.56250100  0.86284000  1
  Na  Na4  1  0.22685000  0.56250100  0.63716000  1
  Na  Na5  1  0.72685000  0.93749900  0.36284000  1
  Na  Na6  1  0.77315000  0.06250100  0.86284000  1
  Na  Na7  1  0.27315000  0.43749900  0.13716000  1
  Na  Na8  1  0.66626200  0.49594300  0.55932300  1
  Na  Na9  1  0.16626200  0.00405700  0.44067700  1
  Na  Na10  1  0.33373800  0.99594300  0.94067700  1
  Na  Na11  1  0.83373800  0.50405700  0.05932300  1
  Na  Na12  1  0.33373800  0.50405700  0.44067700  1
  Na  Na13  1  0.83373800  0.99594300  0.55932300  1
  Na  Na14  1  0.66626200  0.00405700  0.05932300  1
  Na  Na15  1  0.16626200  0.49594300  0.94067700  1
  W  W16  1  0.01553100  0.20532900  0.02953100  1
  W  W17  1  0.51553100  0.29467100  0.97046900  1
  W  W18  1  0.98446900  0.70532900  0.47046900  1
  W  W19  1  0.48446900  0.79467100  0.52953100  1
  W  W20  1  0.98446900  0.79467100  0.97046900  1
  W  W21  1  0.48446900  0.70532900  0.02953100  1
  W  W22  1  0.01553100  0.29467100  0.52953100  1
  W  W23  1  0.51553100  0.20532900  0.47046900  1
  O  O24  1  0.85368400  0.15181800  0.09650100  1
  O  O25  1  0.35368400  0.34818200  0.90349900  1
  O  O26  1  0.14631600  0.65181800  0.40349900  1
  O  O27  1  0.64631600  0.84818200  0.59650100  1
  O  O28  1  0.14631600  0.84818200  0.90349900  1
  O  O29  1  0.64631600  0.65181800  0.09650100  1
  O  O30  1  0.85368400  0.34818200  0.59650100  1
  O  O31  1  0.35368400  0.15181800  0.40349900  1
  O  O32  1  0.18648100  0.10710300  0.05029300  1
  O  O33  1  0.68648100  0.39289700  0.94970700  1
  O  O34  1  0.81351900  0.60710300  0.44970700  1
  O  O35  1  0.31351900  0.89289700  0.55029300  1
  O  O36  1  0.81351900  0.89289700  0.94970700  1
  O  O37  1  0.31351900  0.60710300  0.05029300  1
  O  O38  1  0.18648100  0.39289700  0.55029300  1
  O  O39  1  0.68648100  0.10710300  0.44970700  1
  O  O40  1  0.05669900  0.37108200  0.05700500  1
  O  O41  1  0.55669900  0.12891800  0.94299500  1
  O  O42  1  0.94330100  0.87108200  0.44299500  1
  O  O43  1  0.44330100  0.62891800  0.55700500  1
  O  O44  1  0.94330100  0.62891800  0.94299500  1
  O  O45  1  0.44330100  0.87108200  0.05700500  1
  O  O46  1  0.05669900  0.12891800  0.55700500  1
  O  O47  1  0.55669900  0.37108200  0.44299500  1
  O  O48  1  0.96274200  0.18987700  0.91443200  1
  O  O49  1  0.46274200  0.31012300  0.08556800  1
  O  O50  1  0.03725800  0.68987700  0.58556800  1
  O  O51  1  0.53725800  0.81012300  0.41443200  1
  O  O52  1  0.03725800  0.81012300  0.08556800  1
  O  O53  1  0.53725800  0.68987700  0.91443200  1
  O  O54  1  0.96274200  0.31012300  0.41443200  1
  O  O55  1  0.46274200  0.18987700  0.58556800  1
  O  O56  1  0.94070400  0.99029500  0.23278200  1
  O  O57  1  0.44070400  0.50970500  0.76721800  1
  O  O58  1  0.05929600  0.49029500  0.26721800  1
  O  O59  1  0.55929600  0.00970500  0.73278200  1
  O  O60  1  0.05929600  0.00970500  0.76721800  1
  O  O61  1  0.55929600  0.49029500  0.23278200  1
  O  O62  1  0.94070400  0.50970500  0.73278200  1
  O  O63  1  0.44070400  0.99029500  0.26721800  1
  O  O64  1  0.65268300  0.41189000  0.20299400  1
  O  O65  1  0.15268300  0.08811000  0.79700600  1
  O  O66  1  0.34731700  0.91189000  0.29700600  1
  O  O67  1  0.84731700  0.58811000  0.70299400  1
  O  O68  1  0.34731700  0.58811000  0.79700600  1
  O  O69  1  0.84731700  0.91189000  0.20299400  1
  O  O70  1  0.65268300  0.08811000  0.70299400  1
  O  O71  1  0.15268300  0.41189000  0.29700600  1
