# generated using pymatgen
data_CuH8C2S2N4Cl
_symmetry_space_group_name_H-M   'P 1'
_cell_length_a   6.10466400
_cell_length_b   8.45911400
_cell_length_c   36.74011661
_cell_angle_alpha   90.00000000
_cell_angle_beta   93.34599950
_cell_angle_gamma   90.00000000
_symmetry_Int_Tables_number   1
_chemical_formula_structural   CuH8C2S2N4Cl
_chemical_formula_sum   'Cu8 H64 C16 S16 N32 Cl8'
_cell_volume   1894.02711188
_cell_formula_units_Z   8
loop_
 _symmetry_equiv_pos_site_id
 _symmetry_equiv_pos_as_xyz
  1  'x, y, z'
loop_
 _atom_site_type_symbol
 _atom_site_label
 _atom_site_symmetry_multiplicity
 _atom_site_fract_x
 _atom_site_fract_y
 _atom_site_fract_z
 _atom_site_occupancy
  Cu  Cu0  1  0.20880900  0.16969300  0.60139900  1
  Cu  Cu1  1  0.79119100  0.66969300  0.89860100  1
  Cu  Cu2  1  0.79119100  0.83030700  0.39860100  1
  Cu  Cu3  1  0.20880900  0.33030700  0.10139900  1
  Cu  Cu4  1  0.85392600  0.23762400  0.65615500  1
  Cu  Cu5  1  0.14607400  0.73762400  0.84384500  1
  Cu  Cu6  1  0.14607400  0.76237600  0.34384500  1
  Cu  Cu7  1  0.85392600  0.26237600  0.15615500  1
  H  H8  1  0.04481700  0.43974000  0.54328200  1
  H  H9  1  0.95518300  0.93974000  0.95671800  1
  H  H10  1  0.95518300  0.56026000  0.45671800  1
  H  H11  1  0.04481700  0.06026000  0.04328200  1
  H  H12  1  0.52095700  0.51374400  0.57555400  1
  H  H13  1  0.47904300  0.01374400  0.92444600  1
  H  H14  1  0.47904300  0.48625600  0.42444600  1
  H  H15  1  0.52095700  0.98625600  0.07555400  1
  H  H16  1  0.58752000  0.20294200  0.71293300  1
  H  H17  1  0.41248000  0.70294200  0.78706700  1
  H  H18  1  0.41248000  0.79705800  0.28706700  1
  H  H19  1  0.58752000  0.29705800  0.21293300  1
  H  H20  1  0.83730200  0.02254800  0.79032600  1
  H  H21  1  0.16269800  0.52254800  0.70967400  1
  H  H22  1  0.16269800  0.97745200  0.20967400  1
  H  H23  1  0.83730200  0.47745200  0.29032600  1
  H  H24  1  0.50766500  0.97304100  0.56917400  1
  H  H25  1  0.49233500  0.47304100  0.93082600  1
  H  H26  1  0.49233500  0.02695900  0.43082600  1
  H  H27  1  0.50766500  0.52695900  0.06917400  1
  H  H28  1  0.26707700  0.76378300  0.49571900  1
  H  H29  1  0.73292300  0.26378300  0.00428100  1
  H  H30  1  0.73292300  0.23621700  0.50428100  1
  H  H31  1  0.26707700  0.73621700  0.99571900  1
  H  H32  1  0.78674700  0.52722200  0.53198200  1
  H  H33  1  0.21325300  0.02722200  0.96801800  1
  H  H34  1  0.21325300  0.47277800  0.46801800  1
  H  H35  1  0.78674700  0.97277800  0.03198200  1
  H  H36  1  0.60449900  0.48511800  0.62187400  1
  H  H37  1  0.39550100  0.98511800  0.87812600  1
  H  H38  1  0.39550100  0.51488200  0.37812600  1
  H  H39  1  0.60449900  0.01488200  0.12187400  1
  H  H40  1  0.55102400  0.11234200  0.75539100  1
  H  H41  1  0.44897600  0.61234200  0.74460900  1
  H  H42  1  0.44897600  0.88765800  0.24460900  1
  H  H43  1  0.55102400  0.38765800  0.25539100  1
  H  H44  1  0.10359400  0.02300400  0.77533800  1
  H  H45  1  0.89640600  0.52300400  0.72466200  1
  H  H46  1  0.89640600  0.97699600  0.22466200  1
  H  H47  1  0.10359400  0.47699600  0.27533800  1
  H  H48  1  0.36830100  0.71802800  0.65017900  1
  H  H49  1  0.63169900  0.21802800  0.84982100  1
  H  H50  1  0.63169900  0.28197200  0.34982100  1
  H  H51  1  0.36830100  0.78197200  0.15017900  1
  H  H52  1  0.83621200  0.93773500  0.67531800  1
  H  H53  1  0.16378800  0.43773500  0.82468200  1
  H  H54  1  0.16378800  0.06226500  0.32468200  1
  H  H55  1  0.83621200  0.56226500  0.17531800  1
  H  H56  1  0.99336900  0.80588200  0.50448300  1
  H  H57  1  0.00663100  0.30588200  0.99551700  1
  H  H58  1  0.00663100  0.19411800  0.49551700  1
  H  H59  1  0.99336900  0.69411800  0.00448300  1
  H  H60  1  0.54702100  0.85607000  0.53049300  1
  H  H61  1  0.45297900  0.35607000  0.96950700  1
  H  H62  1  0.45297900  0.14393000  0.46950700  1
  H  H63  1  0.54702100  0.64393000  0.03049300  1
  H  H64  1  0.23721100  0.86928200  0.62315600  1
  H  H65  1  0.76278900  0.36928200  0.87684400  1
  H  H66  1  0.76278900  0.13071800  0.37684400  1
  H  H67  1  0.23721100  0.63071800  0.12315600  1
  H  H68  1  0.70146900  0.75059500  0.67599900  1
  H  H69  1  0.29853100  0.25059500  0.82400100  1
  H  H70  1  0.29853100  0.24940500  0.32400100  1
  H  H71  1  0.70146900  0.74940500  0.17599900  1
  C  C72  1  0.86563800  0.11505600  0.73936700  1
  C  C73  1  0.13436200  0.61505600  0.76063300  1
  C  C74  1  0.13436200  0.88494400  0.26063300  1
  C  C75  1  0.86563800  0.38494400  0.23936700  1
  C  C76  1  0.84231000  0.45654500  0.58543700  1
  C  C77  1  0.15769000  0.95654500  0.91456300  1
  C  C78  1  0.15769000  0.54345500  0.41456300  1
  C  C79  1  0.84231000  0.04345500  0.08543700  1
  C  C80  1  0.53726400  0.92459200  0.64763500  1
  C  C81  1  0.46273600  0.42459200  0.85236500  1
  C  C82  1  0.46273600  0.07540800  0.35236500  1
  C  C83  1  0.53726400  0.57540800  0.14763500  1
  C  C84  1  0.22782500  0.89410200  0.54168200  1
  C  C85  1  0.77217500  0.39410200  0.95831800  1
  C  C86  1  0.77217500  0.10589800  0.45831800  1
  C  C87  1  0.22782500  0.60589800  0.04168200  1
  S  S88  1  0.03941500  0.39157200  0.61874600  1
  S  S89  1  0.96058500  0.89157200  0.88125400  1
  S  S90  1  0.96058500  0.60842800  0.38125400  1
  S  S91  1  0.03941500  0.10842800  0.11874600  1
  S  S92  1  0.04387300  0.15289200  0.70573900  1
  S  S93  1  0.95612700  0.65289200  0.79426100  1
  S  S94  1  0.95612700  0.84710800  0.29426100  1
  S  S95  1  0.04387300  0.34710800  0.20573900  1
  S  S96  1  0.03893900  0.97850900  0.56897000  1
  S  S97  1  0.96106100  0.47850900  0.93103000  1
  S  S98  1  0.96106100  0.02149100  0.43103000  1
  S  S99  1  0.03893900  0.52149100  0.06897000  1
  S  S100  1  0.53950800  0.11858700  0.63206500  1
  S  S101  1  0.46049200  0.61858700  0.86793500  1
  S  S102  1  0.46049200  0.88141300  0.36793500  1
  S  S103  1  0.53950800  0.38141300  0.13206500  1
  N  N104  1  0.44450600  0.90266800  0.54876100  1
  N  N105  1  0.55549400  0.40266800  0.95123900  1
  N  N106  1  0.55549400  0.09733200  0.45123900  1
  N  N107  1  0.44450600  0.59733200  0.04876100  1
  N  N108  1  0.70973300  0.86490000  0.66669800  1
  N  N109  1  0.29026700  0.36490000  0.83330200  1
  N  N110  1  0.29026700  0.13510000  0.33330200  1
  N  N111  1  0.70973300  0.63510000  0.16669800  1
  N  N112  1  0.65025600  0.14265900  0.73504400  1
  N  N113  1  0.34974400  0.64265900  0.76495600  1
  N  N114  1  0.34974400  0.85734100  0.26495600  1
  N  N115  1  0.65025600  0.35734100  0.23504400  1
  N  N116  1  0.36354400  0.83161000  0.64058300  1
  N  N117  1  0.63645600  0.33161000  0.85941700  1
  N  N118  1  0.63645600  0.16839000  0.35941700  1
  N  N119  1  0.36354400  0.66839000  0.14058300  1
  N  N120  1  0.15602000  0.81322900  0.51210300  1
  N  N121  1  0.84398000  0.31322900  0.98789700  1
  N  N122  1  0.84398000  0.18677100  0.48789700  1
  N  N123  1  0.15602000  0.68677100  0.01210300  1
  N  N124  1  0.64322700  0.49599000  0.59524200  1
  N  N125  1  0.35677300  0.99599000  0.90475800  1
  N  N126  1  0.35677300  0.50401000  0.40475800  1
  N  N127  1  0.64322700  0.00401000  0.09524200  1
  N  N128  1  0.89355500  0.47496400  0.55110400  1
  N  N129  1  0.10644500  0.97496400  0.94889600  1
  N  N130  1  0.10644500  0.52503600  0.44889600  1
  N  N131  1  0.89355500  0.02503600  0.05110400  1
  N  N132  1  0.94333800  0.05522300  0.77119200  1
  N  N133  1  0.05666200  0.55522300  0.72880800  1
  N  N134  1  0.05666200  0.94477700  0.22880800  1
  N  N135  1  0.94333800  0.44477700  0.27119200  1
  Cl  Cl136  1  0.55511900  0.50249600  0.68539400  1
  Cl  Cl137  1  0.44488100  0.00249600  0.81460600  1
  Cl  Cl138  1  0.44488100  0.49750400  0.31460600  1
  Cl  Cl139  1  0.55511900  0.99750400  0.18539400  1
  Cl  Cl140  1  0.34390700  0.32353900  0.52071300  1
  Cl  Cl141  1  0.65609300  0.82353900  0.97928700  1
  Cl  Cl142  1  0.65609300  0.67646100  0.47928700  1
  Cl  Cl143  1  0.34390700  0.17646100  0.02071300  1
