# generated using pymatgen
data_CuS2(NO7)2
_symmetry_space_group_name_H-M   'P 1'
_cell_length_a   11.22726400
_cell_length_b   6.82328000
_cell_length_c   8.80542006
_cell_angle_alpha   88.53835800
_cell_angle_beta   90.00000000
_cell_angle_gamma   90.00000000
_symmetry_Int_Tables_number   1
_chemical_formula_structural   CuS2(NO7)2
_chemical_formula_sum   'Cu2 S4 N4 O28'
_cell_volume   674.33527026
_cell_formula_units_Z   2
loop_
 _symmetry_equiv_pos_site_id
 _symmetry_equiv_pos_as_xyz
  1  'x, y, z'
loop_
 _atom_site_type_symbol
 _atom_site_label
 _atom_site_symmetry_multiplicity
 _atom_site_fract_x
 _atom_site_fract_y
 _atom_site_fract_z
 _atom_site_occupancy
  Cu  Cu0  1  0.50000000  0.00000000  0.50000000  1
  Cu  Cu1  1  0.00000000  0.00000000  0.00000000  1
  S  S2  1  0.60760100  0.23696700  0.05715200  1
  S  S3  1  0.10760100  0.76303300  0.44284800  1
  S  S4  1  0.39239900  0.76303300  0.94284800  1
  S  S5  1  0.89239900  0.23696700  0.55715200  1
  N  N6  1  0.84655900  0.77844600  0.18376500  1
  N  N7  1  0.34655900  0.22155400  0.31623500  1
  N  N8  1  0.15344100  0.22155400  0.81623500  1
  N  N9  1  0.65344100  0.77844600  0.68376500  1
  O  O10  1  0.84479400  0.37239500  0.07355000  1
  O  O11  1  0.34479400  0.62760500  0.42645000  1
  O  O12  1  0.15520600  0.62760500  0.92645000  1
  O  O13  1  0.65520600  0.37239500  0.57355000  1
  O  O14  1  0.59732300  0.32438700  0.90804200  1
  O  O15  1  0.09732300  0.67561300  0.59195800  1
  O  O16  1  0.40267700  0.67561300  0.09195800  1
  O  O17  1  0.90267700  0.32438700  0.40804200  1
  O  O18  1  0.59279200  0.35419800  0.18879600  1
  O  O19  1  0.09279200  0.64580200  0.31120400  1
  O  O20  1  0.40720800  0.64580200  0.81120400  1
  O  O21  1  0.90720800  0.35419800  0.68879600  1
  O  O22  1  0.62969800  0.03024200  0.07566600  1
  O  O23  1  0.12969800  0.96975800  0.42433400  1
  O  O24  1  0.37030200  0.96975800  0.92433400  1
  O  O25  1  0.87030200  0.03024200  0.57566600  1
  O  O26  1  0.77685500  0.75803500  0.28755500  1
  O  O27  1  0.27685500  0.24196500  0.21244500  1
  O  O28  1  0.22314500  0.24196500  0.71244500  1
  O  O29  1  0.72314500  0.75803500  0.78755500  1
  O  O30  1  0.60682200  0.95368800  0.65877400  1
  O  O31  1  0.10682200  0.04631200  0.84122600  1
  O  O32  1  0.39317800  0.04631200  0.34122600  1
  O  O33  1  0.89317800  0.95368800  0.15877400  1
  O  O34  1  0.43833000  0.68266200  0.48655500  1
  O  O35  1  0.93833000  0.31733800  0.01344500  1
  O  O36  1  0.56167000  0.31733800  0.51344500  1
  O  O37  1  0.06167000  0.68266200  0.98655500  1
