# generated using pymatgen
data_CoH20IN6(ClO2)2
_symmetry_space_group_name_H-M   'P 1'
_cell_length_a   7.18046400
_cell_length_b   14.11556600
_cell_length_c   14.73325905
_cell_angle_alpha   90.00000000
_cell_angle_beta   112.95475689
_cell_angle_gamma   90.00000000
_symmetry_Int_Tables_number   1
_chemical_formula_structural   CoH20IN6(ClO2)2
_chemical_formula_sum   'Co4 H80 I4 N24 Cl8 O16'
_cell_volume   1375.05833293
_cell_formula_units_Z   4
loop_
 _symmetry_equiv_pos_site_id
 _symmetry_equiv_pos_as_xyz
  1  'x, y, z'
loop_
 _atom_site_type_symbol
 _atom_site_label
 _atom_site_symmetry_multiplicity
 _atom_site_fract_x
 _atom_site_fract_y
 _atom_site_fract_z
 _atom_site_occupancy
  Co  Co0  1  0.00000000  0.50000000  0.50000000  1
  Co  Co1  1  0.00000000  0.00000000  0.00000000  1
  Co  Co2  1  0.00000000  0.50000000  0.00000000  1
  Co  Co3  1  0.00000000  0.00000000  0.50000000  1
  H  H4  1  0.93400300  0.32601000  0.96088900  1
  H  H5  1  0.93400300  0.17399000  0.46088900  1
  H  H6  1  0.06599700  0.67399000  0.03911100  1
  H  H7  1  0.06599700  0.82601000  0.53911100  1
  H  H8  1  0.96983400  0.33680700  0.07907000  1
  H  H9  1  0.96983400  0.16319300  0.57907000  1
  H  H10  1  0.03016600  0.66319300  0.92093000  1
  H  H11  1  0.03016600  0.83680700  0.42093000  1
  H  H12  1  0.16217600  0.33909200  0.04405500  1
  H  H13  1  0.16217600  0.16090800  0.54405500  1
  H  H14  1  0.83782400  0.66090800  0.95594500  1
  H  H15  1  0.83782400  0.83909200  0.45594500  1
  H  H16  1  0.64445400  0.42862900  0.93777300  1
  H  H17  1  0.64445400  0.07137100  0.43777300  1
  H  H18  1  0.35554600  0.57137100  0.06222700  1
  H  H19  1  0.35554600  0.92862900  0.56222700  1
  H  H20  1  0.67545900  0.48036900  0.84327800  1
  H  H21  1  0.67545900  0.01963100  0.34327800  1
  H  H22  1  0.32454100  0.51963100  0.15672200  1
  H  H23  1  0.32454100  0.98036900  0.65672200  1
  H  H24  1  0.62825100  0.54440700  0.92614100  1
  H  H25  1  0.62825100  0.95559300  0.42614100  1
  H  H26  1  0.37174900  0.45559300  0.07385900  1
  H  H27  1  0.37174900  0.04440700  0.57385900  1
  H  H28  1  0.24478000  0.61766300  0.47284000  1
  H  H29  1  0.24478000  0.88233700  0.97284000  1
  H  H30  1  0.75522000  0.38233700  0.52716000  1
  H  H31  1  0.75522000  0.11766300  0.02716000  1
  H  H32  1  0.36251300  0.55710500  0.57534600  1
  H  H33  1  0.36251300  0.94289500  0.07534600  1
  H  H34  1  0.63748700  0.44289500  0.42465400  1
  H  H35  1  0.63748700  0.05710500  0.92465400  1
  H  H36  1  0.21319800  0.64706300  0.57534200  1
  H  H37  1  0.21319800  0.85293700  0.07534200  1
  H  H38  1  0.78680200  0.35293700  0.42465800  1
  H  H39  1  0.78680200  0.14706300  0.92465800  1
  H  H40  1  0.85927900  0.47267300  0.13497100  1
  H  H41  1  0.85927900  0.02732700  0.63497100  1
  H  H42  1  0.14072100  0.52732700  0.86502900  1
  H  H43  1  0.14072100  0.97267300  0.36502900  1
  H  H44  1  0.85011300  0.49548000  0.31377500  1
  H  H45  1  0.85011300  0.00452000  0.81377500  1
  H  H46  1  0.14988700  0.50452000  0.68622500  1
  H  H47  1  0.14988700  0.99548000  0.18622500  1
  H  H48  1  0.21086300  0.44740400  0.40679600  1
  H  H49  1  0.21086300  0.05259600  0.90679600  1
  H  H50  1  0.78913700  0.55259600  0.59320400  1
  H  H51  1  0.78913700  0.94740400  0.09320400  1
  H  H52  1  0.82142600  0.58299700  0.09325600  1
  H  H53  1  0.82142600  0.91700300  0.59325600  1
  H  H54  1  0.17857400  0.41700300  0.90674400  1
  H  H55  1  0.17857400  0.08299700  0.40674400  1
  H  H56  1  0.06930400  0.35574300  0.41305700  1
  H  H57  1  0.06930400  0.14425700  0.91305700  1
  H  H58  1  0.93069600  0.64425700  0.58694300  1
  H  H59  1  0.93069600  0.85574300  0.08694300  1
  H  H60  1  0.73186900  0.57759500  0.34922600  1
  H  H61  1  0.73186900  0.92240500  0.84922600  1
  H  H62  1  0.26813100  0.42240500  0.65077400  1
  H  H63  1  0.26813100  0.07759500  0.15077400  1
  H  H64  1  0.27930900  0.38446100  0.50837300  1
  H  H65  1  0.27930900  0.11553900  0.00837300  1
  H  H66  1  0.72069100  0.61553900  0.49162700  1
  H  H67  1  0.72069100  0.88446100  0.99162700  1
  H  H68  1  0.95611800  0.60243900  0.34814900  1
  H  H69  1  0.95611800  0.89756100  0.84814900  1
  H  H70  1  0.04388200  0.39756100  0.65185100  1
  H  H71  1  0.04388200  0.10243900  0.15185100  1
  H  H72  1  0.04725700  0.54883500  0.17331400  1
  H  H73  1  0.04725700  0.95116500  0.67331400  1
  H  H74  1  0.95274300  0.45116500  0.82668600  1
  H  H75  1  0.95274300  0.04883500  0.32668600  1
  H  H76  1  0.41022900  0.24768200  0.33433000  1
  H  H77  1  0.41022900  0.25231800  0.83433000  1
  H  H78  1  0.58977100  0.75231800  0.66567000  1
  H  H79  1  0.58977100  0.74768200  0.16567000  1
  H  H80  1  0.21973300  0.26506700  0.23915900  1
  H  H81  1  0.21973300  0.23493300  0.73915900  1
  H  H82  1  0.78026700  0.73493300  0.76084100  1
  H  H83  1  0.78026700  0.76506700  0.26084100  1
  I  I84  1  0.74450200  0.27544700  0.21586700  1
  I  I85  1  0.74450200  0.22455300  0.71586700  1
  I  I86  1  0.25549800  0.72455300  0.78413300  1
  I  I87  1  0.25549800  0.77544700  0.28413300  1
  N  N88  1  0.15521900  0.41221200  0.45255600  1
  N  N89  1  0.15521900  0.08778800  0.95255600  1
  N  N90  1  0.84478100  0.58778800  0.54744400  1
  N  N91  1  0.84478100  0.91221200  0.04744400  1
  N  N92  1  0.87369700  0.55012500  0.36442100  1
  N  N93  1  0.87369700  0.94987500  0.86442100  1
  N  N94  1  0.12630300  0.44987500  0.63557900  1
  N  N95  1  0.12630300  0.05012500  0.13557900  1
  N  N96  1  0.22793600  0.59045500  0.53393400  1
  N  N97  1  0.22793600  0.90954500  0.03393400  1
  N  N98  1  0.77206400  0.40954500  0.46606600  1
  N  N99  1  0.77206400  0.09045500  0.96606600  1
  N  N100  1  0.92497500  0.52810800  0.11171500  1
  N  N101  1  0.92497500  0.97189200  0.61171500  1
  N  N102  1  0.07502500  0.47189200  0.88828500  1
  N  N103  1  0.07502500  0.02810800  0.38828500  1
  N  N104  1  0.70805600  0.48661400  0.91774700  1
  N  N105  1  0.70805600  0.01338600  0.41774700  1
  N  N106  1  0.29194400  0.51338600  0.08225300  1
  N  N107  1  0.29194400  0.98661400  0.58225300  1
  N  N108  1  0.01594400  0.36219800  0.02534200  1
  N  N109  1  0.01594400  0.13780200  0.52534200  1
  N  N110  1  0.98405600  0.63780200  0.97465800  1
  N  N111  1  0.98405600  0.86219800  0.47465800  1
  Cl  Cl112  1  0.36719300  0.54781000  0.33117100  1
  Cl  Cl113  1  0.36719300  0.95219000  0.83117100  1
  Cl  Cl114  1  0.63280700  0.45219000  0.66882900  1
  Cl  Cl115  1  0.63280700  0.04781000  0.16882900  1
  Cl  Cl116  1  0.44979100  0.31903400  0.98833600  1
  Cl  Cl117  1  0.44979100  0.18096600  0.48833600  1
  Cl  Cl118  1  0.55020900  0.68096600  0.01166400  1
  Cl  Cl119  1  0.55020900  0.81903400  0.51166400  1
  O  O120  1  0.94807200  0.24238300  0.17546100  1
  O  O121  1  0.94807200  0.25761700  0.67546100  1
  O  O122  1  0.05192800  0.75761700  0.82453900  1
  O  O123  1  0.05192800  0.74238300  0.32453900  1
  O  O124  1  0.86822800  0.25663400  0.35001200  1
  O  O125  1  0.86822800  0.24336600  0.85001200  1
  O  O126  1  0.13177200  0.74336600  0.64998800  1
  O  O127  1  0.13177200  0.75663400  0.14998800  1
  O  O128  1  0.76827600  0.40462700  0.21621500  1
  O  O129  1  0.76827600  0.09537300  0.71621500  1
  O  O130  1  0.23172400  0.59537300  0.78378500  1
  O  O131  1  0.23172400  0.90462700  0.28378500  1
  O  O132  1  0.36979200  0.26842600  0.26559500  1
  O  O133  1  0.36979200  0.23157400  0.76559500  1
  O  O134  1  0.63020800  0.73157400  0.73440500  1
  O  O135  1  0.63020800  0.76842600  0.23440500  1
