# generated using pymatgen
data_MoCl5O
_symmetry_space_group_name_H-M   'P 1'
_cell_length_a   8.55689700
_cell_length_b   8.31023700
_cell_length_c   24.53633639
_cell_angle_alpha   84.43966551
_cell_angle_beta   90.00000000
_cell_angle_gamma   90.00000000
_symmetry_Int_Tables_number   1
_chemical_formula_structural   MoCl5O
_chemical_formula_sum   'Mo8 Cl40 O8'
_cell_volume   1736.56534629
_cell_formula_units_Z   8
loop_
 _symmetry_equiv_pos_site_id
 _symmetry_equiv_pos_as_xyz
  1  'x, y, z'
loop_
 _atom_site_type_symbol
 _atom_site_label
 _atom_site_symmetry_multiplicity
 _atom_site_fract_x
 _atom_site_fract_y
 _atom_site_fract_z
 _atom_site_occupancy
  Mo  Mo0  1  0.53444100  0.28413100  0.63420300  1
  Mo  Mo1  1  0.03444100  0.71586900  0.86579700  1
  Mo  Mo2  1  0.46555900  0.71586900  0.36579700  1
  Mo  Mo3  1  0.96555900  0.28413100  0.13420300  1
  Mo  Mo4  1  0.88552600  0.78748700  0.61770500  1
  Mo  Mo5  1  0.38552600  0.21251300  0.88229500  1
  Mo  Mo6  1  0.11447400  0.21251300  0.38229500  1
  Mo  Mo7  1  0.61447400  0.78748700  0.11770500  1
  Cl  Cl8  1  0.77108500  0.36838000  0.59744000  1
  Cl  Cl9  1  0.27108500  0.63162000  0.90256000  1
  Cl  Cl10  1  0.22891500  0.63162000  0.40256000  1
  Cl  Cl11  1  0.72891500  0.36838000  0.09744000  1
  Cl  Cl12  1  0.66140300  0.18891400  0.71393700  1
  Cl  Cl13  1  0.16140300  0.81108600  0.78606300  1
  Cl  Cl14  1  0.33859700  0.81108600  0.28606300  1
  Cl  Cl15  1  0.83859700  0.18891400  0.21393700  1
  Cl  Cl16  1  0.34082900  0.09388200  0.65815900  1
  Cl  Cl17  1  0.84082900  0.90611800  0.84184100  1
  Cl  Cl18  1  0.65917100  0.90611800  0.34184100  1
  Cl  Cl19  1  0.15917100  0.09388200  0.15815900  1
  Cl  Cl20  1  0.46110900  0.24266200  0.54367100  1
  Cl  Cl21  1  0.96110900  0.75733800  0.95632900  1
  Cl  Cl22  1  0.53889100  0.75733800  0.45632900  1
  Cl  Cl23  1  0.03889100  0.24266200  0.04367100  1
  Cl  Cl24  1  0.62860500  0.84869500  0.59771300  1
  Cl  Cl25  1  0.12860500  0.15130500  0.90228700  1
  Cl  Cl26  1  0.37139500  0.15130500  0.40228700  1
  Cl  Cl27  1  0.87139500  0.84869500  0.09771300  1
  Cl  Cl28  1  0.92551000  0.76196700  0.52658300  1
  Cl  Cl29  1  0.42551000  0.23803300  0.97341700  1
  Cl  Cl30  1  0.07449000  0.23803300  0.47341700  1
  Cl  Cl31  1  0.57449000  0.76196700  0.02658300  1
  Cl  Cl32  1  0.08435000  0.60449500  0.63868000  1
  Cl  Cl33  1  0.58435000  0.39550500  0.86132000  1
  Cl  Cl34  1  0.91565000  0.39550500  0.36132000  1
  Cl  Cl35  1  0.41565000  0.60449500  0.13868000  1
  Cl  Cl36  1  0.78992000  0.69996300  0.70567600  1
  Cl  Cl37  1  0.28992000  0.30003700  0.79432400  1
  Cl  Cl38  1  0.21008000  0.30003700  0.29432400  1
  Cl  Cl39  1  0.71008000  0.69996300  0.20567600  1
  Cl  Cl40  1  0.81966700  0.24198300  0.97869000  1
  Cl  Cl41  1  0.31966700  0.75801700  0.52131000  1
  Cl  Cl42  1  0.18033300  0.75801700  0.02131000  1
  Cl  Cl43  1  0.68033300  0.24198300  0.47869000  1
  Cl  Cl44  1  0.98210800  0.23938500  0.74778300  1
  Cl  Cl45  1  0.48210800  0.76061500  0.75221700  1
  Cl  Cl46  1  0.01789200  0.76061500  0.25221700  1
  Cl  Cl47  1  0.51789200  0.23938500  0.24778300  1
  O  O48  1  0.44641300  0.45880300  0.64610100  1
  O  O49  1  0.94641300  0.54119700  0.85389900  1
  O  O50  1  0.55358700  0.54119700  0.35389900  1
  O  O51  1  0.05358700  0.45880300  0.14610100  1
  O  O52  1  0.96802600  0.96845900  0.62531800  1
  O  O53  1  0.46802600  0.03154100  0.87468200  1
  O  O54  1  0.03197400  0.03154100  0.37468200  1
  O  O55  1  0.53197400  0.96845900  0.12531800  1
