# generated using pymatgen
data_U(NO7)2
_symmetry_space_group_name_H-M   'P 1'
_cell_length_a   8.94938137
_cell_length_b   8.94938137
_cell_length_c   12.44417800
_cell_angle_alpha   90.00000000
_cell_angle_beta   90.00000000
_cell_angle_gamma   122.77364516
_symmetry_Int_Tables_number   1
_chemical_formula_structural   U(NO7)2
_chemical_formula_sum   'U2 N4 O28'
_cell_volume   838.01743070
_cell_formula_units_Z   2
loop_
 _symmetry_equiv_pos_site_id
 _symmetry_equiv_pos_as_xyz
  1  'x, y, z'
loop_
 _atom_site_type_symbol
 _atom_site_label
 _atom_site_symmetry_multiplicity
 _atom_site_fract_x
 _atom_site_fract_y
 _atom_site_fract_z
 _atom_site_occupancy
  U  U0  1  0.84413600  0.84413600  0.95134100  1
  U  U1  1  0.15586400  0.15586400  0.45134100  1
  N  N2  1  0.42062600  0.80144100  0.25170200  1
  N  N3  1  0.80144100  0.42062600  0.25170200  1
  N  N4  1  0.57937400  0.19855900  0.75170200  1
  N  N5  1  0.19855900  0.57937400  0.75170200  1
  O  O6  1  0.69908700  0.69908700  0.05745900  1
  O  O7  1  0.30091300  0.30091300  0.55745900  1
  O  O8  1  0.04334800  0.04334800  0.89664100  1
  O  O9  1  0.95665200  0.95665200  0.39664100  1
  O  O10  1  0.50396800  0.72587700  0.25745000  1
  O  O11  1  0.72587700  0.50396800  0.25745000  1
  O  O12  1  0.49603200  0.27412300  0.75745000  1
  O  O13  1  0.27412300  0.49603200  0.75745000  1
  O  O14  1  0.46778300  0.92632500  0.18694000  1
  O  O15  1  0.92632500  0.46778300  0.18694000  1
  O  O16  1  0.53221700  0.07367500  0.68694000  1
  O  O17  1  0.07367500  0.53221700  0.68694000  1
  O  O18  1  0.28875000  0.75092900  0.31137700  1
  O  O19  1  0.75092900  0.28875000  0.31137700  1
  O  O20  1  0.71125000  0.24907100  0.81137700  1
  O  O21  1  0.24907100  0.71125000  0.81137700  1
  O  O22  1  0.10901200  0.86874400  0.08243200  1
  O  O23  1  0.86874400  0.10901200  0.08243200  1
  O  O24  1  0.89098800  0.13125600  0.58243200  1
  O  O25  1  0.13125600  0.89098800  0.58243200  1
  O  O26  1  0.15693400  0.77391100  0.04365800  1
  O  O27  1  0.77391100  0.15693400  0.04365800  1
  O  O28  1  0.84306600  0.22608900  0.54365800  1
  O  O29  1  0.22608900  0.84306600  0.54365800  1
  O  O30  1  0.82691400  0.64311800  0.88972100  1
  O  O31  1  0.64311800  0.82691400  0.88972100  1
  O  O32  1  0.17308600  0.35688200  0.38972100  1
  O  O33  1  0.35688200  0.17308600  0.38972100  1
