# generated using pymatgen
data_NbSi4O13
_symmetry_space_group_name_H-M   'P 1'
_cell_length_a   9.10252800
_cell_length_b   7.59831400
_cell_length_c   9.99946876
_cell_angle_alpha   72.01927684
_cell_angle_beta   90.00000000
_cell_angle_gamma   90.00000000
_symmetry_Int_Tables_number   1
_chemical_formula_structural   NbSi4O13
_chemical_formula_sum   'Nb2 Si8 O26'
_cell_volume   657.82437616
_cell_formula_units_Z   2
loop_
 _symmetry_equiv_pos_site_id
 _symmetry_equiv_pos_as_xyz
  1  'x, y, z'
loop_
 _atom_site_type_symbol
 _atom_site_label
 _atom_site_symmetry_multiplicity
 _atom_site_fract_x
 _atom_site_fract_y
 _atom_site_fract_z
 _atom_site_occupancy
  Nb  Nb0  1  0.75000000  0.08519300  0.10253300  1
  Nb  Nb1  1  0.25000000  0.91480700  0.89746700  1
  Si  Si2  1  0.75000000  0.41242700  0.58409000  1
  Si  Si3  1  0.25000000  0.58757300  0.41591000  1
  Si  Si4  1  0.75000000  0.43951400  0.25846000  1
  Si  Si5  1  0.25000000  0.56048600  0.74154000  1
  Si  Si6  1  0.99731300  0.26812300  0.81054200  1
  Si  Si7  1  0.49731300  0.73187700  0.18945800  1
  Si  Si8  1  0.00268700  0.73187700  0.18945800  1
  Si  Si9  1  0.50268700  0.26812300  0.81054200  1
  O  O10  1  0.39998000  0.77580000  0.04525300  1
  O  O11  1  0.89998000  0.22420000  0.95474700  1
  O  O12  1  0.60002000  0.22420000  0.95474700  1
  O  O13  1  0.10002000  0.77580000  0.04525300  1
  O  O14  1  0.75000000  0.25058600  0.21377000  1
  O  O15  1  0.25000000  0.74941400  0.78623000  1
  O  O16  1  0.75000000  0.99420700  0.92491600  1
  O  O17  1  0.25000000  0.00579300  0.07508400  1
  O  O18  1  0.09807200  0.08922000  0.81224700  1
  O  O19  1  0.59807200  0.91078000  0.18775300  1
  O  O20  1  0.90192800  0.91078000  0.18775300  1
  O  O21  1  0.40192800  0.08922000  0.81224700  1
  O  O22  1  0.75000000  0.64060200  0.54453300  1
  O  O23  1  0.25000000  0.35939800  0.45546700  1
  O  O24  1  0.75000000  0.38217900  0.42984400  1
  O  O25  1  0.25000000  0.61782100  0.57015600  1
  O  O26  1  0.60498200  0.31759900  0.67075100  1
  O  O27  1  0.10498200  0.68240100  0.32924900  1
  O  O28  1  0.39501800  0.68240100  0.32924900  1
  O  O29  1  0.89501800  0.31759900  0.67075100  1
  O  O30  1  0.39753100  0.44417800  0.80488900  1
  O  O31  1  0.89753100  0.55582200  0.19511100  1
  O  O32  1  0.60246900  0.55582200  0.19511100  1
  O  O33  1  0.10246900  0.44417800  0.80488900  1
  O  O34  1  0.50000000  0.00000000  0.50000000  1
  O  O35  1  0.00000000  0.00000000  0.50000000  1
