# generated using pymatgen
data_CeNi2N17O24
_symmetry_space_group_name_H-M   'P 1'
_cell_length_a   10.25773700
_cell_length_b   10.25773700
_cell_length_c   10.25773700
_cell_angle_alpha   90.00000000
_cell_angle_beta   90.00000000
_cell_angle_gamma   90.00000000
_symmetry_Int_Tables_number   1
_chemical_formula_structural   CeNi2N17O24
_chemical_formula_sum   'Ce2 Ni4 N34 O48'
_cell_volume   1079.33107188
_cell_formula_units_Z   2
loop_
 _symmetry_equiv_pos_site_id
 _symmetry_equiv_pos_as_xyz
  1  'x, y, z'
loop_
 _atom_site_type_symbol
 _atom_site_label
 _atom_site_symmetry_multiplicity
 _atom_site_fract_x
 _atom_site_fract_y
 _atom_site_fract_z
 _atom_site_occupancy
  Ce  Ce0  1  0.50000000  0.50000000  0.50000000  1
  Ce  Ce1  1  0.00000000  0.00000000  0.00000000  1
  Ni  Ni2  1  0.25000000  0.75000000  0.75000000  1
  Ni  Ni3  1  0.75000000  0.75000000  0.25000000  1
  Ni  Ni4  1  0.75000000  0.25000000  0.75000000  1
  Ni  Ni5  1  0.25000000  0.25000000  0.25000000  1
  N  N6  1  0.25727400  0.54891600  0.74809800  1
  N  N7  1  0.74272600  0.54891600  0.25190200  1
  N  N8  1  0.74272600  0.45108400  0.74809800  1
  N  N9  1  0.25727400  0.45108400  0.25190200  1
  N  N10  1  0.74809800  0.25727400  0.54891600  1
  N  N11  1  0.25190200  0.74272600  0.54891600  1
  N  N12  1  0.74809800  0.74272600  0.45108400  1
  N  N13  1  0.25190200  0.25727400  0.45108400  1
  N  N14  1  0.54891600  0.74809800  0.25727400  1
  N  N15  1  0.54891600  0.25190200  0.74272600  1
  N  N16  1  0.45108400  0.74809800  0.74272600  1
  N  N17  1  0.45108400  0.25190200  0.25727400  1
  N  N18  1  0.24272600  0.95108400  0.75190200  1
  N  N19  1  0.75727400  0.95108400  0.24809800  1
  N  N20  1  0.75727400  0.04891600  0.75190200  1
  N  N21  1  0.24272600  0.04891600  0.24809800  1
  N  N22  1  0.75190200  0.24272600  0.95108400  1
  N  N23  1  0.24809800  0.75727400  0.95108400  1
  N  N24  1  0.75190200  0.75727400  0.04891600  1
  N  N25  1  0.24809800  0.24272600  0.04891600  1
  N  N26  1  0.95108400  0.75190200  0.24272600  1
  N  N27  1  0.95108400  0.24809800  0.75727400  1
  N  N28  1  0.04891600  0.75190200  0.75727400  1
  N  N29  1  0.04891600  0.24809800  0.24272600  1
  N  N30  1  0.75000000  0.25000000  0.25000000  1
  N  N31  1  0.25000000  0.25000000  0.75000000  1
  N  N32  1  0.25000000  0.75000000  0.25000000  1
  N  N33  1  0.75000000  0.75000000  0.75000000  1
  N  N34  1  0.00000000  0.50000000  0.00000000  1
  N  N35  1  0.00000000  0.00000000  0.50000000  1
  N  N36  1  0.50000000  0.00000000  0.00000000  1
  N  N37  1  0.50000000  0.00000000  0.50000000  1
  N  N38  1  0.50000000  0.50000000  0.00000000  1
  N  N39  1  0.00000000  0.50000000  0.50000000  1
  O  O40  1  0.27945800  0.49369400  0.64022300  1
  O  O41  1  0.72054200  0.49369400  0.35977700  1
  O  O42  1  0.72054200  0.50630600  0.64022300  1
  O  O43  1  0.27945800  0.50630600  0.35977700  1
  O  O44  1  0.64022300  0.27945800  0.49369400  1
  O  O45  1  0.35977700  0.72054200  0.49369400  1
  O  O46  1  0.64022300  0.72054200  0.50630600  1
  O  O47  1  0.35977700  0.27945800  0.50630600  1
  O  O48  1  0.49369400  0.64022300  0.27945800  1
  O  O49  1  0.49369400  0.35977700  0.72054200  1
  O  O50  1  0.50630600  0.64022300  0.72054200  1
  O  O51  1  0.50630600  0.35977700  0.27945800  1
  O  O52  1  0.22054200  0.00630600  0.85977700  1
  O  O53  1  0.77945800  0.00630600  0.14022300  1
  O  O54  1  0.77945800  0.99369400  0.85977700  1
  O  O55  1  0.22054200  0.99369400  0.14022300  1
  O  O56  1  0.85977700  0.22054200  0.00630600  1
  O  O57  1  0.14022300  0.77945800  0.00630600  1
  O  O58  1  0.85977700  0.77945800  0.99369400  1
  O  O59  1  0.14022300  0.22054200  0.99369400  1
  O  O60  1  0.00630600  0.85977700  0.22054200  1
  O  O61  1  0.00630600  0.14022300  0.77945800  1
  O  O62  1  0.99369400  0.85977700  0.77945800  1
  O  O63  1  0.99369400  0.14022300  0.22054200  1
  O  O64  1  0.24124000  0.48799100  0.84881100  1
  O  O65  1  0.75876000  0.48799100  0.15118900  1
  O  O66  1  0.75876000  0.51200900  0.84881100  1
  O  O67  1  0.24124000  0.51200900  0.15118900  1
  O  O68  1  0.84881100  0.24124000  0.48799100  1
  O  O69  1  0.15118900  0.75876000  0.48799100  1
  O  O70  1  0.84881100  0.75876000  0.51200900  1
  O  O71  1  0.15118900  0.24124000  0.51200900  1
  O  O72  1  0.48799100  0.84881100  0.24124000  1
  O  O73  1  0.48799100  0.15118900  0.75876000  1
  O  O74  1  0.51200900  0.84881100  0.75876000  1
  O  O75  1  0.51200900  0.15118900  0.24124000  1
  O  O76  1  0.25876000  0.01200900  0.65118900  1
  O  O77  1  0.74124000  0.01200900  0.34881100  1
  O  O78  1  0.74124000  0.98799100  0.65118900  1
  O  O79  1  0.25876000  0.98799100  0.34881100  1
  O  O80  1  0.65118900  0.25876000  0.01200900  1
  O  O81  1  0.34881100  0.74124000  0.01200900  1
  O  O82  1  0.65118900  0.74124000  0.98799100  1
  O  O83  1  0.34881100  0.25876000  0.98799100  1
  O  O84  1  0.01200900  0.65118900  0.25876000  1
  O  O85  1  0.01200900  0.34881100  0.74124000  1
  O  O86  1  0.98799100  0.65118900  0.74124000  1
  O  O87  1  0.98799100  0.34881100  0.25876000  1
