# generated using pymatgen
data_K3MoIO13
_symmetry_space_group_name_H-M   'P 1'
_cell_length_a   7.95558953
_cell_length_b   8.04338868
_cell_length_c   10.07709929
_cell_angle_alpha   109.67700341
_cell_angle_beta   91.45917676
_cell_angle_gamma   99.33452136
_symmetry_Int_Tables_number   1
_chemical_formula_structural   K3MoIO13
_chemical_formula_sum   'K6 Mo2 I2 O26'
_cell_volume   596.90849791
_cell_formula_units_Z   2
loop_
 _symmetry_equiv_pos_site_id
 _symmetry_equiv_pos_as_xyz
  1  'x, y, z'
loop_
 _atom_site_type_symbol
 _atom_site_label
 _atom_site_symmetry_multiplicity
 _atom_site_fract_x
 _atom_site_fract_y
 _atom_site_fract_z
 _atom_site_occupancy
  K  K0  1  0.56592400  0.75440700  0.03354700  1
  K  K1  1  0.43407600  0.24559300  0.96645300  1
  K  K2  1  0.54854300  0.21857900  0.36621900  1
  K  K3  1  0.45145700  0.78142100  0.63378100  1
  K  K4  1  0.06530600  0.66541800  0.31977000  1
  K  K5  1  0.93469400  0.33458200  0.68023000  1
  Mo  Mo6  1  0.83709000  0.13665400  0.00163300  1
  Mo  Mo7  1  0.16291000  0.86334600  0.99836700  1
  I  I8  1  0.90245300  0.82349200  0.71810500  1
  I  I9  1  0.09754700  0.17650800  0.28189500  1
  O  O10  1  0.77518900  0.27511500  0.91199800  1
  O  O11  1  0.22481100  0.72488500  0.08800200  1
  O  O12  1  0.66324000  0.11655800  0.10582100  1
  O  O13  1  0.33676000  0.88344100  0.89417900  1
  O  O14  1  0.98774900  0.70164600  0.85769400  1
  O  O15  1  0.01225200  0.29835400  0.14230600  1
  O  O16  1  0.73368100  0.89291400  0.86327200  1
  O  O17  1  0.26631900  0.10708600  0.13672800  1
  O  O18  1  0.03762800  0.03468300  0.87619800  1
  O  O19  1  0.96237200  0.96531700  0.12380200  1
  O  O20  1  0.81877400  0.96443800  0.63114000  1
  O  O21  1  0.18122600  0.03556200  0.36886000  1
  O  O22  1  0.91131900  0.22360000  0.38054900  1
  O  O23  1  0.08868100  0.77640000  0.61945100  1
  O  O24  1  0.75444700  0.61134100  0.62774900  1
  O  O25  1  0.24555300  0.38865900  0.37225100  1
  O  O26  1  0.68876200  0.55345700  0.30340800  1
  O  O27  1  0.31123800  0.44654300  0.69659200  1
  O  O28  1  0.72944400  0.83533700  0.37105300  1
  O  O29  1  0.27055600  0.16466300  0.62894700  1
  O  O30  1  0.83150600  0.58592900  0.03964600  1
  O  O31  1  0.16849400  0.41407100  0.96035400  1
  O  O32  1  0.42523700  0.16498000  0.65084900  1
  O  O33  1  0.57476300  0.83502000  0.34915100  1
  O  O34  1  0.46634400  0.45954900  0.72928000  1
  O  O35  1  0.53365600  0.54045100  0.27072000  1
