# generated using pymatgen
data_Rb4Na2Mn2H12C10N11O6
_symmetry_space_group_name_H-M   'P 1'
_cell_length_a   9.45131600
_cell_length_b   12.59489734
_cell_length_c   12.59489734
_cell_angle_alpha   92.08405284
_cell_angle_beta   90.00000000
_cell_angle_gamma   90.00000000
_symmetry_Int_Tables_number   1
_chemical_formula_structural   Rb4Na2Mn2H12C10N11O6
_chemical_formula_sum   'Rb8 Na4 Mn4 H24 C20 N22 O12'
_cell_volume   1498.28416882
_cell_formula_units_Z   2
loop_
 _symmetry_equiv_pos_site_id
 _symmetry_equiv_pos_as_xyz
  1  'x, y, z'
loop_
 _atom_site_type_symbol
 _atom_site_label
 _atom_site_symmetry_multiplicity
 _atom_site_fract_x
 _atom_site_fract_y
 _atom_site_fract_z
 _atom_site_occupancy
  Rb  Rb0  1  0.72442000  0.30480800  0.30480800  1
  Rb  Rb1  1  0.27558000  0.69519200  0.69519200  1
  Rb  Rb2  1  0.22442000  0.19519200  0.19519200  1
  Rb  Rb3  1  0.77558000  0.80480800  0.80480800  1
  Rb  Rb4  1  0.50000000  0.27143400  0.72856600  1
  Rb  Rb5  1  0.00000000  0.77143400  0.22856600  1
  Rb  Rb6  1  0.50000000  0.72856600  0.27143400  1
  Rb  Rb7  1  0.00000000  0.22856600  0.77143400  1
  Na  Na8  1  0.50000000  0.00000000  0.50000000  1
  Na  Na9  1  0.50000000  0.50000000  0.00000000  1
  Na  Na10  1  0.00000000  0.00000000  0.50000000  1
  Na  Na11  1  0.00000000  0.50000000  0.00000000  1
  Mn  Mn12  1  0.67297900  0.55165100  0.55165100  1
  Mn  Mn13  1  0.32702100  0.44834900  0.44834900  1
  Mn  Mn14  1  0.17297900  0.94834900  0.94834900  1
  Mn  Mn15  1  0.82702100  0.05165100  0.05165100  1
  H  H16  1  0.74067300  0.05952200  0.64353100  1
  H  H17  1  0.25932700  0.35646900  0.94047800  1
  H  H18  1  0.24067300  0.85646900  0.44047800  1
  H  H19  1  0.75932700  0.55952200  0.14353100  1
  H  H20  1  0.25932700  0.94047800  0.35646900  1
  H  H21  1  0.74067300  0.64353100  0.05952200  1
  H  H22  1  0.75932700  0.14353100  0.55952200  1
  H  H23  1  0.24067300  0.44047800  0.85646900  1
  H  H24  1  0.69601900  0.97631900  0.32011600  1
  H  H25  1  0.30398100  0.67988400  0.02368100  1
  H  H26  1  0.19601900  0.17988400  0.52368100  1
  H  H27  1  0.80398100  0.47631900  0.82011600  1
  H  H28  1  0.30398100  0.02368100  0.67988400  1
  H  H29  1  0.69601900  0.32011600  0.97631900  1
  H  H30  1  0.80398100  0.82011600  0.47631900  1
  H  H31  1  0.19601900  0.52368100  0.17988400  1
  H  H32  1  0.55045600  0.98945400  0.26692700  1
  H  H33  1  0.44954400  0.73307300  0.01054600  1
  H  H34  1  0.05045600  0.23307300  0.51054600  1
  H  H35  1  0.94954400  0.48945400  0.76692700  1
  H  H36  1  0.44954400  0.01054600  0.73307300  1
  H  H37  1  0.55045600  0.26692700  0.98945400  1
  H  H38  1  0.94954400  0.76692700  0.48945400  1
  H  H39  1  0.05045600  0.51054600  0.23307300  1
  C  C40  1  0.87170700  0.61427600  0.61427600  1
  C  C41  1  0.12829300  0.38572400  0.38572400  1
  C  C42  1  0.37170700  0.88572400  0.88572400  1
  C  C43  1  0.62829300  0.11427600  0.11427600  1
  C  C44  1  0.74959900  0.38113700  0.56538500  1
  C  C45  1  0.25040100  0.43461500  0.61886300  1
  C  C46  1  0.24959900  0.93461500  0.11886300  1
  C  C47  1  0.75040100  0.88113700  0.06538500  1
  C  C48  1  0.25040100  0.61886300  0.43461500  1
  C  C49  1  0.74959900  0.56538500  0.38113700  1
  C  C50  1  0.75040100  0.06538500  0.88113700  1
  C  C51  1  0.24959900  0.11886300  0.93461500  1
  C  C52  1  0.59650900  0.72414600  0.54595800  1
  C  C53  1  0.40349100  0.45404200  0.27585400  1
  C  C54  1  0.09650900  0.95404200  0.77585400  1
  C  C55  1  0.90349100  0.22414600  0.04595800  1
  C  C56  1  0.40349100  0.27585400  0.45404200  1
  C  C57  1  0.59650900  0.54595800  0.72414600  1
  C  C58  1  0.90349100  0.04595800  0.22414600  1
  C  C59  1  0.09650900  0.77585400  0.95404200  1
  N  N60  1  0.50000000  0.50000000  0.50000000  1
  N  N61  1  0.00000000  0.00000000  0.00000000  1
  N  N62  1  0.97028400  0.65541500  0.65541500  1
  N  N63  1  0.02971600  0.34458500  0.34458500  1
  N  N64  1  0.47028400  0.84458500  0.84458500  1
  N  N65  1  0.52971600  0.15541500  0.15541500  1
  N  N66  1  0.77932800  0.29145700  0.57639300  1
  N  N67  1  0.22067200  0.42360700  0.70854300  1
  N  N68  1  0.27932800  0.92360700  0.20854300  1
  N  N69  1  0.72067200  0.79145700  0.07639300  1
  N  N70  1  0.22067200  0.70854300  0.42360700  1
  N  N71  1  0.77932800  0.57639300  0.29145700  1
  N  N72  1  0.72067200  0.07639300  0.79145700  1
  N  N73  1  0.27932800  0.20854300  0.92360700  1
  N  N74  1  0.57173900  0.81549600  0.54063500  1
  N  N75  1  0.42826100  0.45936500  0.18450400  1
  N  N76  1  0.07173900  0.95936500  0.68450400  1
  N  N77  1  0.92826100  0.31549600  0.04063500  1
  N  N78  1  0.42826100  0.18450400  0.45936500  1
  N  N79  1  0.57173900  0.54063500  0.81549600  1
  N  N80  1  0.92826100  0.04063500  0.31549600  1
  N  N81  1  0.07173900  0.68450400  0.95936500  1
  O  O82  1  0.75000000  0.06553900  0.56553900  1
  O  O83  1  0.25000000  0.43446100  0.93446100  1
  O  O84  1  0.25000000  0.93446100  0.43446100  1
  O  O85  1  0.75000000  0.56553900  0.06553900  1
  O  O86  1  0.59715900  0.95341900  0.32482300  1
  O  O87  1  0.40284100  0.67517700  0.04658100  1
  O  O88  1  0.09715900  0.17517700  0.54658100  1
  O  O89  1  0.90284100  0.45341900  0.82482300  1
  O  O90  1  0.40284100  0.04658100  0.67517700  1
  O  O91  1  0.59715900  0.32482300  0.95341900  1
  O  O92  1  0.90284100  0.82482300  0.45341900  1
  O  O93  1  0.09715900  0.54658100  0.17517700  1
