# generated using pymatgen
data_U2S(NO5)2
_symmetry_space_group_name_H-M   'P 1'
_cell_length_a   8.63581041
_cell_length_b   8.63581041
_cell_length_c   17.37381700
_cell_angle_alpha   90.00000000
_cell_angle_beta   90.00000000
_cell_angle_gamma   118.94482952
_symmetry_Int_Tables_number   1
_chemical_formula_structural   U2S(NO5)2
_chemical_formula_sum   'U8 S4 N8 O40'
_cell_volume   1133.84121843
_cell_formula_units_Z   4
loop_
 _symmetry_equiv_pos_site_id
 _symmetry_equiv_pos_as_xyz
  1  'x, y, z'
loop_
 _atom_site_type_symbol
 _atom_site_label
 _atom_site_symmetry_multiplicity
 _atom_site_fract_x
 _atom_site_fract_y
 _atom_site_fract_z
 _atom_site_occupancy
  U  U0  1  0.14047100  0.60400400  0.91599700  1
  U  U1  1  0.39599600  0.85952900  0.08400300  1
  U  U2  1  0.89599600  0.35952900  0.41599700  1
  U  U3  1  0.64047100  0.10400400  0.58400300  1
  U  U4  1  0.85952900  0.39599600  0.08400300  1
  U  U5  1  0.60400400  0.14047100  0.91599700  1
  U  U6  1  0.10400400  0.64047100  0.58400300  1
  U  U7  1  0.35952900  0.89599600  0.41599700  1
  S  S8  1  0.87363400  0.37363400  0.75000000  1
  S  S9  1  0.62636600  0.12636600  0.25000000  1
  S  S10  1  0.12636600  0.62636600  0.25000000  1
  S  S11  1  0.37363400  0.87363400  0.75000000  1
  N  N12  1  0.36591000  0.36591000  0.75090300  1
  N  N13  1  0.63409000  0.63409000  0.24909700  1
  N  N14  1  0.13409000  0.13409000  0.25090300  1
  N  N15  1  0.86591000  0.86591000  0.74909700  1
  N  N16  1  0.66407900  0.66407900  0.90384400  1
  N  N17  1  0.33592100  0.33592100  0.09615600  1
  N  N18  1  0.83592100  0.83592100  0.40384400  1
  N  N19  1  0.16407900  0.16407900  0.59615600  1
  O  O20  1  0.87739400  0.37307200  0.95768000  1
  O  O21  1  0.62692800  0.12260600  0.04232000  1
  O  O22  1  0.12692800  0.62260600  0.45768000  1
  O  O23  1  0.37739400  0.87307200  0.54232000  1
  O  O24  1  0.12260600  0.62692800  0.04232000  1
  O  O25  1  0.37307200  0.87739400  0.95768000  1
  O  O26  1  0.87307200  0.37739400  0.54232000  1
  O  O27  1  0.62260600  0.12692800  0.45768000  1
  O  O28  1  0.72108000  0.33454000  0.80120400  1
  O  O29  1  0.66546000  0.27892000  0.19879600  1
  O  O30  1  0.16546000  0.77892000  0.30120400  1
  O  O31  1  0.22108000  0.83454000  0.69879600  1
  O  O32  1  0.27892000  0.66546000  0.19879600  1
  O  O33  1  0.33454000  0.72108000  0.80120400  1
  O  O34  1  0.83454000  0.22108000  0.69879600  1
  O  O35  1  0.77892000  0.16546000  0.30120400  1
  O  O36  1  0.02792400  0.41096600  0.79977400  1
  O  O37  1  0.58903400  0.97207600  0.20022600  1
  O  O38  1  0.08903400  0.47207600  0.29977400  1
  O  O39  1  0.52792400  0.91096600  0.70022600  1
  O  O40  1  0.97207600  0.58903400  0.20022600  1
  O  O41  1  0.41096600  0.02792400  0.79977400  1
  O  O42  1  0.91096600  0.52792400  0.70022600  1
  O  O43  1  0.47207600  0.08903400  0.29977400  1
  O  O44  1  0.26239600  0.48680300  0.93201900  1
  O  O45  1  0.51319700  0.73760400  0.06798100  1
  O  O46  1  0.01319700  0.23760400  0.43201900  1
  O  O47  1  0.76239600  0.98680300  0.56798100  1
  O  O48  1  0.73760400  0.51319700  0.06798100  1
  O  O49  1  0.48680300  0.26239600  0.93201900  1
  O  O50  1  0.98680300  0.76239600  0.56798100  1
  O  O51  1  0.23760400  0.01319700  0.43201900  1
  O  O52  1  0.02307800  0.71975600  0.88611700  1
  O  O53  1  0.28024400  0.97692200  0.11388300  1
  O  O54  1  0.78024400  0.47692200  0.38611700  1
  O  O55  1  0.52307800  0.21975600  0.61388300  1
  O  O56  1  0.97692200  0.28024400  0.11388300  1
  O  O57  1  0.71975600  0.02307800  0.88611700  1
  O  O58  1  0.21975600  0.52307800  0.61388300  1
  O  O59  1  0.47692200  0.78024400  0.38611700  1
