# generated using pymatgen
data_PrIClO13
_symmetry_space_group_name_H-M   'P 1'
_cell_length_a   6.58323700
_cell_length_b   12.95352400
_cell_length_c   14.56712789
_cell_angle_alpha   72.16852167
_cell_angle_beta   90.00000000
_cell_angle_gamma   90.00000000
_symmetry_Int_Tables_number   1
_chemical_formula_structural   PrIClO13
_chemical_formula_sum   'Pr4 I4 Cl4 O52'
_cell_volume   1182.55309936
_cell_formula_units_Z   4
loop_
 _symmetry_equiv_pos_site_id
 _symmetry_equiv_pos_as_xyz
  1  'x, y, z'
loop_
 _atom_site_type_symbol
 _atom_site_label
 _atom_site_symmetry_multiplicity
 _atom_site_fract_x
 _atom_site_fract_y
 _atom_site_fract_z
 _atom_site_occupancy
  Pr  Pr0  1  0.04707000  0.16091700  0.98312500  1
  Pr  Pr1  1  0.54707000  0.33908300  0.01687500  1
  Pr  Pr2  1  0.95293000  0.83908300  0.01687500  1
  Pr  Pr3  1  0.45293000  0.66091700  0.98312500  1
  I  I4  1  0.58373700  0.04260700  0.08492200  1
  I  I5  1  0.08373700  0.45739300  0.91507800  1
  I  I6  1  0.41626300  0.95739300  0.91507800  1
  I  I7  1  0.91626300  0.54260700  0.08492200  1
  Cl  Cl8  1  0.62823200  0.32047400  0.52741700  1
  Cl  Cl9  1  0.12823200  0.17952600  0.47258300  1
  Cl  Cl10  1  0.37176800  0.67952600  0.47258300  1
  Cl  Cl11  1  0.87176800  0.82047400  0.52741700  1
  O  O12  1  0.84455000  0.98561800  0.06489000  1
  O  O13  1  0.34455000  0.51438200  0.93511000  1
  O  O14  1  0.15545000  0.01438200  0.93511000  1
  O  O15  1  0.65545000  0.48561800  0.06489000  1
  O  O16  1  0.73825800  0.17453900  0.06186600  1
  O  O17  1  0.23825800  0.32546100  0.93813400  1
  O  O18  1  0.26174200  0.82546100  0.93813400  1
  O  O19  1  0.76174200  0.67453900  0.06186600  1
  O  O20  1  0.00820500  0.22760500  0.78226900  1
  O  O21  1  0.50820500  0.27239500  0.21773100  1
  O  O22  1  0.99179500  0.77239500  0.21773100  1
  O  O23  1  0.49179500  0.72760500  0.78226900  1
  O  O24  1  0.15714900  0.26263400  0.73082700  1
  O  O25  1  0.65714900  0.23736600  0.26917300  1
  O  O26  1  0.84285100  0.73736600  0.26917300  1
  O  O27  1  0.34285100  0.76263400  0.73082700  1
  O  O28  1  0.11739100  0.04936700  0.26611300  1
  O  O29  1  0.61739100  0.45063300  0.73388700  1
  O  O30  1  0.88260900  0.95063300  0.73388700  1
  O  O31  1  0.38260900  0.54936700  0.26611300  1
  O  O32  1  0.35234100  0.13569000  0.07258900  1
  O  O33  1  0.85234100  0.36431000  0.92741100  1
  O  O34  1  0.64765900  0.86431000  0.92741100  1
  O  O35  1  0.14765900  0.63569000  0.07258900  1
  O  O36  1  0.58714600  0.98979200  0.21300200  1
  O  O37  1  0.08714600  0.51020800  0.78699800  1
  O  O38  1  0.41285400  0.01020800  0.78699800  1
  O  O39  1  0.91285400  0.48979200  0.21300200  1
  O  O40  1  0.56513600  0.08257800  0.93550500  1
  O  O41  1  0.06513600  0.41742200  0.06449500  1
  O  O42  1  0.43486400  0.91742200  0.06449500  1
  O  O43  1  0.93486400  0.58257800  0.93550500  1
  O  O44  1  0.81075400  0.38803200  0.51565100  1
  O  O45  1  0.31075400  0.11196800  0.48434900  1
  O  O46  1  0.18924600  0.61196800  0.48434900  1
  O  O47  1  0.68924600  0.88803200  0.51565100  1
  O  O48  1  0.60266700  0.25582800  0.62688000  1
  O  O49  1  0.10266700  0.24417200  0.37312000  1
  O  O50  1  0.39733300  0.74417200  0.37312000  1
  O  O51  1  0.89733300  0.75582800  0.62688000  1
  O  O52  1  0.64277500  0.25195600  0.46464200  1
  O  O53  1  0.14277500  0.24804400  0.53535800  1
  O  O54  1  0.35722500  0.74804400  0.53535800  1
  O  O55  1  0.85722500  0.75195600  0.46464200  1
  O  O56  1  0.45665000  0.39516200  0.49537300  1
  O  O57  1  0.95665000  0.10483800  0.50462700  1
  O  O58  1  0.54335000  0.60483800  0.50462700  1
  O  O59  1  0.04335000  0.89516200  0.49537300  1
  O  O60  1  0.73512900  0.98513400  0.68380000  1
  O  O61  1  0.23512900  0.51486600  0.31620000  1
  O  O62  1  0.26487100  0.01486600  0.31620000  1
  O  O63  1  0.76487100  0.48513400  0.68380000  1
