# generated using pymatgen
data_Ca3SiS2O25
_symmetry_space_group_name_H-M   'P 1'
_cell_length_a   9.22794000
_cell_length_b   11.03129800
_cell_length_c   11.06245251
_cell_angle_alpha   60.37841333
_cell_angle_beta   90.00000000
_cell_angle_gamma   90.00000000
_symmetry_Int_Tables_number   1
_chemical_formula_structural   Ca3SiS2O25
_chemical_formula_sum   'Ca6 Si2 S4 O50'
_cell_volume   978.94177069
_cell_formula_units_Z   2
loop_
 _symmetry_equiv_pos_site_id
 _symmetry_equiv_pos_as_xyz
  1  'x, y, z'
loop_
 _atom_site_type_symbol
 _atom_site_label
 _atom_site_symmetry_multiplicity
 _atom_site_fract_x
 _atom_site_fract_y
 _atom_site_fract_z
 _atom_site_occupancy
  Ca  Ca0  1  0.36540500  0.04704700  0.76387300  1
  Ca  Ca1  1  0.36326400  0.76423600  0.18857200  1
  Ca  Ca2  1  0.36474600  0.19037900  0.04812300  1
  Ca  Ca3  1  0.86540500  0.95295300  0.23612700  1
  Ca  Ca4  1  0.86326400  0.23576400  0.81142800  1
  Ca  Ca5  1  0.86474600  0.80962100  0.95187700  1
  Si  Si6  1  0.11662000  0.00107900  0.99849900  1
  Si  Si7  1  0.61662000  0.99892100  0.00150100  1
  S  S8  1  0.57725000  0.66617200  0.66761500  1
  S  S9  1  0.07725000  0.33382800  0.33238500  1
  S  S10  1  0.15065300  0.66531100  0.67144500  1
  S  S11  1  0.65065300  0.33468900  0.32855500  1
  O  O12  1  0.50633900  0.88600300  0.96761200  1
  O  O13  1  0.50649800  0.96737400  0.14740500  1
  O  O14  1  0.50584800  0.14439600  0.88906500  1
  O  O15  1  0.00633900  0.11399700  0.03238800  1
  O  O16  1  0.00649800  0.03262600  0.85259500  1
  O  O17  1  0.00584800  0.85560400  0.11093500  1
  O  O18  1  0.23016000  0.14294700  0.88457000  1
  O  O19  1  0.23102600  0.88660600  0.97181400  1
  O  O20  1  0.23123200  0.97448400  0.13893800  1
  O  O21  1  0.73016000  0.85705300  0.11543000  1
  O  O22  1  0.73102600  0.11339400  0.02818600  1
  O  O23  1  0.73123200  0.02551600  0.86106200  1
  O  O24  1  0.65865300  0.08967500  0.72867200  1
  O  O25  1  0.65528000  0.72567500  0.18298700  1
  O  O26  1  0.65867100  0.18248300  0.09238600  1
  O  O27  1  0.15865300  0.91032500  0.27132800  1
  O  O28  1  0.15528000  0.27432500  0.81701300  1
  O  O29  1  0.15867100  0.81751700  0.90761400  1
  O  O30  1  0.85739000  0.03566700  0.57238900  1
  O  O31  1  0.85678900  0.57301600  0.38869700  1
  O  O32  1  0.85751900  0.39329300  0.03339100  1
  O  O33  1  0.35739000  0.96433300  0.42761100  1
  O  O34  1  0.35678900  0.42698400  0.61130300  1
  O  O35  1  0.35751900  0.60670700  0.96660900  1
  O  O36  1  0.35124800  0.32789000  0.58951800  1
  O  O37  1  0.35116800  0.58820800  0.08561700  1
  O  O38  1  0.35139900  0.08379100  0.32824400  1
  O  O39  1  0.85124800  0.67211000  0.41048200  1
  O  O40  1  0.85116800  0.41179200  0.91438300  1
  O  O41  1  0.85139900  0.91620900  0.67175600  1
  O  O42  1  0.09090900  0.03005900  0.74434600  1
  O  O43  1  0.08823700  0.74683000  0.22255700  1
  O  O44  1  0.08938300  0.22569700  0.03000600  1
  O  O45  1  0.59090900  0.96994100  0.25565400  1
  O  O46  1  0.58823700  0.25317000  0.77744300  1
  O  O47  1  0.58938300  0.77430300  0.96999400  1
  O  O48  1  0.31041700  0.66882400  0.66979000  1
  O  O49  1  0.81041700  0.33117600  0.33021000  1
  O  O50  1  0.08770200  0.80829100  0.58296000  1
  O  O51  1  0.09248200  0.58849700  0.60110800  1
  O  O52  1  0.09075800  0.60250500  0.81361200  1
  O  O53  1  0.58770200  0.19170900  0.41704000  1
  O  O54  1  0.59248200  0.41150300  0.39889200  1
  O  O55  1  0.59075800  0.39749500  0.18638800  1
  O  O56  1  0.58850700  0.55986800  0.81095700  1
  O  O57  1  0.58776300  0.81033600  0.63086100  1
  O  O58  1  0.58918500  0.62852000  0.56087200  1
  O  O59  1  0.08850700  0.44013200  0.18904300  1
  O  O60  1  0.08776300  0.18966400  0.36913900  1
  O  O61  1  0.08918500  0.37148000  0.43912800  1
