# generated using pymatgen
data_Cu24Ag9Pb26(Cl31O24)2
_symmetry_space_group_name_H-M   'P 1'
_cell_length_a   15.02155604
_cell_length_b   15.02155604
_cell_length_c   15.02155604
_cell_angle_alpha   90.00000000
_cell_angle_beta   90.00000000
_cell_angle_gamma   90.00000000
_symmetry_Int_Tables_number   1
_chemical_formula_structural   Cu24Ag9Pb26(Cl31O24)2
_chemical_formula_sum   'Cu24 Ag9 Pb26 Cl62 O48'
_cell_volume   3389.57124685
_cell_formula_units_Z   1
loop_
 _symmetry_equiv_pos_site_id
 _symmetry_equiv_pos_as_xyz
  1  'x, y, z'
loop_
 _atom_site_type_symbol
 _atom_site_label
 _atom_site_symmetry_multiplicity
 _atom_site_fract_x
 _atom_site_fract_y
 _atom_site_fract_z
 _atom_site_occupancy
  Cu  Cu0  1  0.09800953  0.24993743  0.75006257  1
  Cu  Cu1  1  0.24993743  0.24993743  0.90199047  1
  Cu  Cu2  1  0.24993743  0.09800953  0.75006257  1
  Cu  Cu3  1  0.09800953  0.75006257  0.24993743  1
  Cu  Cu4  1  0.24993743  0.75006257  0.09800953  1
  Cu  Cu5  1  0.24993743  0.90199047  0.24993743  1
  Cu  Cu6  1  0.90199047  0.24993743  0.24993743  1
  Cu  Cu7  1  0.75006257  0.24993743  0.09800953  1
  Cu  Cu8  1  0.75006257  0.09800953  0.24993743  1
  Cu  Cu9  1  0.90199047  0.75006257  0.75006257  1
  Cu  Cu10  1  0.75006257  0.75006257  0.90199047  1
  Cu  Cu11  1  0.75006257  0.90199047  0.75006257  1
  Cu  Cu12  1  0.90199047  0.75006257  0.24993743  1
  Cu  Cu13  1  0.75006257  0.75006257  0.09800953  1
  Cu  Cu14  1  0.75006257  0.90199047  0.24993743  1
  Cu  Cu15  1  0.90199047  0.24993743  0.75006257  1
  Cu  Cu16  1  0.75006257  0.24993743  0.90199047  1
  Cu  Cu17  1  0.75006257  0.09800953  0.75006257  1
  Cu  Cu18  1  0.09800953  0.75006257  0.75006257  1
  Cu  Cu19  1  0.24993743  0.75006257  0.90199047  1
  Cu  Cu20  1  0.24993743  0.90199047  0.75006257  1
  Cu  Cu21  1  0.09800953  0.24993743  0.24993743  1
  Cu  Cu22  1  0.24993743  0.24993743  0.09800953  1
  Cu  Cu23  1  0.24993743  0.09800953  0.24993743  1
  Ag  Ag24  1  -0.00000000  0.17052226  -0.00000000  1
  Ag  Ag25  1  0.17052226  0.00000000  -0.00000000  1
  Ag  Ag26  1  -0.00000000  0.00000000  0.82947774  1
  Ag  Ag27  1  -0.00000000  0.82947774  -0.00000000  1
  Ag  Ag28  1  -0.00000000  0.00000000  0.17052226  1
  Ag  Ag29  1  0.82947774  0.00000000  -0.00000000  1
  Ag  Ag30  1  -0.00000000  0.50000000  -0.00000000  1
  Ag  Ag31  1  0.50000000  0.00000000  -0.00000000  1
  Ag  Ag32  1  -0.00000000  0.00000000  0.50000000  1
  Pb  Pb33  1  0.50000000  0.50000000  0.77163120  1
  Pb  Pb34  1  0.50000000  0.22836880  0.50000000  1
  Pb  Pb35  1  0.22836880  0.50000000  0.50000000  1
  Pb  Pb36  1  0.50000000  0.50000000  0.22836880  1
  Pb  Pb37  1  0.50000000  0.77163120  0.50000000  1
  Pb  Pb38  1  0.77163120  0.50000000  0.50000000  1
  Pb  Pb39  1  0.29947487  0.29947487  0.70052513  1
  Pb  Pb40  1  0.29947487  0.70052513  0.29947487  1
  Pb  Pb41  1  0.70052513  0.29947487  0.29947487  1
  Pb  Pb42  1  0.70052513  0.70052513  0.70052513  1
  Pb  Pb43  1  0.70052513  0.70052513  0.29947487  1
  Pb  Pb44  1  0.70052513  0.29947487  0.70052513  1
  Pb  Pb45  1  0.29947487  0.70052513  0.70052513  1
  Pb  Pb46  1  0.29947487  0.29947487  0.29947487  1
  Pb  Pb47  1  -0.00000000  0.50000000  0.73229698  1
  Pb  Pb48  1  0.50000000  0.26770302  -0.00000000  1
  Pb  Pb49  1  0.26770302  0.00000000  0.50000000  1
  Pb  Pb50  1  -0.00000000  0.26770302  0.50000000  1
  Pb  Pb51  1  0.50000000  0.00000000  0.73229698  1
  Pb  Pb52  1  0.26770302  0.50000000  -0.00000000  1
  Pb  Pb53  1  -0.00000000  0.50000000  0.26770302  1
  Pb  Pb54  1  0.50000000  0.73229698  -0.00000000  1
  Pb  Pb55  1  -0.00000000  0.73229698  0.50000000  1
  Pb  Pb56  1  0.50000000  0.00000000  0.26770302  1
  Pb  Pb57  1  0.73229698  0.00000000  0.50000000  1
  Pb  Pb58  1  0.73229698  0.50000000  -0.00000000  1
  Cl  Cl59  1  0.11784122  0.11784122  0.88215878  1
  Cl  Cl60  1  0.11784122  0.88215878  0.11784122  1
  Cl  Cl61  1  0.88215878  0.11784122  0.11784122  1
  Cl  Cl62  1  0.88215878  0.88215878  0.88215878  1
  Cl  Cl63  1  0.88215878  0.88215878  0.11784122  1
  Cl  Cl64  1  0.88215878  0.11784122  0.88215878  1
  Cl  Cl65  1  0.11784122  0.88215878  0.88215878  1
  Cl  Cl66  1  0.11784122  0.11784122  0.11784122  1
  Cl  Cl67  1  0.12310558  0.38418336  0.61581664  1
  Cl  Cl68  1  0.38418336  0.38418336  0.87689442  1
  Cl  Cl69  1  0.38418336  0.12310558  0.61581664  1
  Cl  Cl70  1  0.12310558  0.61581664  0.38418336  1
  Cl  Cl71  1  0.38418336  0.61581664  0.12310558  1
  Cl  Cl72  1  0.38418336  0.87689442  0.38418336  1
  Cl  Cl73  1  0.87689442  0.38418336  0.38418336  1
  Cl  Cl74  1  0.61581664  0.38418336  0.12310558  1
  Cl  Cl75  1  0.61581664  0.12310558  0.38418336  1
  Cl  Cl76  1  0.87689442  0.61581664  0.61581664  1
  Cl  Cl77  1  0.61581664  0.61581664  0.87689442  1
  Cl  Cl78  1  0.61581664  0.87689442  0.61581664  1
  Cl  Cl79  1  0.87689442  0.61581664  0.38418336  1
  Cl  Cl80  1  0.61581664  0.61581664  0.12310558  1
  Cl  Cl81  1  0.61581664  0.87689442  0.38418336  1
  Cl  Cl82  1  0.87689442  0.38418336  0.61581664  1
  Cl  Cl83  1  0.61581664  0.38418336  0.87689442  1
  Cl  Cl84  1  0.61581664  0.12310558  0.61581664  1
  Cl  Cl85  1  0.12310558  0.61581664  0.61581664  1
  Cl  Cl86  1  0.38418336  0.61581664  0.87689442  1
  Cl  Cl87  1  0.38418336  0.87689442  0.61581664  1
  Cl  Cl88  1  0.12310558  0.38418336  0.38418336  1
  Cl  Cl89  1  0.38418336  0.38418336  0.12310558  1
  Cl  Cl90  1  0.38418336  0.12310558  0.38418336  1
  Cl  Cl91  1  -0.00000000  0.33476002  -0.00000000  1
  Cl  Cl92  1  0.33476002  0.00000000  -0.00000000  1
  Cl  Cl93  1  -0.00000000  0.00000000  0.66523998  1
  Cl  Cl94  1  -0.00000000  0.66523998  -0.00000000  1
  Cl  Cl95  1  -0.00000000  0.00000000  0.33476002  1
  Cl  Cl96  1  0.66523998  0.00000000  -0.00000000  1
  Cl  Cl97  1  0.12599619  0.50000000  0.87400381  1
  Cl  Cl98  1  0.50000000  0.12599619  0.87400381  1
  Cl  Cl99  1  0.12599619  0.12599619  0.50000000  1
  Cl  Cl100  1  0.12599619  0.50000000  0.12599619  1
  Cl  Cl101  1  0.50000000  0.87400381  0.12599619  1
  Cl  Cl102  1  0.12599619  0.87400381  0.50000000  1
  Cl  Cl103  1  0.87400381  0.50000000  0.12599619  1
  Cl  Cl104  1  0.50000000  0.12599619  0.12599619  1
  Cl  Cl105  1  0.87400381  0.12599619  0.50000000  1
  Cl  Cl106  1  0.87400381  0.50000000  0.87400381  1
  Cl  Cl107  1  0.50000000  0.87400381  0.87400381  1
  Cl  Cl108  1  0.87400381  0.87400381  0.50000000  1
  Cl  Cl109  1  0.32270609  0.50000000  0.67729391  1
  Cl  Cl110  1  0.50000000  0.32270609  0.67729391  1
  Cl  Cl111  1  0.32270609  0.32270609  0.50000000  1
  Cl  Cl112  1  0.32270609  0.50000000  0.32270609  1
  Cl  Cl113  1  0.50000000  0.67729391  0.32270609  1
  Cl  Cl114  1  0.32270609  0.67729391  0.50000000  1
  Cl  Cl115  1  0.67729391  0.50000000  0.32270609  1
  Cl  Cl116  1  0.50000000  0.32270609  0.32270609  1
  Cl  Cl117  1  0.67729391  0.32270609  0.50000000  1
  Cl  Cl118  1  0.67729391  0.50000000  0.67729391  1
  Cl  Cl119  1  0.50000000  0.67729391  0.67729391  1
  Cl  Cl120  1  0.67729391  0.67729391  0.50000000  1
  O  O121  1  0.21261168  0.31705842  -0.00000000  1
  O  O122  1  0.31705842  0.00000000  0.78738832  1
  O  O123  1  -0.00000000  0.21261168  0.68294158  1
  O  O124  1  0.21261168  0.00000000  0.68294158  1
  O  O125  1  0.31705842  0.21261168  -0.00000000  1
  O  O126  1  -0.00000000  0.31705842  0.78738832  1
  O  O127  1  0.21261168  0.68294158  -0.00000000  1
  O  O128  1  0.31705842  0.00000000  0.21261168  1
  O  O129  1  -0.00000000  0.78738832  0.31705842  1
  O  O130  1  0.21261168  0.00000000  0.31705842  1
  O  O131  1  0.31705842  0.78738832  -0.00000000  1
  O  O132  1  -0.00000000  0.68294158  0.21261168  1
  O  O133  1  0.78738832  0.31705842  -0.00000000  1
  O  O134  1  0.68294158  0.00000000  0.21261168  1
  O  O135  1  -0.00000000  0.21261168  0.31705842  1
  O  O136  1  0.78738832  0.00000000  0.31705842  1
  O  O137  1  0.68294158  0.21261168  -0.00000000  1
  O  O138  1  -0.00000000  0.31705842  0.21261168  1
  O  O139  1  0.78738832  0.68294158  -0.00000000  1
  O  O140  1  0.68294158  0.00000000  0.78738832  1
  O  O141  1  -0.00000000  0.78738832  0.68294158  1
  O  O142  1  0.78738832  0.00000000  0.68294158  1
  O  O143  1  0.68294158  0.78738832  -0.00000000  1
  O  O144  1  -0.00000000  0.68294158  0.78738832  1
  O  O145  1  0.31022782  0.18649994  0.81350006  1
  O  O146  1  0.18649994  0.18649994  0.68977218  1
  O  O147  1  0.18649994  0.31022782  0.81350006  1
  O  O148  1  0.31022782  0.81350006  0.18649994  1
  O  O149  1  0.18649994  0.81350006  0.31022782  1
  O  O150  1  0.18649994  0.68977218  0.18649994  1
  O  O151  1  0.68977218  0.18649994  0.18649994  1
  O  O152  1  0.81350006  0.18649994  0.31022782  1
  O  O153  1  0.81350006  0.31022782  0.18649994  1
  O  O154  1  0.68977218  0.81350006  0.81350006  1
  O  O155  1  0.81350006  0.81350006  0.68977218  1
  O  O156  1  0.81350006  0.68977218  0.81350006  1
  O  O157  1  0.68977218  0.81350006  0.18649994  1
  O  O158  1  0.81350006  0.81350006  0.31022782  1
  O  O159  1  0.81350006  0.68977218  0.18649994  1
  O  O160  1  0.68977218  0.18649994  0.81350006  1
  O  O161  1  0.81350006  0.18649994  0.68977218  1
  O  O162  1  0.81350006  0.31022782  0.81350006  1
  O  O163  1  0.31022782  0.81350006  0.81350006  1
  O  O164  1  0.18649994  0.81350006  0.68977218  1
  O  O165  1  0.18649994  0.68977218  0.81350006  1
  O  O166  1  0.31022782  0.18649994  0.18649994  1
  O  O167  1  0.18649994  0.18649994  0.31022782  1
  O  O168  1  0.18649994  0.31022782  0.18649994  1
