# generated using pymatgen
data_Y7Co6Sn23
_symmetry_space_group_name_H-M   'P 1'
_cell_length_a   10.10568171
_cell_length_b   10.10568171
_cell_length_c   10.92846600
_cell_angle_alpha   90.00000000
_cell_angle_beta   90.00000000
_cell_angle_gamma   119.99999810
_symmetry_Int_Tables_number   1
_chemical_formula_structural   Y7Co6Sn23
_chemical_formula_sum   'Y7 Co6 Sn23'
_cell_volume   966.54276993
_cell_formula_units_Z   1
loop_
 _symmetry_equiv_pos_site_id
 _symmetry_equiv_pos_as_xyz
  1  'x, y, z'
loop_
 _atom_site_type_symbol
 _atom_site_label
 _atom_site_symmetry_multiplicity
 _atom_site_fract_x
 _atom_site_fract_y
 _atom_site_fract_z
 _atom_site_occupancy
  Y  Y0  1  0.00000000  0.00000000  0.00000000  1
  Y  Y1  1  0.95140000  0.47570000  0.70891000  1
  Y  Y2  1  0.52430000  0.04860000  0.70891000  1
  Y  Y3  1  0.52430000  0.47570000  0.70891000  1
  Y  Y4  1  0.04860000  0.52430000  0.29109000  1
  Y  Y5  1  0.47570000  0.95140000  0.29109000  1
  Y  Y6  1  0.47570000  0.52430000  0.29109000  1
  Co  Co7  1  0.38875300  0.19437700  0.85140700  1
  Co  Co8  1  0.80562300  0.61124700  0.85140700  1
  Co  Co9  1  0.80562300  0.19437700  0.85140700  1
  Co  Co10  1  0.61124700  0.80562300  0.14859300  1
  Co  Co11  1  0.19437700  0.38875300  0.14859300  1
  Co  Co12  1  0.19437700  0.80562300  0.14859300  1
  Sn  Sn13  1  0.66666700  0.33333300  0.20393200  1
  Sn  Sn14  1  0.33333300  0.66666700  0.79606800  1
  Sn  Sn15  1  0.45640300  0.22820200  0.44511400  1
  Sn  Sn16  1  0.77179800  0.54359700  0.44511400  1
  Sn  Sn17  1  0.77179800  0.22820200  0.44511400  1
  Sn  Sn18  1  0.54359700  0.77179800  0.55488600  1
  Sn  Sn19  1  0.22820200  0.45640300  0.55488600  1
  Sn  Sn20  1  0.22820200  0.77179800  0.55488600  1
  Sn  Sn21  1  0.22869500  0.11434800  0.68151900  1
  Sn  Sn22  1  0.88565200  0.77130500  0.68151900  1
  Sn  Sn23  1  0.88565200  0.11434800  0.68151900  1
  Sn  Sn24  1  0.77130500  0.88565200  0.31848100  1
  Sn  Sn25  1  0.11434800  0.22869500  0.31848100  1
  Sn  Sn26  1  0.11434800  0.88565200  0.31848100  1
  Sn  Sn27  1  0.00000000  0.00000000  0.50000000  1
  Sn  Sn28  1  0.34848000  0.00000000  0.00000000  1
  Sn  Sn29  1  0.65152000  0.65152000  0.00000000  1
  Sn  Sn30  1  0.00000000  0.34848000  0.00000000  1
  Sn  Sn31  1  0.34848000  0.34848000  0.00000000  1
  Sn  Sn32  1  0.00000000  0.65152000  0.00000000  1
  Sn  Sn33  1  0.65152000  0.00000000  0.00000000  1
  Sn  Sn34  1  0.66666700  0.33333300  0.89306900  1
  Sn  Sn35  1  0.33333300  0.66666700  0.10693100  1
