# generated using pymatgen
data_KCu24Ag9H48Pb26(Cl31O24)2
_symmetry_space_group_name_H-M   'P 1'
_cell_length_a   15.49360569
_cell_length_b   15.49360569
_cell_length_c   15.49360569
_cell_angle_alpha   90.00000000
_cell_angle_beta   90.00000000
_cell_angle_gamma   90.00000000
_symmetry_Int_Tables_number   1
_chemical_formula_structural   KCu24Ag9H48Pb26(Cl31O24)2
_chemical_formula_sum   'K1 Cu24 Ag9 H48 Pb26 Cl62 O48'
_cell_volume   3719.26820206
_cell_formula_units_Z   1
loop_
 _symmetry_equiv_pos_site_id
 _symmetry_equiv_pos_as_xyz
  1  'x, y, z'
loop_
 _atom_site_type_symbol
 _atom_site_label
 _atom_site_symmetry_multiplicity
 _atom_site_fract_x
 _atom_site_fract_y
 _atom_site_fract_z
 _atom_site_occupancy
  K  K0  1  0.50000000  0.50000000  0.50000000  1
  Cu  Cu1  1  0.09410298  0.25608970  0.74391030  1
  Cu  Cu2  1  0.25608970  0.25608970  0.90589702  1
  Cu  Cu3  1  0.25608970  0.09410298  0.74391030  1
  Cu  Cu4  1  0.09410298  0.74391030  0.25608970  1
  Cu  Cu5  1  0.25608970  0.74391030  0.09410298  1
  Cu  Cu6  1  0.25608970  0.90589702  0.25608970  1
  Cu  Cu7  1  0.90589702  0.25608970  0.25608970  1
  Cu  Cu8  1  0.74391030  0.25608970  0.09410298  1
  Cu  Cu9  1  0.74391030  0.09410298  0.25608970  1
  Cu  Cu10  1  0.90589702  0.74391030  0.74391030  1
  Cu  Cu11  1  0.74391030  0.74391030  0.90589702  1
  Cu  Cu12  1  0.74391030  0.90589702  0.74391030  1
  Cu  Cu13  1  0.90589702  0.74391030  0.25608970  1
  Cu  Cu14  1  0.74391030  0.74391030  0.09410298  1
  Cu  Cu15  1  0.74391030  0.90589702  0.25608970  1
  Cu  Cu16  1  0.90589702  0.25608970  0.74391030  1
  Cu  Cu17  1  0.74391030  0.25608970  0.90589702  1
  Cu  Cu18  1  0.74391030  0.09410298  0.74391030  1
  Cu  Cu19  1  0.09410298  0.74391030  0.74391030  1
  Cu  Cu20  1  0.25608970  0.74391030  0.90589702  1
  Cu  Cu21  1  0.25608970  0.90589702  0.74391030  1
  Cu  Cu22  1  0.09410298  0.25608970  0.25608970  1
  Cu  Cu23  1  0.25608970  0.25608970  0.09410298  1
  Cu  Cu24  1  0.25608970  0.09410298  0.25608970  1
  Ag  Ag25  1  0.00000000  0.15492020  0.00000000  1
  Ag  Ag26  1  0.15492020  0.00000000  0.00000000  1
  Ag  Ag27  1  0.00000000  0.00000000  0.84507980  1
  Ag  Ag28  1  0.00000000  0.84507980  0.00000000  1
  Ag  Ag29  1  0.00000000  0.00000000  0.15492020  1
  Ag  Ag30  1  0.84507980  0.00000000  0.00000000  1
  Ag  Ag31  1  0.00000000  0.50000000  0.00000000  1
  Ag  Ag32  1  0.50000000  0.00000000  0.00000000  1
  Ag  Ag33  1  0.00000000  0.00000000  0.50000000  1
  H  H34  1  0.14814699  0.33516953  0.00000000  1
  H  H35  1  0.33516953  0.00000000  0.85185301  1
  H  H36  1  0.00000000  0.14814699  0.66483047  1
  H  H37  1  0.14814699  0.00000000  0.66483047  1
  H  H38  1  0.33516953  0.14814699  0.00000000  1
  H  H39  1  0.00000000  0.33516953  0.85185301  1
  H  H40  1  0.14814699  0.66483047  0.00000000  1
  H  H41  1  0.33516953  0.00000000  0.14814699  1
  H  H42  1  0.00000000  0.85185301  0.33516953  1
  H  H43  1  0.14814699  0.00000000  0.33516953  1
  H  H44  1  0.33516953  0.85185301  0.00000000  1
  H  H45  1  0.00000000  0.66483047  0.14814699  1
  H  H46  1  0.85185301  0.33516953  0.00000000  1
  H  H47  1  0.66483047  0.00000000  0.14814699  1
  H  H48  1  0.00000000  0.14814699  0.33516953  1
  H  H49  1  0.85185301  0.00000000  0.33516953  1
  H  H50  1  0.66483047  0.14814699  0.00000000  1
  H  H51  1  0.00000000  0.33516953  0.14814699  1
  H  H52  1  0.85185301  0.66483047  0.00000000  1
  H  H53  1  0.66483047  0.00000000  0.85185301  1
  H  H54  1  0.00000000  0.85185301  0.66483047  1
  H  H55  1  0.85185301  0.00000000  0.66483047  1
  H  H56  1  0.66483047  0.85185301  0.00000000  1
  H  H57  1  0.00000000  0.66483047  0.85185301  1
  H  H58  1  0.36717710  0.16652277  0.83347723  1
  H  H59  1  0.16652277  0.16652277  0.63282290  1
  H  H60  1  0.16652277  0.36717710  0.83347723  1
  H  H61  1  0.36717710  0.83347723  0.16652277  1
  H  H62  1  0.16652277  0.83347723  0.36717710  1
  H  H63  1  0.16652277  0.63282290  0.16652277  1
  H  H64  1  0.63282290  0.16652277  0.16652277  1
  H  H65  1  0.83347723  0.16652277  0.36717710  1
  H  H66  1  0.83347723  0.36717710  0.16652277  1
  H  H67  1  0.63282290  0.83347723  0.83347723  1
  H  H68  1  0.83347723  0.83347723  0.63282290  1
  H  H69  1  0.83347723  0.63282290  0.83347723  1
  H  H70  1  0.63282290  0.83347723  0.16652277  1
  H  H71  1  0.83347723  0.83347723  0.36717710  1
  H  H72  1  0.83347723  0.63282290  0.16652277  1
  H  H73  1  0.63282290  0.16652277  0.83347723  1
  H  H74  1  0.83347723  0.16652277  0.63282290  1
  H  H75  1  0.83347723  0.36717710  0.83347723  1
  H  H76  1  0.36717710  0.83347723  0.83347723  1
  H  H77  1  0.16652277  0.83347723  0.63282290  1
  H  H78  1  0.16652277  0.63282290  0.83347723  1
  H  H79  1  0.36717710  0.16652277  0.16652277  1
  H  H80  1  0.16652277  0.16652277  0.36717710  1
  H  H81  1  0.16652277  0.36717710  0.16652277  1
  Pb  Pb82  1  0.50000000  0.50000000  0.77618899  1
  Pb  Pb83  1  0.50000000  0.22381101  0.50000000  1
  Pb  Pb84  1  0.22381101  0.50000000  0.50000000  1
  Pb  Pb85  1  0.50000000  0.50000000  0.22381101  1
  Pb  Pb86  1  0.50000000  0.77618899  0.50000000  1
  Pb  Pb87  1  0.77618899  0.50000000  0.50000000  1
  Pb  Pb88  1  0.30383457  0.30383457  0.69616543  1
  Pb  Pb89  1  0.30383457  0.69616543  0.30383457  1
  Pb  Pb90  1  0.69616543  0.30383457  0.30383457  1
  Pb  Pb91  1  0.69616543  0.69616543  0.69616543  1
  Pb  Pb92  1  0.69616543  0.69616543  0.30383457  1
  Pb  Pb93  1  0.69616543  0.30383457  0.69616543  1
  Pb  Pb94  1  0.30383457  0.69616543  0.69616543  1
  Pb  Pb95  1  0.30383457  0.30383457  0.30383457  1
  Pb  Pb96  1  0.00000000  0.50000000  0.72483288  1
  Pb  Pb97  1  0.50000000  0.27516712  0.00000000  1
  Pb  Pb98  1  0.27516712  0.00000000  0.50000000  1
  Pb  Pb99  1  0.00000000  0.27516712  0.50000000  1
  Pb  Pb100  1  0.50000000  0.00000000  0.72483288  1
  Pb  Pb101  1  0.27516712  0.50000000  0.00000000  1
  Pb  Pb102  1  0.00000000  0.50000000  0.27516712  1
  Pb  Pb103  1  0.50000000  0.72483288  0.00000000  1
  Pb  Pb104  1  0.00000000  0.72483288  0.50000000  1
  Pb  Pb105  1  0.50000000  0.00000000  0.27516712  1
  Pb  Pb106  1  0.72483288  0.00000000  0.50000000  1
  Pb  Pb107  1  0.72483288  0.50000000  0.00000000  1
  Cl  Cl108  1  0.12082746  0.12082746  0.87917254  1
  Cl  Cl109  1  0.12082746  0.87917254  0.12082746  1
  Cl  Cl110  1  0.87917254  0.12082746  0.12082746  1
  Cl  Cl111  1  0.87917254  0.87917254  0.87917254  1
  Cl  Cl112  1  0.87917254  0.87917254  0.12082746  1
  Cl  Cl113  1  0.87917254  0.12082746  0.87917254  1
  Cl  Cl114  1  0.12082746  0.87917254  0.87917254  1
  Cl  Cl115  1  0.12082746  0.12082746  0.12082746  1
  Cl  Cl116  1  0.12126639  0.38568877  0.61431123  1
  Cl  Cl117  1  0.38568877  0.38568877  0.87873361  1
  Cl  Cl118  1  0.38568877  0.12126639  0.61431123  1
  Cl  Cl119  1  0.12126639  0.61431123  0.38568877  1
  Cl  Cl120  1  0.38568877  0.61431123  0.12126639  1
  Cl  Cl121  1  0.38568877  0.87873361  0.38568877  1
  Cl  Cl122  1  0.87873361  0.38568877  0.38568877  1
  Cl  Cl123  1  0.61431123  0.38568877  0.12126639  1
  Cl  Cl124  1  0.61431123  0.12126639  0.38568877  1
  Cl  Cl125  1  0.87873361  0.61431123  0.61431123  1
  Cl  Cl126  1  0.61431123  0.61431123  0.87873361  1
  Cl  Cl127  1  0.61431123  0.87873361  0.61431123  1
  Cl  Cl128  1  0.87873361  0.61431123  0.38568877  1
  Cl  Cl129  1  0.61431123  0.61431123  0.12126639  1
  Cl  Cl130  1  0.61431123  0.87873361  0.38568877  1
  Cl  Cl131  1  0.87873361  0.38568877  0.61431123  1
  Cl  Cl132  1  0.61431123  0.38568877  0.87873361  1
  Cl  Cl133  1  0.61431123  0.12126639  0.61431123  1
  Cl  Cl134  1  0.12126639  0.61431123  0.61431123  1
  Cl  Cl135  1  0.38568877  0.61431123  0.87873361  1
  Cl  Cl136  1  0.38568877  0.87873361  0.61431123  1
  Cl  Cl137  1  0.12126639  0.38568877  0.38568877  1
  Cl  Cl138  1  0.38568877  0.38568877  0.12126639  1
  Cl  Cl139  1  0.38568877  0.12126639  0.38568877  1
  Cl  Cl140  1  0.00000000  0.33227094  0.00000000  1
  Cl  Cl141  1  0.33227094  0.00000000  0.00000000  1
  Cl  Cl142  1  0.00000000  0.00000000  0.66772906  1
  Cl  Cl143  1  0.00000000  0.66772906  0.00000000  1
  Cl  Cl144  1  0.00000000  0.00000000  0.33227094  1
  Cl  Cl145  1  0.66772906  0.00000000  0.00000000  1
  Cl  Cl146  1  0.13278925  0.50000000  0.86721075  1
  Cl  Cl147  1  0.50000000  0.13278925  0.86721075  1
  Cl  Cl148  1  0.13278925  0.13278925  0.50000000  1
  Cl  Cl149  1  0.13278925  0.50000000  0.13278925  1
  Cl  Cl150  1  0.50000000  0.86721075  0.13278925  1
  Cl  Cl151  1  0.13278925  0.86721075  0.50000000  1
  Cl  Cl152  1  0.86721075  0.50000000  0.13278925  1
  Cl  Cl153  1  0.50000000  0.13278925  0.13278925  1
  Cl  Cl154  1  0.86721075  0.13278925  0.50000000  1
  Cl  Cl155  1  0.86721075  0.50000000  0.86721075  1
  Cl  Cl156  1  0.50000000  0.86721075  0.86721075  1
  Cl  Cl157  1  0.86721075  0.86721075  0.50000000  1
  Cl  Cl158  1  0.33170997  0.50000000  0.66829003  1
  Cl  Cl159  1  0.50000000  0.33170997  0.66829003  1
  Cl  Cl160  1  0.33170997  0.33170997  0.50000000  1
  Cl  Cl161  1  0.33170997  0.50000000  0.33170997  1
  Cl  Cl162  1  0.50000000  0.66829003  0.33170997  1
  Cl  Cl163  1  0.33170997  0.66829003  0.50000000  1
  Cl  Cl164  1  0.66829003  0.50000000  0.33170997  1
  Cl  Cl165  1  0.50000000  0.33170997  0.33170997  1
  Cl  Cl166  1  0.66829003  0.33170997  0.50000000  1
  Cl  Cl167  1  0.66829003  0.50000000  0.66829003  1
  Cl  Cl168  1  0.50000000  0.66829003  0.66829003  1
  Cl  Cl169  1  0.66829003  0.66829003  0.50000000  1
  O  O170  1  0.21176877  0.33079710  0.00000000  1
  O  O171  1  0.33079710  0.00000000  0.78823123  1
  O  O172  1  0.00000000  0.21176877  0.66920290  1
  O  O173  1  0.21176877  0.00000000  0.66920290  1
  O  O174  1  0.33079710  0.21176877  0.00000000  1
  O  O175  1  0.00000000  0.33079710  0.78823123  1
  O  O176  1  0.21176877  0.66920290  0.00000000  1
  O  O177  1  0.33079710  0.00000000  0.21176877  1
  O  O178  1  0.00000000  0.78823123  0.33079710  1
  O  O179  1  0.21176877  0.00000000  0.33079710  1
  O  O180  1  0.33079710  0.78823123  0.00000000  1
  O  O181  1  0.00000000  0.66920290  0.21176877  1
  O  O182  1  0.78823123  0.33079710  0.00000000  1
  O  O183  1  0.66920290  0.00000000  0.21176877  1
  O  O184  1  0.00000000  0.21176877  0.33079710  1
  O  O185  1  0.78823123  0.00000000  0.33079710  1
  O  O186  1  0.66920290  0.21176877  0.00000000  1
  O  O187  1  0.00000000  0.33079710  0.21176877  1
  O  O188  1  0.78823123  0.66920290  0.00000000  1
  O  O189  1  0.66920290  0.00000000  0.78823123  1
  O  O190  1  0.00000000  0.78823123  0.66920290  1
  O  O191  1  0.78823123  0.00000000  0.66920290  1
  O  O192  1  0.66920290  0.78823123  0.00000000  1
  O  O193  1  0.00000000  0.66920290  0.78823123  1
  O  O194  1  0.30960786  0.18619638  0.81380362  1
  O  O195  1  0.18619638  0.18619638  0.69039214  1
  O  O196  1  0.18619638  0.30960786  0.81380362  1
  O  O197  1  0.30960786  0.81380362  0.18619638  1
  O  O198  1  0.18619638  0.81380362  0.30960786  1
  O  O199  1  0.18619638  0.69039214  0.18619638  1
  O  O200  1  0.69039214  0.18619638  0.18619638  1
  O  O201  1  0.81380362  0.18619638  0.30960786  1
  O  O202  1  0.81380362  0.30960786  0.18619638  1
  O  O203  1  0.69039214  0.81380362  0.81380362  1
  O  O204  1  0.81380362  0.81380362  0.69039214  1
  O  O205  1  0.81380362  0.69039214  0.81380362  1
  O  O206  1  0.69039214  0.81380362  0.18619638  1
  O  O207  1  0.81380362  0.81380362  0.30960786  1
  O  O208  1  0.81380362  0.69039214  0.18619638  1
  O  O209  1  0.69039214  0.18619638  0.81380362  1
  O  O210  1  0.81380362  0.18619638  0.69039214  1
  O  O211  1  0.81380362  0.30960786  0.81380362  1
  O  O212  1  0.30960786  0.81380362  0.81380362  1
  O  O213  1  0.18619638  0.81380362  0.69039214  1
  O  O214  1  0.18619638  0.69039214  0.81380362  1
  O  O215  1  0.30960786  0.18619638  0.18619638  1
  O  O216  1  0.18619638  0.18619638  0.30960786  1
  O  O217  1  0.18619638  0.30960786  0.18619638  1
