# generated using pymatgen
data_Na2Fe(SO5)2
_symmetry_space_group_name_H-M   'P 1'
_cell_length_a   7.03535400
_cell_length_b   7.39968200
_cell_length_c   16.32962300
_cell_angle_alpha   90.00000000
_cell_angle_beta   90.00000000
_cell_angle_gamma   90.00000000
_symmetry_Int_Tables_number   1
_chemical_formula_structural   Na2Fe(SO5)2
_chemical_formula_sum   'Na8 Fe4 S8 O40'
_cell_volume   850.11008751
_cell_formula_units_Z   4
loop_
 _symmetry_equiv_pos_site_id
 _symmetry_equiv_pos_as_xyz
  1  'x, y, z'
loop_
 _atom_site_type_symbol
 _atom_site_label
 _atom_site_symmetry_multiplicity
 _atom_site_fract_x
 _atom_site_fract_y
 _atom_site_fract_z
 _atom_site_occupancy
  Na  Na0  1  0.50948300  0.93896600  0.65822900  1
  Na  Na1  1  0.99051700  0.56103400  0.15822900  1
  Na  Na2  1  0.00948300  0.06103400  0.34177100  1
  Na  Na3  1  0.49051700  0.43896600  0.84177100  1
  Na  Na4  1  0.49051700  0.06103400  0.34177100  1
  Na  Na5  1  0.00948300  0.43896600  0.84177100  1
  Na  Na6  1  0.99051700  0.93896600  0.65822900  1
  Na  Na7  1  0.50948300  0.56103400  0.15822900  1
  Fe  Fe8  1  0.00000000  0.50000000  0.50000000  1
  Fe  Fe9  1  0.50000000  0.00000000  0.00000000  1
  Fe  Fe10  1  0.50000000  0.50000000  0.50000000  1
  Fe  Fe11  1  0.00000000  0.00000000  0.00000000  1
  S  S12  1  0.75000000  0.51342700  0.66486400  1
  S  S13  1  0.75000000  0.98657300  0.16486400  1
  S  S14  1  0.25000000  0.48657300  0.33513600  1
  S  S15  1  0.25000000  0.01342700  0.83513600  1
  S  S16  1  0.25000000  0.86799800  0.51035000  1
  S  S17  1  0.25000000  0.63200200  0.01035000  1
  S  S18  1  0.75000000  0.13200200  0.48965000  1
  S  S19  1  0.75000000  0.36799800  0.98965000  1
  O  O20  1  0.75000000  0.71041500  0.67756600  1
  O  O21  1  0.75000000  0.78958500  0.17756600  1
  O  O22  1  0.25000000  0.28958500  0.32243400  1
  O  O23  1  0.25000000  0.21041500  0.82243400  1
  O  O24  1  0.75000000  0.41976400  0.74600800  1
  O  O25  1  0.75000000  0.08023600  0.24600800  1
  O  O26  1  0.25000000  0.58023600  0.25399200  1
  O  O27  1  0.25000000  0.91976400  0.75399200  1
  O  O28  1  0.92598500  0.45427600  0.62025700  1
  O  O29  1  0.57401500  0.04572400  0.12025700  1
  O  O30  1  0.42598500  0.54572400  0.37974300  1
  O  O31  1  0.07401500  0.95427600  0.87974300  1
  O  O32  1  0.07401500  0.54572400  0.37974300  1
  O  O33  1  0.42598500  0.95427600  0.87974300  1
  O  O34  1  0.57401500  0.45427600  0.62025700  1
  O  O35  1  0.92598500  0.04572400  0.12025700  1
  O  O36  1  0.42580900  0.75641100  0.52901000  1
  O  O37  1  0.07419100  0.74358900  0.02901000  1
  O  O38  1  0.92580900  0.24358900  0.47099000  1
  O  O39  1  0.57419100  0.25641100  0.97099000  1
  O  O40  1  0.57419100  0.24358900  0.47099000  1
  O  O41  1  0.92580900  0.25641100  0.97099000  1
  O  O42  1  0.07419100  0.75641100  0.52901000  1
  O  O43  1  0.42580900  0.74358900  0.02901000  1
  O  O44  1  0.25000000  0.01643200  0.56999600  1
  O  O45  1  0.25000000  0.48356800  0.06999600  1
  O  O46  1  0.75000000  0.98356800  0.43000400  1
  O  O47  1  0.75000000  0.51643200  0.93000400  1
  O  O48  1  0.75000000  0.07350800  0.57506400  1
  O  O49  1  0.75000000  0.42649200  0.07506400  1
  O  O50  1  0.25000000  0.92649200  0.42493600  1
  O  O51  1  0.25000000  0.57350800  0.92493600  1
  O  O52  1  0.25000000  0.42499600  0.51959600  1
  O  O53  1  0.25000000  0.07500400  0.01959600  1
  O  O54  1  0.75000000  0.57500400  0.48040400  1
  O  O55  1  0.75000000  0.92499600  0.98040400  1
  O  O56  1  0.75000000  0.09766700  0.74454900  1
  O  O57  1  0.75000000  0.40233300  0.24454900  1
  O  O58  1  0.25000000  0.90233300  0.25545100  1
  O  O59  1  0.25000000  0.59766700  0.75545100  1
