# generated using pymatgen
data_CaC2O5
_symmetry_space_group_name_H-M   'P 1'
_cell_length_a   5.71460002
_cell_length_b   9.91576372
_cell_length_c   18.25943100
_cell_angle_alpha   90.00000000
_cell_angle_beta   90.00000000
_cell_angle_gamma   97.41317236
_symmetry_Int_Tables_number   1
_chemical_formula_structural   CaC2O5
_chemical_formula_sum   'Ca8 C16 O40'
_cell_volume   1026.01557318
_cell_formula_units_Z   8
loop_
 _symmetry_equiv_pos_site_id
 _symmetry_equiv_pos_as_xyz
  1  'x, y, z'
loop_
 _atom_site_type_symbol
 _atom_site_label
 _atom_site_symmetry_multiplicity
 _atom_site_fract_x
 _atom_site_fract_y
 _atom_site_fract_z
 _atom_site_occupancy
  Ca  Ca0  1  0.64920400  0.50039000  0.37522700  1
  Ca  Ca1  1  0.14920400  0.00039000  0.12477300  1
  Ca  Ca2  1  0.35079600  0.49961100  0.62477300  1
  Ca  Ca3  1  0.85079600  0.99961100  0.87522700  1
  Ca  Ca4  1  0.87412500  0.99570800  0.37335800  1
  Ca  Ca5  1  0.37412500  0.49570800  0.12664200  1
  Ca  Ca6  1  0.12587500  0.00429200  0.62664200  1
  Ca  Ca7  1  0.62587500  0.50429200  0.87335800  1
  C  C8  1  0.72691100  0.75347800  0.74400500  1
  C  C9  1  0.22691100  0.25347800  0.75599500  1
  C  C10  1  0.27308900  0.24652200  0.25599500  1
  C  C11  1  0.77308900  0.74652200  0.24400500  1
  C  C12  1  0.73993800  0.75371400  0.00808900  1
  C  C13  1  0.23993800  0.25371400  0.49191100  1
  C  C14  1  0.26006200  0.24628600  0.99191100  1
  C  C15  1  0.76006200  0.74628600  0.50808900  1
  C  C16  1  0.18263600  0.67619700  0.37523000  1
  C  C17  1  0.68263600  0.17619700  0.12477000  1
  C  C18  1  0.81736400  0.32380300  0.62477000  1
  C  C19  1  0.31736400  0.82380300  0.87523000  1
  C  C20  1  0.34025700  0.81862800  0.37980700  1
  C  C21  1  0.84025700  0.31862800  0.12019300  1
  C  C22  1  0.65974300  0.18137200  0.62019300  1
  C  C23  1  0.15974300  0.68137200  0.87980700  1
  O  O24  1  0.66687900  0.63685900  0.24259900  1
  O  O25  1  0.16687900  0.13685900  0.25740100  1
  O  O26  1  0.33312100  0.36314100  0.75740100  1
  O  O27  1  0.83312100  0.86314100  0.74259900  1
  O  O28  1  0.36308600  0.35659300  0.98827100  1
  O  O29  1  0.86308600  0.85659300  0.51172900  1
  O  O30  1  0.63691400  0.64340700  0.01172900  1
  O  O31  1  0.13691400  0.14340700  0.48827100  1
  O  O32  1  0.12513000  0.14244300  0.75607400  1
  O  O33  1  0.62513000  0.64244300  0.74392600  1
  O  O34  1  0.87487000  0.85755700  0.24392600  1
  O  O35  1  0.37487000  0.35755700  0.25607400  1
  O  O36  1  0.84660500  0.86330100  0.00621400  1
  O  O37  1  0.34660500  0.36330100  0.49378600  1
  O  O38  1  0.15339500  0.13669900  0.99378600  1
  O  O39  1  0.65339500  0.63669900  0.50621400  1
  O  O40  1  0.71767300  0.42940800  0.62892000  1
  O  O41  1  0.21767300  0.92940800  0.87108000  1
  O  O42  1  0.28232700  0.57059200  0.37108000  1
  O  O43  1  0.78232700  0.07059200  0.12892000  1
  O  O44  1  0.96050800  0.67840800  0.37619300  1
  O  O45  1  0.46050800  0.17840800  0.12380700  1
  O  O46  1  0.03949200  0.32159200  0.62380700  1
  O  O47  1  0.53949200  0.82159200  0.87619300  1
  O  O48  1  0.56219200  0.81693700  0.37568200  1
  O  O49  1  0.06219200  0.31693700  0.12431800  1
  O  O50  1  0.43780800  0.18306300  0.62431800  1
  O  O51  1  0.93780800  0.68306300  0.87568200  1
  O  O52  1  0.23976800  0.92335000  0.38740500  1
  O  O53  1  0.73976800  0.42335000  0.11259500  1
  O  O54  1  0.76023200  0.07665000  0.61259500  1
  O  O55  1  0.26023200  0.57665000  0.88740500  1
  O  O56  1  0.72894100  0.17280900  0.35878600  1
  O  O57  1  0.22894100  0.67280900  0.14121400  1
  O  O58  1  0.27105900  0.82719100  0.64121400  1
  O  O59  1  0.77105900  0.32719100  0.85878600  1
  O  O60  1  0.76421300  0.31421600  0.37857200  1
  O  O61  1  0.26421300  0.81421600  0.12142800  1
  O  O62  1  0.23578700  0.68578400  0.62142800  1
  O  O63  1  0.73578700  0.18578400  0.87857200  1
