# generated using pymatgen
data_FeH12N3(OF2)3
_symmetry_space_group_name_H-M   'P 1'
_cell_length_a   7.75090879
_cell_length_b   7.75090669
_cell_length_c   7.75090695
_cell_angle_alpha   95.99407097
_cell_angle_beta   95.99438204
_cell_angle_gamma   95.99438858
_symmetry_Int_Tables_number   1
_chemical_formula_structural   FeH12N3(OF2)3
_chemical_formula_sum   'Fe2 H24 N6 O6 F12'
_cell_volume   457.42790097
_cell_formula_units_Z   2
loop_
 _symmetry_equiv_pos_site_id
 _symmetry_equiv_pos_as_xyz
  1  'x, y, z'
loop_
 _atom_site_type_symbol
 _atom_site_label
 _atom_site_symmetry_multiplicity
 _atom_site_fract_x
 _atom_site_fract_y
 _atom_site_fract_z
 _atom_site_occupancy
  Fe  Fe0  1  0.78934500  0.78933700  0.78933300  1
  Fe  Fe1  1  0.28934500  0.28933300  0.28933700  1
  H  H2  1  0.43631700  0.64492300  0.86181600  1
  H  H3  1  0.64491700  0.86181600  0.43632200  1
  H  H4  1  0.86181200  0.43632000  0.64492300  1
  H  H5  1  0.93631700  0.36181600  0.14492300  1
  H  H6  1  0.36181200  0.14492300  0.93632000  1
  H  H7  1  0.14491700  0.93632200  0.36181600  1
  H  H8  1  0.33681500  0.85940700  0.06148700  1
  H  H9  1  0.85940300  0.06148900  0.33682000  1
  H  H10  1  0.06148400  0.33681900  0.85940700  1
  H  H11  1  0.83681500  0.56148700  0.35940700  1
  H  H12  1  0.56148400  0.35940700  0.83681900  1
  H  H13  1  0.35940300  0.83682000  0.56148900  1
  H  H14  1  0.14744500  0.72397100  0.03183900  1
  H  H15  1  0.72396600  0.03183800  0.14745000  1
  H  H16  1  0.03183200  0.14745000  0.72397100  1
  H  H17  1  0.64744500  0.53183900  0.22397100  1
  H  H18  1  0.53183200  0.22397100  0.64745000  1
  H  H19  1  0.22396600  0.64745000  0.53183800  1
  H  H20  1  0.33675200  0.65140300  0.12103900  1
  H  H21  1  0.65139900  0.12103800  0.33675800  1
  H  H22  1  0.12103400  0.33675700  0.65140200  1
  H  H23  1  0.83675200  0.62103900  0.15140300  1
  H  H24  1  0.62103400  0.15140200  0.83675700  1
  H  H25  1  0.15139900  0.83675800  0.62103800  1
  N  N26  1  0.28385300  0.72929300  0.03207900  1
  N  N27  1  0.72928800  0.03207900  0.28385900  1
  N  N28  1  0.03207300  0.28385600  0.72929400  1
  N  N29  1  0.78385300  0.53207900  0.22929300  1
  N  N30  1  0.53207300  0.22929400  0.78385600  1
  N  N31  1  0.22928800  0.78385900  0.53207900  1
  O  O32  1  0.30680100  0.66209900  0.85965200  1
  O  O33  1  0.66209600  0.85965100  0.30680600  1
  O  O34  1  0.85964500  0.30681000  0.66209900  1
  O  O35  1  0.80680100  0.35965200  0.16209900  1
  O  O36  1  0.35964500  0.16209900  0.80681000  1
  O  O37  1  0.16209600  0.80680600  0.35965100  1
  F  F38  1  0.61659500  0.60670800  0.85416100  1
  F  F39  1  0.60670400  0.85416400  0.61659700  1
  F  F40  1  0.85415900  0.61659900  0.60670700  1
  F  F41  1  0.11659500  0.35416100  0.10670800  1
  F  F42  1  0.35415900  0.10670700  0.11659900  1
  F  F43  1  0.10670400  0.11659700  0.35416400  1
  F  F44  1  0.98222600  0.93916400  0.71710800  1
  F  F45  1  0.93915900  0.71710900  0.98222800  1
  F  F46  1  0.71710000  0.98222300  0.93915900  1
  F  F47  1  0.48222600  0.21710800  0.43916400  1
  F  F48  1  0.21710000  0.43915900  0.48222300  1
  F  F49  1  0.43915900  0.48222800  0.21710900  1
