# generated using pymatgen
data_Tm2Zn17
_symmetry_space_group_name_H-M   'P 1'
_cell_length_a   9.00946700
_cell_length_b   9.00946699
_cell_length_c   8.69129900
_cell_angle_alpha   90.00000000
_cell_angle_beta   90.00000000
_cell_angle_gamma   120.00000370
_symmetry_Int_Tables_number   1
_chemical_formula_structural   Tm2Zn17
_chemical_formula_sum   'Tm4 Zn34'
_cell_volume   610.96102165
_cell_formula_units_Z   2
loop_
 _symmetry_equiv_pos_site_id
 _symmetry_equiv_pos_as_xyz
  1  'x, y, z'
loop_
 _atom_site_type_symbol
 _atom_site_label
 _atom_site_symmetry_multiplicity
 _atom_site_fract_x
 _atom_site_fract_y
 _atom_site_fract_z
 _atom_site_occupancy
  Tm  Tm0  1  0.00000000  0.00000000  0.25000000  1
  Tm  Tm1  1  0.00000000  0.00000000  0.75000000  1
  Tm  Tm2  1  0.33333300  0.66666700  0.75000000  1
  Tm  Tm3  1  0.66666700  0.33333300  0.25000000  1
  Zn  Zn4  1  0.33333300  0.66666700  0.40301600  1
  Zn  Zn5  1  0.66666700  0.33333300  0.59698400  1
  Zn  Zn6  1  0.66666700  0.33333300  0.90301600  1
  Zn  Zn7  1  0.33333300  0.66666700  0.09698400  1
  Zn  Zn8  1  0.50000000  0.50000000  0.50000000  1
  Zn  Zn9  1  0.50000000  0.00000000  0.50000000  1
  Zn  Zn10  1  0.00000000  0.50000000  0.50000000  1
  Zn  Zn11  1  0.50000000  0.50000000  0.00000000  1
  Zn  Zn12  1  0.50000000  0.00000000  0.00000000  1
  Zn  Zn13  1  0.00000000  0.50000000  0.00000000  1
  Zn  Zn14  1  0.32938900  0.36036800  0.25000000  1
  Zn  Zn15  1  0.63963200  0.96902100  0.25000000  1
  Zn  Zn16  1  0.03097900  0.67061100  0.25000000  1
  Zn  Zn17  1  0.63963200  0.67061100  0.25000000  1
  Zn  Zn18  1  0.03097900  0.36036800  0.25000000  1
  Zn  Zn19  1  0.32938900  0.96902100  0.25000000  1
  Zn  Zn20  1  0.67061100  0.63963200  0.75000000  1
  Zn  Zn21  1  0.36036800  0.03097900  0.75000000  1
  Zn  Zn22  1  0.96902100  0.32938900  0.75000000  1
  Zn  Zn23  1  0.36036800  0.32938900  0.75000000  1
  Zn  Zn24  1  0.96902100  0.63963200  0.75000000  1
  Zn  Zn25  1  0.67061100  0.03097900  0.75000000  1
  Zn  Zn26  1  0.16148800  0.83851200  0.51680100  1
  Zn  Zn27  1  0.16148800  0.32297700  0.51680100  1
  Zn  Zn28  1  0.67702300  0.83851200  0.51680100  1
  Zn  Zn29  1  0.83851200  0.16148800  0.48319900  1
  Zn  Zn30  1  0.83851200  0.67702300  0.48319900  1
  Zn  Zn31  1  0.32297700  0.16148800  0.48319900  1
  Zn  Zn32  1  0.83851200  0.16148800  0.01680100  1
  Zn  Zn33  1  0.83851200  0.67702300  0.01680100  1
  Zn  Zn34  1  0.32297700  0.16148800  0.01680100  1
  Zn  Zn35  1  0.16148800  0.83851200  0.98319900  1
  Zn  Zn36  1  0.16148800  0.32297700  0.98319900  1
  Zn  Zn37  1  0.67702300  0.83851200  0.98319900  1
