# generated using pymatgen
data_MoP4H36(C6Cl)2
_symmetry_space_group_name_H-M   'P 1'
_cell_length_a   9.48071021
_cell_length_b   9.48071021
_cell_length_c   9.48071021
_cell_angle_alpha   117.18754299
_cell_angle_beta   117.18754299
_cell_angle_gamma   94.94451056
_symmetry_Int_Tables_number   1
_chemical_formula_structural   MoP4H36(C6Cl)2
_chemical_formula_sum   'Mo1 P4 H36 C12 Cl2'
_cell_volume   625.66450818
_cell_formula_units_Z   1
loop_
 _symmetry_equiv_pos_site_id
 _symmetry_equiv_pos_as_xyz
  1  'x, y, z'
loop_
 _atom_site_type_symbol
 _atom_site_label
 _atom_site_symmetry_multiplicity
 _atom_site_fract_x
 _atom_site_fract_y
 _atom_site_fract_z
 _atom_site_occupancy
  Mo  Mo0  1  0.00000000  0.00000000  0.00000000  1
  P  P1  1  0.14482600  0.14482600  0.35497800  1
  P  P2  1  0.78984800  0.78984800  0.64502200  1
  P  P3  1  0.21015200  0.85517400  0.00000000  1
  P  P4  1  0.85517400  0.21015200  0.00000000  1
  H  H5  1  0.25373500  0.08730000  0.60450600  1
  H  H6  1  0.48279400  0.64922900  0.39549400  1
  H  H7  1  0.51720600  0.91270000  0.16643500  1
  H  H8  1  0.74626500  0.35077100  0.83356500  1
  H  H9  1  0.35077100  0.74626500  0.83356500  1
  H  H10  1  0.91270000  0.51720600  0.16643500  1
  H  H11  1  0.08730000  0.25373500  0.60450600  1
  H  H12  1  0.64922900  0.48279400  0.39549400  1
  H  H13  1  0.10474300  0.89720800  0.37009300  1
  H  H14  1  0.52711500  0.73465000  0.62990700  1
  H  H15  1  0.47288500  0.10279200  0.20753500  1
  H  H16  1  0.89525700  0.26535000  0.79246500  1
  H  H17  1  0.26535000  0.89525700  0.79246500  1
  H  H18  1  0.10279200  0.47288500  0.20753500  1
  H  H19  1  0.89720800  0.10474300  0.37009300  1
  H  H20  1  0.73465000  0.52711500  0.62990700  1
  H  H21  1  0.31929900  0.98696600  0.44552900  1
  H  H22  1  0.54143700  0.87377000  0.55447100  1
  H  H23  1  0.45856300  0.01303400  0.33233300  1
  H  H24  1  0.68070100  0.12623000  0.66766700  1
  H  H25  1  0.12623000  0.68070100  0.66766700  1
  H  H26  1  0.01303400  0.45856300  0.33233300  1
  H  H27  1  0.98696600  0.31929900  0.44552900  1
  H  H28  1  0.87377000  0.54143700  0.55447100  1
  H  H29  1  0.44021500  0.31302700  0.50239900  1
  H  H30  1  0.81062800  0.93781600  0.49760100  1
  H  H31  1  0.18937200  0.68697300  0.12718700  1
  H  H32  1  0.55978500  0.06218400  0.87281300  1
  H  H33  1  0.06218400  0.55978500  0.87281300  1
  H  H34  1  0.68697300  0.18937200  0.12718700  1
  H  H35  1  0.31302700  0.44021500  0.50239900  1
  H  H36  1  0.93781600  0.81062800  0.49760100  1
  H  H37  1  0.38449600  0.38449600  0.67319300  1
  H  H38  1  0.71130400  0.71130400  0.32680700  1
  H  H39  1  0.28869600  0.61550400  0.00000000  1
  H  H40  1  0.61550400  0.28869600  0.00000000  1
  C  C41  1  0.21324800  0.01673900  0.45404000  1
  C  C42  1  0.56269800  0.75920700  0.54596000  1
  C  C43  1  0.43730200  0.98326100  0.19650900  1
  C  C44  1  0.78675200  0.24079300  0.80349100  1
  C  C45  1  0.24079300  0.78675200  0.80349100  1
  C  C46  1  0.98326100  0.43730200  0.19650900  1
  C  C47  1  0.01673900  0.21324800  0.45404000  1
  C  C48  1  0.75920700  0.56269800  0.54596000  1
  C  C49  1  0.33933200  0.33933200  0.52528500  1
  C  C50  1  0.81404600  0.81404600  0.47471500  1
  C  C51  1  0.18595400  0.66066800  0.00000000  1
  C  C52  1  0.66066800  0.18595400  0.00000000  1
  Cl  Cl53  1  0.80660300  0.80660300  0.00000000  1
  Cl  Cl54  1  0.19339700  0.19339700  0.00000000  1
