# generated using pymatgen
data_K3GaTe2O11
_symmetry_space_group_name_H-M   'P 1'
_cell_length_a   7.34917500
_cell_length_b   7.39602541
_cell_length_c   11.48164188
_cell_angle_alpha   77.34724639
_cell_angle_beta   81.64551739
_cell_angle_gamma   61.12973475
_symmetry_Int_Tables_number   1
_chemical_formula_structural   K3GaTe2O11
_chemical_formula_sum   'K6 Ga2 Te4 O22'
_cell_volume   532.67416682
_cell_formula_units_Z   2
loop_
 _symmetry_equiv_pos_site_id
 _symmetry_equiv_pos_as_xyz
  1  'x, y, z'
loop_
 _atom_site_type_symbol
 _atom_site_label
 _atom_site_symmetry_multiplicity
 _atom_site_fract_x
 _atom_site_fract_y
 _atom_site_fract_z
 _atom_site_occupancy
  K  K0  1  0.86882200  0.56714700  0.83377900  1
  K  K1  1  0.13117800  0.43285300  0.16622100  1
  K  K2  1  0.41951900  0.50207800  0.83475600  1
  K  K3  1  0.58048100  0.49792200  0.16524400  1
  K  K4  1  0.58360800  0.83366100  0.38232700  1
  K  K5  1  0.41639200  0.16633900  0.61767300  1
  Ga  Ga6  1  0.95361000  0.05194400  0.74912400  1
  Ga  Ga7  1  0.04639000  0.94805600  0.25087600  1
  Te  Te8  1  0.11418100  0.75693100  0.53740800  1
  Te  Te9  1  0.88581900  0.24306900  0.46259200  1
  Te  Te10  1  0.78593100  0.99144400  0.02668100  1
  Te  Te11  1  0.21406900  0.00855600  0.97331900  1
  O  O12  1  0.82860100  0.99358600  0.49691500  1
  O  O13  1  0.17139900  0.00641400  0.50308500  1
  O  O14  1  0.01502900  0.55007000  0.58258400  1
  O  O15  1  0.98497100  0.44993000  0.41741600  1
  O  O16  1  0.82021300  0.27385100  0.62779800  1
  O  O17  1  0.17978700  0.72614900  0.37220200  1
  O  O18  1  0.06166600  0.78691000  0.70730200  1
  O  O19  1  0.93833400  0.21309000  0.29269800  1
  O  O20  1  0.39825000  0.56250600  0.58150700  1
  O  O21  1  0.60175000  0.43749400  0.41849300  1
  O  O22  1  0.90643500  0.19141800  0.01758800  1
  O  O23  1  0.09356500  0.80858200  0.98241200  1
  O  O24  1  0.15006000  0.10192000  0.80348900  1
  O  O25  1  0.84994000  0.89808000  0.19651100  1
  O  O26  1  0.74106700  0.75177600  0.04133600  1
  O  O27  1  0.25893300  0.24822400  0.95866400  1
  O  O28  1  0.73053900  0.08410600  0.85809500  1
  O  O29  1  0.26946100  0.91589400  0.14190500  1
  O  O30  1  0.51581600  0.20549800  0.06910100  1
  O  O31  1  0.48418400  0.79450200  0.93089900  1
  O  O32  1  0.37541000  0.30419600  0.36974900  1
  O  O33  1  0.62459000  0.69580400  0.63025100  1
