# generated using pymatgen
data_Mg14ZnFeO16
_symmetry_space_group_name_H-M   'P 1'
_cell_length_a   4.28254400
_cell_length_b   8.50506300
_cell_length_c   8.56149400
_cell_angle_alpha   90.00000000
_cell_angle_beta   90.00000000
_cell_angle_gamma   90.00000000
_symmetry_Int_Tables_number   1
_chemical_formula_structural   Mg14ZnFeO16
_chemical_formula_sum   'Mg14 Zn1 Fe1 O16'
_cell_volume   311.83792023
_cell_formula_units_Z   1
loop_
 _symmetry_equiv_pos_site_id
 _symmetry_equiv_pos_as_xyz
  1  'x, y, z'
loop_
 _atom_site_type_symbol
 _atom_site_label
 _atom_site_symmetry_multiplicity
 _atom_site_fract_x
 _atom_site_fract_y
 _atom_site_fract_z
 _atom_site_occupancy
  Mg  Mg0  1  0.00000000  0.00000000  0.50000000  1
  Mg  Mg1  1  0.00000000  0.50000000  0.50000000  1
  Mg  Mg2  1  0.50000000  0.75028800  0.00000000  1
  Mg  Mg3  1  0.50000000  0.24971200  0.00000000  1
  Mg  Mg4  1  0.50000000  0.74961500  0.50000000  1
  Mg  Mg5  1  0.50000000  0.25038500  0.50000000  1
  Mg  Mg6  1  0.50000000  0.00000000  0.74992600  1
  Mg  Mg7  1  0.50000000  0.50000000  0.75051700  1
  Mg  Mg8  1  0.50000000  0.00000000  0.25007400  1
  Mg  Mg9  1  0.50000000  0.50000000  0.24948300  1
  Mg  Mg10  1  0.00000000  0.74998900  0.74881600  1
  Mg  Mg11  1  0.00000000  0.25001100  0.74881600  1
  Mg  Mg12  1  0.00000000  0.74998900  0.25118400  1
  Mg  Mg13  1  0.00000000  0.25001100  0.25118400  1
  Zn  Zn14  1  0.00000000  0.00000000  0.00000000  1
  Fe  Fe15  1  0.00000000  0.50000000  0.00000000  1
  O  O16  1  0.00000000  0.00000000  0.74648600  1
  O  O17  1  0.00000000  0.50000000  0.74325700  1
  O  O18  1  0.00000000  0.00000000  0.25351400  1
  O  O19  1  0.00000000  0.50000000  0.25674300  1
  O  O20  1  0.50000000  0.75051100  0.75109000  1
  O  O21  1  0.50000000  0.24948900  0.75109000  1
  O  O22  1  0.50000000  0.75051100  0.24891000  1
  O  O23  1  0.50000000  0.24948900  0.24891000  1
  O  O24  1  0.50000000  0.00000000  0.00000000  1
  O  O25  1  0.50000000  0.50000000  0.00000000  1
  O  O26  1  0.50000000  0.00000000  0.50000000  1
  O  O27  1  0.50000000  0.50000000  0.50000000  1
  O  O28  1  0.00000000  0.74827200  0.00000000  1
  O  O29  1  0.00000000  0.25172800  0.00000000  1
  O  O30  1  0.00000000  0.75068200  0.50000000  1
  O  O31  1  0.00000000  0.24931800  0.50000000  1
