# generated using pymatgen
data_ZnP2(H4O5)2
_symmetry_space_group_name_H-M   'P 1'
_cell_length_a   9.96088000
_cell_length_b   5.41524200
_cell_length_c   8.72307791
_cell_angle_alpha   56.74762458
_cell_angle_beta   90.00000000
_cell_angle_gamma   90.00000000
_symmetry_Int_Tables_number   1
_chemical_formula_structural   ZnP2(H4O5)2
_chemical_formula_sum   'Zn2 P4 H16 O20'
_cell_volume   393.48522639
_cell_formula_units_Z   2
loop_
 _symmetry_equiv_pos_site_id
 _symmetry_equiv_pos_as_xyz
  1  'x, y, z'
loop_
 _atom_site_type_symbol
 _atom_site_label
 _atom_site_symmetry_multiplicity
 _atom_site_fract_x
 _atom_site_fract_y
 _atom_site_fract_z
 _atom_site_occupancy
  Zn  Zn0  1  0.00000000  0.00000000  0.00000000  1
  Zn  Zn1  1  0.50000000  0.00000000  0.50000000  1
  P  P2  1  0.21606000  0.91154500  0.33210800  1
  P  P3  1  0.28394000  0.91154500  0.83210800  1
  P  P4  1  0.78394000  0.08845500  0.66789200  1
  P  P5  1  0.71606000  0.08845500  0.16789200  1
  H  H6  1  0.07854200  0.57954500  0.84102200  1
  H  H7  1  0.42145800  0.57954500  0.34102200  1
  H  H8  1  0.92145800  0.42045500  0.15897800  1
  H  H9  1  0.57854200  0.42045500  0.65897800  1
  H  H10  1  0.95462300  0.57116900  0.73420200  1
  H  H11  1  0.54537700  0.57116900  0.23420200  1
  H  H12  1  0.04537700  0.42883100  0.26579800  1
  H  H13  1  0.45462300  0.42883100  0.76579800  1
  H  H14  1  0.11371500  0.55186500  0.58677500  1
  H  H15  1  0.38628500  0.55186500  0.08677500  1
  H  H16  1  0.88628500  0.44813500  0.41322500  1
  H  H17  1  0.61371500  0.44813500  0.91322500  1
  H  H18  1  0.21825100  0.11611000  0.48782500  1
  H  H19  1  0.28174900  0.11611000  0.98782500  1
  H  H20  1  0.78174900  0.88389000  0.51217500  1
  H  H21  1  0.71825100  0.88389000  0.01217500  1
  O  O22  1  0.17260900  0.01994900  0.13703100  1
  O  O23  1  0.32739100  0.01994900  0.63703100  1
  O  O24  1  0.82739100  0.98005100  0.86296900  1
  O  O25  1  0.67260900  0.98005100  0.36296900  1
  O  O26  1  0.36735300  0.86733400  0.36251700  1
  O  O27  1  0.13264700  0.86733400  0.86251700  1
  O  O28  1  0.63264700  0.13266600  0.63748300  1
  O  O29  1  0.86735300  0.13266600  0.13748300  1
  O  O30  1  0.13757200  0.61174400  0.45962200  1
  O  O31  1  0.36242800  0.61174400  0.95962200  1
  O  O32  1  0.86242800  0.38825600  0.54037800  1
  O  O33  1  0.63757200  0.38825600  0.04037800  1
  O  O34  1  0.16562100  0.14265500  0.37842500  1
  O  O35  1  0.33437900  0.14265500  0.87842500  1
  O  O36  1  0.83437900  0.85734500  0.62157500  1
  O  O37  1  0.66562100  0.85734500  0.12157500  1
  O  O38  1  0.03896600  0.46211700  0.79455700  1
  O  O39  1  0.46103400  0.46211700  0.29455700  1
  O  O40  1  0.96103400  0.53788300  0.20544300  1
  O  O41  1  0.53896600  0.53788300  0.70544300  1
