# generated using pymatgen
data_H5CN5O6
_symmetry_space_group_name_H-M   'P 1'
_cell_length_a   5.59637000
_cell_length_b   8.36963103
_cell_length_c   14.85306926
_cell_angle_alpha   97.49995941
_cell_angle_beta   90.00000000
_cell_angle_gamma   90.00000000
_symmetry_Int_Tables_number   1
_chemical_formula_structural   H5CN5O6
_chemical_formula_sum   'H20 C4 N20 O24'
_cell_volume   689.75926943
_cell_formula_units_Z   4
loop_
 _symmetry_equiv_pos_site_id
 _symmetry_equiv_pos_as_xyz
  1  'x, y, z'
loop_
 _atom_site_type_symbol
 _atom_site_label
 _atom_site_symmetry_multiplicity
 _atom_site_fract_x
 _atom_site_fract_y
 _atom_site_fract_z
 _atom_site_occupancy
  H  H0  1  0.08584700  0.26353400  0.60454200  1
  H  H1  1  0.41415300  0.76353400  0.10454200  1
  H  H2  1  0.91415300  0.73646600  0.39545800  1
  H  H3  1  0.58584700  0.23646600  0.89545800  1
  H  H4  1  0.89918900  0.40718100  0.65618300  1
  H  H5  1  0.60081100  0.90718100  0.15618300  1
  H  H6  1  0.10081100  0.59281900  0.34381700  1
  H  H7  1  0.39918900  0.09281900  0.84381700  1
  H  H8  1  0.87370500  0.07282300  0.67444200  1
  H  H9  1  0.62629500  0.57282300  0.17444200  1
  H  H10  1  0.12629500  0.92717700  0.32555800  1
  H  H11  1  0.37370500  0.42717700  0.82555800  1
  H  H12  1  0.68322100  0.17236700  0.61652400  1
  H  H13  1  0.81677900  0.67236700  0.11652400  1
  H  H14  1  0.31677900  0.82763300  0.38347600  1
  H  H15  1  0.18322100  0.32763300  0.88347600  1
  H  H16  1  0.08722600  0.30781300  0.71928900  1
  H  H17  1  0.41277400  0.80781300  0.21928900  1
  H  H18  1  0.91277400  0.69218700  0.28071100  1
  H  H19  1  0.58722600  0.19218700  0.78071100  1
  C  C20  1  0.54225300  0.27814200  0.39752000  1
  C  C21  1  0.95774700  0.77814200  0.89752000  1
  C  C22  1  0.45774700  0.72185800  0.60248000  1
  C  C23  1  0.04225300  0.22185800  0.10248000  1
  N  N24  1  0.97710600  0.29652200  0.66120200  1
  N  N25  1  0.52289400  0.79652200  0.16120200  1
  N  N26  1  0.02289400  0.70347800  0.33879800  1
  N  N27  1  0.47710600  0.20347800  0.83879800  1
  N  N28  1  0.78970100  0.18144900  0.67339700  1
  N  N29  1  0.71029900  0.68144900  0.17339700  1
  N  N30  1  0.21029900  0.81855100  0.32660300  1
  N  N31  1  0.28970100  0.31855100  0.82660300  1
  N  N32  1  0.59884800  0.38463700  0.33727600  1
  N  N33  1  0.90115200  0.88463700  0.83727600  1
  N  N34  1  0.40115200  0.61536300  0.66272400  1
  N  N35  1  0.09884800  0.11536300  0.16272400  1
  N  N36  1  0.70439000  0.14012500  0.39743600  1
  N  N37  1  0.79561000  0.64012500  0.89743600  1
  N  N38  1  0.29561000  0.85987500  0.60256400  1
  N  N39  1  0.20439000  0.35987500  0.10256400  1
  N  N40  1  0.37745800  0.30237800  0.46664200  1
  N  N41  1  0.12254200  0.80237800  0.96664200  1
  N  N42  1  0.62254200  0.69762200  0.53335800  1
  N  N43  1  0.87745800  0.19762200  0.03335800  1
  O  O44  1  0.67387300  0.02297700  0.33819500  1
  O  O45  1  0.82612700  0.52297700  0.83819500  1
  O  O46  1  0.32612700  0.97702300  0.66180500  1
  O  O47  1  0.17387300  0.47702300  0.16180500  1
  O  O48  1  0.24030200  0.42135400  0.47536800  1
  O  O49  1  0.25969800  0.92135400  0.97536800  1
  O  O50  1  0.75969800  0.57864600  0.52463200  1
  O  O51  1  0.74030200  0.07864600  0.02463200  1
  O  O52  1  0.37256000  0.19587300  0.52080800  1
  O  O53  1  0.12744000  0.69587300  0.02080800  1
  O  O54  1  0.62744000  0.80412700  0.47919200  1
  O  O55  1  0.87256000  0.30412700  0.97919200  1
  O  O56  1  0.47232400  0.50638100  0.33017700  1
  O  O57  1  0.02767600  0.00638100  0.83017700  1
  O  O58  1  0.52767600  0.49361900  0.66982300  1
  O  O59  1  0.97232400  0.99361900  0.16982300  1
  O  O60  1  0.86233400  0.14920200  0.45589900  1
  O  O61  1  0.63766600  0.64920200  0.95589900  1
  O  O62  1  0.13766600  0.85079800  0.54410100  1
  O  O63  1  0.36233400  0.35079800  0.04410100  1
  O  O64  1  0.78663200  0.35328000  0.29115300  1
  O  O65  1  0.71336800  0.85328000  0.79115300  1
  O  O66  1  0.21336800  0.64672000  0.70884700  1
  O  O67  1  0.28663200  0.14672000  0.20884700  1
