# generated using pymatgen
data_Lu4Ga21Ni10
_symmetry_space_group_name_H-M   'P 1'
_cell_length_a   10.49622975
_cell_length_b   10.49622975
_cell_length_c   15.38387765
_cell_angle_alpha   56.95695866
_cell_angle_beta   56.95695866
_cell_angle_gamma   22.09132710
_symmetry_Int_Tables_number   1
_chemical_formula_structural   Lu4Ga21Ni10
_chemical_formula_sum   'Lu4 Ga21 Ni10'
_cell_volume   529.98920553
_cell_formula_units_Z   1
loop_
 _symmetry_equiv_pos_site_id
 _symmetry_equiv_pos_as_xyz
  1  'x, y, z'
loop_
 _atom_site_type_symbol
 _atom_site_label
 _atom_site_symmetry_multiplicity
 _atom_site_fract_x
 _atom_site_fract_y
 _atom_site_fract_z
 _atom_site_occupancy
  Lu  Lu0  1  0.87990700  0.87990700  0.33322500  1
  Lu  Lu1  1  0.12009300  0.12009300  0.66677500  1
  Lu  Lu2  1  0.22964600  0.22964600  0.17516400  1
  Lu  Lu3  1  0.77035400  0.77035400  0.82483600  1
  Ga  Ga4  1  0.45900600  0.45900600  0.36862200  1
  Ga  Ga5  1  0.54099400  0.54099400  0.63137800  1
  Ga  Ga6  1  0.79803900  0.79803900  0.00412300  1
  Ga  Ga7  1  0.20196100  0.20196100  0.99587700  1
  Ga  Ga8  1  0.70194600  0.70194600  0.49760100  1
  Ga  Ga9  1  0.29805400  0.29805400  0.50239900  1
  Ga  Ga10  1  0.88364800  0.88364800  0.55151500  1
  Ga  Ga11  1  0.11635200  0.11635200  0.44848500  1
  Ga  Ga12  1  0.61563800  0.61563800  0.29729200  1
  Ga  Ga13  1  0.38436200  0.38436200  0.70270800  1
  Ga  Ga14  1  0.75222400  0.75222400  0.29364000  1
  Ga  Ga15  1  0.24777600  0.24777600  0.70636000  1
  Ga  Ga16  1  0.60245500  0.60245500  0.00261000  1
  Ga  Ga17  1  0.39754500  0.39754500  0.99739000  1
  Ga  Ga18  1  0.99356200  0.99356200  0.09103500  1
  Ga  Ga19  1  0.00643800  0.00643800  0.90896500  1
  Ga  Ga20  1  0.93527200  0.93527200  0.79571800  1
  Ga  Ga21  1  0.06472800  0.06472800  0.20428200  1
  Ga  Ga22  1  0.50000000  0.50000000  0.50000000  1
  Ga  Ga23  1  0.37219600  0.37219600  0.19704100  1
  Ga  Ga24  1  0.62780400  0.62780400  0.80295900  1
  Ni  Ni25  1  0.49754500  0.49754500  0.18628200  1
  Ni  Ni26  1  0.50245500  0.50245500  0.81371800  1
  Ni  Ni27  1  0.86582000  0.86582000  0.10536300  1
  Ni  Ni28  1  0.13418000  0.13418000  0.89463700  1
  Ni  Ni29  1  0.75009800  0.75009800  0.61457400  1
  Ni  Ni30  1  0.24990200  0.24990200  0.38542600  1
  Ni  Ni31  1  0.65289600  0.65289600  0.11471100  1
  Ni  Ni32  1  0.34710400  0.34710400  0.88528900  1
  Ni  Ni33  1  0.97538100  0.97538100  0.60805000  1
  Ni  Ni34  1  0.02461900  0.02461900  0.39195000  1
