# generated using pymatgen
data_K2Si3PbO10
_symmetry_space_group_name_H-M   'P 1'
_cell_length_a   11.89220500
_cell_length_b   6.67925800
_cell_length_c   13.30788934
_cell_angle_alpha   74.01527889
_cell_angle_beta   90.00000000
_cell_angle_gamma   90.00000000
_symmetry_Int_Tables_number   1
_chemical_formula_structural   K2Si3PbO10
_chemical_formula_sum   'K8 Si12 Pb4 O40'
_cell_volume   1016.18929661
_cell_formula_units_Z   4
loop_
 _symmetry_equiv_pos_site_id
 _symmetry_equiv_pos_as_xyz
  1  'x, y, z'
loop_
 _atom_site_type_symbol
 _atom_site_label
 _atom_site_symmetry_multiplicity
 _atom_site_fract_x
 _atom_site_fract_y
 _atom_site_fract_z
 _atom_site_occupancy
  K  K0  1  0.55284500  0.69437700  0.59014600  1
  K  K1  1  0.94715500  0.69437700  0.09014600  1
  K  K2  1  0.44715500  0.30562300  0.40985400  1
  K  K3  1  0.05284500  0.30562300  0.90985400  1
  K  K4  1  0.12035900  0.18088100  0.61952700  1
  K  K5  1  0.37964100  0.18088100  0.11952700  1
  K  K6  1  0.87964100  0.81911900  0.38047300  1
  K  K7  1  0.62035900  0.81911900  0.88047300  1
  Si  Si8  1  0.97060100  0.33761800  0.34037100  1
  Si  Si9  1  0.52939900  0.33761800  0.84037100  1
  Si  Si10  1  0.02939900  0.66238200  0.65962900  1
  Si  Si11  1  0.47060100  0.66238200  0.15962900  1
  Si  Si12  1  0.81347400  0.90992200  0.66361100  1
  Si  Si13  1  0.68652600  0.90992200  0.16361100  1
  Si  Si14  1  0.18652600  0.09007800  0.33638900  1
  Si  Si15  1  0.31347400  0.09007800  0.83638900  1
  Si  Si16  1  0.76384600  0.29846300  0.48725300  1
  Si  Si17  1  0.73615400  0.29846300  0.98725300  1
  Si  Si18  1  0.23615400  0.70153700  0.51274700  1
  Si  Si19  1  0.26384600  0.70153700  0.01274700  1
  Pb  Pb20  1  0.78810300  0.37765100  0.72585900  1
  Pb  Pb21  1  0.71189700  0.37765100  0.22585900  1
  Pb  Pb22  1  0.21189700  0.62234900  0.27414100  1
  Pb  Pb23  1  0.28810300  0.62234900  0.77414100  1
  O  O24  1  0.88921800  0.28049600  0.25312700  1
  O  O25  1  0.61078200  0.28049600  0.75312700  1
  O  O26  1  0.11078200  0.71950400  0.74687300  1
  O  O27  1  0.38921800  0.71950400  0.24687300  1
  O  O28  1  0.67550400  0.34040300  0.39058100  1
  O  O29  1  0.82449600  0.34040300  0.89058100  1
  O  O30  1  0.32449600  0.65959700  0.60941900  1
  O  O31  1  0.17550400  0.65959700  0.10941900  1
  O  O32  1  0.74223000  0.45662200  0.55948000  1
  O  O33  1  0.75777000  0.45662200  0.05948000  1
  O  O34  1  0.25777000  0.54337800  0.44052000  1
  O  O35  1  0.24223000  0.54337800  0.94052000  1
  O  O36  1  0.75101900  0.05073300  0.55582900  1
  O  O37  1  0.74898100  0.05073300  0.05582900  1
  O  O38  1  0.24898100  0.94926700  0.44417100  1
  O  O39  1  0.25101900  0.94926700  0.94417100  1
  O  O40  1  0.82743900  0.04593100  0.74829700  1
  O  O41  1  0.67256100  0.04593100  0.24829700  1
  O  O42  1  0.17256100  0.95406900  0.25170300  1
  O  O43  1  0.32743900  0.95406900  0.75170300  1
  O  O44  1  0.46815200  0.56403000  0.80021200  1
  O  O45  1  0.03184800  0.56403000  0.30021200  1
  O  O46  1  0.53184800  0.43597000  0.19978800  1
  O  O47  1  0.96815200  0.43597000  0.69978800  1
  O  O48  1  0.73902300  0.70222900  0.71502100  1
  O  O49  1  0.76097700  0.70222900  0.21502100  1
  O  O50  1  0.26097700  0.29777100  0.28497900  1
  O  O51  1  0.23902300  0.29777100  0.78497900  1
  O  O52  1  0.93766400  0.85394200  0.62157700  1
  O  O53  1  0.56233600  0.85394200  0.12157700  1
  O  O54  1  0.06233600  0.14605800  0.37842300  1
  O  O55  1  0.43766400  0.14605800  0.87842300  1
  O  O56  1  0.89582300  0.33628200  0.44520400  1
  O  O57  1  0.60417700  0.33628200  0.94520400  1
  O  O58  1  0.10417700  0.66371800  0.55479600  1
  O  O59  1  0.39582300  0.66371800  0.05479600  1
  O  O60  1  0.51612400  0.90611000  0.36092200  1
  O  O61  1  0.98387600  0.90611000  0.86092200  1
  O  O62  1  0.48387600  0.09389000  0.63907800  1
  O  O63  1  0.01612400  0.09389000  0.13907800  1
