# generated using pymatgen
data_Tb2Ni7
_symmetry_space_group_name_H-M   'P 1'
_cell_length_a   4.92425618
_cell_length_b   4.92425618
_cell_length_c   24.10803000
_cell_angle_alpha   90.00000000
_cell_angle_beta   90.00000000
_cell_angle_gamma   120.00000243
_symmetry_Int_Tables_number   1
_chemical_formula_structural   Tb2Ni7
_chemical_formula_sum   'Tb8 Ni28'
_cell_volume   506.26000810
_cell_formula_units_Z   4
loop_
 _symmetry_equiv_pos_site_id
 _symmetry_equiv_pos_as_xyz
  1  'x, y, z'
loop_
 _atom_site_type_symbol
 _atom_site_label
 _atom_site_symmetry_multiplicity
 _atom_site_fract_x
 _atom_site_fract_y
 _atom_site_fract_z
 _atom_site_occupancy
  Tb  Tb0  1  0.33333300  0.66666700  0.47036000  1
  Tb  Tb1  1  0.66666700  0.33333300  0.52964000  1
  Tb  Tb2  1  0.66666700  0.33333300  0.97036000  1
  Tb  Tb3  1  0.33333300  0.66666700  0.02964000  1
  Tb  Tb4  1  0.33333300  0.66666700  0.32580400  1
  Tb  Tb5  1  0.66666700  0.33333300  0.67419600  1
  Tb  Tb6  1  0.66666700  0.33333300  0.82580400  1
  Tb  Tb7  1  0.33333300  0.66666700  0.17419600  1
  Ni  Ni8  1  0.00000000  0.00000000  0.50000000  1
  Ni  Ni9  1  0.00000000  0.00000000  0.00000000  1
  Ni  Ni10  1  0.83310500  0.16689500  0.25000000  1
  Ni  Ni11  1  0.83310500  0.66621100  0.25000000  1
  Ni  Ni12  1  0.33378900  0.16689500  0.25000000  1
  Ni  Ni13  1  0.16689500  0.83310500  0.75000000  1
  Ni  Ni14  1  0.16689500  0.33378900  0.75000000  1
  Ni  Ni15  1  0.66621100  0.83310500  0.75000000  1
  Ni  Ni16  1  0.83315600  0.16684400  0.41394000  1
  Ni  Ni17  1  0.83315600  0.66631300  0.41394000  1
  Ni  Ni18  1  0.33368700  0.16684400  0.41394000  1
  Ni  Ni19  1  0.16684400  0.83315600  0.58606000  1
  Ni  Ni20  1  0.16684400  0.33368700  0.58606000  1
  Ni  Ni21  1  0.66631300  0.83315600  0.58606000  1
  Ni  Ni22  1  0.16684400  0.83315600  0.91394000  1
  Ni  Ni23  1  0.16684400  0.33368700  0.91394000  1
  Ni  Ni24  1  0.66631300  0.83315600  0.91394000  1
  Ni  Ni25  1  0.83315600  0.16684400  0.08606000  1
  Ni  Ni26  1  0.83315600  0.66631300  0.08606000  1
  Ni  Ni27  1  0.33368700  0.16684400  0.08606000  1
  Ni  Ni28  1  0.00000000  0.00000000  0.33194400  1
  Ni  Ni29  1  0.00000000  0.00000000  0.66805600  1
  Ni  Ni30  1  0.00000000  0.00000000  0.83194400  1
  Ni  Ni31  1  0.00000000  0.00000000  0.16805600  1
  Ni  Ni32  1  0.33333300  0.66666700  0.66759600  1
  Ni  Ni33  1  0.66666700  0.33333300  0.33240400  1
  Ni  Ni34  1  0.66666700  0.33333300  0.16759600  1
  Ni  Ni35  1  0.33333300  0.66666700  0.83240400  1
