# generated using pymatgen
data_SrH2(CO2)2
_symmetry_space_group_name_H-M   'P 1'
_cell_length_a   7.22213800
_cell_length_b   7.22213800
_cell_length_c   10.54395000
_cell_angle_alpha   90.00000000
_cell_angle_beta   90.00000000
_cell_angle_gamma   90.00000000
_symmetry_Int_Tables_number   1
_chemical_formula_structural   SrH2(CO2)2
_chemical_formula_sum   'Sr4 H8 C8 O16'
_cell_volume   549.96481179
_cell_formula_units_Z   4
loop_
 _symmetry_equiv_pos_site_id
 _symmetry_equiv_pos_as_xyz
  1  'x, y, z'
loop_
 _atom_site_type_symbol
 _atom_site_label
 _atom_site_symmetry_multiplicity
 _atom_site_fract_x
 _atom_site_fract_y
 _atom_site_fract_z
 _atom_site_occupancy
  Sr  Sr0  1  0.76623000  0.23377000  0.25000000  1
  Sr  Sr1  1  0.23377000  0.76623000  0.75000000  1
  Sr  Sr2  1  0.73377000  0.73377000  0.00000000  1
  Sr  Sr3  1  0.26623000  0.26623000  0.50000000  1
  H  H4  1  0.80201800  0.14490800  0.63385200  1
  H  H5  1  0.19798200  0.85509200  0.13385200  1
  H  H6  1  0.64490800  0.69798200  0.38385200  1
  H  H7  1  0.35509200  0.30201800  0.88385200  1
  H  H8  1  0.85509200  0.19798200  0.86614800  1
  H  H9  1  0.14490800  0.80201800  0.36614800  1
  H  H10  1  0.69798200  0.64490800  0.61614800  1
  H  H11  1  0.30201800  0.35509200  0.11614800  1
  C  C12  1  0.77640300  0.22703700  0.54619500  1
  C  C13  1  0.22359700  0.77296300  0.04619500  1
  C  C14  1  0.72703700  0.72359700  0.29619500  1
  C  C15  1  0.27296300  0.27640300  0.79619500  1
  C  C16  1  0.77296300  0.22359700  0.95380500  1
  C  C17  1  0.22703700  0.77640300  0.45380500  1
  C  C18  1  0.72359700  0.72703700  0.70380500  1
  C  C19  1  0.27640300  0.27296300  0.20380500  1
  O  O20  1  0.91593700  0.26463600  0.47670700  1
  O  O21  1  0.08406300  0.73536400  0.97670700  1
  O  O22  1  0.76463600  0.58406300  0.22670700  1
  O  O23  1  0.23536400  0.41593700  0.72670700  1
  O  O24  1  0.73536400  0.08406300  0.02329300  1
  O  O25  1  0.26463600  0.91593700  0.52329300  1
  O  O26  1  0.58406300  0.76463600  0.77329300  1
  O  O27  1  0.41593700  0.23536400  0.27329300  1
  O  O28  1  0.61254500  0.27234700  0.51953000  1
  O  O29  1  0.38745500  0.72765300  0.01953000  1
  O  O30  1  0.77234700  0.88745500  0.26953000  1
  O  O31  1  0.22765300  0.11254500  0.76953000  1
  O  O32  1  0.72765300  0.38745500  0.98047000  1
  O  O33  1  0.27234700  0.61254500  0.48047000  1
  O  O34  1  0.88745500  0.77234700  0.73047000  1
  O  O35  1  0.11254500  0.22765300  0.23047000  1
