# generated using pymatgen
data_Na2LuPWO8
_symmetry_space_group_name_H-M   'P 1'
_cell_length_a   11.47556675
_cell_length_b   11.47556675
_cell_length_c   11.47556675
_cell_angle_alpha   145.38720043
_cell_angle_beta   116.31064101
_cell_angle_gamma   74.55892675
_symmetry_Int_Tables_number   1
_chemical_formula_structural   Na2LuPWO8
_chemical_formula_sum   'Na8 Lu4 P4 W4 O32'
_cell_volume   754.92981220
_cell_formula_units_Z   4
loop_
 _symmetry_equiv_pos_site_id
 _symmetry_equiv_pos_as_xyz
  1  'x, y, z'
loop_
 _atom_site_type_symbol
 _atom_site_label
 _atom_site_symmetry_multiplicity
 _atom_site_fract_x
 _atom_site_fract_y
 _atom_site_fract_z
 _atom_site_occupancy
  Na  Na0  1  0.91032200  0.85685300  0.07315100  1
  Na  Na1  1  0.28370200  0.83717100  0.42684900  1
  Na  Na2  1  0.21629800  0.64314700  0.55346900  1
  Na  Na3  1  0.58967800  0.66282900  0.94653100  1
  Na  Na4  1  0.08967800  0.14314700  0.92684900  1
  Na  Na5  1  0.71629800  0.16282900  0.57315100  1
  Na  Na6  1  0.78370200  0.35685300  0.44653100  1
  Na  Na7  1  0.41032200  0.33717100  0.05346900  1
  Lu  Lu8  1  0.17723200  0.75000000  0.92723200  1
  Lu  Lu9  1  0.32276800  0.25000000  0.57276800  1
  Lu  Lu10  1  0.82276800  0.25000000  0.07276800  1
  Lu  Lu11  1  0.67723200  0.75000000  0.42723200  1
  P  P12  1  0.56979500  0.25000000  0.81979500  1
  P  P13  1  0.93020500  0.75000000  0.68020500  1
  P  P14  1  0.43020500  0.75000000  0.18020500  1
  P  P15  1  0.06979500  0.25000000  0.31979500  1
  W  W16  1  0.92526300  0.67526300  0.25000000  1
  W  W17  1  0.57473700  0.82473700  0.75000000  1
  W  W18  1  0.07473700  0.32473700  0.75000000  1
  W  W19  1  0.42526300  0.17526300  0.25000000  1
  O  O20  1  0.42533800  0.16798900  0.72853200  1
  O  O21  1  0.93945800  0.69680600  0.77146800  1
  O  O22  1  0.56054200  0.33201100  0.75734900  1
  O  O23  1  0.07466200  0.80319400  0.74265100  1
  O  O24  1  0.57466200  0.83201100  0.27146800  1
  O  O25  1  0.06054200  0.30319400  0.22853200  1
  O  O26  1  0.43945800  0.66798900  0.24265100  1
  O  O27  1  0.92533800  0.19680600  0.25734900  1
  O  O28  1  0.64298000  0.41935900  0.07741900  1
  O  O29  1  0.84194000  0.56556100  0.42258100  1
  O  O30  1  0.65806000  0.08064100  0.72362100  1
  O  O31  1  0.85702000  0.93443900  0.77637900  1
  O  O32  1  0.35702000  0.58064100  0.92258100  1
  O  O33  1  0.15806000  0.43443900  0.57741900  1
  O  O34  1  0.34194000  0.91935900  0.27637900  1
  O  O35  1  0.14298000  0.06556100  0.22362100  1
  O  O36  1  0.89422900  0.40221500  0.06085600  1
  O  O37  1  0.84136000  0.83337400  0.43914400  1
  O  O38  1  0.65864000  0.09778500  0.99201400  1
  O  O39  1  0.60577100  0.66662600  0.50798600  1
  O  O40  1  0.10577100  0.59778500  0.93914400  1
  O  O41  1  0.15864000  0.16662600  0.56085600  1
  O  O42  1  0.34136000  0.90221500  0.00798600  1
  O  O43  1  0.39422900  0.33337400  0.49201400  1
  O  O44  1  0.10145000  0.77537800  0.41510800  1
  O  O45  1  0.86027000  0.68634200  0.08489200  1
  O  O46  1  0.63973000  0.72462200  0.82607200  1
  O  O47  1  0.39855000  0.81365800  0.67392800  1
  O  O48  1  0.89855000  0.22462200  0.58489200  1
  O  O49  1  0.13973000  0.31365800  0.91510800  1
  O  O50  1  0.36027000  0.27537800  0.17392800  1
  O  O51  1  0.60145000  0.18634200  0.32607200  1
