# generated using pymatgen
data_FeB
_symmetry_space_group_name_H-M   'P 1'
_cell_length_a   4.02247514
_cell_length_b   4.02247514
_cell_length_c   2.95807700
_cell_angle_alpha   90.00000000
_cell_angle_beta   90.00000000
_cell_angle_gamma   137.86522227
_symmetry_Int_Tables_number   1
_chemical_formula_structural   FeB
_chemical_formula_sum   'Fe2 B2'
_cell_volume   32.10990552
_cell_formula_units_Z   2
loop_
 _symmetry_equiv_pos_site_id
 _symmetry_equiv_pos_as_xyz
  1  'x, y, z'
loop_
 _atom_site_type_symbol
 _atom_site_label
 _atom_site_symmetry_multiplicity
 _atom_site_fract_x
 _atom_site_fract_y
 _atom_site_fract_z
 _atom_site_occupancy
  Fe  Fe0  1  0.85848600  0.14151400  0.75000000  1
  Fe  Fe1  1  0.14151400  0.85848600  0.25000000  1
  B  B2  1  0.56979500  0.43020500  0.75000000  1
  B  B3  1  0.43020500  0.56979500  0.25000000  1
