# generated using pymatgen
data_PtC2(SN2)2
_symmetry_space_group_name_H-M   'P 1'
_cell_length_a   8.84039700
_cell_length_b   7.67164800
_cell_length_c   14.39043818
_cell_angle_alpha   62.03994767
_cell_angle_beta   90.00000000
_cell_angle_gamma   90.00000000
_symmetry_Int_Tables_number   1
_chemical_formula_structural   PtC2(SN2)2
_chemical_formula_sum   'Pt4 C8 S8 N16'
_cell_volume   862.04561398
_cell_formula_units_Z   4
loop_
 _symmetry_equiv_pos_site_id
 _symmetry_equiv_pos_as_xyz
  1  'x, y, z'
loop_
 _atom_site_type_symbol
 _atom_site_label
 _atom_site_symmetry_multiplicity
 _atom_site_fract_x
 _atom_site_fract_y
 _atom_site_fract_z
 _atom_site_occupancy
  Pt  Pt0  1  0.80229900  0.24344900  0.77142200  1
  Pt  Pt1  1  0.69770100  0.24344900  0.27142200  1
  Pt  Pt2  1  0.19770100  0.75655100  0.22857800  1
  Pt  Pt3  1  0.30229900  0.75655100  0.72857800  1
  C  C4  1  0.83662300  0.75067000  0.89478900  1
  C  C5  1  0.66337700  0.75067000  0.39478900  1
  C  C6  1  0.16337700  0.24933000  0.10521100  1
  C  C7  1  0.33662300  0.24933000  0.60521100  1
  C  C8  1  0.79046200  0.70153800  0.64745800  1
  C  C9  1  0.70953800  0.70153800  0.14745800  1
  C  C10  1  0.20953800  0.29846200  0.35254200  1
  C  C11  1  0.29046200  0.29846200  0.85254200  1
  S  S12  1  0.95977300  0.93009200  0.87005400  1
  S  S13  1  0.54022700  0.93009200  0.37005400  1
  S  S14  1  0.04022700  0.06990800  0.12994600  1
  S  S15  1  0.45977300  0.06990800  0.62994600  1
  S  S16  1  0.66032800  0.52171100  0.68683200  1
  S  S17  1  0.83967200  0.52171100  0.18683200  1
  S  S18  1  0.33967200  0.47828900  0.31316800  1
  S  S19  1  0.16032800  0.47828900  0.81316800  1
  N  N20  1  0.75625500  0.61450100  0.91573900  1
  N  N21  1  0.74374500  0.61450100  0.41573900  1
  N  N22  1  0.24374500  0.38549900  0.08426100  1
  N  N23  1  0.25625500  0.38549900  0.58426100  1
  N  N24  1  0.87500500  0.83522600  0.61704400  1
  N  N25  1  0.62499500  0.83522600  0.11704400  1
  N  N26  1  0.12499500  0.16477400  0.38295600  1
  N  N27  1  0.37500500  0.16477400  0.88295600  1
  N  N28  1  0.87502600  0.19853900  0.66793900  1
  N  N29  1  0.62497400  0.19853900  0.16793900  1
  N  N30  1  0.12497400  0.80146100  0.33206100  1
  N  N31  1  0.37502600  0.80146100  0.83206100  1
  N  N32  1  0.79897100  0.18217300  0.90772900  1
  N  N33  1  0.70102900  0.18217300  0.40772900  1
  N  N34  1  0.20102900  0.81782700  0.09227100  1
  N  N35  1  0.29897100  0.81782700  0.59227100  1
