# generated using pymatgen
data_Rb3H(SO4)2
_symmetry_space_group_name_H-M   'P 1'
_cell_length_a   11.75670584
_cell_length_b   11.75670584
_cell_length_c   8.60238658
_cell_angle_alpha   70.69132617
_cell_angle_beta   70.69132617
_cell_angle_gamma   59.65683546
_symmetry_Int_Tables_number   1
_chemical_formula_structural   Rb3H(SO4)2
_chemical_formula_sum   'Rb12 H4 S8 O32'
_cell_volume   948.68336180
_cell_formula_units_Z   4
loop_
 _symmetry_equiv_pos_site_id
 _symmetry_equiv_pos_as_xyz
  1  'x, y, z'
loop_
 _atom_site_type_symbol
 _atom_site_label
 _atom_site_symmetry_multiplicity
 _atom_site_fract_x
 _atom_site_fract_y
 _atom_site_fract_z
 _atom_site_occupancy
  Rb  Rb0  1  0.76882200  0.23117800  0.00000000  1
  Rb  Rb1  1  0.23117800  0.76882200  0.00000000  1
  Rb  Rb2  1  0.76521600  0.76521600  0.47761600  1
  Rb  Rb3  1  0.23478400  0.23478400  0.52238400  1
  Rb  Rb4  1  0.36740500  0.36740500  0.88965500  1
  Rb  Rb5  1  0.63259500  0.63259500  0.11034500  1
  Rb  Rb6  1  0.14196700  0.66426200  0.59067500  1
  Rb  Rb7  1  0.66426200  0.14196700  0.59067500  1
  Rb  Rb8  1  0.85803300  0.33573800  0.40932500  1
  Rb  Rb9  1  0.33573800  0.85803300  0.40932500  1
  Rb  Rb10  1  0.14367500  0.14367500  0.07060900  1
  Rb  Rb11  1  0.85632500  0.85632500  0.92939100  1
  H  H12  1  0.78689100  0.50232100  0.71459000  1
  H  H13  1  0.50232100  0.78689100  0.71459000  1
  H  H14  1  0.21310900  0.49767900  0.28541000  1
  H  H15  1  0.49767900  0.21310900  0.28541000  1
  S  S16  1  0.94356400  0.47174800  0.82388000  1
  S  S17  1  0.47174800  0.94356400  0.82388000  1
  S  S18  1  0.05643600  0.52825200  0.17612000  1
  S  S19  1  0.52825200  0.05643600  0.17612000  1
  S  S20  1  0.95705700  0.95705700  0.30893900  1
  S  S21  1  0.04294300  0.04294300  0.69106100  1
  S  S22  1  0.55961800  0.55961800  0.65871900  1
  S  S23  1  0.44038200  0.44038200  0.34128100  1
  O  O24  1  0.88860100  0.45216300  0.68903400  1
  O  O25  1  0.45216300  0.88860100  0.68903400  1
  O  O26  1  0.11139900  0.54783700  0.31096600  1
  O  O27  1  0.54783700  0.11139900  0.31096600  1
  O  O28  1  0.89176500  0.61760300  0.80228900  1
  O  O29  1  0.61760300  0.89176500  0.80228900  1
  O  O30  1  0.10823500  0.38239700  0.19771100  1
  O  O31  1  0.38239700  0.10823500  0.19771100  1
  O  O32  1  0.88819700  0.40993900  0.98991800  1
  O  O33  1  0.40993900  0.88819700  0.98991800  1
  O  O34  1  0.11180300  0.59006100  0.01008200  1
  O  O35  1  0.59006100  0.11180200  0.01008200  1
  O  O36  1  0.08965700  0.40049600  0.77423500  1
  O  O37  1  0.40049600  0.08965700  0.77423500  1
  O  O38  1  0.91034300  0.59950400  0.22576500  1
  O  O39  1  0.59950400  0.91034300  0.22576500  1
  O  O40  1  0.90161200  0.90161200  0.48385900  1
  O  O41  1  0.09838800  0.09838800  0.51614100  1
  O  O42  1  0.10716000  0.89781100  0.28410700  1
  O  O43  1  0.89781100  0.10716000  0.28410700  1
  O  O44  1  0.89284000  0.10218900  0.71589300  1
  O  O45  1  0.10218900  0.89284000  0.71589300  1
  O  O46  1  0.92170600  0.92170600  0.18537500  1
  O  O47  1  0.07829400  0.07829400  0.81462500  1
  O  O48  1  0.62041300  0.41036700  0.70789600  1
  O  O49  1  0.41036700  0.62041300  0.70789600  1
  O  O50  1  0.37958700  0.58963300  0.29210400  1
  O  O51  1  0.58963300  0.37958700  0.29210400  1
  O  O52  1  0.61077300  0.61077300  0.75191200  1
  O  O53  1  0.38922700  0.38922700  0.24808800  1
  O  O54  1  0.60422200  0.60422200  0.47562100  1
  O  O55  1  0.39577800  0.39577800  0.52437900  1
