# generated using pymatgen
data_Cs3Rh9(CO)19
_symmetry_space_group_name_H-M   'P 1'
_cell_length_a   9.56964342
_cell_length_b   19.48570553
_cell_length_c   19.67824572
_cell_angle_alpha   90.00000000
_cell_angle_beta   90.00000000
_cell_angle_gamma   90.52447396
_symmetry_Int_Tables_number   1
_chemical_formula_structural   Cs3Rh9(CO)19
_chemical_formula_sum   'Cs12 Rh36 C76 O76'
_cell_volume   3669.27341604
_cell_formula_units_Z   4
loop_
 _symmetry_equiv_pos_site_id
 _symmetry_equiv_pos_as_xyz
  1  'x, y, z'
loop_
 _atom_site_type_symbol
 _atom_site_label
 _atom_site_symmetry_multiplicity
 _atom_site_fract_x
 _atom_site_fract_y
 _atom_site_fract_z
 _atom_site_occupancy
  Cs  Cs0  1  0.23126463  0.95301388  0.08772113  1
  Cs  Cs1  1  0.73126463  0.45301388  0.41227887  1
  Cs  Cs2  1  0.76873537  0.04698612  0.91227887  1
  Cs  Cs3  1  0.26873537  0.54698612  0.58772113  1
  Cs  Cs4  1  0.78567904  0.81522609  0.43302243  1
  Cs  Cs5  1  0.28567904  0.31522609  0.06697757  1
  Cs  Cs6  1  0.21432096  0.18477391  0.56697757  1
  Cs  Cs7  1  0.71432096  0.68477391  0.93302243  1
  Cs  Cs8  1  0.73369017  0.10746039  0.66889925  1
  Cs  Cs9  1  0.23369017  0.60746039  0.83110075  1
  Cs  Cs10  1  0.26630983  0.89253961  0.33110075  1
  Cs  Cs11  1  0.76630983  0.39253961  0.16889925  1
  Rh  Rh12  1  0.73470740  0.07348385  0.41430587  1
  Rh  Rh13  1  0.23470740  0.57348385  0.08569413  1
  Rh  Rh14  1  0.26529260  0.92651615  0.58569413  1
  Rh  Rh15  1  0.76529260  0.42651615  0.91430587  1
  Rh  Rh16  1  0.87907017  0.19917444  0.38141724  1
  Rh  Rh17  1  0.37907017  0.69917444  0.11858276  1
  Rh  Rh18  1  0.12092983  0.80082556  0.61858276  1
  Rh  Rh19  1  0.62092983  0.30082556  0.88141724  1
  Rh  Rh20  1  0.58392862  0.18600873  0.35566962  1
  Rh  Rh21  1  0.08392862  0.68600873  0.14433038  1
  Rh  Rh22  1  0.41607138  0.81399127  0.64433038  1
  Rh  Rh23  1  0.91607138  0.31399127  0.85566962  1
  Rh  Rh24  1  0.77257507  0.19125162  0.24968897  1
  Rh  Rh25  1  0.27257507  0.69125162  0.25031103  1
  Rh  Rh26  1  0.22742493  0.80874838  0.75031103  1
  Rh  Rh27  1  0.72742493  0.30874838  0.74968897  1
  Rh  Rh28  1  0.92261264  0.08320340  0.30408370  1
  Rh  Rh29  1  0.42261264  0.58320340  0.19591630  1
  Rh  Rh30  1  0.07738736  0.91679660  0.69591630  1
  Rh  Rh31  1  0.57738736  0.41679660  0.80408370  1
  Rh  Rh32  1  0.63811718  0.06903977  0.27925537  1
  Rh  Rh33  1  0.13811718  0.56903977  0.22074463  1
  Rh  Rh34  1  0.36188282  0.93096023  0.72074463  1
  Rh  Rh35  1  0.86188282  0.43096023  0.77925537  1
  Rh  Rh36  1  0.82334920  0.99567808  0.19973176  1
  Rh  Rh37  1  0.32334920  0.49567808  0.30026824  1
  Rh  Rh38  1  0.17665080  0.00432192  0.80026824  1
  Rh  Rh39  1  0.67665080  0.50432192  0.69973176  1
  Rh  Rh40  1  0.96958697  0.12345427  0.16996937  1
  Rh  Rh41  1  0.46958697  0.62345427  0.33003063  1
  Rh  Rh42  1  0.03041303  0.87654573  0.83003063  1
  Rh  Rh43  1  0.53041303  0.37654573  0.66996937  1
  Rh  Rh44  1  0.68358215  0.10792007  0.14341903  1
  Rh  Rh45  1  0.18358215  0.60792007  0.35658097  1
  Rh  Rh46  1  0.31641785  0.89207993  0.85658097  1
  Rh  Rh47  1  0.81641785  0.39207993  0.64341903  1
  C  C48  1  0.71835101  0.01962778  0.49369299  1
  C  C49  1  0.21835101  0.51962778  0.00630701  1
  C  C50  1  0.28164899  0.98037222  0.50630701  1
  C  C51  1  0.78164899  0.48037222  0.99369299  1
  C  C52  1  0.96156808  0.28100408  0.41224833  1
  C  C53  1  0.46156808  0.78100408  0.08775167  1
  C  C54  1  0.03843192  0.71899592  0.58775167  1
  C  C55  1  0.53843192  0.21899592  0.91224833  1
  C  C56  1  0.45398469  0.25347307  0.38027617  1
  C  C57  1  0.95398469  0.75347307  0.11972383  1
  C  C58  1  0.54601531  0.74652693  0.61972383  1
  C  C59  1  0.04601531  0.24652693  0.88027617  1
  C  C60  1  0.84253251  0.97335519  0.10741228  1
  C  C61  1  0.34253251  0.47335519  0.39258772  1
  C  C62  1  0.15746749  0.02664481  0.89258772  1
  C  C63  1  0.65746749  0.52664481  0.60741228  1
  C  C64  1  0.84216261  0.90850695  0.24059998  1
  C  C65  1  0.34216261  0.40850695  0.25940002  1
  C  C66  1  0.15783739  0.09149305  0.75940002  1
  C  C67  1  0.65783739  0.59149305  0.74059998  1
  C  C68  1  0.14099380  0.13648445  0.12613253  1
  C  C69  1  0.64099380  0.63648445  0.37386747  1
  C  C70  1  0.85900620  0.86351555  0.87386747  1
  C  C71  1  0.35900620  0.36351555  0.62613253  1
  C  C72  1  0.55403483  0.08339960  0.07633987  1
  C  C73  1  0.05403483  0.58339960  0.42366013  1
  C  C74  1  0.44596517  0.91660040  0.92366013  1
  C  C75  1  0.94596517  0.41660040  0.57633987  1
  C  C76  1  0.85252391  0.15215932  0.46928238  1
  C  C77  1  0.35252391  0.65215932  0.03071762  1
  C  C78  1  0.14747609  0.84784068  0.53071762  1
  C  C79  1  0.64747609  0.34784068  0.96928238  1
  C  C80  1  0.56281657  0.13777480  0.44482289  1
  C  C81  1  0.06281657  0.63777480  0.05517711  1
  C  C82  1  0.43718343  0.86222520  0.55517711  1
  C  C83  1  0.93718343  0.36222520  0.94482289  1
  C  C84  1  0.91539862  0.01500903  0.37614744  1
  C  C85  1  0.41539862  0.51500903  0.12385256  1
  C  C86  1  0.08460138  0.98499097  0.62385256  1
  C  C87  1  0.58460138  0.48499097  0.87614744  1
  C  C88  1  0.61435568  0.00282648  0.35390969  1
  C  C89  1  0.11435568  0.50282648  0.14609031  1
  C  C90  1  0.38564432  0.99717352  0.64609031  1
  C  C91  1  0.88564432  0.49717352  0.85390969  1
  C  C92  1  0.05709066  0.14452068  0.36069016  1
  C  C93  1  0.55709066  0.64452068  0.13930984  1
  C  C94  1  0.94290934  0.85547932  0.63930984  1
  C  C95  1  0.44290934  0.35547932  0.86069016  1
  C  C96  1  0.46230170  0.12863762  0.28719620  1
  C  C97  1  0.96230170  0.62863762  0.21280380  1
  C  C98  1  0.53769830  0.87136238  0.71280380  1
  C  C99  1  0.03769830  0.37136238  0.78719620  1
  C  C100  1  0.94594854  0.22286172  0.19882081  1
  C  C101  1  0.44594854  0.72286172  0.30117919  1
  C  C102  1  0.05405146  0.77713828  0.80117919  1
  C  C103  1  0.55405146  0.27713828  0.69882081  1
  C  C104  1  0.63260786  0.20341903  0.16816950  1
  C  C105  1  0.13260786  0.70341903  0.33183050  1
  C  C106  1  0.36739214  0.79658097  0.83183050  1
  C  C107  1  0.86739214  0.29658097  0.66816950  1
  C  C108  1  0.84941525  0.13408109  0.08464222  1
  C  C109  1  0.34941525  0.63408109  0.41535778  1
  C  C110  1  0.15058475  0.86591891  0.91535778  1
  C  C111  1  0.65058475  0.36591891  0.58464222  1
  C  C112  1  0.72553061  0.26592425  0.31441409  1
  C  C113  1  0.22553061  0.76592425  0.18558591  1
  C  C114  1  0.27446939  0.73407575  0.68558591  1
  C  C115  1  0.77446939  0.23407575  0.81441409  1
  C  C116  1  0.04659902  0.03721021  0.23776271  1
  C  C117  1  0.54659902  0.53721021  0.26223729  1
  C  C118  1  0.95340098  0.96278979  0.76223729  1
  C  C119  1  0.45340098  0.46278979  0.73776271  1
  C  C120  1  0.58537379  0.00403877  0.20727336  1
  C  C121  1  0.08537379  0.50403877  0.29272664  1
  C  C122  1  0.41462621  0.99596123  0.79272664  1
  C  C123  1  0.91462621  0.49596123  0.70727336  1
  O  O124  1  0.70774959  0.98769177  0.54346139  1
  O  O125  1  0.20774959  0.48769177  0.95653861  1
  O  O126  1  0.29225041  0.01230823  0.45653861  1
  O  O127  1  0.79225041  0.51230823  0.04346139  1
  O  O128  1  0.01545969  0.33215371  0.42959040  1
  O  O129  1  0.51545969  0.83215371  0.07040960  1
  O  O130  1  0.98454031  0.66784629  0.57040960  1
  O  O131  1  0.48454031  0.16784629  0.92959040  1
  O  O132  1  0.37299207  0.29392841  0.39802267  1
  O  O133  1  0.87299207  0.79392841  0.10197733  1
  O  O134  1  0.62700793  0.70607159  0.60197733  1
  O  O135  1  0.12700793  0.20607159  0.89802267  1
  O  O136  1  0.85769205  0.95703800  0.05052545  1
  O  O137  1  0.35769205  0.45703800  0.44947455  1
  O  O138  1  0.14230795  0.04296200  0.94947455  1
  O  O139  1  0.64230795  0.54296200  0.55052545  1
  O  O140  1  0.85094892  0.85450738  0.26562989  1
  O  O141  1  0.35094892  0.35450738  0.23437011  1
  O  O142  1  0.14905108  0.14549262  0.73437011  1
  O  O143  1  0.64905108  0.64549262  0.76562989  1
  O  O144  1  0.24351652  0.15141653  0.09676211  1
  O  O145  1  0.74351652  0.65141653  0.40323789  1
  O  O146  1  0.75648348  0.84858347  0.90323789  1
  O  O147  1  0.25648348  0.34858347  0.59676211  1
  O  O148  1  0.47232763  0.06368302  0.03630655  1
  O  O149  1  0.97232763  0.56368302  0.46369345  1
  O  O150  1  0.52767237  0.93631698  0.96369345  1
  O  O151  1  0.02767237  0.43631698  0.53630655  1
  O  O152  1  0.88169190  0.15797275  0.52804414  1
  O  O153  1  0.38169190  0.65797275  0.97195586  1
  O  O154  1  0.11830810  0.84202725  0.47195586  1
  O  O155  1  0.61830810  0.34202725  0.02804414  1
  O  O156  1  0.50001468  0.14158193  0.49697129  1
  O  O157  1  0.00001468  0.64158193  0.00302871  1
  O  O158  1  0.49998532  0.85841807  0.50302871  1
  O  O159  1  0.99998532  0.35841807  0.99697129  1
  O  O160  1  0.96513718  0.96263677  0.39547092  1
  O  O161  1  0.46513718  0.46263677  0.10452908  1
  O  O162  1  0.03486282  0.03736323  0.60452908  1
  O  O163  1  0.53486282  0.53736323  0.89547092  1
  O  O164  1  0.56949166  0.94651265  0.36466911  1
  O  O165  1  0.06949166  0.44651265  0.13533089  1
  O  O166  1  0.43050834  0.05348735  0.63533089  1
  O  O167  1  0.93050834  0.55348735  0.86466911  1
  O  O168  1  0.17277170  0.14422031  0.38179927  1
  O  O169  1  0.67277170  0.64422031  0.11820073  1
  O  O170  1  0.82722830  0.85577969  0.61820073  1
  O  O171  1  0.32722830  0.35577969  0.88179927  1
  O  O172  1  0.35264878  0.13447846  0.26087026  1
  O  O173  1  0.85264878  0.63447846  0.23912974  1
  O  O174  1  0.64735122  0.86552154  0.73912974  1
  O  O175  1  0.14735122  0.36552154  0.76087026  1
  O  O176  1  0.00426368  0.27633157  0.18839678  1
  O  O177  1  0.50426368  0.77633157  0.31160322  1
  O  O178  1  0.99573632  0.72366843  0.81160322  1
  O  O179  1  0.49573632  0.22366843  0.68839678  1
  O  O180  1  0.56179775  0.25057297  0.15183168  1
  O  O181  1  0.06179775  0.75057297  0.34816832  1
  O  O182  1  0.43820225  0.74942703  0.84816832  1
  O  O183  1  0.93820225  0.24942703  0.65183168  1
  O  O184  1  0.86816340  0.14800047  0.02611535  1
  O  O185  1  0.36816340  0.64800047  0.47388465  1
  O  O186  1  0.13183660  0.85199953  0.97388465  1
  O  O187  1  0.63183660  0.35199953  0.52611535  1
  O  O188  1  0.71538358  0.32761348  0.31424260  1
  O  O189  1  0.21538358  0.82761348  0.18575740  1
  O  O190  1  0.28461642  0.67238652  0.68575740  1
  O  O191  1  0.78461642  0.17238652  0.81424260  1
  O  O192  1  0.15251457  0.00464041  0.23440951  1
  O  O193  1  0.65251457  0.50464041  0.26559049  1
  O  O194  1  0.84748543  0.99535959  0.76559049  1
  O  O195  1  0.34748543  0.49535959  0.73440951  1
  O  O196  1  0.49757000  0.96503509  0.18752678  1
  O  O197  1  0.99757000  0.46503509  0.31247322  1
  O  O198  1  0.50243000  0.03496491  0.81247322  1
  O  O199  1  0.00243000  0.53496491  0.68752678  1
