# generated using pymatgen
data_UH24C8N2(Cl2O)2
_symmetry_space_group_name_H-M   'P 1'
_cell_length_a   9.33421200
_cell_length_b   9.33421200
_cell_length_c   12.24277200
_cell_angle_alpha   90.00000000
_cell_angle_beta   90.00000000
_cell_angle_gamma   90.00000000
_symmetry_Int_Tables_number   1
_chemical_formula_structural   UH24C8N2(Cl2O)2
_chemical_formula_sum   'U2 H48 C16 N4 Cl8 O4'
_cell_volume   1066.68228468
_cell_formula_units_Z   2
loop_
 _symmetry_equiv_pos_site_id
 _symmetry_equiv_pos_as_xyz
  1  'x, y, z'
loop_
 _atom_site_type_symbol
 _atom_site_label
 _atom_site_symmetry_multiplicity
 _atom_site_fract_x
 _atom_site_fract_y
 _atom_site_fract_z
 _atom_site_occupancy
  U  U0  1  0.50000000  0.50000000  0.50000000  1
  U  U1  1  0.00000000  0.00000000  0.00000000  1
  H  H2  1  0.47201100  0.15567700  0.12627600  1
  H  H3  1  0.52798900  0.84432300  0.12627600  1
  H  H4  1  0.02798900  0.65567700  0.62627600  1
  H  H5  1  0.97201100  0.34432300  0.62627600  1
  H  H6  1  0.52798900  0.84432300  0.87372400  1
  H  H7  1  0.47201100  0.15567700  0.87372400  1
  H  H8  1  0.97201100  0.34432300  0.37372400  1
  H  H9  1  0.02798900  0.65567700  0.37372400  1
  H  H10  1  0.15567700  0.47201100  0.12627600  1
  H  H11  1  0.84432300  0.52798900  0.12627600  1
  H  H12  1  0.65567700  0.02798900  0.62627600  1
  H  H13  1  0.34432300  0.97201100  0.62627600  1
  H  H14  1  0.84432300  0.52798900  0.87372400  1
  H  H15  1  0.15567700  0.47201100  0.87372400  1
  H  H16  1  0.34432300  0.97201100  0.37372400  1
  H  H17  1  0.65567700  0.02798900  0.37372400  1
  H  H18  1  0.59830400  0.20327300  0.23087100  1
  H  H19  1  0.40169600  0.79672700  0.23087100  1
  H  H20  1  0.90169600  0.70327300  0.73087100  1
  H  H21  1  0.09830400  0.29672700  0.73087100  1
  H  H22  1  0.40169600  0.79672700  0.76912900  1
  H  H23  1  0.59830400  0.20327300  0.76912900  1
  H  H24  1  0.09830400  0.29672700  0.26912900  1
  H  H25  1  0.90169600  0.70327300  0.26912900  1
  H  H26  1  0.20327300  0.59830400  0.23087100  1
  H  H27  1  0.79672700  0.40169600  0.23087100  1
  H  H28  1  0.70327300  0.90169600  0.73087100  1
  H  H29  1  0.29672700  0.09830400  0.73087100  1
  H  H30  1  0.79672700  0.40169600  0.76912900  1
  H  H31  1  0.20327300  0.59830400  0.76912900  1
  H  H32  1  0.29672700  0.09830400  0.26912900  1
  H  H33  1  0.70327300  0.90169600  0.26912900  1
  H  H34  1  0.64568300  0.07173000  0.12898900  1
  H  H35  1  0.35431700  0.92827000  0.12898900  1
  H  H36  1  0.85431700  0.57173000  0.62898900  1
  H  H37  1  0.14568300  0.42827000  0.62898900  1
  H  H38  1  0.35431700  0.92827000  0.87101100  1
  H  H39  1  0.64568300  0.07173000  0.87101100  1
  H  H40  1  0.14568300  0.42827000  0.37101100  1
  H  H41  1  0.85431700  0.57173000  0.37101100  1
  H  H42  1  0.07173000  0.64568300  0.12898900  1
  H  H43  1  0.92827000  0.35431700  0.12898900  1
  H  H44  1  0.57173000  0.85431700  0.62898900  1
  H  H45  1  0.42827000  0.14568300  0.62898900  1
  H  H46  1  0.92827000  0.35431700  0.87101100  1
  H  H47  1  0.07173000  0.64568300  0.87101100  1
  H  H48  1  0.42827000  0.14568300  0.37101100  1
  H  H49  1  0.57173000  0.85431700  0.37101100  1
  C  C50  1  0.55908900  0.11669200  0.17860400  1
  C  C51  1  0.44091100  0.88330800  0.17860400  1
  C  C52  1  0.94091100  0.61669200  0.67860400  1
  C  C53  1  0.05908900  0.38330800  0.67860400  1
  C  C54  1  0.44091100  0.88330800  0.82139600  1
  C  C55  1  0.55908900  0.11669200  0.82139600  1
  C  C56  1  0.05908900  0.38330800  0.32139600  1
  C  C57  1  0.94091100  0.61669200  0.32139600  1
  C  C58  1  0.11669200  0.55908900  0.17860400  1
  C  C59  1  0.88330800  0.44091100  0.17860400  1
  C  C60  1  0.61669200  0.94091100  0.67860400  1
  C  C61  1  0.38330800  0.05908900  0.67860400  1
  C  C62  1  0.88330800  0.44091100  0.82139600  1
  C  C63  1  0.11669200  0.55908900  0.82139600  1
  C  C64  1  0.38330800  0.05908900  0.32139600  1
  C  C65  1  0.61669200  0.94091100  0.32139600  1
  N  N66  1  0.50000000  0.00000000  0.25000000  1
  N  N67  1  0.00000000  0.50000000  0.75000000  1
  N  N68  1  0.50000000  0.00000000  0.75000000  1
  N  N69  1  0.00000000  0.50000000  0.25000000  1
  Cl  Cl70  1  0.50000000  0.50000000  0.28292000  1
  Cl  Cl71  1  0.00000000  0.00000000  0.78292000  1
  Cl  Cl72  1  0.50000000  0.50000000  0.71708000  1
  Cl  Cl73  1  0.00000000  0.00000000  0.21708000  1
  Cl  Cl74  1  0.70397300  0.29602700  0.50000000  1
  Cl  Cl75  1  0.29602700  0.70397300  0.50000000  1
  Cl  Cl76  1  0.79602700  0.79602700  0.00000000  1
  Cl  Cl77  1  0.20397300  0.20397300  0.00000000  1
  O  O78  1  0.36226300  0.36226300  0.50000000  1
  O  O79  1  0.63773700  0.63773700  0.50000000  1
  O  O80  1  0.13773700  0.86226300  0.00000000  1
  O  O81  1  0.86226300  0.13773700  0.00000000  1
