# generated using pymatgen
data_Cd(BrO4)2
_symmetry_space_group_name_H-M   'P 1'
_cell_length_a   6.21484000
_cell_length_b   9.36107000
_cell_length_c   12.66356100
_cell_angle_alpha   90.00000000
_cell_angle_beta   90.00000000
_cell_angle_gamma   90.00000000
_symmetry_Int_Tables_number   1
_chemical_formula_structural   Cd(BrO4)2
_chemical_formula_sum   'Cd4 Br8 O32'
_cell_volume   736.73498211
_cell_formula_units_Z   4
loop_
 _symmetry_equiv_pos_site_id
 _symmetry_equiv_pos_as_xyz
  1  'x, y, z'
loop_
 _atom_site_type_symbol
 _atom_site_label
 _atom_site_symmetry_multiplicity
 _atom_site_fract_x
 _atom_site_fract_y
 _atom_site_fract_z
 _atom_site_occupancy
  Cd  Cd0  1  0.81216500  0.32212300  0.46878300  1
  Cd  Cd1  1  0.31216500  0.67787700  0.03121700  1
  Cd  Cd2  1  0.18783500  0.17787700  0.96878300  1
  Cd  Cd3  1  0.68783500  0.82212300  0.53121700  1
  Br  Br4  1  0.56936400  0.41024800  0.13356700  1
  Br  Br5  1  0.06936400  0.58975200  0.36643300  1
  Br  Br6  1  0.43063600  0.08975200  0.63356700  1
  Br  Br7  1  0.93063600  0.91024800  0.86643300  1
  Br  Br8  1  0.53296400  0.96777600  0.13928400  1
  Br  Br9  1  0.03296400  0.03222400  0.36071600  1
  Br  Br10  1  0.46703600  0.53222400  0.63928400  1
  Br  Br11  1  0.96703600  0.46777600  0.86071600  1
  O  O12  1  0.99495700  0.74697300  0.42086600  1
  O  O13  1  0.49495700  0.25302700  0.07913400  1
  O  O14  1  0.00504300  0.75302700  0.92086600  1
  O  O15  1  0.50504300  0.24697300  0.57913400  1
  O  O16  1  0.58218600  0.78974400  0.13104500  1
  O  O17  1  0.08218600  0.21025600  0.36895500  1
  O  O18  1  0.41781400  0.71025600  0.63104500  1
  O  O19  1  0.91781400  0.28974400  0.86895500  1
  O  O20  1  0.64498500  0.51594600  0.03294000  1
  O  O21  1  0.14498500  0.48405400  0.46706000  1
  O  O22  1  0.35501500  0.98405400  0.53294000  1
  O  O23  1  0.85501500  0.01594600  0.96706000  1
  O  O24  1  0.92844300  0.00755900  0.24084500  1
  O  O25  1  0.42844300  0.99244100  0.25915500  1
  O  O26  1  0.07155700  0.49244100  0.74084500  1
  O  O27  1  0.57155700  0.50755900  0.75915500  1
  O  O28  1  0.82343400  0.02846900  0.44981200  1
  O  O29  1  0.32343400  0.97153100  0.05018800  1
  O  O30  1  0.17656600  0.47153100  0.94981200  1
  O  O31  1  0.67656600  0.52846900  0.55018800  1
  O  O32  1  0.83916000  0.50756800  0.32768400  1
  O  O33  1  0.33916000  0.49243200  0.17231600  1
  O  O34  1  0.16084000  0.99243200  0.82768400  1
  O  O35  1  0.66084000  0.00756800  0.67231600  1
  O  O36  1  0.51290200  0.73441100  0.38271900  1
  O  O37  1  0.01290200  0.26558900  0.11728100  1
  O  O38  1  0.48709800  0.76558900  0.88271900  1
  O  O39  1  0.98709800  0.23441100  0.61728100  1
  O  O40  1  0.54739700  0.27102700  0.34538100  1
  O  O41  1  0.04739700  0.72897300  0.15461900  1
  O  O42  1  0.45260300  0.22897300  0.84538100  1
  O  O43  1  0.95260300  0.77102700  0.65461900  1
