# generated using pymatgen
data_CsFe3P3O14
_symmetry_space_group_name_H-M   'P 1'
_cell_length_a   8.62309831
_cell_length_b   8.62309831
_cell_length_c   9.14062365
_cell_angle_alpha   76.31267867
_cell_angle_beta   76.31267867
_cell_angle_gamma   78.02523106
_symmetry_Int_Tables_number   1
_chemical_formula_structural   CsFe3P3O14
_chemical_formula_sum   'Cs2 Fe6 P6 O28'
_cell_volume   633.30590018
_cell_formula_units_Z   2
loop_
 _symmetry_equiv_pos_site_id
 _symmetry_equiv_pos_as_xyz
  1  'x, y, z'
loop_
 _atom_site_type_symbol
 _atom_site_label
 _atom_site_symmetry_multiplicity
 _atom_site_fract_x
 _atom_site_fract_y
 _atom_site_fract_z
 _atom_site_occupancy
  Cs  Cs0  1  0.35574500  0.64425500  0.75000000  1
  Cs  Cs1  1  0.64425500  0.35574500  0.25000000  1
  Fe  Fe2  1  0.73356900  0.26643100  0.75000000  1
  Fe  Fe3  1  0.26643100  0.73356900  0.25000000  1
  Fe  Fe4  1  0.74581600  0.89532700  0.57297700  1
  Fe  Fe5  1  0.10467300  0.25418400  0.92702300  1
  Fe  Fe6  1  0.25418400  0.10467300  0.42702300  1
  Fe  Fe7  1  0.89532700  0.74581600  0.07297700  1
  P  P8  1  0.99090700  0.00909300  0.75000000  1
  P  P9  1  0.00909300  0.99090700  0.25000000  1
  P  P10  1  0.42489200  0.15892900  0.67582300  1
  P  P11  1  0.84107100  0.57510800  0.82417700  1
  P  P12  1  0.57510800  0.84107100  0.32417700  1
  P  P13  1  0.15892900  0.42489200  0.17582300  1
  O  O14  1  0.86405900  0.70743500  0.67778800  1
  O  O15  1  0.29256500  0.13594100  0.82221200  1
  O  O16  1  0.13594100  0.29256500  0.32221200  1
  O  O17  1  0.70743500  0.86405900  0.17778800  1
  O  O18  1  0.65191300  0.77235800  0.46794800  1
  O  O19  1  0.22764200  0.34808700  0.03205200  1
  O  O20  1  0.34808700  0.22764200  0.53205200  1
  O  O21  1  0.77235800  0.65191300  0.96794800  1
  O  O22  1  0.13632800  0.98871700  0.61740500  1
  O  O23  1  0.01128300  0.86367200  0.88259500  1
  O  O24  1  0.86367200  0.01128300  0.38259500  1
  O  O25  1  0.98871700  0.13632800  0.11740500  1
  O  O26  1  0.18163800  0.61155200  0.46388300  1
  O  O27  1  0.38844800  0.81836200  0.03611700  1
  O  O28  1  0.81836200  0.38844800  0.53611700  1
  O  O29  1  0.61155200  0.18163800  0.96388300  1
  O  O30  1  0.53205200  0.99283200  0.66151600  1
  O  O31  1  0.00716800  0.46794800  0.83848400  1
  O  O32  1  0.46794800  0.00716800  0.33848400  1
  O  O33  1  0.99283200  0.53205200  0.16151600  1
  O  O34  1  0.82630400  0.03303800  0.69492300  1
  O  O35  1  0.96696200  0.17369600  0.80507700  1
  O  O36  1  0.17369600  0.96696200  0.30507700  1
  O  O37  1  0.03303800  0.82630400  0.19492300  1
  O  O38  1  0.52597300  0.28488900  0.68679600  1
  O  O39  1  0.71511100  0.47402700  0.81320400  1
  O  O40  1  0.47402700  0.71511100  0.31320400  1
  O  O41  1  0.28488900  0.52597300  0.18679600  1
