# generated using pymatgen
data_Zn3P2
_symmetry_space_group_name_H-M   'P 1'
_cell_length_a   9.90585145
_cell_length_b   9.90585145
_cell_length_c   9.90585145
_cell_angle_alpha   109.47122063
_cell_angle_beta   109.47122063
_cell_angle_gamma   109.47122063
_symmetry_Int_Tables_number   1
_chemical_formula_structural   Zn3P2
_chemical_formula_sum   'Zn24 P16'
_cell_volume   748.26174389
_cell_formula_units_Z   8
loop_
 _symmetry_equiv_pos_site_id
 _symmetry_equiv_pos_as_xyz
  1  'x, y, z'
loop_
 _atom_site_type_symbol
 _atom_site_label
 _atom_site_symmetry_multiplicity
 _atom_site_fract_x
 _atom_site_fract_y
 _atom_site_fract_z
 _atom_site_occupancy
  Zn  Zn0  1  0.47555600  0.22774000  0.46451100  1
  Zn  Zn1  1  0.23677200  0.27226000  0.74781700  1
  Zn  Zn2  1  0.02444400  0.48895500  0.75218300  1
  Zn  Zn3  1  0.26322800  0.01104500  0.03548900  1
  Zn  Zn4  1  0.22774000  0.46451100  0.47555600  1
  Zn  Zn5  1  0.27226000  0.74781700  0.23677200  1
  Zn  Zn6  1  0.48895500  0.75218300  0.02444400  1
  Zn  Zn7  1  0.01104500  0.03548900  0.26322800  1
  Zn  Zn8  1  0.46451100  0.47555600  0.22774000  1
  Zn  Zn9  1  0.74781700  0.23677200  0.27226000  1
  Zn  Zn10  1  0.75218300  0.02444400  0.48895500  1
  Zn  Zn11  1  0.03548900  0.26322800  0.01104500  1
  Zn  Zn12  1  0.52444400  0.77226000  0.53548900  1
  Zn  Zn13  1  0.76322800  0.72774000  0.25218300  1
  Zn  Zn14  1  0.97555600  0.51104500  0.24781700  1
  Zn  Zn15  1  0.73677200  0.98895500  0.96451100  1
  Zn  Zn16  1  0.77226000  0.53548900  0.52444400  1
  Zn  Zn17  1  0.72774000  0.25218300  0.76322800  1
  Zn  Zn18  1  0.51104500  0.24781700  0.97555600  1
  Zn  Zn19  1  0.98895500  0.96451100  0.73677200  1
  Zn  Zn20  1  0.53548900  0.52444400  0.77226000  1
  Zn  Zn21  1  0.25218300  0.76322800  0.72774000  1
  Zn  Zn22  1  0.24781700  0.97555600  0.51104500  1
  Zn  Zn23  1  0.96451100  0.73677200  0.98895500  1
  P  P24  1  0.50000000  0.00000000  0.50000000  1
  P  P25  1  0.50000000  0.50000000  0.00000000  1
  P  P26  1  0.00000000  0.50000000  0.50000000  1
  P  P27  1  0.00000000  0.00000000  0.00000000  1
  P  P28  1  0.76023700  0.25000000  0.01023700  1
  P  P29  1  0.73976300  0.75000000  0.48976300  1
  P  P30  1  0.25000000  0.01023700  0.76023700  1
  P  P31  1  0.75000000  0.48976300  0.73976300  1
  P  P32  1  0.01023700  0.76023700  0.25000000  1
  P  P33  1  0.48976300  0.73976300  0.75000000  1
  P  P34  1  0.23976300  0.75000000  0.98976300  1
  P  P35  1  0.26023700  0.25000000  0.51023700  1
  P  P36  1  0.75000000  0.98976300  0.23976300  1
  P  P37  1  0.25000000  0.51023700  0.26023700  1
  P  P38  1  0.98976300  0.23976300  0.75000000  1
  P  P39  1  0.51023700  0.26023700  0.25000000  1
