# generated using pymatgen
data_Yb(BRh)4
_symmetry_space_group_name_H-M   'P 1'
_cell_length_a   7.47657600
_cell_length_b   7.52369300
_cell_length_c   11.83961084
_cell_angle_alpha   90.00000000
_cell_angle_beta   108.40574400
_cell_angle_gamma   90.00000000
_symmetry_Int_Tables_number   1
_chemical_formula_structural   Yb(BRh)4
_chemical_formula_sum   'Yb6 B24 Rh24'
_cell_volume   631.92600482
_cell_formula_units_Z   6
loop_
 _symmetry_equiv_pos_site_id
 _symmetry_equiv_pos_as_xyz
  1  'x, y, z'
loop_
 _atom_site_type_symbol
 _atom_site_label
 _atom_site_symmetry_multiplicity
 _atom_site_fract_x
 _atom_site_fract_y
 _atom_site_fract_z
 _atom_site_occupancy
  Yb  Yb0  1  0.91723200  0.25000000  0.83446400  1
  Yb  Yb1  1  0.41723200  0.75000000  0.83446400  1
  Yb  Yb2  1  0.08276800  0.75000000  0.16553600  1
  Yb  Yb3  1  0.58276800  0.25000000  0.16553600  1
  Yb  Yb4  1  0.25000000  0.25000000  0.50000000  1
  Yb  Yb5  1  0.75000000  0.75000000  0.50000000  1
  B  B6  1  0.22369300  0.07965000  0.72076300  1
  B  B7  1  0.99707000  0.57965000  0.72076300  1
  B  B8  1  0.50293000  0.57965000  0.27923700  1
  B  B9  1  0.27630700  0.07965000  0.27923700  1
  B  B10  1  0.77630700  0.92035000  0.27923700  1
  B  B11  1  0.00293000  0.42035000  0.27923700  1
  B  B12  1  0.49707000  0.42035000  0.72076300  1
  B  B13  1  0.72369300  0.92035000  0.72076300  1
  B  B14  1  0.30430900  0.38776900  0.94296900  1
  B  B15  1  0.13866000  0.88776900  0.94296900  1
  B  B16  1  0.36134000  0.88776900  0.05703100  1
  B  B17  1  0.19569100  0.38776900  0.05703100  1
  B  B18  1  0.69569100  0.61223100  0.05703100  1
  B  B19  1  0.86134000  0.11223100  0.05703100  1
  B  B20  1  0.63866000  0.11223100  0.94296900  1
  B  B21  1  0.80430900  0.61223100  0.94296900  1
  B  B22  1  0.84432100  0.08631600  0.39354900  1
  B  B23  1  0.04922800  0.58631600  0.39354900  1
  B  B24  1  0.45077200  0.58631600  0.60645100  1
  B  B25  1  0.65567900  0.08631600  0.60645100  1
  B  B26  1  0.15567800  0.91368400  0.60645100  1
  B  B27  1  0.95077200  0.41368400  0.60645100  1
  B  B28  1  0.54922800  0.41368400  0.39354900  1
  B  B29  1  0.34432200  0.91368400  0.39354900  1
  Rh  Rh30  1  0.33970000  0.09752100  0.91555000  1
  Rh  Rh31  1  0.07585000  0.59752100  0.91555000  1
  Rh  Rh32  1  0.42415000  0.59752100  0.08445000  1
  Rh  Rh33  1  0.16030000  0.09752100  0.08445000  1
  Rh  Rh34  1  0.66030000  0.90247900  0.08445000  1
  Rh  Rh35  1  0.92415000  0.40247900  0.08445000  1
  Rh  Rh36  1  0.57585000  0.40247900  0.91555000  1
  Rh  Rh37  1  0.83970000  0.90247900  0.91555000  1
  Rh  Rh38  1  0.22403000  0.36559100  0.75168100  1
  Rh  Rh39  1  0.02765100  0.86559100  0.75168100  1
  Rh  Rh40  1  0.47234900  0.86559100  0.24831900  1
  Rh  Rh41  1  0.27597000  0.36559100  0.24831900  1
  Rh  Rh42  1  0.77597000  0.63440900  0.24831900  1
  Rh  Rh43  1  0.97234900  0.13440900  0.24831900  1
  Rh  Rh44  1  0.52765100  0.13440900  0.75168100  1
  Rh  Rh45  1  0.72403000  0.63440900  0.75168100  1
  Rh  Rh46  1  0.93837000  0.12611500  0.58428800  1
  Rh  Rh47  1  0.14591800  0.62611500  0.58428800  1
  Rh  Rh48  1  0.35408200  0.62611500  0.41571200  1
  Rh  Rh49  1  0.56163000  0.12611500  0.41571200  1
  Rh  Rh50  1  0.06163000  0.87388500  0.41571200  1
  Rh  Rh51  1  0.85408200  0.37388500  0.41571200  1
  Rh  Rh52  1  0.64591800  0.37388500  0.58428800  1
  Rh  Rh53  1  0.43837000  0.87388500  0.58428800  1
