# generated using pymatgen
data_SbN2F5
_symmetry_space_group_name_H-M   'P 1'
_cell_length_a   15.43611400
_cell_length_b   6.58376300
_cell_length_c   7.01117082
_cell_angle_alpha   89.16259451
_cell_angle_beta   90.00000000
_cell_angle_gamma   90.00000000
_symmetry_Int_Tables_number   1
_chemical_formula_structural   SbN2F5
_chemical_formula_sum   'Sb4 N8 F20'
_cell_volume   712.45317758
_cell_formula_units_Z   4
loop_
 _symmetry_equiv_pos_site_id
 _symmetry_equiv_pos_as_xyz
  1  'x, y, z'
loop_
 _atom_site_type_symbol
 _atom_site_label
 _atom_site_symmetry_multiplicity
 _atom_site_fract_x
 _atom_site_fract_y
 _atom_site_fract_z
 _atom_site_occupancy
  Sb  Sb0  1  0.12637100  0.26666900  0.75086800  1
  Sb  Sb1  1  0.62637100  0.73333100  0.74913200  1
  Sb  Sb2  1  0.87362900  0.73333100  0.24913200  1
  Sb  Sb3  1  0.37362900  0.26666900  0.25086800  1
  N  N4  1  0.18764000  0.77090800  0.24564900  1
  N  N5  1  0.68764000  0.22909200  0.25435100  1
  N  N6  1  0.81236000  0.22909200  0.75435100  1
  N  N7  1  0.31236000  0.77090800  0.74564900  1
  N  N8  1  0.99374600  0.76399600  0.73862100  1
  N  N9  1  0.49374600  0.23600400  0.76137900  1
  N  N10  1  0.00625400  0.23600400  0.26137900  1
  N  N11  1  0.50625400  0.76399600  0.23862100  1
  F  F12  1  0.00593200  0.27409300  0.71524800  1
  F  F13  1  0.50593200  0.72590700  0.78475200  1
  F  F14  1  0.99406800  0.72590700  0.28475200  1
  F  F15  1  0.49406800  0.27409300  0.21524800  1
  F  F16  1  0.16344100  0.49153700  0.60095000  1
  F  F17  1  0.66344100  0.50846300  0.89905000  1
  F  F18  1  0.83655900  0.50846300  0.39905000  1
  F  F19  1  0.33655900  0.49153700  0.10095000  1
  F  F20  1  0.14066400  0.42971000  0.96880300  1
  F  F21  1  0.64066400  0.57029000  0.53119700  1
  F  F22  1  0.85933600  0.57029000  0.03119700  1
  F  F23  1  0.35933600  0.42971000  0.46880300  1
  F  F24  1  0.16410600  0.10213200  0.54714800  1
  F  F25  1  0.66410600  0.89786800  0.95285200  1
  F  F26  1  0.83589400  0.89786800  0.45285200  1
  F  F27  1  0.33589400  0.10213200  0.04714800  1
  F  F28  1  0.13875900  0.03654900  0.91327500  1
  F  F29  1  0.63875900  0.96345100  0.58672500  1
  F  F30  1  0.86124100  0.96345100  0.08672500  1
  F  F31  1  0.36124100  0.03654900  0.41327500  1
