# generated using pymatgen
data_ThSO6
_symmetry_space_group_name_H-M   'P 1'
_cell_length_a   6.32626700
_cell_length_b   7.36414100
_cell_length_c   11.94659600
_cell_angle_alpha   90.00000000
_cell_angle_beta   90.00000000
_cell_angle_gamma   90.00000000
_symmetry_Int_Tables_number   1
_chemical_formula_structural   ThSO6
_chemical_formula_sum   'Th4 S4 O24'
_cell_volume   556.56230626
_cell_formula_units_Z   4
loop_
 _symmetry_equiv_pos_site_id
 _symmetry_equiv_pos_as_xyz
  1  'x, y, z'
loop_
 _atom_site_type_symbol
 _atom_site_label
 _atom_site_symmetry_multiplicity
 _atom_site_fract_x
 _atom_site_fract_y
 _atom_site_fract_z
 _atom_site_occupancy
  Th  Th0  1  0.25000000  0.32729900  0.57676000  1
  Th  Th1  1  0.25000000  0.17270100  0.07676000  1
  Th  Th2  1  0.75000000  0.67270100  0.42324000  1
  Th  Th3  1  0.75000000  0.82729900  0.92324000  1
  S  S4  1  0.25000000  0.55476600  0.86192400  1
  S  S5  1  0.25000000  0.94523400  0.36192400  1
  S  S6  1  0.75000000  0.44523400  0.13807600  1
  S  S7  1  0.75000000  0.05476600  0.63807600  1
  O  O8  1  0.25000000  0.45616400  0.97062600  1
  O  O9  1  0.25000000  0.04383600  0.47062600  1
  O  O10  1  0.75000000  0.54383600  0.02937400  1
  O  O11  1  0.75000000  0.95616400  0.52937400  1
  O  O12  1  0.25000000  0.41975000  0.76925200  1
  O  O13  1  0.25000000  0.08025000  0.26925200  1
  O  O14  1  0.75000000  0.58025000  0.23074800  1
  O  O15  1  0.75000000  0.91975000  0.73074800  1
  O  O16  1  0.05873300  0.66958200  0.85248700  1
  O  O17  1  0.44126700  0.83041800  0.35248700  1
  O  O18  1  0.55873300  0.33041800  0.14751300  1
  O  O19  1  0.94126700  0.16958200  0.64751300  1
  O  O20  1  0.94126700  0.33041800  0.14751300  1
  O  O21  1  0.55873300  0.16958200  0.64751300  1
  O  O22  1  0.44126700  0.66958200  0.85248700  1
  O  O23  1  0.05873300  0.83041800  0.35248700  1
  O  O24  1  0.00066900  0.05949700  0.94827000  1
  O  O25  1  0.49933100  0.44050300  0.44827000  1
  O  O26  1  0.50066900  0.94050300  0.05173000  1
  O  O27  1  0.99933100  0.55949700  0.55173000  1
  O  O28  1  0.99933100  0.94050300  0.05173000  1
  O  O29  1  0.50066900  0.55949700  0.55173000  1
  O  O30  1  0.49933100  0.05949700  0.94827000  1
  O  O31  1  0.00066900  0.44050300  0.44827000  1
