# generated using pymatgen
data_Ir4C5
_symmetry_space_group_name_H-M   'P 1'
_cell_length_a   5.04239600
_cell_length_b   5.04239600
_cell_length_c   15.07161900
_cell_angle_alpha   90.00000000
_cell_angle_beta   90.00000000
_cell_angle_gamma   90.00000000
_symmetry_Int_Tables_number   1
_chemical_formula_structural   Ir4C5
_chemical_formula_sum   'Ir16 C20'
_cell_volume   383.20732863
_cell_formula_units_Z   4
loop_
 _symmetry_equiv_pos_site_id
 _symmetry_equiv_pos_as_xyz
  1  'x, y, z'
loop_
 _atom_site_type_symbol
 _atom_site_label
 _atom_site_symmetry_multiplicity
 _atom_site_fract_x
 _atom_site_fract_y
 _atom_site_fract_z
 _atom_site_occupancy
  Ir  Ir0  1  0.00000000  0.00000000  0.50000000  1
  Ir  Ir1  1  0.00000000  0.00000000  0.00000000  1
  Ir  Ir2  1  0.00000000  0.00000000  0.25000000  1
  Ir  Ir3  1  0.00000000  0.00000000  0.75000000  1
  Ir  Ir4  1  0.50000000  0.50000000  0.36474800  1
  Ir  Ir5  1  0.50000000  0.50000000  0.86474800  1
  Ir  Ir6  1  0.50000000  0.50000000  0.63525200  1
  Ir  Ir7  1  0.50000000  0.50000000  0.13525200  1
  Ir  Ir8  1  0.50000000  0.00000000  0.43988600  1
  Ir  Ir9  1  0.50000000  0.00000000  0.93988600  1
  Ir  Ir10  1  0.00000000  0.50000000  0.56011400  1
  Ir  Ir11  1  0.00000000  0.50000000  0.06011400  1
  Ir  Ir12  1  0.50000000  0.00000000  0.17353100  1
  Ir  Ir13  1  0.50000000  0.00000000  0.67353100  1
  Ir  Ir14  1  0.00000000  0.50000000  0.82646900  1
  Ir  Ir15  1  0.00000000  0.50000000  0.32646900  1
  C  C16  1  0.32227900  0.32227900  0.25000000  1
  C  C17  1  0.67772100  0.67772100  0.25000000  1
  C  C18  1  0.32227900  0.67772100  0.75000000  1
  C  C19  1  0.67772100  0.32227900  0.75000000  1
  C  C20  1  0.18961900  0.33364300  0.44565800  1
  C  C21  1  0.81038100  0.66635700  0.44565800  1
  C  C22  1  0.18961900  0.66635700  0.94565800  1
  C  C23  1  0.81038100  0.33364300  0.94565800  1
  C  C24  1  0.33364300  0.81038100  0.55434200  1
  C  C25  1  0.66635700  0.18961900  0.55434200  1
  C  C26  1  0.66635700  0.81038100  0.05434200  1
  C  C27  1  0.33364300  0.18961900  0.05434200  1
  C  C28  1  0.22991100  0.83966900  0.35316800  1
  C  C29  1  0.77008900  0.16033100  0.35316800  1
  C  C30  1  0.22991100  0.16033100  0.85316800  1
  C  C31  1  0.77008900  0.83966900  0.85316800  1
  C  C32  1  0.83966900  0.77008900  0.64683200  1
  C  C33  1  0.16033100  0.22991100  0.64683200  1
  C  C34  1  0.16033100  0.77008900  0.14683200  1
  C  C35  1  0.83966900  0.22991100  0.14683200  1
