# generated using pymatgen
data_V3Pb5O12F
_symmetry_space_group_name_H-M   'P 1'
_cell_length_a   10.37986048
_cell_length_b   10.37986048
_cell_length_c   7.31702600
_cell_angle_alpha   90.00000000
_cell_angle_beta   90.00000000
_cell_angle_gamma   120.00000305
_symmetry_Int_Tables_number   1
_chemical_formula_structural   V3Pb5O12F
_chemical_formula_sum   'V6 Pb10 O24 F2'
_cell_volume   682.72883949
_cell_formula_units_Z   2
loop_
 _symmetry_equiv_pos_site_id
 _symmetry_equiv_pos_as_xyz
  1  'x, y, z'
loop_
 _atom_site_type_symbol
 _atom_site_label
 _atom_site_symmetry_multiplicity
 _atom_site_fract_x
 _atom_site_fract_y
 _atom_site_fract_z
 _atom_site_occupancy
  V  V0  1  0.02595700  0.61624300  0.75000000  1
  V  V1  1  0.38375700  0.40971400  0.75000000  1
  V  V2  1  0.59028600  0.97404300  0.75000000  1
  V  V3  1  0.97404300  0.38375700  0.25000000  1
  V  V4  1  0.61624300  0.59028600  0.25000000  1
  V  V5  1  0.40971400  0.02595700  0.25000000  1
  Pb  Pb6  1  0.66666700  0.33333300  0.50711000  1
  Pb  Pb7  1  0.33333300  0.66666700  0.00711000  1
  Pb  Pb8  1  0.33333300  0.66666700  0.49289000  1
  Pb  Pb9  1  0.66666700  0.33333300  0.99289000  1
  Pb  Pb10  1  0.22482300  0.98136600  0.75000000  1
  Pb  Pb11  1  0.01863400  0.24345700  0.75000000  1
  Pb  Pb12  1  0.75654300  0.77517700  0.75000000  1
  Pb  Pb13  1  0.77517700  0.01863400  0.25000000  1
  Pb  Pb14  1  0.98136600  0.75654300  0.25000000  1
  Pb  Pb15  1  0.24345700  0.22482300  0.25000000  1
  O  O16  1  0.83312700  0.50285500  0.75000000  1
  O  O17  1  0.49714500  0.33027200  0.75000000  1
  O  O18  1  0.66972800  0.16687300  0.75000000  1
  O  O19  1  0.16687300  0.49714500  0.25000000  1
  O  O20  1  0.50285500  0.66972800  0.25000000  1
  O  O21  1  0.33027200  0.83312700  0.25000000  1
  O  O22  1  0.11589100  0.51034000  0.75000000  1
  O  O23  1  0.48966000  0.60555100  0.75000000  1
  O  O24  1  0.39444900  0.88410900  0.75000000  1
  O  O25  1  0.88410900  0.48966000  0.25000000  1
  O  O26  1  0.51034000  0.39444900  0.25000000  1
  O  O27  1  0.60555100  0.11589100  0.25000000  1
  O  O28  1  0.08949600  0.73490400  0.56145600  1
  O  O29  1  0.26509600  0.35459100  0.56145600  1
  O  O30  1  0.64540900  0.91050400  0.56145600  1
  O  O31  1  0.91050400  0.26509600  0.06145600  1
  O  O32  1  0.73490400  0.64540900  0.06145600  1
  O  O33  1  0.35459100  0.08949600  0.06145600  1
  O  O34  1  0.91050400  0.26509600  0.43854400  1
  O  O35  1  0.73490400  0.64540900  0.43854400  1
  O  O36  1  0.35459100  0.08949600  0.43854400  1
  O  O37  1  0.08949600  0.73490400  0.93854400  1
  O  O38  1  0.26509600  0.35459100  0.93854400  1
  O  O39  1  0.64540900  0.91050400  0.93854400  1
  F  F40  1  0.00000000  0.00000000  0.50000000  1
  F  F41  1  0.00000000  0.00000000  0.00000000  1
