# generated using pymatgen
data_Ca4Ce2TiSi4(BO6)4
_symmetry_space_group_name_H-M   'P 1'
_cell_length_a   4.80780000
_cell_length_b   10.36760400
_cell_length_c   19.06387455
_cell_angle_alpha   68.01810942
_cell_angle_beta   90.00000000
_cell_angle_gamma   90.00000000
_symmetry_Int_Tables_number   1
_chemical_formula_structural   Ca4Ce2TiSi4(BO6)4
_chemical_formula_sum   'Ca8 Ce4 Ti2 Si8 B8 O48'
_cell_volume   881.16504336
_cell_formula_units_Z   2
loop_
 _symmetry_equiv_pos_site_id
 _symmetry_equiv_pos_as_xyz
  1  'x, y, z'
loop_
 _atom_site_type_symbol
 _atom_site_label
 _atom_site_symmetry_multiplicity
 _atom_site_fract_x
 _atom_site_fract_y
 _atom_site_fract_z
 _atom_site_occupancy
  Ca  Ca0  1  0.99989200  0.33774200  0.24654400  1
  Ca  Ca1  1  0.99989200  0.66225800  0.25345600  1
  Ca  Ca2  1  0.00010800  0.66225800  0.75345600  1
  Ca  Ca3  1  0.00010800  0.33774200  0.74654400  1
  Ca  Ca4  1  0.03492800  0.07023300  0.15606300  1
  Ca  Ca5  1  0.03492800  0.92976700  0.34393700  1
  Ca  Ca6  1  0.96507200  0.92976700  0.84393700  1
  Ca  Ca7  1  0.96507200  0.07023300  0.65606300  1
  Ce  Ce8  1  0.98375400  0.34496500  0.46393300  1
  Ce  Ce9  1  0.98375400  0.65503500  0.03606700  1
  Ce  Ce10  1  0.01624600  0.65503500  0.53606700  1
  Ce  Ce11  1  0.01624600  0.34496500  0.96393300  1
  Ti  Ti12  1  0.00000000  0.00000000  0.50000000  1
  Ti  Ti13  1  0.00000000  0.00000000  0.00000000  1
  Si  Si14  1  0.51461600  0.64519300  0.39823100  1
  Si  Si15  1  0.51461600  0.35480700  0.10176900  1
  Si  Si16  1  0.48538400  0.35480700  0.60176900  1
  Si  Si17  1  0.48538400  0.64519300  0.89823100  1
  Si  Si18  1  0.49751500  0.83697900  0.11439300  1
  Si  Si19  1  0.49751500  0.16302100  0.38560700  1
  Si  Si20  1  0.50248500  0.16302100  0.88560700  1
  Si  Si21  1  0.50248500  0.83697900  0.61439300  1
  B  B22  1  0.47363000  0.45068900  0.32844100  1
  B  B23  1  0.47363000  0.54931100  0.17155900  1
  B  B24  1  0.52637000  0.54931100  0.67155900  1
  B  B25  1  0.52637000  0.45068900  0.82844100  1
  B  B26  1  0.53628200  0.86677000  0.25445100  1
  B  B27  1  0.53628200  0.13323000  0.24554900  1
  B  B28  1  0.46371800  0.13323000  0.74554900  1
  B  B29  1  0.46371800  0.86677000  0.75445100  1
  O  O30  1  0.75898600  0.43841500  0.04096000  1
  O  O31  1  0.75898600  0.56158500  0.45904000  1
  O  O32  1  0.24101400  0.56158500  0.95904000  1
  O  O33  1  0.24101400  0.43841500  0.54096000  1
  O  O34  1  0.68159600  0.24308300  0.17567200  1
  O  O35  1  0.68159600  0.75691700  0.32432800  1
  O  O36  1  0.31840400  0.75691700  0.82432800  1
  O  O37  1  0.31840400  0.24308300  0.67567200  1
  O  O38  1  0.28989200  0.72298800  0.43252800  1
  O  O39  1  0.28989200  0.27701200  0.06747200  1
  O  O40  1  0.71010800  0.27701200  0.56747200  1
  O  O41  1  0.71010800  0.72298800  0.93252800  1
  O  O42  1  0.33416600  0.53711900  0.36836200  1
  O  O43  1  0.33416600  0.46288100  0.13163800  1
  O  O44  1  0.66583400  0.46288100  0.63163800  1
  O  O45  1  0.66583400  0.53711900  0.86836200  1
  O  O46  1  0.83812900  0.14239700  0.02969100  1
  O  O47  1  0.83812900  0.85760300  0.47030900  1
  O  O48  1  0.16187100  0.85760300  0.97030900  1
  O  O49  1  0.16187100  0.14239700  0.52969100  1
  O  O50  1  0.24512800  0.14339400  0.24487700  1
  O  O51  1  0.24512800  0.85660600  0.25512300  1
  O  O52  1  0.75487200  0.85660600  0.75512300  1
  O  O53  1  0.75487200  0.14339400  0.74487700  1
  O  O54  1  0.76842500  0.44399800  0.33645900  1
  O  O55  1  0.76842500  0.55600200  0.16354100  1
  O  O56  1  0.23157500  0.55600200  0.66354100  1
  O  O57  1  0.23157500  0.44399800  0.83645900  1
  O  O58  1  0.32578500  0.31097100  0.36753700  1
  O  O59  1  0.32578500  0.68902900  0.13246300  1
  O  O60  1  0.67421500  0.68902900  0.63246300  1
  O  O61  1  0.67421500  0.31097100  0.86753700  1
  O  O62  1  0.66858300  0.83848700  0.18869800  1
  O  O63  1  0.66858300  0.16151300  0.31130200  1
  O  O64  1  0.33141700  0.16151300  0.81130200  1
  O  O65  1  0.33141700  0.83848700  0.68869800  1
  O  O66  1  0.26229800  0.04303600  0.41406600  1
  O  O67  1  0.26229800  0.95696400  0.08593400  1
  O  O68  1  0.73770200  0.95696400  0.58593400  1
  O  O69  1  0.73770200  0.04303600  0.91406600  1
  O  O70  1  0.74935300  0.15781400  0.44373000  1
  O  O71  1  0.74935300  0.84218600  0.05627000  1
  O  O72  1  0.25064700  0.84218600  0.55627000  1
  O  O73  1  0.25064700  0.15781400  0.94373000  1
  O  O74  1  0.66184200  0.00000000  0.25000000  1
  O  O75  1  0.33815800  0.00000000  0.75000000  1
  O  O76  1  0.36238800  0.50000000  0.25000000  1
  O  O77  1  0.63761200  0.50000000  0.75000000  1
