# generated using pymatgen
data_ScV(TeO4)2
_symmetry_space_group_name_H-M   'P 1'
_cell_length_a   5.19517400
_cell_length_b   8.23199375
_cell_length_c   16.88909131
_cell_angle_alpha   94.72372289
_cell_angle_beta   90.00000000
_cell_angle_gamma   90.00000000
_symmetry_Int_Tables_number   1
_chemical_formula_structural   ScV(TeO4)2
_chemical_formula_sum   'Sc4 V4 Te8 O32'
_cell_volume   719.83633889
_cell_formula_units_Z   4
loop_
 _symmetry_equiv_pos_site_id
 _symmetry_equiv_pos_as_xyz
  1  'x, y, z'
loop_
 _atom_site_type_symbol
 _atom_site_label
 _atom_site_symmetry_multiplicity
 _atom_site_fract_x
 _atom_site_fract_y
 _atom_site_fract_z
 _atom_site_occupancy
  Sc  Sc0  1  0.72791100  0.33979600  0.32677500  1
  Sc  Sc1  1  0.77208900  0.83979600  0.82677500  1
  Sc  Sc2  1  0.27208900  0.66020400  0.67322500  1
  Sc  Sc3  1  0.22791100  0.16020400  0.17322500  1
  V  V4  1  0.21048500  0.14635200  0.42761100  1
  V  V5  1  0.28951500  0.64635200  0.92761100  1
  V  V6  1  0.78951500  0.85364800  0.57238900  1
  V  V7  1  0.71048500  0.35364800  0.07238900  1
  Te  Te8  1  0.24944800  0.55593300  0.22274200  1
  Te  Te9  1  0.25055200  0.05593300  0.72274200  1
  Te  Te10  1  0.75055200  0.44406700  0.77725800  1
  Te  Te11  1  0.74944800  0.94406700  0.27725800  1
  Te  Te12  1  0.85534100  0.36418500  0.56895800  1
  Te  Te13  1  0.64465900  0.86418500  0.06895800  1
  Te  Te14  1  0.14465900  0.63581500  0.43104200  1
  Te  Te15  1  0.35534100  0.13581500  0.93104200  1
  O  O16  1  0.53924900  0.53074000  0.28697000  1
  O  O17  1  0.96075100  0.03074000  0.78697000  1
  O  O18  1  0.46075100  0.46926000  0.71303000  1
  O  O19  1  0.03924900  0.96926000  0.21303000  1
  O  O20  1  0.06678800  0.36147700  0.24849500  1
  O  O21  1  0.43321200  0.86147700  0.74849500  1
  O  O22  1  0.93321200  0.63852300  0.75150500  1
  O  O23  1  0.56678800  0.13852300  0.25150500  1
  O  O24  1  0.09679500  0.19807800  0.53045500  1
  O  O25  1  0.40320500  0.69807800  0.03045500  1
  O  O26  1  0.90320500  0.80192200  0.46954500  1
  O  O27  1  0.59679500  0.30192200  0.96954500  1
  O  O28  1  0.92211500  0.31768900  0.67846200  1
  O  O29  1  0.57788500  0.81768900  0.17846200  1
  O  O30  1  0.07788500  0.68231100  0.32153800  1
  O  O31  1  0.42211500  0.18231100  0.82153800  1
  O  O32  1  0.09681700  0.53904100  0.57328900  1
  O  O33  1  0.40318300  0.03904100  0.07328900  1
  O  O34  1  0.90318300  0.46095900  0.42671100  1
  O  O35  1  0.59681700  0.96095900  0.92671100  1
  O  O36  1  0.93770000  0.12735000  0.36069500  1
  O  O37  1  0.56230000  0.62735000  0.86069500  1
  O  O38  1  0.06230000  0.87265000  0.63930500  1
  O  O39  1  0.43770000  0.37265000  0.13930500  1
  O  O40  1  0.42098900  0.29744000  0.40397300  1
  O  O41  1  0.07901100  0.79744000  0.90397300  1
  O  O42  1  0.57901100  0.70256000  0.59602700  1
  O  O43  1  0.92098900  0.20256000  0.09602700  1
  O  O44  1  0.36332100  0.96963300  0.42070900  1
  O  O45  1  0.13667900  0.46963300  0.92070900  1
  O  O46  1  0.63667900  0.03036700  0.57929100  1
  O  O47  1  0.86332100  0.53036700  0.07929100  1
