# generated using pymatgen
data_NaMnO3F4
_symmetry_space_group_name_H-M   'P 1'
_cell_length_a   8.94241647
_cell_length_b   8.94241647
_cell_length_c   11.27294852
_cell_angle_alpha   75.76026307
_cell_angle_beta   75.76026307
_cell_angle_gamma   43.05791173
_symmetry_Int_Tables_number   1
_chemical_formula_structural   NaMnO3F4
_chemical_formula_sum   'Na4 Mn4 O12 F16'
_cell_volume   593.55437238
_cell_formula_units_Z   4
loop_
 _symmetry_equiv_pos_site_id
 _symmetry_equiv_pos_as_xyz
  1  'x, y, z'
loop_
 _atom_site_type_symbol
 _atom_site_label
 _atom_site_symmetry_multiplicity
 _atom_site_fract_x
 _atom_site_fract_y
 _atom_site_fract_z
 _atom_site_occupancy
  Na  Na0  1  0.22865400  0.71829000  0.96842200  1
  Na  Na1  1  0.28171000  0.77134600  0.53157800  1
  Na  Na2  1  0.77134600  0.28171000  0.03157800  1
  Na  Na3  1  0.71829000  0.22865400  0.46842200  1
  Mn  Mn4  1  0.24297200  0.75702800  0.25000000  1
  Mn  Mn5  1  0.75702800  0.24297200  0.75000000  1
  Mn  Mn6  1  0.00000000  0.50000000  0.00000000  1
  Mn  Mn7  1  0.50000000  0.00000000  0.50000000  1
  O  O8  1  0.35198800  0.87866300  0.20837700  1
  O  O9  1  0.12133700  0.64801200  0.29162300  1
  O  O10  1  0.64801200  0.12133700  0.79162300  1
  O  O11  1  0.87866300  0.35198800  0.70837700  1
  O  O12  1  0.97073700  0.34010600  0.20750700  1
  O  O13  1  0.65989400  0.02926300  0.29249300  1
  O  O14  1  0.02926300  0.65989400  0.79249300  1
  O  O15  1  0.34010600  0.97073700  0.70750700  1
  O  O16  1  0.41939200  0.92229600  0.80148200  1
  O  O17  1  0.07770400  0.58060800  0.69851800  1
  O  O18  1  0.58060800  0.07770400  0.19851800  1
  O  O19  1  0.92229600  0.41939200  0.30148200  1
  F  F20  1  0.55766200  0.43910000  0.86831700  1
  F  F21  1  0.56090000  0.44233800  0.63168300  1
  F  F22  1  0.44233800  0.56090000  0.13168300  1
  F  F23  1  0.43910000  0.55766200  0.36831700  1
  F  F24  1  0.95080600  0.04720600  0.87080700  1
  F  F25  1  0.95279400  0.04919400  0.62919300  1
  F  F26  1  0.04919400  0.95279400  0.12919300  1
  F  F27  1  0.04720600  0.95080600  0.37080700  1
  F  F28  1  0.15864700  0.52688800  0.05617800  1
  F  F29  1  0.47311200  0.84135300  0.44382200  1
  F  F30  1  0.84135300  0.47311200  0.94382200  1
  F  F31  1  0.52688800  0.15864700  0.55617800  1
  F  F32  1  0.74540400  0.77228800  0.04556100  1
  F  F33  1  0.22771200  0.25459600  0.45443900  1
  F  F34  1  0.25459600  0.22771200  0.95443900  1
  F  F35  1  0.77228800  0.74540400  0.54556100  1
