# generated using pymatgen
data_Rb8Ta6O23
_symmetry_space_group_name_H-M   'P 1'
_cell_length_a   9.83380231
_cell_length_b   9.83380231
_cell_length_c   14.69204050
_cell_angle_alpha   89.61378312
_cell_angle_beta   89.61378312
_cell_angle_gamma   100.79872208
_symmetry_Int_Tables_number   1
_chemical_formula_structural   Rb8Ta6O23
_chemical_formula_sum   'Rb16 Ta12 O46'
_cell_volume   1395.53628909
_cell_formula_units_Z   2
loop_
 _symmetry_equiv_pos_site_id
 _symmetry_equiv_pos_as_xyz
  1  'x, y, z'
loop_
 _atom_site_type_symbol
 _atom_site_label
 _atom_site_symmetry_multiplicity
 _atom_site_fract_x
 _atom_site_fract_y
 _atom_site_fract_z
 _atom_site_occupancy
  Rb  Rb0  1  0.16151500  0.83848500  0.25000000  1
  Rb  Rb1  1  0.83848500  0.16151500  0.75000000  1
  Rb  Rb2  1  0.65201400  0.34798600  0.25000000  1
  Rb  Rb3  1  0.34798600  0.65201400  0.75000000  1
  Rb  Rb4  1  0.03742400  0.88727000  0.62268800  1
  Rb  Rb5  1  0.11273000  0.96257600  0.87731200  1
  Rb  Rb6  1  0.96257600  0.11273000  0.37731200  1
  Rb  Rb7  1  0.88727000  0.03742400  0.12268800  1
  Rb  Rb8  1  0.27260900  0.45383600  0.31823200  1
  Rb  Rb9  1  0.54616400  0.72739100  0.18176800  1
  Rb  Rb10  1  0.72739100  0.54616400  0.68176800  1
  Rb  Rb11  1  0.45383600  0.27260900  0.81823200  1
  Rb  Rb12  1  0.88285600  0.57582300  0.41513000  1
  Rb  Rb13  1  0.42417700  0.11714400  0.08487000  1
  Rb  Rb14  1  0.11714400  0.42417700  0.58487000  1
  Rb  Rb15  1  0.57582300  0.88285600  0.91513000  1
  Ta  Ta16  1  0.20092300  0.67602100  0.02956000  1
  Ta  Ta17  1  0.32397900  0.79907700  0.47044000  1
  Ta  Ta18  1  0.79907700  0.32397900  0.97044000  1
  Ta  Ta19  1  0.67602100  0.20092300  0.52956000  1
  Ta  Ta20  1  0.85376500  0.66840300  0.02772300  1
  Ta  Ta21  1  0.33159700  0.14623500  0.47227700  1
  Ta  Ta22  1  0.14623500  0.33159700  0.97227700  1
  Ta  Ta23  1  0.66840300  0.85376500  0.52772300  1
  Ta  Ta24  1  0.98884900  0.43960700  0.15698100  1
  Ta  Ta25  1  0.56039300  0.01115100  0.34301900  1
  Ta  Ta26  1  0.01115100  0.56039300  0.84301900  1
  Ta  Ta27  1  0.43960700  0.98884900  0.65698100  1
  O  O28  1  0.18830000  0.65187900  0.44617500  1
  O  O29  1  0.34812100  0.81170000  0.05382500  1
  O  O30  1  0.81170000  0.34812100  0.55382500  1
  O  O31  1  0.65187900  0.18830000  0.94617500  1
  O  O32  1  0.79546100  0.74591400  0.54779300  1
  O  O33  1  0.25408600  0.20453900  0.95220700  1
  O  O34  1  0.20453900  0.25408600  0.45220700  1
  O  O35  1  0.74591400  0.79546100  0.04779300  1
  O  O36  1  0.97287800  0.39178900  0.27678100  1
  O  O37  1  0.60821100  0.02712200  0.22321900  1
  O  O38  1  0.02712200  0.60821100  0.72321900  1
  O  O39  1  0.39178900  0.97287800  0.77678100  1
  O  O40  1  0.04393700  0.77838700  0.04764500  1
  O  O41  1  0.22161300  0.95606300  0.45235500  1
  O  O42  1  0.95606300  0.22161300  0.95235500  1
  O  O43  1  0.77838700  0.04393700  0.54764500  1
  O  O44  1  0.15534200  0.59053200  0.15368100  1
  O  O45  1  0.40946800  0.84465800  0.34631900  1
  O  O46  1  0.84465800  0.40946800  0.84631900  1
  O  O47  1  0.59053200  0.15534200  0.65368100  1
  O  O48  1  0.71548000  0.49288900  0.99970600  1
  O  O49  1  0.50711100  0.28452000  0.50029400  1
  O  O50  1  0.28452000  0.50711100  0.00029400  1
  O  O51  1  0.49288900  0.71548000  0.49970600  1
  O  O52  1  0.86564700  0.58164100  0.15111300  1
  O  O53  1  0.41835900  0.13435300  0.34888700  1
  O  O54  1  0.13435300  0.41835900  0.84888700  1
  O  O55  1  0.58164100  0.86564700  0.65111300  1
  O  O56  1  0.82612300  0.30816500  0.10402500  1
  O  O57  1  0.69183500  0.17387700  0.39597500  1
  O  O58  1  0.17387700  0.69183500  0.89597500  1
  O  O59  1  0.30816500  0.82612300  0.60402500  1
  O  O60  1  0.10674200  0.31105400  0.10650600  1
  O  O61  1  0.68894600  0.89325800  0.39349400  1
  O  O62  1  0.89325800  0.68894600  0.89349400  1
  O  O63  1  0.31105400  0.10674200  0.60650600  1
  O  O64  1  0.00000000  0.50000000  0.00000000  1
  O  O65  1  0.50000000  0.00000000  0.50000000  1
  O  O66  1  0.47206200  0.43550700  0.11238700  1
  O  O67  1  0.56449300  0.52793800  0.38761300  1
  O  O68  1  0.52793800  0.56449300  0.88761300  1
  O  O69  1  0.43550700  0.47206200  0.61238700  1
  O  O70  1  0.87369300  0.81765600  0.28141500  1
  O  O71  1  0.18234400  0.12630700  0.21858500  1
  O  O72  1  0.12630700  0.18234400  0.71858500  1
  O  O73  1  0.81765600  0.87369300  0.78141500  1
