# generated using pymatgen
data_CaZrAl9BO18
_symmetry_space_group_name_H-M   'P 1'
_cell_length_a   8.80233549
_cell_length_b   8.80233549
_cell_length_c   8.55223000
_cell_angle_alpha   90.00000000
_cell_angle_beta   90.00000000
_cell_angle_gamma   119.99999617
_symmetry_Int_Tables_number   1
_chemical_formula_structural   CaZrAl9BO18
_chemical_formula_sum   'Ca2 Zr2 Al18 B2 O36'
_cell_volume   573.85986898
_cell_formula_units_Z   2
loop_
 _symmetry_equiv_pos_site_id
 _symmetry_equiv_pos_as_xyz
  1  'x, y, z'
loop_
 _atom_site_type_symbol
 _atom_site_label
 _atom_site_symmetry_multiplicity
 _atom_site_fract_x
 _atom_site_fract_y
 _atom_site_fract_z
 _atom_site_occupancy
  Ca  Ca0  1  0.00000000  0.00000000  0.99357000  1
  Ca  Ca1  1  0.00000000  0.00000000  0.49357000  1
  Zr  Zr2  1  0.33333300  0.66666700  0.74956400  1
  Zr  Zr3  1  0.66666700  0.33333300  0.24956400  1
  Al  Al4  1  0.99568000  0.33239900  0.24956600  1
  Al  Al5  1  0.33671900  0.00432000  0.24956600  1
  Al  Al6  1  0.66760100  0.66328100  0.24956600  1
  Al  Al7  1  0.00432000  0.66760100  0.74956600  1
  Al  Al8  1  0.66328100  0.99568000  0.74956600  1
  Al  Al9  1  0.33239900  0.33671900  0.74956600  1
  Al  Al10  1  0.98210200  0.34305700  0.57795200  1
  Al  Al11  1  0.36095600  0.01789800  0.57795200  1
  Al  Al12  1  0.65694300  0.63904400  0.57795200  1
  Al  Al13  1  0.01789800  0.65694300  0.07795200  1
  Al  Al14  1  0.63904400  0.98210200  0.07795200  1
  Al  Al15  1  0.34305700  0.36095600  0.07795200  1
  Al  Al16  1  0.98268800  0.34325600  0.92165600  1
  Al  Al17  1  0.36056800  0.01731200  0.92165600  1
  Al  Al18  1  0.65674400  0.63943200  0.92165600  1
  Al  Al19  1  0.01731200  0.65674400  0.42165600  1
  Al  Al20  1  0.63943200  0.98268800  0.42165600  1
  Al  Al21  1  0.34325600  0.36056800  0.42165600  1
  B  B22  1  0.66666700  0.33333300  0.74952100  1
  B  B23  1  0.33333300  0.66666700  0.24952100  1
  O  O24  1  0.84629200  0.39897200  0.74949700  1
  O  O25  1  0.55268000  0.15370800  0.74949700  1
  O  O26  1  0.60102800  0.44732000  0.74949700  1
  O  O27  1  0.15370800  0.60102800  0.24949700  1
  O  O28  1  0.44732000  0.84629200  0.24949700  1
  O  O29  1  0.39897200  0.55268000  0.24949700  1
  O  O30  1  0.88228800  0.40525200  0.09195900  1
  O  O31  1  0.52296500  0.11771200  0.09195900  1
  O  O32  1  0.59474800  0.47703500  0.09195900  1
  O  O33  1  0.11771200  0.59474800  0.59195900  1
  O  O34  1  0.47703500  0.88228800  0.59195900  1
  O  O35  1  0.40525200  0.52296500  0.59195900  1
  O  O36  1  0.88247900  0.40532500  0.40713100  1
  O  O37  1  0.52284500  0.11752100  0.40713100  1
  O  O38  1  0.59467500  0.47715500  0.40713100  1
  O  O39  1  0.11752100  0.59467500  0.90713100  1
  O  O40  1  0.47715500  0.88247900  0.90713100  1
  O  O41  1  0.40532500  0.52284500  0.90713100  1
  O  O42  1  0.10975700  0.32832400  0.74963500  1
  O  O43  1  0.21856700  0.89024300  0.74963500  1
  O  O44  1  0.67167600  0.78143300  0.74963500  1
  O  O45  1  0.89024300  0.67167600  0.24963500  1
  O  O46  1  0.78143300  0.10975700  0.24963500  1
  O  O47  1  0.32832400  0.21856700  0.24963500  1
  O  O48  1  0.10720600  0.30008300  0.08171300  1
  O  O49  1  0.19287700  0.89279400  0.08171300  1
  O  O50  1  0.69991700  0.80712300  0.08171300  1
  O  O51  1  0.89279400  0.69991700  0.58171300  1
  O  O52  1  0.80712300  0.10720600  0.58171300  1
  O  O53  1  0.30008300  0.19287700  0.58171300  1
  O  O54  1  0.10675000  0.29901600  0.41720800  1
  O  O55  1  0.19226600  0.89325000  0.41720800  1
  O  O56  1  0.70098400  0.80773400  0.41720800  1
  O  O57  1  0.89325000  0.70098400  0.91720800  1
  O  O58  1  0.80773400  0.10675000  0.91720800  1
  O  O59  1  0.29901600  0.19226600  0.91720800  1
