# generated using pymatgen
data_Mn5(PO5)4
_symmetry_space_group_name_H-M   'P 1'
_cell_length_a   9.67759786
_cell_length_b   9.67759786
_cell_length_c   9.25340992
_cell_angle_alpha   83.06357986
_cell_angle_beta   83.06357986
_cell_angle_gamma   55.60766557
_symmetry_Int_Tables_number   1
_chemical_formula_structural   Mn5(PO5)4
_chemical_formula_sum   'Mn10 P8 O40'
_cell_volume   708.44228412
_cell_formula_units_Z   2
loop_
 _symmetry_equiv_pos_site_id
 _symmetry_equiv_pos_as_xyz
  1  'x, y, z'
loop_
 _atom_site_type_symbol
 _atom_site_label
 _atom_site_symmetry_multiplicity
 _atom_site_fract_x
 _atom_site_fract_y
 _atom_site_fract_z
 _atom_site_occupancy
  Mn  Mn0  1  0.10778800  0.89221200  0.75000000  1
  Mn  Mn1  1  0.89221200  0.10778800  0.25000000  1
  Mn  Mn2  1  0.73968800  0.62233500  0.67782300  1
  Mn  Mn3  1  0.37766500  0.26031200  0.82217700  1
  Mn  Mn4  1  0.26031200  0.37766500  0.32217700  1
  Mn  Mn5  1  0.62233500  0.73968800  0.17782300  1
  Mn  Mn6  1  0.80270900  0.84460700  0.89335300  1
  Mn  Mn7  1  0.15539300  0.19729100  0.60664700  1
  Mn  Mn8  1  0.19729100  0.15539300  0.10664700  1
  Mn  Mn9  1  0.84460700  0.80270900  0.39335300  1
  P  P10  1  0.89324200  0.26332300  0.87813300  1
  P  P11  1  0.73667700  0.10675800  0.62186700  1
  P  P12  1  0.10675800  0.73667700  0.12186700  1
  P  P13  1  0.26332300  0.89324200  0.37813300  1
  P  P14  1  0.09272400  0.59367000  0.65112900  1
  P  P15  1  0.40633000  0.90727600  0.84887100  1
  P  P16  1  0.90727600  0.40633000  0.34887100  1
  P  P17  1  0.59367000  0.09272400  0.15112900  1
  O  O18  1  0.87447200  0.42785800  0.81939400  1
  O  O19  1  0.57214200  0.12552800  0.68060600  1
  O  O20  1  0.12552800  0.57214200  0.18060600  1
  O  O21  1  0.42785800  0.87447200  0.31939400  1
  O  O22  1  0.73655500  0.26068100  0.88426400  1
  O  O23  1  0.73931900  0.26344500  0.61573600  1
  O  O24  1  0.26344500  0.73931900  0.11573600  1
  O  O25  1  0.26068100  0.73655500  0.38426400  1
  O  O26  1  0.03356100  0.12858500  0.76502500  1
  O  O27  1  0.87141500  0.96643900  0.73497500  1
  O  O28  1  0.96643900  0.87141500  0.23497500  1
  O  O29  1  0.12858500  0.03356100  0.26502500  1
  O  O30  1  0.97022200  0.20007800  0.02963000  1
  O  O31  1  0.79992200  0.02977800  0.47037000  1
  O  O32  1  0.02977800  0.79992200  0.97037000  1
  O  O33  1  0.20007800  0.97022200  0.52963000  1
  O  O34  1  0.05395900  0.61446600  0.48700400  1
  O  O35  1  0.38553400  0.94604100  0.01299600  1
  O  O36  1  0.94604100  0.38553400  0.51299600  1
  O  O37  1  0.61446600  0.05395900  0.98700400  1
  O  O38  1  0.18102600  0.67612200  0.68358200  1
  O  O39  1  0.32387800  0.81897400  0.81641800  1
  O  O40  1  0.81897400  0.32387800  0.31641800  1
  O  O41  1  0.67612200  0.18102600  0.18358200  1
  O  O42  1  0.20889600  0.39964300  0.68161800  1
  O  O43  1  0.60035700  0.79110400  0.81838200  1
  O  O44  1  0.79110400  0.60035700  0.31838200  1
  O  O45  1  0.39964300  0.20889600  0.18161800  1
  O  O46  1  0.92289800  0.66335800  0.74408400  1
  O  O47  1  0.33664200  0.07710200  0.75591600  1
  O  O48  1  0.07710200  0.33664200  0.25591600  1
  O  O49  1  0.66335800  0.92289800  0.24408400  1
  O  O50  1  0.60868500  0.56963400  0.65377900  1
  O  O51  1  0.43036600  0.39131500  0.84622100  1
  O  O52  1  0.39131500  0.43036600  0.34622100  1
  O  O53  1  0.56963400  0.60868500  0.15377900  1
  O  O54  1  0.78469600  0.70585500  0.04106100  1
  O  O55  1  0.29414500  0.21530400  0.45893900  1
  O  O56  1  0.21530400  0.29414500  0.95893900  1
  O  O57  1  0.70585500  0.78469600  0.54106100  1
