# generated using pymatgen
data_MoC8N4Cl7
_symmetry_space_group_name_H-M   'P 1'
_cell_length_a   8.55267400
_cell_length_b   8.68343100
_cell_length_c   13.72992500
_cell_angle_alpha   90.00000000
_cell_angle_beta   90.00000000
_cell_angle_gamma   90.00000000
_symmetry_Int_Tables_number   1
_chemical_formula_structural   MoC8N4Cl7
_chemical_formula_sum   'Mo2 C16 N8 Cl14'
_cell_volume   1019.67422390
_cell_formula_units_Z   2
loop_
 _symmetry_equiv_pos_site_id
 _symmetry_equiv_pos_as_xyz
  1  'x, y, z'
loop_
 _atom_site_type_symbol
 _atom_site_label
 _atom_site_symmetry_multiplicity
 _atom_site_fract_x
 _atom_site_fract_y
 _atom_site_fract_z
 _atom_site_occupancy
  Mo  Mo0  1  0.50000000  0.11721300  0.50000000  1
  Mo  Mo1  1  0.00000000  0.88278700  0.00000000  1
  C  C2  1  0.92922700  0.16123600  0.32444400  1
  C  C3  1  0.07077300  0.16123600  0.67555600  1
  C  C4  1  0.57077300  0.83876400  0.82444400  1
  C  C5  1  0.42922700  0.83876400  0.17555600  1
  C  C6  1  0.83073100  0.89456000  0.36106100  1
  C  C7  1  0.16926900  0.89456000  0.63893900  1
  C  C8  1  0.66926900  0.10544000  0.86106100  1
  C  C9  1  0.33073100  0.10544000  0.13893900  1
  C  C10  1  0.77084600  0.58844900  0.20009700  1
  C  C11  1  0.22915400  0.58844900  0.79990300  1
  C  C12  1  0.72915400  0.41155100  0.70009700  1
  C  C13  1  0.27084600  0.41155100  0.29990300  1
  C  C14  1  0.71827400  0.44864900  0.04452900  1
  C  C15  1  0.28172600  0.44864900  0.95547100  1
  C  C16  1  0.78172600  0.55135100  0.54452900  1
  C  C17  1  0.21827400  0.55135100  0.45547100  1
  N  N18  1  0.86902800  0.04136900  0.34831500  1
  N  N19  1  0.13097200  0.04136900  0.65168500  1
  N  N20  1  0.63097200  0.95863100  0.84831500  1
  N  N21  1  0.36902800  0.95863100  0.15168500  1
  N  N22  1  0.72869800  0.52921300  0.12347700  1
  N  N23  1  0.27130200  0.52921300  0.87652300  1
  N  N24  1  0.77130200  0.47078700  0.62347700  1
  N  N25  1  0.22869800  0.47078700  0.37652300  1
  Cl  Cl26  1  0.59317800  0.29344900  0.39399100  1
  Cl  Cl27  1  0.40682200  0.29344900  0.60600900  1
  Cl  Cl28  1  0.90682200  0.70655100  0.89399100  1
  Cl  Cl29  1  0.09317800  0.70655100  0.10600900  1
  Cl  Cl30  1  0.71555100  0.05936700  0.59432200  1
  Cl  Cl31  1  0.28444900  0.05936700  0.40567800  1
  Cl  Cl32  1  0.78444900  0.94063300  0.09432200  1
  Cl  Cl33  1  0.21555100  0.94063300  0.90567800  1
  Cl  Cl34  1  0.63406900  0.87434300  0.39478700  1
  Cl  Cl35  1  0.36593100  0.87434300  0.60521300  1
  Cl  Cl36  1  0.86593100  0.12565700  0.89478700  1
  Cl  Cl37  1  0.13406900  0.12565700  0.10521300  1
  Cl  Cl38  1  0.50000000  0.42374700  0.00000000  1
  Cl  Cl39  1  0.00000000  0.57625300  0.50000000  1
