# generated using pymatgen
data_InSi4H41C15O
_symmetry_space_group_name_H-M   'P 1'
_cell_length_a   9.59639974
_cell_length_b   17.20434637
_cell_length_c   17.31482822
_cell_angle_alpha   98.81794744
_cell_angle_beta   90.00000000
_cell_angle_gamma   90.00000000
_symmetry_Int_Tables_number   1
_chemical_formula_structural   InSi4H41C15O
_chemical_formula_sum   'In4 Si16 H164 C60 O4'
_cell_volume   2824.88606087
_cell_formula_units_Z   4
loop_
 _symmetry_equiv_pos_site_id
 _symmetry_equiv_pos_as_xyz
  1  'x, y, z'
loop_
 _atom_site_type_symbol
 _atom_site_label
 _atom_site_symmetry_multiplicity
 _atom_site_fract_x
 _atom_site_fract_y
 _atom_site_fract_z
 _atom_site_occupancy
  In  In0  1  0.46991432  0.90465282  0.53043036  1
  In  In1  1  0.03008568  0.40465282  0.03043036  1
  In  In2  1  0.53008568  0.09534718  0.46956964  1
  In  In3  1  0.96991432  0.59534718  0.96956964  1
  Si  Si4  1  0.28570130  0.76539390  0.38891678  1
  Si  Si5  1  0.21429870  0.26539390  0.88891678  1
  Si  Si6  1  0.71429870  0.23460610  0.61108322  1
  Si  Si7  1  0.78570130  0.73460610  0.11108322  1
  Si  Si8  1  0.56419196  0.71204428  0.46628130  1
  Si  Si9  1  0.93580804  0.21204428  0.96628130  1
  Si  Si10  1  0.43580804  0.28795572  0.53371870  1
  Si  Si11  1  0.06419196  0.78795572  0.03371870  1
  Si  Si12  1  0.29419735  0.87098889  0.70100858  1
  Si  Si13  1  0.20580265  0.37098889  0.20100858  1
  Si  Si14  1  0.70580265  0.12901111  0.29899142  1
  Si  Si15  1  0.79419735  0.62901111  0.79899142  1
  Si  Si16  1  0.40819871  0.04559419  0.27642544  1
  Si  Si17  1  0.09180129  0.54559419  0.77642544  1
  Si  Si18  1  0.59180129  0.95440581  0.72357456  1
  Si  Si19  1  0.90819871  0.45440581  0.22357456  1
  H  H20  1  0.51972983  0.81636083  0.39176204  1
  H  H21  1  0.98027017  0.31636083  0.89176204  1
  H  H22  1  0.48027017  0.18363917  0.60823796  1
  H  H23  1  0.01972983  0.68363917  0.10823796  1
  H  H24  1  0.09261247  0.67158662  0.39597026  1
  H  H25  1  0.40738753  0.17158662  0.89597026  1
  H  H26  1  0.90738753  0.32841338  0.60402974  1
  H  H27  1  0.59261247  0.82841338  0.10402974  1
  H  H28  1  0.16777781  0.69519957  0.48988868  1
  H  H29  1  0.33222219  0.19519957  0.98988868  1
  H  H30  1  0.83222219  0.30480043  0.51011132  1
  H  H31  1  0.66777781  0.80480043  0.01011132  1
  H  H32  1  0.25188899  0.62718297  0.41693464  1
  H  H33  1  0.24811101  0.12718297  0.91693464  1
  H  H34  1  0.74811101  0.37281703  0.58306536  1
  H  H35  1  0.75188899  0.87281703  0.08306536  1
  H  H36  1  0.21123039  0.72160607  0.25314127  1
  H  H37  1  0.28876961  0.22160607  0.75314127  1
  H  H38  1  0.78876961  0.27839393  0.74685873  1
  H  H39  1  0.71123039  0.77839393  0.24685873  1
  H  H40  1  0.36551374  0.67039417  0.27108213  1
  H  H41  1  0.13448626  0.17039417  0.77108213  1
  H  H42  1  0.63448626  0.32960583  0.72891787  1
  H  H43  1  0.86551374  0.82960583  0.22891787  1
  H  H44  1  0.37595888  0.76888620  0.25212747  1
  H  H45  1  0.12404112  0.26888620  0.75212747  1
  H  H46  1  0.62404112  0.23111380  0.74787253  1
  H  H47  1  0.87595888  0.73111380  0.24787253  1
  H  H48  1  0.12271909  0.86943691  0.45334768  1
  H  H49  1  0.37728091  0.36943691  0.95334768  1
  H  H50  1  0.87728091  0.13056309  0.54665232  1
  H  H51  1  0.62271909  0.63056309  0.04665232  1
  H  H52  1  0.06349701  0.82702209  0.35895464  1
  H  H53  1  0.43650299  0.32702209  0.85895464  1
  H  H54  1  0.93650299  0.17297791  0.64104536  1
  H  H55  1  0.56349701  0.67297791  0.14104536  1
  H  H56  1  0.20016778  0.89791034  0.36835064  1
  H  H57  1  0.29983222  0.39791034  0.86835064  1
  H  H58  1  0.79983222  0.10208966  0.63164936  1
  H  H59  1  0.70016778  0.60208966  0.13164936  1
  H  H60  1  0.39066618  0.63561501  0.53457124  1
  H  H61  1  0.10933382  0.13561501  0.03457124  1
  H  H62  1  0.60933382  0.36438499  0.46542876  1
  H  H63  1  0.89066618  0.86438499  0.96542876  1
  H  H64  1  0.47181568  0.71023275  0.60173122  1
  H  H65  1  0.02818432  0.21023275  0.10173122  1
  H  H66  1  0.52818432  0.28976725  0.39826878  1
  H  H67  1  0.97181568  0.78976725  0.89826878  1
  H  H68  1  0.56471417  0.62304067  0.56560844  1
  H  H69  1  0.93528583  0.12304067  0.06560844  1
  H  H70  1  0.43528583  0.37695933  0.43439156  1
  H  H71  1  0.06471417  0.87695933  0.93439156  1
  H  H72  1  0.48640044  0.60333984  0.35856919  1
  H  H73  1  0.01359956  0.10333984  0.85856919  1
  H  H74  1  0.51359956  0.39666016  0.64143081  1
  H  H75  1  0.98640044  0.89666016  0.14143081  1
  H  H76  1  0.64609644  0.58186805  0.40198679  1
  H  H77  1  0.85390356  0.08186805  0.90198679  1
  H  H78  1  0.35390356  0.41813195  0.59801321  1
  H  H79  1  0.14609644  0.91813195  0.09801321  1
  H  H80  1  0.64336670  0.64826085  0.33305508  1
  H  H81  1  0.85663330  0.14826085  0.83305508  1
  H  H82  1  0.35663330  0.35173915  0.66694492  1
  H  H83  1  0.14336670  0.85173915  0.16694492  1
  H  H84  1  0.75081426  0.79392875  0.54324653  1
  H  H85  1  0.74918574  0.29392875  0.04324653  1
  H  H86  1  0.24918574  0.20607125  0.45675347  1
  H  H87  1  0.25081426  0.70607125  0.95675347  1
  H  H88  1  0.80566125  0.76128423  0.44546524  1
  H  H89  1  0.69433875  0.26128423  0.94546524  1
  H  H90  1  0.19433875  0.23871577  0.55453476  1
  H  H91  1  0.30566125  0.73871577  0.05453476  1
  H  H92  1  0.80340291  0.69494127  0.51458863  1
  H  H93  1  0.69659709  0.19494127  0.01458863  1
  H  H94  1  0.19659709  0.30505873  0.48541137  1
  H  H95  1  0.30340291  0.80505873  0.98541137  1
  H  H96  1  0.48045422  0.16869793  0.34942626  1
  H  H97  1  0.01954578  0.66869793  0.84942626  1
  H  H98  1  0.51954578  0.83130207  0.65057374  1
  H  H99  1  0.98045422  0.33130207  0.15057374  1
  H  H100  1  0.27518531  0.98079606  0.81485947  1
  H  H101  1  0.22481469  0.48079606  0.31485947  1
  H  H102  1  0.72481469  0.01920394  0.18514053  1
  H  H103  1  0.77518531  0.51920394  0.68514053  1
  H  H104  1  0.10988841  0.94186643  0.78306801  1
  H  H105  1  0.39011159  0.44186643  0.28306801  1
  H  H106  1  0.89011159  0.05813357  0.21693199  1
  H  H107  1  0.60988841  0.55813357  0.71693199  1
  H  H108  1  0.19614301  0.00782327  0.72974414  1
  H  H109  1  0.30385699  0.50782327  0.22974414  1
  H  H110  1  0.80385699  0.99217673  0.27025586  1
  H  H111  1  0.69614301  0.49217673  0.77025586  1
  H  H112  1  0.20619799  0.78081623  0.78805555  1
  H  H113  1  0.29380201  0.28081623  0.28805555  1
  H  H114  1  0.79380201  0.21918377  0.21194445  1
  H  H115  1  0.70619799  0.71918377  0.71194445  1
  H  H116  1  0.38007681  0.80796356  0.81510910  1
  H  H117  1  0.11992319  0.30796356  0.31510910  1
  H  H118  1  0.61992319  0.19203644  0.18489090  1
  H  H119  1  0.88007681  0.69203644  0.68489090  1
  H  H120  1  0.34752359  0.73610740  0.73168039  1
  H  H121  1  0.15247641  0.23610740  0.23168039  1
  H  H122  1  0.65247641  0.26389260  0.26831961  1
  H  H123  1  0.84752359  0.76389260  0.76831961  1
  H  H124  1  0.20024203  0.78212228  0.58532289  1
  H  H125  1  0.29975797  0.28212228  0.08532289  1
  H  H126  1  0.79975797  0.21787772  0.41467711  1
  H  H127  1  0.70024203  0.71787772  0.91467711  1
  H  H128  1  0.13081383  0.87857764  0.58892573  1
  H  H129  1  0.36918617  0.37857764  0.08892573  1
  H  H130  1  0.86918617  0.12142236  0.41107427  1
  H  H131  1  0.63081383  0.62142236  0.91107427  1
  H  H132  1  0.06549803  0.81613369  0.65277856  1
  H  H133  1  0.43450197  0.31613369  0.15277856  1
  H  H134  1  0.93450197  0.18386631  0.34722144  1
  H  H135  1  0.56549803  0.68386631  0.84722144  1
  H  H136  1  0.45830456  0.92181053  0.32776267  1
  H  H137  1  0.04169544  0.42181053  0.82776267  1
  H  H138  1  0.54169544  0.07818947  0.67223733  1
  H  H139  1  0.95830456  0.57818947  0.17223733  1
  H  H140  1  0.56067127  0.92716062  0.24302951  1
  H  H141  1  0.93932873  0.42716062  0.74302951  1
  H  H142  1  0.43932873  0.07283938  0.75697049  1
  H  H143  1  0.06067127  0.57283938  0.25697049  1
  H  H144  1  0.38084693  0.90199009  0.23331492  1
  H  H145  1  0.11915307  0.40199009  0.73331492  1
  H  H146  1  0.61915307  0.09800991  0.76668508  1
  H  H147  1  0.88084693  0.59800991  0.26668508  1
  H  H148  1  0.49925043  0.05480961  0.14026968  1
  H  H149  1  0.00074957  0.55480961  0.64026968  1
  H  H150  1  0.50074957  0.94519039  0.85973032  1
  H  H151  1  0.99925043  0.44519039  0.35973032  1
  H  H152  1  0.38022554  0.13244608  0.17226259  1
  H  H153  1  0.11977446  0.63244608  0.67226259  1
  H  H154  1  0.61977446  0.86755392  0.82773741  1
  H  H155  1  0.88022554  0.36755392  0.32773741  1
  H  H156  1  0.31778365  0.03578295  0.14180109  1
  H  H157  1  0.18221635  0.53578295  0.64180109  1
  H  H158  1  0.68221635  0.96421705  0.85819891  1
  H  H159  1  0.81778365  0.46421705  0.35819891  1
  H  H160  1  0.15333567  0.02167289  0.27241276  1
  H  H161  1  0.34666433  0.52167289  0.77241276  1
  H  H162  1  0.84666433  0.97832711  0.72758724  1
  H  H163  1  0.65333567  0.47832711  0.22758724  1
  H  H164  1  0.18905628  0.11960089  0.31741122  1
  H  H165  1  0.31094372  0.61960089  0.81741122  1
  H  H166  1  0.81094372  0.88039911  0.68258878  1
  H  H167  1  0.68905628  0.38039911  0.18258878  1
  H  H168  1  0.21194556  0.03999034  0.37106087  1
  H  H169  1  0.28805444  0.53999034  0.87106087  1
  H  H170  1  0.78805444  0.96000966  0.62893913  1
  H  H171  1  0.71194556  0.46000966  0.12893913  1
  H  H172  1  0.16805446  0.06027442  0.50449897  1
  H  H173  1  0.33194554  0.56027442  0.00449897  1
  H  H174  1  0.83194554  0.93972558  0.49550103  1
  H  H175  1  0.66805446  0.43972558  0.99550103  1
  H  H176  1  0.26163231  0.09388208  0.59274443  1
  H  H177  1  0.23836769  0.59388208  0.09274443  1
  H  H178  1  0.73836769  0.90611792  0.40725557  1
  H  H179  1  0.76163231  0.40611792  0.90725557  1
  H  H180  1  0.19416869  0.99667622  0.57499120  1
  H  H181  1  0.30583131  0.49667622  0.07499120  1
  H  H182  1  0.80583131  0.00332378  0.42500880  1
  H  H183  1  0.69416869  0.50332378  0.92500880  1
  C  C184  1  0.24333739  0.04303906  0.54691875  1
  C  C185  1  0.25666261  0.54303906  0.04691875  1
  C  C186  1  0.75666261  0.95696094  0.45308125  1
  C  C187  1  0.74333739  0.45696094  0.95308125  1
  C  C188  1  0.45768771  0.79665817  0.43906453  1
  C  C189  1  0.04231229  0.29665817  0.93906453  1
  C  C190  1  0.54231229  0.20334183  0.56093547  1
  C  C191  1  0.95768771  0.70334183  0.06093547  1
  C  C192  1  0.19238459  0.68229236  0.42743149  1
  C  C193  1  0.30761541  0.18229236  0.92743149  1
  C  C194  1  0.80761541  0.31770764  0.57256851  1
  C  C195  1  0.69238459  0.81770764  0.07256851  1
  C  C196  1  0.31440237  0.72814006  0.28136070  1
  C  C197  1  0.18559763  0.22814006  0.78136070  1
  C  C198  1  0.68559763  0.27185994  0.71863930  1
  C  C199  1  0.81440237  0.77185994  0.21863930  1
  C  C200  1  0.15645733  0.84827559  0.39323607  1
  C  C201  1  0.34354267  0.34827559  0.89323607  1
  C  C202  1  0.84354267  0.15172441  0.60676393  1
  C  C203  1  0.65645733  0.65172441  0.10676393  1
  C  C204  1  0.48939426  0.66630781  0.54965547  1
  C  C205  1  0.01060574  0.16630781  0.04965547  1
  C  C206  1  0.51060574  0.33369219  0.45034453  1
  C  C207  1  0.98939426  0.83369219  0.95034453  1
  C  C208  1  0.58529335  0.62913242  0.38156646  1
  C  C209  1  0.91470665  0.12913242  0.88156646  1
  C  C210  1  0.41470665  0.37086758  0.61843354  1
  C  C211  1  0.08529335  0.87086758  0.11843354  1
  C  C212  1  0.74750942  0.74439187  0.49501853  1
  C  C213  1  0.75249058  0.24439187  0.99501853  1
  C  C214  1  0.25249058  0.25560813  0.50498147  1
  C  C215  1  0.24750942  0.75560813  0.00498147  1
  C  C216  1  0.53061774  0.11005985  0.34308485  1
  C  C217  1  0.96938226  0.61005985  0.84308485  1
  C  C218  1  0.46938226  0.88994015  0.65691515  1
  C  C219  1  0.03061774  0.38994015  0.15691515  1
  C  C220  1  0.21274136  0.95908094  0.76297852  1
  C  C221  1  0.28725864  0.45908094  0.26297852  1
  C  C222  1  0.78725864  0.04091906  0.23702148  1
  C  C223  1  0.71274136  0.54091906  0.73702148  1
  C  C224  1  0.31026679  0.79174605  0.76506026  1
  C  C225  1  0.18973321  0.29174605  0.26506026  1
  C  C226  1  0.68973321  0.20825395  0.23493974  1
  C  C227  1  0.81026679  0.70825395  0.73493974  1
  C  C228  1  0.16086845  0.83354833  0.62448163  1
  C  C229  1  0.33913155  0.33354833  0.12448163  1
  C  C230  1  0.83913155  0.16645167  0.37551837  1
  C  C231  1  0.66086845  0.66645167  0.87551837  1
  C  C232  1  0.45731353  0.93900780  0.26916866  1
  C  C233  1  0.04268647  0.43900780  0.76916866  1
  C  C234  1  0.54268647  0.06099220  0.73083134  1
  C  C235  1  0.95731353  0.56099220  0.23083134  1
  C  C236  1  0.40299401  0.06993055  0.17334986  1
  C  C237  1  0.09700599  0.56993055  0.67334986  1
  C  C238  1  0.59700599  0.93006945  0.82665014  1
  C  C239  1  0.90299401  0.43006945  0.32665014  1
  C  C240  1  0.22354346  0.05815739  0.31331650  1
  C  C241  1  0.27645654  0.55815739  0.81331650  1
  C  C242  1  0.77645654  0.94184261  0.68668350  1
  C  C243  1  0.72354346  0.44184261  0.18668350  1
  O  O244  1  0.36952145  0.01512319  0.50883688  1
  O  O245  1  0.13047855  0.51512319  0.00883688  1
  O  O246  1  0.63047855  0.98487681  0.49116312  1
  O  O247  1  0.86952145  0.48487681  0.99116312  1
