# generated using pymatgen
data_LaTi2Al9O19
_symmetry_space_group_name_H-M   'P 1'
_cell_length_a   9.80750943
_cell_length_b   11.08251300
_cell_length_c   12.67120197
_cell_angle_alpha   115.93244281
_cell_angle_beta   97.59234753
_cell_angle_gamma   90.00000000
_symmetry_Int_Tables_number   1
_chemical_formula_structural   LaTi2Al9O19
_chemical_formula_sum   'La4 Ti8 Al36 O76'
_cell_volume   1225.14079908
_cell_formula_units_Z   4
loop_
 _symmetry_equiv_pos_site_id
 _symmetry_equiv_pos_as_xyz
  1  'x, y, z'
loop_
 _atom_site_type_symbol
 _atom_site_label
 _atom_site_symmetry_multiplicity
 _atom_site_fract_x
 _atom_site_fract_y
 _atom_site_fract_z
 _atom_site_occupancy
  La  La0  1  0.43431800  0.42701800  0.10666700  1
  La  La1  1  0.06568200  0.32035100  0.89333300  1
  La  La2  1  0.56568200  0.57298200  0.89333300  1
  La  La3  1  0.93431800  0.67964900  0.10666700  1
  Ti  Ti4  1  0.36817800  0.28463600  0.79732400  1
  Ti  Ti5  1  0.13182200  0.48731200  0.20267600  1
  Ti  Ti6  1  0.63182200  0.71536400  0.20267600  1
  Ti  Ti7  1  0.86817800  0.51268800  0.79732400  1
  Ti  Ti8  1  0.62985900  0.06661300  0.37703900  1
  Ti  Ti9  1  0.87014100  0.68957400  0.62296100  1
  Ti  Ti10  1  0.37014100  0.93338700  0.62296100  1
  Ti  Ti11  1  0.12985900  0.31042600  0.37703900  1
  Al  Al12  1  0.81961700  0.35145300  0.45451900  1
  Al  Al13  1  0.68038300  0.89693400  0.54548100  1
  Al  Al14  1  0.18038300  0.64854700  0.54548100  1
  Al  Al15  1  0.31961700  0.10306600  0.45451900  1
  Al  Al16  1  0.59298500  0.56689200  0.61046900  1
  Al  Al17  1  0.90701500  0.95642300  0.38953100  1
  Al  Al18  1  0.40701500  0.43310800  0.38953100  1
  Al  Al19  1  0.09298500  0.04357700  0.61046900  1
  Al  Al20  1  0.41373800  0.09544700  0.94270900  1
  Al  Al21  1  0.08626200  0.15273800  0.05729100  1
  Al  Al22  1  0.58626200  0.90455300  0.05729100  1
  Al  Al23  1  0.91373800  0.84726200  0.94270900  1
  Al  Al24  1  0.75000000  0.12348800  0.00000000  1
  Al  Al25  1  0.25000000  0.87651200  0.00000000  1
  Al  Al26  1  0.63397500  0.16043500  0.78762900  1
  Al  Al27  1  0.86602500  0.37280600  0.21237100  1
  Al  Al28  1  0.36602500  0.83956500  0.21237100  1
  Al  Al29  1  0.13397500  0.62719400  0.78762900  1
  Al  Al30  1  0.61337700  0.23503600  0.20500100  1
  Al  Al31  1  0.88662300  0.03003500  0.79499900  1
  Al  Al32  1  0.38662300  0.76496400  0.79499900  1
  Al  Al33  1  0.11337700  0.96996500  0.20500100  1
  Al  Al34  1  0.63323100  0.88532900  0.79382700  1
  Al  Al35  1  0.86676900  0.09150200  0.20617300  1
  Al  Al36  1  0.36676900  0.11467100  0.20617300  1
  Al  Al37  1  0.13323100  0.90849800  0.79382700  1
  Al  Al38  1  0.34351600  0.43611100  0.61270300  1
  Al  Al39  1  0.15648400  0.82340800  0.38729700  1
  Al  Al40  1  0.65648400  0.56388900  0.38729700  1
  Al  Al41  1  0.84351600  0.17659200  0.61270300  1
  Al  Al42  1  0.59144600  0.29888700  0.60585500  1
  Al  Al43  1  0.90855400  0.69303200  0.39414500  1
  Al  Al44  1  0.40855400  0.70111300  0.39414500  1
  Al  Al45  1  0.09144600  0.30696800  0.60585500  1
  Al  Al46  1  0.75000000  0.38382400  0.00000000  1
  Al  Al47  1  0.25000000  0.61617600  0.00000000  1
  O  O48  1  0.69350500  0.21793500  0.68774700  1
  O  O49  1  0.80649500  0.53018800  0.31225300  1
  O  O50  1  0.30649500  0.78206500  0.31225300  1
  O  O51  1  0.19350500  0.46981200  0.68774700  1
  O  O52  1  0.33304800  0.22197100  0.91361700  1
  O  O53  1  0.16695200  0.30835400  0.08638300  1
  O  O54  1  0.66695200  0.77802900  0.08638300  1
  O  O55  1  0.83304800  0.69164600  0.91361700  1
  O  O56  1  0.33351300  0.45584300  0.91385300  1
  O  O57  1  0.16648700  0.54199000  0.08614700  1
  O  O58  1  0.66648700  0.54415700  0.08614700  1
  O  O59  1  0.83351300  0.45801000  0.91385300  1
  O  O60  1  0.49443600  0.39716600  0.52275200  1
  O  O61  1  0.00556400  0.87441500  0.47724800  1
  O  O62  1  0.50556400  0.60283400  0.47724800  1
  O  O63  1  0.99443600  0.12558500  0.52275200  1
  O  O64  1  0.75821200  0.00109100  0.49097800  1
  O  O65  1  0.74178800  0.51011300  0.50902200  1
  O  O66  1  0.24178800  0.99890900  0.50902200  1
  O  O67  1  0.25821200  0.48988700  0.49097800  1
  O  O68  1  0.58153200  0.06834800  0.89550700  1
  O  O69  1  0.91846800  0.17284100  0.10449300  1
  O  O70  1  0.41846800  0.93165200  0.10449300  1
  O  O71  1  0.08153200  0.82715900  0.89550700  1
  O  O72  1  0.31069900  0.52069000  0.29147700  1
  O  O73  1  0.18930100  0.22921300  0.70852300  1
  O  O74  1  0.68930100  0.47931000  0.70852300  1
  O  O75  1  0.81069900  0.77078700  0.29147700  1
  O  O76  1  0.50004900  0.13477000  0.49077200  1
  O  O77  1  0.99995100  0.64399700  0.50922800  1
  O  O78  1  0.49995100  0.86523000  0.50922800  1
  O  O79  1  0.00004900  0.35600300  0.49077200  1
  O  O80  1  0.55183100  0.64558800  0.29936500  1
  O  O81  1  0.94816900  0.34622300  0.70063500  1
  O  O82  1  0.44816900  0.35441200  0.70063500  1
  O  O83  1  0.05183100  0.65377700  0.29936500  1
  O  O84  1  0.54753800  0.14901800  0.28692700  1
  O  O85  1  0.95246200  0.86209100  0.71307300  1
  O  O86  1  0.45246200  0.85098200  0.71307300  1
  O  O87  1  0.04753800  0.13790900  0.28692700  1
  O  O88  1  0.30793800  0.94183100  0.89509800  1
  O  O89  1  0.19206200  0.04673300  0.10490200  1
  O  O90  1  0.69206200  0.05816900  0.10490200  1
  O  O91  1  0.80793800  0.95326700  0.89509800  1
  O  O92  1  0.44328700  0.17595100  0.10225500  1
  O  O93  1  0.05671300  0.07369600  0.89774500  1
  O  O94  1  0.55671300  0.82404900  0.89774500  1
  O  O95  1  0.94328700  0.92630400  0.10225500  1
  O  O96  1  0.23792400  0.25915700  0.50851400  1
  O  O97  1  0.26207600  0.75064300  0.49148600  1
  O  O98  1  0.76207600  0.74084300  0.49148600  1
  O  O99  1  0.73792400  0.24935700  0.50851400  1
  O  O100  1  0.54925200  0.39922300  0.29222200  1
  O  O101  1  0.95074800  0.10700000  0.70777800  1
  O  O102  1  0.45074800  0.60077700  0.70777800  1
  O  O103  1  0.04925200  0.89300000  0.29222200  1
  O  O104  1  0.30493700  0.70336200  0.89851700  1
  O  O105  1  0.19506300  0.80484500  0.10148300  1
  O  O106  1  0.69506300  0.29663800  0.10148300  1
  O  O107  1  0.80493700  0.19515500  0.89851700  1
  O  O108  1  0.41922400  0.67268900  0.10435000  1
  O  O109  1  0.08077600  0.56833900  0.89565000  1
  O  O110  1  0.58077600  0.32731100  0.89565000  1
  O  O111  1  0.91922400  0.43166100  0.10435000  1
  O  O112  1  0.29593200  0.02018600  0.29270600  1
  O  O113  1  0.20406800  0.72748000  0.70729400  1
  O  O114  1  0.70406800  0.97981400  0.70729400  1
  O  O115  1  0.79593200  0.27252000  0.29270600  1
  O  O116  1  0.30162500  0.27410300  0.30637300  1
  O  O117  1  0.19837500  0.96773100  0.69362700  1
  O  O118  1  0.69837500  0.72589700  0.69362700  1
  O  O119  1  0.80162500  0.03226900  0.30637300  1
  O  O120  1  0.45296100  0.10634800  0.71141900  1
  O  O121  1  0.04703900  0.39492900  0.28858100  1
  O  O122  1  0.54703900  0.89365200  0.28858100  1
  O  O123  1  0.95296100  0.60507100  0.71141900  1
