# generated using pymatgen
data_Na5U5O18
_symmetry_space_group_name_H-M   'P 1'
_cell_length_a   6.87492400
_cell_length_b   19.91074200
_cell_length_c   13.05412411
_cell_angle_alpha   90.00000000
_cell_angle_beta   110.51380688
_cell_angle_gamma   90.00000000
_symmetry_Int_Tables_number   1
_chemical_formula_structural   Na5U5O18
_chemical_formula_sum   'Na20 U20 O72'
_cell_volume   1673.59961245
_cell_formula_units_Z   4
loop_
 _symmetry_equiv_pos_site_id
 _symmetry_equiv_pos_as_xyz
  1  'x, y, z'
loop_
 _atom_site_type_symbol
 _atom_site_label
 _atom_site_symmetry_multiplicity
 _atom_site_fract_x
 _atom_site_fract_y
 _atom_site_fract_z
 _atom_site_occupancy
  Na  Na0  1  0.23561600  0.45013100  0.99981600  1
  Na  Na1  1  0.76438400  0.95013100  0.50018400  1
  Na  Na2  1  0.76438400  0.54986900  0.00018400  1
  Na  Na3  1  0.23561600  0.04986900  0.49981600  1
  Na  Na4  1  0.74195600  0.34891400  0.49875700  1
  Na  Na5  1  0.25804400  0.84891400  0.00124300  1
  Na  Na6  1  0.25804400  0.65108600  0.50124300  1
  Na  Na7  1  0.74195600  0.15108600  0.99875700  1
  Na  Na8  1  0.25832000  0.45244700  0.50633500  1
  Na  Na9  1  0.74168000  0.95244700  0.99366500  1
  Na  Na10  1  0.74168000  0.54755300  0.49366500  1
  Na  Na11  1  0.25832000  0.04755300  0.00633500  1
  Na  Na12  1  0.25521200  0.24829300  0.99610800  1
  Na  Na13  1  0.74478800  0.74829300  0.50389200  1
  Na  Na14  1  0.74478800  0.75170700  0.00389200  1
  Na  Na15  1  0.25521200  0.25170700  0.49610700  1
  Na  Na16  1  0.77182900  0.35546800  0.01233100  1
  Na  Na17  1  0.22817100  0.85546800  0.48766900  1
  Na  Na18  1  0.22817100  0.64453200  0.98766900  1
  Na  Na19  1  0.77182900  0.14453200  0.51233100  1
  U  U20  1  0.77073300  0.24509200  0.74873600  1
  U  U21  1  0.22926700  0.74509200  0.75126400  1
  U  U22  1  0.22926700  0.75490800  0.25126400  1
  U  U23  1  0.77073300  0.25490800  0.24873600  1
  U  U24  1  0.22435400  0.35633400  0.74743900  1
  U  U25  1  0.77564600  0.85633400  0.75256100  1
  U  U26  1  0.77564600  0.64366600  0.25256100  1
  U  U27  1  0.22435400  0.14366600  0.24743900  1
  U  U28  1  0.71476700  0.05051200  0.74769100  1
  U  U29  1  0.28523300  0.55051200  0.75230900  1
  U  U30  1  0.28523300  0.94948800  0.25230900  1
  U  U31  1  0.71476700  0.44948800  0.24769100  1
  U  U32  1  0.74935500  0.44861500  0.75199600  1
  U  U33  1  0.25064500  0.94861500  0.74800400  1
  U  U34  1  0.25064500  0.55138500  0.24800400  1
  U  U35  1  0.74935500  0.05138500  0.25199600  1
  U  U36  1  0.25658700  0.15425300  0.75299500  1
  U  U37  1  0.74341300  0.65425300  0.74700500  1
  U  U38  1  0.74341300  0.84574700  0.24700500  1
  U  U39  1  0.25658700  0.34574700  0.25299500  1
  O  O40  1  0.67845200  0.23962300  0.59418500  1
  O  O41  1  0.32154800  0.73962300  0.90581500  1
  O  O42  1  0.32154800  0.76037700  0.40581500  1
  O  O43  1  0.67845200  0.26037700  0.09418500  1
  O  O44  1  0.87451400  0.24740900  0.90244700  1
  O  O45  1  0.12548600  0.74740900  0.59755300  1
  O  O46  1  0.12548600  0.75259100  0.09755300  1
  O  O47  1  0.87451400  0.25259100  0.40244700  1
  O  O48  1  0.87464100  0.35037400  0.73863600  1
  O  O49  1  0.12535900  0.85037400  0.76136400  1
  O  O50  1  0.12535900  0.64962600  0.26136400  1
  O  O51  1  0.87464100  0.14962600  0.23863600  1
  O  O52  1  0.12091600  0.25124500  0.76392600  1
  O  O53  1  0.87908400  0.75124500  0.73607400  1
  O  O54  1  0.87908400  0.74875500  0.23607400  1
  O  O55  1  0.12091600  0.24875500  0.26392600  1
  O  O56  1  0.48691800  0.29772600  0.73790400  1
  O  O57  1  0.51308200  0.79772600  0.76209600  1
  O  O58  1  0.51308200  0.70227400  0.26209600  1
  O  O59  1  0.48691800  0.20227400  0.23790400  1
  O  O60  1  0.58515800  0.15629200  0.76429800  1
  O  O61  1  0.41484200  0.65629200  0.73570200  1
  O  O62  1  0.41484200  0.84370800  0.23570200  1
  O  O63  1  0.58515800  0.34370800  0.26429800  1
  O  O64  1  0.94084000  0.12867600  0.73913000  1
  O  O65  1  0.05916000  0.62867600  0.76087000  1
  O  O66  1  0.05916000  0.87132400  0.26087000  1
  O  O67  1  0.94084000  0.37132400  0.23913000  1
  O  O68  1  0.32698100  0.35888700  0.90122800  1
  O  O69  1  0.67301900  0.85888700  0.59877200  1
  O  O70  1  0.67301900  0.64111300  0.09877200  1
  O  O71  1  0.32698100  0.14111300  0.40122800  1
  O  O72  1  0.11106300  0.35865900  0.59383500  1
  O  O73  1  0.88893700  0.85865900  0.90616500  1
  O  O74  1  0.88893700  0.64134100  0.40616500  1
  O  O75  1  0.11106300  0.14134100  0.09383500  1
  O  O76  1  0.06344800  0.47102600  0.76176500  1
  O  O77  1  0.93655200  0.97102600  0.73823500  1
  O  O78  1  0.93655200  0.52897400  0.23823500  1
  O  O79  1  0.06344800  0.02897400  0.26176500  1
  O  O80  1  0.42268000  0.44371400  0.74149000  1
  O  O81  1  0.57732000  0.94371400  0.75851000  1
  O  O82  1  0.57732000  0.55628600  0.25851000  1
  O  O83  1  0.42268000  0.05628600  0.24149000  1
  O  O84  1  0.60646800  0.05163300  0.59433300  1
  O  O85  1  0.39353200  0.55163300  0.90566700  1
  O  O86  1  0.39353200  0.94836700  0.40566700  1
  O  O87  1  0.60646800  0.44836700  0.09433300  1
  O  O88  1  0.82579100  0.04898800  0.90106100  1
  O  O89  1  0.17420900  0.54898800  0.59893900  1
  O  O90  1  0.17420900  0.95101200  0.09893900  1
  O  O91  1  0.82579100  0.45101200  0.40106100  1
  O  O92  1  0.34661100  0.05112500  0.73606800  1
  O  O93  1  0.65338900  0.55112500  0.76393200  1
  O  O94  1  0.65338900  0.94887500  0.26393200  1
  O  O95  1  0.34661100  0.44887500  0.23606800  1
  O  O96  1  0.84433400  0.44262800  0.90839900  1
  O  O97  1  0.15566600  0.94262800  0.59160100  1
  O  O98  1  0.15566600  0.55737200  0.09160100  1
  O  O99  1  0.84433400  0.05737200  0.40839900  1
  O  O100  1  0.65098300  0.45545400  0.59695100  1
  O  O101  1  0.34901700  0.95545400  0.90304900  1
  O  O102  1  0.34901700  0.54454600  0.40304900  1
  O  O103  1  0.65098300  0.04454600  0.09695100  1
  O  O104  1  0.16612400  0.16134800  0.59795900  1
  O  O105  1  0.83387600  0.66134800  0.90204100  1
  O  O106  1  0.83387600  0.83865200  0.40204100  1
  O  O107  1  0.16612400  0.33865200  0.09795900  1
  O  O108  1  0.35271400  0.14812300  0.90864800  1
  O  O109  1  0.64728600  0.64812300  0.59135200  1
  O  O110  1  0.64728600  0.85187700  0.09135200  1
  O  O111  1  0.35271400  0.35187700  0.40864800  1
