# generated using pymatgen
data_Lu3InS6
_symmetry_space_group_name_H-M   'P 1'
_cell_length_a   3.79628500
_cell_length_b   13.23819200
_cell_length_c   16.42185700
_cell_angle_alpha   90.00000000
_cell_angle_beta   90.00000000
_cell_angle_gamma   90.00000000
_symmetry_Int_Tables_number   1
_chemical_formula_structural   Lu3InS6
_chemical_formula_sum   'Lu12 In4 S24'
_cell_volume   825.29601965
_cell_formula_units_Z   4
loop_
 _symmetry_equiv_pos_site_id
 _symmetry_equiv_pos_as_xyz
  1  'x, y, z'
loop_
 _atom_site_type_symbol
 _atom_site_label
 _atom_site_symmetry_multiplicity
 _atom_site_fract_x
 _atom_site_fract_y
 _atom_site_fract_z
 _atom_site_occupancy
  Lu  Lu0  1  0.25304500  0.03538100  0.77578100  1
  Lu  Lu1  1  0.25304500  0.96461900  0.22421900  1
  Lu  Lu2  1  0.74695400  0.46461900  0.27578100  1
  Lu  Lu3  1  0.74695400  0.53538100  0.72421900  1
  Lu  Lu4  1  0.26438100  0.24692500  0.61144800  1
  Lu  Lu5  1  0.26438100  0.75307500  0.38855200  1
  Lu  Lu6  1  0.73561900  0.25307500  0.11144800  1
  Lu  Lu7  1  0.73561900  0.74692500  0.88855200  1
  Lu  Lu8  1  0.74802300  0.30956300  0.85623400  1
  Lu  Lu9  1  0.74802300  0.69043700  0.14376600  1
  Lu  Lu10  1  0.25197700  0.19043700  0.35623400  1
  Lu  Lu11  1  0.25197700  0.80956300  0.64376600  1
  In  In12  1  0.75305200  0.00000000  0.50000000  1
  In  In13  1  0.24694800  0.50000000  0.00000000  1
  In  In14  1  0.37371400  0.50000000  0.50000000  1
  In  In15  1  0.62628600  0.00000000  0.00000000  1
  S  S16  1  0.76928700  0.39664300  0.59431300  1
  S  S17  1  0.76928700  0.60335700  0.40568700  1
  S  S18  1  0.23071300  0.10335700  0.09431300  1
  S  S19  1  0.23071300  0.89664300  0.90568700  1
  S  S20  1  0.24710600  0.30520800  0.97966700  1
  S  S21  1  0.24710600  0.69479200  0.02033300  1
  S  S22  1  0.75289400  0.19479200  0.47966700  1
  S  S23  1  0.75289400  0.80520800  0.52033300  1
  S  S24  1  0.75115600  0.10875200  0.88204100  1
  S  S25  1  0.75115600  0.89124800  0.11795900  1
  S  S26  1  0.24884400  0.39124800  0.38204100  1
  S  S27  1  0.24884400  0.60875200  0.61795900  1
  S  S28  1  0.76010600  0.17940700  0.71632200  1
  S  S29  1  0.76010600  0.82059300  0.28367800  1
  S  S30  1  0.23989400  0.32059300  0.21632200  1
  S  S31  1  0.23989400  0.67940700  0.78367800  1
  S  S32  1  0.24975800  0.38414800  0.75652700  1
  S  S33  1  0.24975800  0.61585200  0.24347300  1
  S  S34  1  0.75024200  0.11585200  0.25652700  1
  S  S35  1  0.75024200  0.88414800  0.74347300  1
  S  S36  1  0.25350800  0.02067300  0.60709100  1
  S  S37  1  0.25350800  0.97932700  0.39290900  1
  S  S38  1  0.74649200  0.47932700  0.10709100  1
  S  S39  1  0.74649200  0.52067300  0.89290900  1
