# generated using pymatgen
data_K2Ru(NO2)5
_symmetry_space_group_name_H-M   'P 1'
_cell_length_a   12.69883600
_cell_length_b   7.20091200
_cell_length_c   12.77167813
_cell_angle_alpha   87.05921606
_cell_angle_beta   90.00000000
_cell_angle_gamma   90.00000000
_symmetry_Int_Tables_number   1
_chemical_formula_structural   K2Ru(NO2)5
_chemical_formula_sum   'K8 Ru4 N20 O40'
_cell_volume   1166.34512938
_cell_formula_units_Z   4
loop_
 _symmetry_equiv_pos_site_id
 _symmetry_equiv_pos_as_xyz
  1  'x, y, z'
loop_
 _atom_site_type_symbol
 _atom_site_label
 _atom_site_symmetry_multiplicity
 _atom_site_fract_x
 _atom_site_fract_y
 _atom_site_fract_z
 _atom_site_occupancy
  K  K0  1  0.63847800  0.27314700  0.28047200  1
  K  K1  1  0.13847800  0.72685300  0.21952800  1
  K  K2  1  0.36152200  0.72685300  0.71952800  1
  K  K3  1  0.86152200  0.27314700  0.78047200  1
  K  K4  1  0.96412000  0.24342100  0.37499300  1
  K  K5  1  0.46412000  0.75657900  0.12500700  1
  K  K6  1  0.03588000  0.75657900  0.62500700  1
  K  K7  1  0.53588000  0.24342100  0.87499300  1
  Ru  Ru8  1  0.28788700  0.25512500  0.39992800  1
  Ru  Ru9  1  0.78788700  0.74487500  0.10007200  1
  Ru  Ru10  1  0.71211300  0.74487500  0.60007200  1
  Ru  Ru11  1  0.21211300  0.25512500  0.89992800  1
  N  N12  1  0.40257700  0.21237900  0.48598400  1
  N  N13  1  0.90257700  0.78762100  0.01401600  1
  N  N14  1  0.59742300  0.78762100  0.51401600  1
  N  N15  1  0.09742300  0.21237900  0.98598400  1
  N  N16  1  0.35748200  0.09757400  0.27967000  1
  N  N17  1  0.85748200  0.90242600  0.22033000  1
  N  N18  1  0.64251800  0.90242600  0.72033000  1
  N  N19  1  0.14251800  0.09757400  0.77967000  1
  N  N20  1  0.21072000  0.40720000  0.52027100  1
  N  N21  1  0.71072000  0.59280000  0.97972900  1
  N  N22  1  0.78928000  0.59280000  0.47972900  1
  N  N23  1  0.28928000  0.40720000  0.02027100  1
  N  N24  1  0.21240900  0.00403700  0.45774100  1
  N  N25  1  0.71240900  0.99596300  0.04225900  1
  N  N26  1  0.78759100  0.99596300  0.54225900  1
  N  N27  1  0.28759100  0.00403700  0.95774100  1
  N  N28  1  0.36863100  0.50103300  0.33771800  1
  N  N29  1  0.86863100  0.49896700  0.16228200  1
  N  N30  1  0.63136900  0.49896700  0.66228200  1
  N  N31  1  0.13136900  0.50103300  0.83771800  1
  O  O32  1  0.17825700  0.32408700  0.31685600  1
  O  O33  1  0.67825700  0.67591300  0.18314400  1
  O  O34  1  0.82174300  0.67591300  0.68314400  1
  O  O35  1  0.32174300  0.32408700  0.81685600  1
  O  O36  1  0.45447000  0.06902800  0.27776100  1
  O  O37  1  0.95447000  0.93097200  0.22223900  1
  O  O38  1  0.54553000  0.93097200  0.72223900  1
  O  O39  1  0.04553000  0.06902800  0.77776100  1
  O  O40  1  0.29893300  0.03099100  0.21307900  1
  O  O41  1  0.79893300  0.96900900  0.28692100  1
  O  O42  1  0.70106700  0.96900900  0.78692100  1
  O  O43  1  0.20106700  0.03099100  0.71307900  1
  O  O44  1  0.46556300  0.49129100  0.31904900  1
  O  O45  1  0.96556300  0.50870900  0.18095100  1
  O  O46  1  0.53443700  0.50870900  0.68095100  1
  O  O47  1  0.03443700  0.49129100  0.81904900  1
  O  O48  1  0.32074500  0.64974900  0.31741000  1
  O  O49  1  0.82074500  0.35025100  0.18259000  1
  O  O50  1  0.67925500  0.35025100  0.68259000  1
  O  O51  1  0.17925500  0.64974900  0.81741000  1
  O  O52  1  0.26350000  0.47383200  0.59109200  1
  O  O53  1  0.76350000  0.52616800  0.90890800  1
  O  O54  1  0.73650000  0.52616800  0.40890800  1
  O  O55  1  0.23650000  0.47383200  0.09109200  1
  O  O56  1  0.11280900  0.42747500  0.51659200  1
  O  O57  1  0.61280900  0.57252500  0.98340800  1
  O  O58  1  0.88719100  0.57252500  0.48340800  1
  O  O59  1  0.38719100  0.42747500  0.01659200  1
  O  O60  1  0.26411000  0.89099500  0.51395700  1
  O  O61  1  0.76411000  0.10900500  0.98604300  1
  O  O62  1  0.73589000  0.10900500  0.48604300  1
  O  O63  1  0.23589000  0.89099500  0.01395700  1
  O  O64  1  0.11833400  0.96986700  0.43514100  1
  O  O65  1  0.61833400  0.03013300  0.06485900  1
  O  O66  1  0.88166600  0.03013300  0.56485900  1
  O  O67  1  0.38166600  0.96986700  0.93514100  1
  O  O68  1  0.47823500  0.20149700  0.53811600  1
  O  O69  1  0.97823500  0.79850300  0.96188400  1
  O  O70  1  0.52176500  0.79850300  0.46188400  1
  O  O71  1  0.02176500  0.20149700  0.03811600  1
