# generated using pymatgen
data_Y2Sn3(PbS4)3
_symmetry_space_group_name_H-M   'P 1'
_cell_length_a   3.94249400
_cell_length_b   11.67189700
_cell_length_c   20.43898100
_cell_angle_alpha   90.00000000
_cell_angle_beta   90.00000000
_cell_angle_gamma   90.00000000
_symmetry_Int_Tables_number   1
_chemical_formula_structural   Y2Sn3(PbS4)3
_chemical_formula_sum   'Y4 Sn6 Pb6 S24'
_cell_volume   940.52799604
_cell_formula_units_Z   2
loop_
 _symmetry_equiv_pos_site_id
 _symmetry_equiv_pos_as_xyz
  1  'x, y, z'
loop_
 _atom_site_type_symbol
 _atom_site_label
 _atom_site_symmetry_multiplicity
 _atom_site_fract_x
 _atom_site_fract_y
 _atom_site_fract_z
 _atom_site_occupancy
  Y  Y0  1  0.00000000  0.54598000  0.41178200  1
  Y  Y1  1  0.00000000  0.04598000  0.58821800  1
  Y  Y2  1  0.00000000  0.86832000  0.10501700  1
  Y  Y3  1  0.00000000  0.36832000  0.89498300  1
  Sn  Sn4  1  0.50000000  0.69300700  0.24974700  1
  Sn  Sn5  1  0.50000000  0.19300700  0.75025300  1
  Sn  Sn6  1  0.50000000  0.17465300  0.08836000  1
  Sn  Sn7  1  0.50000000  0.67465300  0.91164000  1
  Sn  Sn8  1  0.50000000  0.20071600  0.42519200  1
  Sn  Sn9  1  0.50000000  0.70071600  0.57480800  1
  Pb  Pb10  1  0.00000000  0.92308300  0.37770200  1
  Pb  Pb11  1  0.00000000  0.42308300  0.62229800  1
  Pb  Pb12  1  0.00000000  0.28927300  0.25798800  1
  Pb  Pb13  1  0.00000000  0.78927300  0.74201200  1
  Pb  Pb14  1  0.00000000  0.49670800  0.08595300  1
  Pb  Pb15  1  0.00000000  0.99670800  0.91404700  1
  S  S16  1  0.00000000  0.25509400  0.01735500  1
  S  S17  1  0.00000000  0.75509400  0.98264500  1
  S  S18  1  0.00000000  0.09190400  0.15883000  1
  S  S19  1  0.00000000  0.59190400  0.84117000  1
  S  S20  1  0.00000000  0.84438400  0.24264900  1
  S  S21  1  0.00000000  0.34438400  0.75735100  1
  S  S22  1  0.00000000  0.54832300  0.25795600  1
  S  S23  1  0.00000000  0.04832300  0.74204400  1
  S  S24  1  0.00000000  0.25736500  0.49121100  1
  S  S25  1  0.00000000  0.75736500  0.50878900  1
  S  S26  1  0.50000000  0.98005200  0.03107500  1
  S  S27  1  0.50000000  0.48005200  0.96892500  1
  S  S28  1  0.50000000  0.70317600  0.12421700  1
  S  S29  1  0.50000000  0.20317600  0.87578300  1
  S  S30  1  0.50000000  0.35626600  0.15736300  1
  S  S31  1  0.50000000  0.85626600  0.84263700  1
  S  S32  1  0.50000000  0.09205600  0.32266700  1
  S  S33  1  0.50000000  0.59205600  0.67733300  1
  S  S34  1  0.50000000  0.38966100  0.35966200  1
  S  S35  1  0.50000000  0.88966100  0.64033800  1
  S  S36  1  0.50000000  0.70918900  0.37350300  1
  S  S37  1  0.50000000  0.20918900  0.62649700  1
  S  S38  1  0.50000000  0.01149100  0.49040100  1
  S  S39  1  0.50000000  0.51149100  0.50959900  1
