# generated using pymatgen
data_Mg5(Si4O15)2
_symmetry_space_group_name_H-M   'P 1'
_cell_length_a   11.48391291
_cell_length_b   11.48391291
_cell_length_c   5.34554968
_cell_angle_alpha   80.36384973
_cell_angle_beta   80.36384973
_cell_angle_gamma   105.71978426
_symmetry_Int_Tables_number   1
_chemical_formula_structural   Mg5(Si4O15)2
_chemical_formula_sum   'Mg5 Si8 O30'
_cell_volume   652.00353161
_cell_formula_units_Z   1
loop_
 _symmetry_equiv_pos_site_id
 _symmetry_equiv_pos_as_xyz
  1  'x, y, z'
loop_
 _atom_site_type_symbol
 _atom_site_label
 _atom_site_symmetry_multiplicity
 _atom_site_fract_x
 _atom_site_fract_y
 _atom_site_fract_z
 _atom_site_occupancy
  Mg  Mg0  1  0.00000000  0.00000000  0.00000000  1
  Mg  Mg1  1  0.09563200  0.90436800  0.50000000  1
  Mg  Mg2  1  0.90436800  0.09563200  0.50000000  1
  Mg  Mg3  1  0.17037500  0.82962500  0.00000000  1
  Mg  Mg4  1  0.82962500  0.17037500  0.00000000  1
  Si  Si5  1  0.29462400  0.12504900  0.02421600  1
  Si  Si6  1  0.12504900  0.29462400  0.02421600  1
  Si  Si7  1  0.70537600  0.87495100  0.97578400  1
  Si  Si8  1  0.87495100  0.70537600  0.97578400  1
  Si  Si9  1  0.37764300  0.04445500  0.52926100  1
  Si  Si10  1  0.04445500  0.37764300  0.52926100  1
  Si  Si11  1  0.62235700  0.95554500  0.47073900  1
  Si  Si12  1  0.95554500  0.62235700  0.47073900  1
  O  O13  1  0.05921700  0.05921700  0.60215600  1
  O  O14  1  0.94078300  0.94078300  0.39784400  1
  O  O15  1  0.17504800  0.99817000  0.10272300  1
  O  O16  1  0.99817000  0.17504800  0.10272300  1
  O  O17  1  0.82495200  0.00183000  0.89727700  1
  O  O18  1  0.00183000  0.82495200  0.89727700  1
  O  O19  1  0.25335600  0.92460100  0.63069400  1
  O  O20  1  0.92460100  0.25335600  0.63069400  1
  O  O21  1  0.74664400  0.07539900  0.36930600  1
  O  O22  1  0.07539900  0.74664400  0.36930600  1
  O  O23  1  0.31083800  0.77075500  0.17426000  1
  O  O24  1  0.77075500  0.31083800  0.17426000  1
  O  O25  1  0.68916200  0.22924500  0.82574000  1
  O  O26  1  0.22924500  0.68916200  0.82574000  1
  O  O27  1  0.24802800  0.24802800  0.99922400  1
  O  O28  1  0.75197200  0.75197200  0.00077600  1
  O  O29  1  0.50000000  0.00000000  0.50000000  1
  O  O30  1  0.00000000  0.50000000  0.50000000  1
  O  O31  1  0.37642200  0.12561100  0.24687300  1
  O  O32  1  0.12561100  0.37642200  0.24687300  1
  O  O33  1  0.62357800  0.87438900  0.75312700  1
  O  O34  1  0.87438900  0.62357800  0.75312700  1
  O  O35  1  0.38279000  0.13211800  0.74377700  1
  O  O36  1  0.13211800  0.38279000  0.74377700  1
  O  O37  1  0.61720900  0.86788200  0.25622300  1
  O  O38  1  0.86788200  0.61721000  0.25622300  1
  O  O39  1  0.34115300  0.65884700  0.50000000  1
  O  O40  1  0.65884700  0.34115300  0.50000000  1
  O  O41  1  0.36222100  0.63777900  0.00000000  1
  O  O42  1  0.63777900  0.36222100  0.00000000  1
