# generated using pymatgen
data_FeTeO5
_symmetry_space_group_name_H-M   'P 1'
_cell_length_a   9.73914900
_cell_length_b   8.00955800
_cell_length_c   10.40627680
_cell_angle_alpha   76.18518607
_cell_angle_beta   90.00000000
_cell_angle_gamma   90.00000000
_symmetry_Int_Tables_number   1
_chemical_formula_structural   FeTeO5
_chemical_formula_sum   'Fe8 Te8 O40'
_cell_volume   788.27294870
_cell_formula_units_Z   8
loop_
 _symmetry_equiv_pos_site_id
 _symmetry_equiv_pos_as_xyz
  1  'x, y, z'
loop_
 _atom_site_type_symbol
 _atom_site_label
 _atom_site_symmetry_multiplicity
 _atom_site_fract_x
 _atom_site_fract_y
 _atom_site_fract_z
 _atom_site_occupancy
  Fe  Fe0  1  0.48611300  0.81809200  0.45847900  1
  Fe  Fe1  1  0.98611300  0.68190800  0.54152100  1
  Fe  Fe2  1  0.51388700  0.18190800  0.54152100  1
  Fe  Fe3  1  0.01388700  0.31809200  0.45847900  1
  Fe  Fe4  1  0.39117600  0.91104100  0.11383900  1
  Fe  Fe5  1  0.89117600  0.58895900  0.88616100  1
  Fe  Fe6  1  0.60882400  0.08895900  0.88616100  1
  Fe  Fe7  1  0.10882400  0.41104100  0.11383900  1
  Te  Te8  1  0.16587900  0.99687900  0.29467500  1
  Te  Te9  1  0.66587900  0.50312100  0.70532500  1
  Te  Te10  1  0.83412100  0.00312100  0.70532500  1
  Te  Te11  1  0.33412100  0.49687900  0.29467500  1
  Te  Te12  1  0.28269000  0.46626600  0.65412900  1
  Te  Te13  1  0.78269000  0.03373400  0.34587100  1
  Te  Te14  1  0.71731000  0.53373400  0.34587100  1
  Te  Te15  1  0.21731000  0.96626600  0.65412900  1
  O  O16  1  0.49670600  0.13147400  0.05776000  1
  O  O17  1  0.99670600  0.36852600  0.94224000  1
  O  O18  1  0.50329400  0.86852600  0.94224000  1
  O  O19  1  0.00329400  0.63147400  0.05776000  1
  O  O20  1  0.14211700  0.42513300  0.90111400  1
  O  O21  1  0.64211700  0.07486700  0.09888600  1
  O  O22  1  0.85788300  0.57486700  0.09888600  1
  O  O23  1  0.35788300  0.92513300  0.90111400  1
  O  O24  1  0.05534700  0.18187800  0.20719800  1
  O  O25  1  0.55534700  0.31812200  0.79280200  1
  O  O26  1  0.94465300  0.81812200  0.79280200  1
  O  O27  1  0.44465300  0.68187800  0.20719800  1
  O  O28  1  0.36225500  0.95986300  0.31308600  1
  O  O29  1  0.86225500  0.54013700  0.68691400  1
  O  O30  1  0.63774500  0.04013700  0.68691400  1
  O  O31  1  0.13774500  0.45986300  0.31308600  1
  O  O32  1  0.35014200  0.59902700  0.45285200  1
  O  O33  1  0.85014200  0.90097300  0.54714800  1
  O  O34  1  0.64985800  0.40097300  0.54714800  1
  O  O35  1  0.14985800  0.09902700  0.45285200  1
  O  O36  1  0.19773300  0.93437200  0.13034500  1
  O  O37  1  0.69773300  0.56562800  0.86965500  1
  O  O38  1  0.80226700  0.06562800  0.86965500  1
  O  O39  1  0.30226700  0.43437200  0.13034500  1
  O  O40  1  0.20554800  0.30579300  0.84047100  1
  O  O41  1  0.70554800  0.19420700  0.15952900  1
  O  O42  1  0.79445200  0.69420700  0.15952900  1
  O  O43  1  0.29445200  0.80579300  0.84047100  1
  O  O44  1  0.39457200  0.95826900  0.57431100  1
  O  O45  1  0.89457200  0.54173100  0.42568900  1
  O  O46  1  0.60542800  0.04173100  0.42568900  1
  O  O47  1  0.10542800  0.45826900  0.57431100  1
  O  O48  1  0.54324900  0.67983700  0.63559600  1
  O  O49  1  0.04324900  0.82016300  0.36440400  1
  O  O50  1  0.45675100  0.32016300  0.36440400  1
  O  O51  1  0.95675100  0.17983700  0.63559600  1
  O  O52  1  0.15557500  0.75162100  0.62430300  1
  O  O53  1  0.65557500  0.74837900  0.37569700  1
  O  O54  1  0.84442500  0.24837900  0.37569700  1
  O  O55  1  0.34442500  0.25162100  0.62430300  1
