# generated using pymatgen
data_FeH12C6N(ClO2)2
_symmetry_space_group_name_H-M   'P 1'
_cell_length_a   8.86163200
_cell_length_b   8.39100300
_cell_length_c   18.42806133
_cell_angle_alpha   87.95965244
_cell_angle_beta   90.00000000
_cell_angle_gamma   90.00000000
_symmetry_Int_Tables_number   1
_chemical_formula_structural   FeH12C6N(ClO2)2
_chemical_formula_sum   'Fe4 H48 C24 N4 Cl8 O16'
_cell_volume   1369.40467983
_cell_formula_units_Z   4
loop_
 _symmetry_equiv_pos_site_id
 _symmetry_equiv_pos_as_xyz
  1  'x, y, z'
loop_
 _atom_site_type_symbol
 _atom_site_label
 _atom_site_symmetry_multiplicity
 _atom_site_fract_x
 _atom_site_fract_y
 _atom_site_fract_z
 _atom_site_occupancy
  Fe  Fe0  1  0.74989800  0.57939500  0.91463300  1
  Fe  Fe1  1  0.24989800  0.42060500  0.58536700  1
  Fe  Fe2  1  0.25010200  0.42060500  0.08536700  1
  Fe  Fe3  1  0.75010200  0.57939500  0.41463300  1
  H  H4  1  0.86197700  0.06606500  0.06186300  1
  H  H5  1  0.36197700  0.93393500  0.43813700  1
  H  H6  1  0.13802300  0.93393500  0.93813700  1
  H  H7  1  0.63802300  0.06606500  0.56186300  1
  H  H8  1  0.66533700  0.10482700  0.04462500  1
  H  H9  1  0.16533700  0.89517300  0.45537500  1
  H  H10  1  0.33466300  0.89517300  0.95537500  1
  H  H11  1  0.83466300  0.10482700  0.54462500  1
  H  H12  1  0.73890500  0.90565500  0.03903200  1
  H  H13  1  0.23890500  0.09434500  0.46096800  1
  H  H14  1  0.26109500  0.09434500  0.96096800  1
  H  H15  1  0.76109500  0.90565500  0.53903200  1
  H  H16  1  0.55319000  0.80748700  0.12470600  1
  H  H17  1  0.05319000  0.19251300  0.37529400  1
  H  H18  1  0.44681000  0.19251300  0.87529400  1
  H  H19  1  0.94681000  0.80748700  0.62470600  1
  H  H20  1  0.47628700  0.00482600  0.13036600  1
  H  H21  1  0.97628700  0.99517400  0.36963400  1
  H  H22  1  0.52371300  0.99517400  0.86963400  1
  H  H23  1  0.02371300  0.00482600  0.63036600  1
  H  H24  1  0.53586400  0.89463000  0.21133400  1
  H  H25  1  0.03586400  0.10537000  0.28866600  1
  H  H26  1  0.46413600  0.10537000  0.78866600  1
  H  H27  1  0.96413600  0.89463000  0.71133400  1
  H  H28  1  0.83581100  0.18950900  0.17951400  1
  H  H29  1  0.33581100  0.81049100  0.32048600  1
  H  H30  1  0.16418900  0.81049100  0.82048600  1
  H  H31  1  0.66418900  0.18950900  0.67951400  1
  H  H32  1  0.69576800  0.11558700  0.24267900  1
  H  H33  1  0.19576800  0.88441300  0.25732100  1
  H  H34  1  0.30423200  0.88441300  0.75732100  1
  H  H35  1  0.80423200  0.11558700  0.74267900  1
  H  H36  1  0.63877300  0.22422800  0.16160300  1
  H  H37  1  0.13877300  0.77577200  0.33839700  1
  H  H38  1  0.36122700  0.77577200  0.83839700  1
  H  H39  1  0.86122700  0.22422800  0.66160300  1
  H  H40  1  0.93828200  0.92141600  0.17086500  1
  H  H41  1  0.43828200  0.07858400  0.32913500  1
  H  H42  1  0.06171800  0.07858400  0.82913500  1
  H  H43  1  0.56171800  0.92141600  0.67086500  1
  H  H44  1  0.81720200  0.75985100  0.14826300  1
  H  H45  1  0.31720200  0.24014900  0.35173700  1
  H  H46  1  0.18279800  0.24014900  0.85173700  1
  H  H47  1  0.68279800  0.75985100  0.64826300  1
  H  H48  1  0.79797700  0.84787700  0.23517200  1
  H  H49  1  0.29797700  0.15212300  0.26482800  1
  H  H50  1  0.20202300  0.15212300  0.76482800  1
  H  H51  1  0.70202300  0.84787700  0.73517200  1
  C  C52  1  0.74721900  0.01845800  0.06676500  1
  C  C53  1  0.24721900  0.98154200  0.43323500  1
  C  C54  1  0.25278100  0.98154200  0.93323500  1
  C  C55  1  0.75278100  0.01845800  0.56676500  1
  C  C56  1  0.55772000  0.91900300  0.15355400  1
  C  C57  1  0.05772000  0.08099700  0.34644600  1
  C  C58  1  0.44228000  0.08099700  0.84644600  1
  C  C59  1  0.94228000  0.91900300  0.65355400  1
  C  C60  1  0.72161800  0.14079100  0.18530900  1
  C  C61  1  0.22161800  0.85920900  0.31469100  1
  C  C62  1  0.27838200  0.85920900  0.81469100  1
  C  C63  1  0.77838200  0.14079100  0.68530900  1
  C  C64  1  0.82521200  0.87040300  0.17771500  1
  C  C65  1  0.32521200  0.12959700  0.32228500  1
  C  C66  1  0.17478800  0.12959700  0.82228500  1
  C  C67  1  0.67478800  0.87040300  0.67771500  1
  C  C68  1  0.52722500  0.41320500  0.00379800  1
  C  C69  1  0.02722500  0.58679500  0.49620200  1
  C  C70  1  0.47277500  0.58679500  0.99620200  1
  C  C71  1  0.97277500  0.41320500  0.50379800  1
  C  C72  1  0.96886100  0.54617100  0.03208100  1
  C  C73  1  0.46886100  0.45382900  0.46791900  1
  C  C74  1  0.03113900  0.45382900  0.96791900  1
  C  C75  1  0.53113900  0.54617100  0.53208100  1
  N  N76  1  0.71329100  0.98759800  0.14585300  1
  N  N77  1  0.21329100  0.01240200  0.35414700  1
  N  N78  1  0.28670900  0.01240200  0.85414700  1
  N  N79  1  0.78670900  0.98759800  0.64585300  1
  Cl  Cl80  1  0.65590200  0.50228400  0.80707100  1
  Cl  Cl81  1  0.15590200  0.49771600  0.69292900  1
  Cl  Cl82  1  0.34409800  0.49771600  0.19292900  1
  Cl  Cl83  1  0.84409800  0.50228400  0.30707100  1
  Cl  Cl84  1  0.84014300  0.82941500  0.87613500  1
  Cl  Cl85  1  0.34014300  0.17058500  0.62386500  1
  Cl  Cl86  1  0.15985700  0.17058500  0.12386500  1
  Cl  Cl87  1  0.65985700  0.82941500  0.37613500  1
  O  O88  1  0.84296300  0.61473300  0.02271300  1
  O  O89  1  0.34296300  0.38526700  0.47728700  1
  O  O90  1  0.15703700  0.38526700  0.97728700  1
  O  O91  1  0.65703700  0.61473300  0.52271300  1
  O  O92  1  0.64668400  0.37792900  0.97048000  1
  O  O93  1  0.14668400  0.62207100  0.52952000  1
  O  O94  1  0.35331600  0.62207100  0.02952000  1
  O  O95  1  0.85331600  0.37792900  0.47048000  1
  O  O96  1  0.95073700  0.45402900  0.91071800  1
  O  O97  1  0.45073700  0.54597100  0.58928200  1
  O  O98  1  0.04926300  0.54597100  0.08928200  1
  O  O99  1  0.54926300  0.45402900  0.41071800  1
  O  O100  1  0.55271000  0.68164000  0.95686700  1
  O  O101  1  0.05271000  0.31836000  0.54313300  1
  O  O102  1  0.44729000  0.31836000  0.04313300  1
  O  O103  1  0.94729000  0.68164000  0.45686700  1
