# generated using pymatgen
data_MgPO7
_symmetry_space_group_name_H-M   'P 1'
_cell_length_a   10.03167000
_cell_length_b   10.55212900
_cell_length_c   10.73112700
_cell_angle_alpha   90.00000000
_cell_angle_beta   90.00000000
_cell_angle_gamma   90.00000000
_symmetry_Int_Tables_number   1
_chemical_formula_structural   MgPO7
_chemical_formula_sum   'Mg8 P8 O56'
_cell_volume   1135.94855580
_cell_formula_units_Z   8
loop_
 _symmetry_equiv_pos_site_id
 _symmetry_equiv_pos_as_xyz
  1  'x, y, z'
loop_
 _atom_site_type_symbol
 _atom_site_label
 _atom_site_symmetry_multiplicity
 _atom_site_fract_x
 _atom_site_fract_y
 _atom_site_fract_z
 _atom_site_occupancy
  Mg  Mg0  1  0.81819200  0.22172000  0.39958000  1
  Mg  Mg1  1  0.31819200  0.27828000  0.60042000  1
  Mg  Mg2  1  0.18180800  0.72172000  0.10042000  1
  Mg  Mg3  1  0.68180800  0.77828000  0.89958000  1
  Mg  Mg4  1  0.18180800  0.77828000  0.60042000  1
  Mg  Mg5  1  0.68180800  0.72172000  0.39958000  1
  Mg  Mg6  1  0.81819200  0.27828000  0.89958000  1
  Mg  Mg7  1  0.31819200  0.22172000  0.10042000  1
  P  P8  1  0.49075900  0.13082000  0.36230800  1
  P  P9  1  0.99075900  0.36918000  0.63769200  1
  P  P10  1  0.50924100  0.63082000  0.13769200  1
  P  P11  1  0.00924100  0.86918000  0.86230800  1
  P  P12  1  0.50924100  0.86918000  0.63769200  1
  P  P13  1  0.00924100  0.63082000  0.36230800  1
  P  P14  1  0.49075900  0.36918000  0.86230800  1
  P  P15  1  0.99075900  0.13082000  0.13769200  1
  O  O16  1  0.43495100  0.18254500  0.23889800  1
  O  O17  1  0.93495100  0.31745500  0.76110200  1
  O  O18  1  0.56504900  0.68254500  0.26110200  1
  O  O19  1  0.06504900  0.81745500  0.73889800  1
  O  O20  1  0.56504900  0.81745500  0.76110200  1
  O  O21  1  0.06504900  0.68254500  0.23889800  1
  O  O22  1  0.43495100  0.31745500  0.73889800  1
  O  O23  1  0.93495100  0.18254500  0.26110200  1
  O  O24  1  0.41188700  0.18256700  0.47334400  1
  O  O25  1  0.91188700  0.31743300  0.52665600  1
  O  O26  1  0.58811300  0.68256700  0.02665600  1
  O  O27  1  0.08811300  0.81743300  0.97334400  1
  O  O28  1  0.58811300  0.81743300  0.52665600  1
  O  O29  1  0.08811300  0.68256700  0.47334400  1
  O  O30  1  0.41188700  0.31743300  0.97334400  1
  O  O31  1  0.91188700  0.18256700  0.02665600  1
  O  O32  1  0.63950200  0.15909300  0.37721500  1
  O  O33  1  0.13950200  0.34090700  0.62278500  1
  O  O34  1  0.36049800  0.65909300  0.12278500  1
  O  O35  1  0.86049800  0.84090700  0.87721500  1
  O  O36  1  0.36049800  0.84090700  0.62278500  1
  O  O37  1  0.86049800  0.65909300  0.37721500  1
  O  O38  1  0.63950200  0.34090700  0.87721500  1
  O  O39  1  0.13950200  0.15909300  0.12278500  1
  O  O40  1  0.46718800  0.98598700  0.34200600  1
  O  O41  1  0.96718800  0.51401300  0.65799400  1
  O  O42  1  0.53281200  0.48598700  0.15799400  1
  O  O43  1  0.03281200  0.01401300  0.84200600  1
  O  O44  1  0.53281200  0.01401300  0.65799400  1
  O  O45  1  0.03281200  0.48598700  0.34200600  1
  O  O46  1  0.46718800  0.51401300  0.84200600  1
  O  O47  1  0.96718800  0.98598700  0.15799400  1
  O  O48  1  0.68171300  0.44576800  0.50172700  1
  O  O49  1  0.18171300  0.05423200  0.49827300  1
  O  O50  1  0.31828700  0.94576800  0.99827300  1
  O  O51  1  0.81828700  0.55423200  0.00172700  1
  O  O52  1  0.31828700  0.55423200  0.49827300  1
  O  O53  1  0.81828700  0.94576800  0.50172700  1
  O  O54  1  0.68171300  0.05423200  0.00172700  1
  O  O55  1  0.18171300  0.44576800  0.99827300  1
  O  O56  1  0.70664600  0.42512300  0.38483000  1
  O  O57  1  0.20664600  0.07487700  0.61517000  1
  O  O58  1  0.29335400  0.92512300  0.11517000  1
  O  O59  1  0.79335400  0.57487700  0.88483000  1
  O  O60  1  0.29335400  0.57487700  0.61517000  1
  O  O61  1  0.79335400  0.92512300  0.38483000  1
  O  O62  1  0.70664600  0.07487700  0.88483000  1
  O  O63  1  0.20664600  0.42512300  0.11517000  1
  O  O64  1  0.84807100  0.06154300  0.53227100  1
  O  O65  1  0.34807100  0.43845700  0.46772900  1
  O  O66  1  0.15192900  0.56154300  0.96772900  1
  O  O67  1  0.65192900  0.93845700  0.03227100  1
  O  O68  1  0.15192900  0.93845700  0.46772900  1
  O  O69  1  0.65192900  0.56154300  0.53227100  1
  O  O70  1  0.84807100  0.43845700  0.03227100  1
  O  O71  1  0.34807100  0.06154300  0.96772900  1
