# generated using pymatgen
data_KYbF4
_symmetry_space_group_name_H-M   'P 1'
_cell_length_a   14.49346262
_cell_length_b   14.49346262
_cell_length_c   10.14287400
_cell_angle_alpha   90.00000000
_cell_angle_beta   90.00000000
_cell_angle_gamma   120.00000284
_symmetry_Int_Tables_number   1
_chemical_formula_structural   KYbF4
_chemical_formula_sum   'K18 Yb18 F72'
_cell_volume   1845.16819221
_cell_formula_units_Z   18
loop_
 _symmetry_equiv_pos_site_id
 _symmetry_equiv_pos_as_xyz
  1  'x, y, z'
loop_
 _atom_site_type_symbol
 _atom_site_label
 _atom_site_symmetry_multiplicity
 _atom_site_fract_x
 _atom_site_fract_y
 _atom_site_fract_z
 _atom_site_occupancy
  K  K0  1  0.26020500  0.04371600  0.00749500  1
  K  K1  1  0.95628400  0.21648900  0.67416200  1
  K  K2  1  0.78351100  0.73979500  0.34082800  1
  K  K3  1  0.78181000  0.06534900  0.98913600  1
  K  K4  1  0.93465100  0.71646100  0.65580200  1
  K  K5  1  0.28353900  0.21819000  0.32246900  1
  K  K6  1  0.60576500  0.73186300  0.00698700  1
  K  K7  1  0.26813700  0.87390100  0.67365400  1
  K  K8  1  0.12609900  0.39423500  0.34032000  1
  K  K9  1  0.10656000  0.70878500  0.98274800  1
  K  K10  1  0.29121500  0.39777500  0.64941500  1
  K  K11  1  0.60222500  0.89344000  0.31608200  1
  K  K12  1  0.45659500  0.39281500  0.98474400  1
  K  K13  1  0.60718500  0.06378000  0.65141000  1
  K  K14  1  0.93622000  0.54340500  0.31807700  1
  K  K15  1  0.95164400  0.38442100  0.00483200  1
  K  K16  1  0.61557900  0.56722300  0.67149900  1
  K  K17  1  0.43277700  0.04835600  0.33816500  1
  Yb  Yb18  1  0.13026000  0.23416300  0.99149800  1
  Yb  Yb19  1  0.76583700  0.89609700  0.65816500  1
  Yb  Yb20  1  0.10390300  0.86974000  0.32483200  1
  Yb  Yb21  1  0.28393800  0.55100400  0.98842800  1
  Yb  Yb22  1  0.44899600  0.73293400  0.65509400  1
  Yb  Yb23  1  0.26706600  0.71606200  0.32176100  1
  Yb  Yb24  1  0.77884500  0.56876600  0.00739200  1
  Yb  Yb25  1  0.43123400  0.21007900  0.67405900  1
  Yb  Yb26  1  0.78992100  0.22115500  0.34072500  1
  Yb  Yb27  1  0.94270500  0.88123400  0.99526000  1
  Yb  Yb28  1  0.11876600  0.06147200  0.66192700  1
  Yb  Yb29  1  0.93852800  0.05729500  0.32859300  1
  Yb  Yb30  1  0.44592300  0.89598300  0.98718600  1
  Yb  Yb31  1  0.10401700  0.54994000  0.65385300  1
  Yb  Yb32  1  0.45006000  0.55407700  0.32052000  1
  Yb  Yb33  1  0.60916200  0.22956600  0.01174700  1
  Yb  Yb34  1  0.77043400  0.37959600  0.67841400  1
  Yb  Yb35  1  0.62040400  0.39083800  0.34508100  1
  F  F36  1  0.13141300  0.20078100  0.77531500  1
  F  F37  1  0.79921900  0.93063100  0.44198200  1
  F  F38  1  0.06936900  0.86858700  0.10864900  1
  F  F39  1  0.07212200  0.17977700  0.20055100  1
  F  F40  1  0.82022300  0.89234600  0.86721800  1
  F  F41  1  0.10765400  0.92787800  0.53388400  1
  F  F42  1  0.20948000  0.60863300  0.14085000  1
  F  F43  1  0.39136700  0.60084700  0.80751600  1
  F  F44  1  0.39915300  0.79052000  0.47418300  1
  F  F45  1  0.32960700  0.60484000  0.31339800  1
  F  F46  1  0.39516000  0.72476700  0.98006400  1
  F  F47  1  0.27523300  0.67039300  0.64673100  1
  F  F48  1  0.74602500  0.53223400  0.22726300  1
  F  F49  1  0.46776600  0.21379200  0.89393000  1
  F  F50  1  0.78620800  0.25397500  0.56059600  1
  F  F51  1  0.78169300  0.51766400  0.79609300  1
  F  F52  1  0.48233600  0.26402800  0.46275900  1
  F  F53  1  0.73597200  0.21830700  0.12942600  1
  F  F54  1  0.98748300  0.93195800  0.31726600  1
  F  F55  1  0.06804200  0.05552500  0.98393200  1
  F  F56  1  0.94447500  0.01251700  0.65059900  1
  F  F57  1  0.88061500  0.94686200  0.15267600  1
  F  F58  1  0.05313800  0.93375300  0.81934200  1
  F  F59  1  0.06624700  0.11938500  0.48600900  1
  F  F60  1  0.39250200  0.84886600  0.19783900  1
  F  F61  1  0.15113400  0.54363500  0.86450600  1
  F  F62  1  0.45636500  0.60749800  0.53117300  1
  F  F63  1  0.45264200  0.86789800  0.77064000  1
  F  F64  1  0.13210200  0.58474400  0.43730700  1
  F  F65  1  0.41525600  0.54735800  0.10397400  1
  F  F66  1  0.54455900  0.25487200  0.20268000  1
  F  F67  1  0.74512800  0.28968700  0.86934700  1
  F  F68  1  0.71031300  0.45544100  0.53601300  1
  F  F69  1  0.74831300  0.35000300  0.36064700  1
  F  F70  1  0.64999700  0.39831000  0.02731400  1
  F  F71  1  0.60169000  0.25168700  0.69398000  1
  F  F72  1  0.76873700  0.04390200  0.73140000  1
  F  F73  1  0.95609800  0.72483500  0.39806600  1
  F  F74  1  0.27516500  0.23126300  0.06473300  1
  F  F75  1  0.80657600  0.08429000  0.25155000  1
  F  F76  1  0.91571000  0.72228600  0.91821600  1
  F  F77  1  0.27771400  0.19342400  0.58488300  1
  F  F78  1  0.24657300  0.02537500  0.26912400  1
  F  F79  1  0.97462500  0.22119800  0.93579000  1
  F  F80  1  0.77880200  0.75342700  0.60245700  1
  F  F81  1  0.80606600  0.72928200  0.08147300  1
  F  F82  1  0.27071800  0.07678400  0.74813900  1
  F  F83  1  0.92321600  0.19393400  0.41480600  1
  F  F84  1  0.13061900  0.73666500  0.24617800  1
  F  F85  1  0.26333500  0.39395400  0.91284500  1
  F  F86  1  0.60604600  0.86938100  0.57951200  1
  F  F87  1  0.09266700  0.69062000  0.72413800  1
  F  F88  1  0.30938000  0.40204600  0.39080500  1
  F  F89  1  0.59795400  0.90733300  0.05747200  1
  F  F90  1  0.15640100  0.39254500  0.07592100  1
  F  F91  1  0.60745500  0.76385600  0.74258800  1
  F  F92  1  0.23614400  0.84359900  0.40925500  1
  F  F93  1  0.59204900  0.70899100  0.26794300  1
  F  F94  1  0.29100900  0.88305900  0.93460900  1
  F  F95  1  0.11694100  0.40795100  0.60127600  1
  F  F96  1  0.93881300  0.36540200  0.26153500  1
  F  F97  1  0.63459800  0.57341200  0.92820200  1
  F  F98  1  0.42658800  0.06118700  0.59486900  1
  F  F99  1  0.47889100  0.05904300  0.07163100  1
  F  F100  1  0.94095700  0.41984800  0.73829800  1
  F  F101  1  0.58015200  0.52110900  0.40496500  1
  F  F102  1  0.49727400  0.42918400  0.25328000  1
  F  F103  1  0.57081600  0.06809000  0.91994700  1
  F  F104  1  0.93191000  0.50272600  0.58661400  1
  F  F105  1  0.45731400  0.37317700  0.72023800  1
  F  F106  1  0.62682300  0.08413700  0.38690400  1
  F  F107  1  0.91586300  0.54268600  0.05357100  1
