# generated using pymatgen
data_Be2P3NO10
_symmetry_space_group_name_H-M   'P 1'
_cell_length_a   7.63653767
_cell_length_b   7.63653767
_cell_length_c   9.11978935
_cell_angle_alpha   67.60511952
_cell_angle_beta   67.60511952
_cell_angle_gamma   69.82590010
_symmetry_Int_Tables_number   1
_chemical_formula_structural   Be2P3NO10
_chemical_formula_sum   'Be4 P6 N2 O20'
_cell_volume   442.05679463
_cell_formula_units_Z   2
loop_
 _symmetry_equiv_pos_site_id
 _symmetry_equiv_pos_as_xyz
  1  'x, y, z'
loop_
 _atom_site_type_symbol
 _atom_site_label
 _atom_site_symmetry_multiplicity
 _atom_site_fract_x
 _atom_site_fract_y
 _atom_site_fract_z
 _atom_site_occupancy
  Be  Be0  1  0.21441400  0.28559600  0.43313700  1
  Be  Be1  1  0.71440400  0.78558600  0.06686300  1
  Be  Be2  1  0.78558600  0.71440400  0.56686300  1
  Be  Be3  1  0.28559600  0.21441400  0.93313700  1
  P  P4  1  0.00897700  0.63144800  0.24662100  1
  P  P5  1  0.36855200  0.99102300  0.25337900  1
  P  P6  1  0.99102300  0.36855200  0.75337900  1
  P  P7  1  0.63144800  0.00897700  0.74662100  1
  P  P8  1  0.38579800  0.61420200  0.25000000  1
  P  P9  1  0.61420200  0.38579800  0.75000000  1
  N  N10  1  0.81152600  0.18847400  0.25000000  1
  N  N11  1  0.18847400  0.81152600  0.75000000  1
  O  O12  1  0.91871800  0.68748500  0.10998300  1
  O  O13  1  0.31251500  0.08128200  0.39001700  1
  O  O14  1  0.08128200  0.31251500  0.89001700  1
  O  O15  1  0.68748500  0.91871800  0.60998300  1
  O  O16  1  0.04416800  0.41282600  0.33920900  1
  O  O17  1  0.58717400  0.95583200  0.16079100  1
  O  O18  1  0.95583200  0.58717400  0.66079100  1
  O  O19  1  0.41282600  0.04416800  0.83920900  1
  O  O20  1  0.90140800  0.75085200  0.37032200  1
  O  O21  1  0.24914800  0.09859200  0.12967800  1
  O  O22  1  0.09859200  0.24914800  0.62967800  1
  O  O23  1  0.75085200  0.90140800  0.87032200  1
  O  O24  1  0.22368400  0.67917000  0.15442100  1
  O  O25  1  0.32083000  0.77631600  0.34557900  1
  O  O26  1  0.77631600  0.32083000  0.84557900  1
  O  O27  1  0.67917000  0.22368400  0.65442100  1
  O  O28  1  0.36964000  0.41995000  0.37676400  1
  O  O29  1  0.58005000  0.63036000  0.12323600  1
  O  O30  1  0.63036000  0.58005000  0.62323600  1
  O  O31  1  0.41995000  0.36964000  0.87676400  1
