# generated using pymatgen
data_K2CaSi4O15
_symmetry_space_group_name_H-M   'P 1'
_cell_length_a   7.11462600
_cell_length_b   6.44519500
_cell_length_c   31.61206034
_cell_angle_alpha   80.28927517
_cell_angle_beta   90.00000000
_cell_angle_gamma   90.00000000
_symmetry_Int_Tables_number   1
_chemical_formula_structural   K2CaSi4O15
_chemical_formula_sum   'K8 Ca4 Si16 O60'
_cell_volume   1428.80618136
_cell_formula_units_Z   4
loop_
 _symmetry_equiv_pos_site_id
 _symmetry_equiv_pos_as_xyz
  1  'x, y, z'
loop_
 _atom_site_type_symbol
 _atom_site_label
 _atom_site_symmetry_multiplicity
 _atom_site_fract_x
 _atom_site_fract_y
 _atom_site_fract_z
 _atom_site_occupancy
  K  K0  1  0.64840900  0.08184700  0.83182900  1
  K  K1  1  0.85159100  0.08184700  0.33182900  1
  K  K2  1  0.35159100  0.91815300  0.16817100  1
  K  K3  1  0.14840900  0.91815300  0.66817100  1
  K  K4  1  0.66061800  0.43208800  0.94444700  1
  K  K5  1  0.83938200  0.43208800  0.44444700  1
  K  K6  1  0.33938200  0.56791200  0.05555300  1
  K  K7  1  0.16061800  0.56791200  0.55555300  1
  Ca  Ca8  1  0.15258100  0.47622300  0.75797700  1
  Ca  Ca9  1  0.34741900  0.47622300  0.25797700  1
  Ca  Ca10  1  0.84741900  0.52377700  0.24202300  1
  Ca  Ca11  1  0.65258100  0.52377700  0.74202300  1
  Si  Si12  1  0.86945000  0.56622600  0.84309700  1
  Si  Si13  1  0.63055000  0.56622600  0.34309700  1
  Si  Si14  1  0.13055000  0.43377400  0.15690300  1
  Si  Si15  1  0.36945000  0.43377400  0.65690300  1
  Si  Si16  1  0.43532100  0.57422700  0.84166300  1
  Si  Si17  1  0.06467900  0.57422700  0.34166300  1
  Si  Si18  1  0.56467900  0.42577300  0.15833700  1
  Si  Si19  1  0.93532100  0.42577300  0.65833700  1
  Si  Si20  1  0.15031600  0.94415900  0.82515400  1
  Si  Si21  1  0.34968400  0.94415900  0.32515400  1
  Si  Si22  1  0.84968400  0.05584100  0.17484600  1
  Si  Si23  1  0.65031600  0.05584100  0.67484600  1
  Si  Si24  1  0.15465000  0.25918000  0.89331000  1
  Si  Si25  1  0.34535000  0.25918000  0.39331000  1
  Si  Si26  1  0.84535000  0.74082000  0.10669000  1
  Si  Si27  1  0.65465000  0.74082000  0.60669000  1
  O  O28  1  0.43113900  0.48129000  0.79782900  1
  O  O29  1  0.06886100  0.48129000  0.29782900  1
  O  O30  1  0.56886100  0.51871000  0.20217100  1
  O  O31  1  0.93113900  0.51871000  0.70217100  1
  O  O32  1  0.65196900  0.60938100  0.85862600  1
  O  O33  1  0.84803100  0.60938100  0.35862600  1
  O  O34  1  0.34803100  0.39061900  0.14137400  1
  O  O35  1  0.15196900  0.39061900  0.64137400  1
  O  O36  1  0.87493900  0.47555800  0.79901800  1
  O  O37  1  0.62506100  0.47555800  0.29901800  1
  O  O38  1  0.12506100  0.52444200  0.20098200  1
  O  O39  1  0.37493900  0.52444200  0.70098200  1
  O  O40  1  0.16810300  0.11824000  0.93853900  1
  O  O41  1  0.33189700  0.11824000  0.43853900  1
  O  O42  1  0.83189700  0.88176000  0.06146100  1
  O  O43  1  0.66810300  0.88176000  0.56146100  1
  O  O44  1  0.33758800  0.42558600  0.88287500  1
  O  O45  1  0.16241200  0.42558600  0.38287500  1
  O  O46  1  0.66241200  0.57441400  0.11712500  1
  O  O47  1  0.83758800  0.57441400  0.61712500  1
  O  O48  1  0.14014400  0.05363300  0.77346900  1
  O  O49  1  0.35985600  0.05363300  0.27346900  1
  O  O50  1  0.85985600  0.94636700  0.22653100  1
  O  O51  1  0.64014400  0.94636700  0.72653100  1
  O  O52  1  0.34445400  0.81246100  0.83660900  1
  O  O53  1  0.15554600  0.81246100  0.33660900  1
  O  O54  1  0.65554600  0.18753900  0.16339100  1
  O  O55  1  0.84445400  0.18753900  0.66339100  1
  O  O56  1  0.15263400  0.14516900  0.84935600  1
  O  O57  1  0.34736600  0.14516900  0.34935600  1
  O  O58  1  0.84736600  0.85483100  0.15064400  1
  O  O59  1  0.65263400  0.85483100  0.65064400  1
  O  O60  1  0.95813500  0.40894600  0.88484700  1
  O  O61  1  0.54186500  0.40894600  0.38484700  1
  O  O62  1  0.04186500  0.59105400  0.11515300  1
  O  O63  1  0.45813500  0.59105400  0.61515300  1
  O  O64  1  0.96519600  0.80152000  0.83992200  1
  O  O65  1  0.53480400  0.80152000  0.33992200  1
  O  O66  1  0.03480400  0.19848000  0.16007800  1
  O  O67  1  0.46519600  0.19848000  0.66007800  1
  O  O68  1  0.13564000  0.86557600  0.75221700  1
  O  O69  1  0.36436000  0.86557600  0.25221700  1
  O  O70  1  0.86436000  0.13442400  0.24778300  1
  O  O71  1  0.63564000  0.13442400  0.74778300  1
  O  O72  1  0.08184900  0.66933800  0.95454700  1
  O  O73  1  0.41815100  0.66933800  0.45454700  1
  O  O74  1  0.91815100  0.33066200  0.04545300  1
  O  O75  1  0.58184900  0.33066200  0.54545300  1
  O  O76  1  0.21099700  0.55842000  0.97268300  1
  O  O77  1  0.28900300  0.55842000  0.47268300  1
  O  O78  1  0.78900300  0.44158000  0.02731700  1
  O  O79  1  0.71099700  0.44158000  0.52731700  1
  O  O80  1  0.77463900  0.95738900  0.96150000  1
  O  O81  1  0.72536100  0.95738900  0.46150000  1
  O  O82  1  0.22536100  0.04261100  0.03850000  1
  O  O83  1  0.27463900  0.04261100  0.53850000  1
  O  O84  1  0.61862000  0.99451300  0.94323300  1
  O  O85  1  0.88138000  0.99451300  0.44323300  1
  O  O86  1  0.38138000  0.00548700  0.05676700  1
  O  O87  1  0.11862000  0.00548700  0.55676700  1
