# generated using pymatgen
data_Al4Fe(SiO6)2
_symmetry_space_group_name_H-M   'P 1'
_cell_length_a   5.64076900
_cell_length_b   7.87358900
_cell_length_c   9.37295376
_cell_angle_alpha   114.83562764
_cell_angle_beta   90.00000000
_cell_angle_gamma   90.00000000
_symmetry_Int_Tables_number   1
_chemical_formula_structural   Al4Fe(SiO6)2
_chemical_formula_sum   'Al8 Fe2 Si4 O24'
_cell_volume   377.78268640
_cell_formula_units_Z   2
loop_
 _symmetry_equiv_pos_site_id
 _symmetry_equiv_pos_as_xyz
  1  'x, y, z'
loop_
 _atom_site_type_symbol
 _atom_site_label
 _atom_site_symmetry_multiplicity
 _atom_site_fract_x
 _atom_site_fract_y
 _atom_site_fract_z
 _atom_site_occupancy
  Al  Al0  1  0.50000000  0.67310300  0.34620500  1
  Al  Al1  1  0.00000000  0.67310300  0.34620500  1
  Al  Al2  1  0.50000000  0.32689700  0.65379500  1
  Al  Al3  1  0.00000000  0.32689700  0.65379500  1
  Al  Al4  1  0.25000000  0.85625600  0.17179500  1
  Al  Al5  1  0.75000000  0.31553900  0.17179500  1
  Al  Al6  1  0.75000000  0.14374400  0.82820500  1
  Al  Al7  1  0.25000000  0.68446100  0.82820500  1
  Fe  Fe8  1  0.25000000  0.37597600  0.00000000  1
  Fe  Fe9  1  0.75000000  0.62402400  0.00000000  1
  Si  Si10  1  0.25000000  0.96574100  0.66198900  1
  Si  Si11  1  0.75000000  0.69624800  0.66198900  1
  Si  Si12  1  0.75000000  0.03425900  0.33801100  1
  Si  Si13  1  0.25000000  0.30375200  0.33801100  1
  O  O14  1  0.53457400  0.25465300  0.00000000  1
  O  O15  1  0.46542600  0.74534700  0.00000000  1
  O  O16  1  0.96542600  0.25465300  0.00000000  1
  O  O17  1  0.03457400  0.74534700  0.00000000  1
  O  O18  1  0.48569400  0.09732100  0.67786700  1
  O  O19  1  0.51430600  0.58054600  0.67786700  1
  O  O20  1  0.01430600  0.09732100  0.67786700  1
  O  O21  1  0.98569400  0.58054600  0.67786700  1
  O  O22  1  0.51430600  0.90267900  0.32213300  1
  O  O23  1  0.48569400  0.41945400  0.32213300  1
  O  O24  1  0.98569400  0.90267900  0.32213300  1
  O  O25  1  0.01430600  0.41945400  0.32213300  1
  O  O26  1  0.25000000  0.90277800  0.80610000  1
  O  O27  1  0.75000000  0.90332200  0.80610000  1
  O  O28  1  0.75000000  0.09722200  0.19390000  1
  O  O29  1  0.25000000  0.09667800  0.19390000  1
  O  O30  1  0.25000000  0.77381900  0.49329600  1
  O  O31  1  0.75000000  0.71947700  0.49329600  1
  O  O32  1  0.75000000  0.22618100  0.50670400  1
  O  O33  1  0.25000000  0.28052300  0.50670400  1
  O  O34  1  0.25000000  0.61625600  0.19303900  1
  O  O35  1  0.75000000  0.57678300  0.19303900  1
  O  O36  1  0.75000000  0.38374400  0.80696100  1
  O  O37  1  0.25000000  0.42321700  0.80696100  1
