# generated using pymatgen
data_CsKMg14O15
_symmetry_space_group_name_H-M   'P 1'
_cell_length_a   4.20886800
_cell_length_b   8.53628200
_cell_length_c   9.98953300
_cell_angle_alpha   90.00000000
_cell_angle_beta   90.00000000
_cell_angle_gamma   90.00000000
_symmetry_Int_Tables_number   1
_chemical_formula_structural   CsKMg14O15
_chemical_formula_sum   'Cs1 K1 Mg14 O15'
_cell_volume   358.90478223
_cell_formula_units_Z   1
loop_
 _symmetry_equiv_pos_site_id
 _symmetry_equiv_pos_as_xyz
  1  'x, y, z'
loop_
 _atom_site_type_symbol
 _atom_site_label
 _atom_site_symmetry_multiplicity
 _atom_site_fract_x
 _atom_site_fract_y
 _atom_site_fract_z
 _atom_site_occupancy
  Cs  Cs0  1  0.00000000  0.50000000  0.60512700  1
  K  K1  1  0.00000000  0.00000000  0.04164500  1
  Mg  Mg2  1  0.00000000  0.50000000  0.03295200  1
  Mg  Mg3  1  0.00000000  0.00000000  0.49808700  1
  Mg  Mg4  1  0.50000000  0.75732600  0.00262600  1
  Mg  Mg5  1  0.50000000  0.24267400  0.00262600  1
  Mg  Mg6  1  0.50000000  0.74165400  0.50417100  1
  Mg  Mg7  1  0.50000000  0.25834600  0.50417100  1
  Mg  Mg8  1  0.50000000  0.00000000  0.72639300  1
  Mg  Mg9  1  0.50000000  0.50000000  0.81155300  1
  Mg  Mg10  1  0.50000000  0.00000000  0.28973400  1
  Mg  Mg11  1  0.50000000  0.50000000  0.25039800  1
  Mg  Mg12  1  0.00000000  0.78575900  0.76879700  1
  Mg  Mg13  1  0.00000000  0.21424100  0.76879700  1
  Mg  Mg14  1  0.00000000  0.74544700  0.28086100  1
  Mg  Mg15  1  0.00000000  0.25455300  0.28086100  1
  O  O16  1  0.00000000  0.00000000  0.70921200  1
  O  O17  1  0.00000000  0.00000000  0.28685700  1
  O  O18  1  0.00000000  0.50000000  0.22883000  1
  O  O19  1  0.50000000  0.72229300  0.72849400  1
  O  O20  1  0.50000000  0.27770700  0.72849400  1
  O  O21  1  0.50000000  0.76519700  0.21996200  1
  O  O22  1  0.50000000  0.23480300  0.21996200  1
  O  O23  1  0.50000000  0.00000000  0.92818500  1
  O  O24  1  0.50000000  0.50000000  0.00651900  1
  O  O25  1  0.50000000  0.00000000  0.50432300  1
  O  O26  1  0.50000000  0.50000000  0.45031200  1
  O  O27  1  0.00000000  0.71248000  0.95336700  1
  O  O28  1  0.00000000  0.28752000  0.95336700  1
  O  O29  1  0.00000000  0.76515500  0.48165700  1
  O  O30  1  0.00000000  0.23484500  0.48165700  1
