# generated using pymatgen
data_CrB6H36(C4O)2
_symmetry_space_group_name_H-M   'P 1'
_cell_length_a   7.45157100
_cell_length_b   17.82627000
_cell_length_c   8.49505389
_cell_angle_alpha   90.00000000
_cell_angle_beta   110.39653645
_cell_angle_gamma   90.00000000
_symmetry_Int_Tables_number   1
_chemical_formula_structural   CrB6H36(C4O)2
_chemical_formula_sum   'Cr2 B12 H72 C16 O4'
_cell_volume   1057.68049817
_cell_formula_units_Z   2
loop_
 _symmetry_equiv_pos_site_id
 _symmetry_equiv_pos_as_xyz
  1  'x, y, z'
loop_
 _atom_site_type_symbol
 _atom_site_label
 _atom_site_symmetry_multiplicity
 _atom_site_fract_x
 _atom_site_fract_y
 _atom_site_fract_z
 _atom_site_occupancy
  Cr  Cr0  1  0.50000000  0.50000000  0.50000000  1
  Cr  Cr1  1  0.50000000  0.00000000  0.00000000  1
  B  B2  1  0.25878800  0.46168900  0.65250400  1
  B  B3  1  0.74121200  0.96168900  0.84749600  1
  B  B4  1  0.74121200  0.53831100  0.34749600  1
  B  B5  1  0.25878800  0.03831100  0.15250400  1
  B  B6  1  0.48817800  0.42012800  0.75303100  1
  B  B7  1  0.51182200  0.92012800  0.74696900  1
  B  B8  1  0.51182200  0.57987200  0.24696900  1
  B  B9  1  0.48817800  0.07987200  0.25303100  1
  B  B10  1  0.27789000  0.36196300  0.68440500  1
  B  B11  1  0.72211000  0.86196300  0.81559500  1
  B  B12  1  0.72211000  0.63803700  0.31559500  1
  B  B13  1  0.27789000  0.13803700  0.18440500  1
  H  H14  1  0.23120200  0.49107200  0.51452900  1
  H  H15  1  0.76879800  0.99107200  0.98547100  1
  H  H16  1  0.76879800  0.50892800  0.48547100  1
  H  H17  1  0.23120200  0.00892800  0.01452900  1
  H  H18  1  0.21159300  0.50225400  0.74444600  1
  H  H19  1  0.78840700  0.00225400  0.75555400  1
  H  H20  1  0.78840700  0.49774600  0.25555400  1
  H  H21  1  0.21159300  0.99774600  0.24444600  1
  H  H22  1  0.12581000  0.41332200  0.60140900  1
  H  H23  1  0.87419000  0.91332200  0.89859100  1
  H  H24  1  0.87419000  0.58667800  0.39859100  1
  H  H25  1  0.12581000  0.08667800  0.10140900  1
  H  H26  1  0.60015600  0.42057500  0.67442800  1
  H  H27  1  0.39984400  0.92057500  0.82557200  1
  H  H28  1  0.39984400  0.57942500  0.32557200  1
  H  H29  1  0.60015600  0.07942500  0.17442800  1
  H  H30  1  0.56240900  0.44347000  0.89371300  1
  H  H31  1  0.43759100  0.94347000  0.60628700  1
  H  H32  1  0.43759100  0.55653000  0.10628700  1
  H  H33  1  0.56240900  0.05653000  0.39371300  1
  H  H34  1  0.48238200  0.34965900  0.76897100  1
  H  H35  1  0.51761800  0.84965900  0.73102900  1
  H  H36  1  0.51761800  0.65034100  0.23102900  1
  H  H37  1  0.48238200  0.15034100  0.26897100  1
  H  H38  1  0.22233200  0.33826900  0.79239900  1
  H  H39  1  0.77766800  0.83826900  0.70760100  1
  H  H40  1  0.77766800  0.66173100  0.20760100  1
  H  H41  1  0.22233200  0.16173100  0.29239900  1
  H  H42  1  0.25595000  0.32040000  0.56719800  1
  H  H43  1  0.74405000  0.82040000  0.93280200  1
  H  H44  1  0.74405000  0.67960000  0.43280200  1
  H  H45  1  0.25595000  0.17960000  0.06719800  1
  H  H46  1  0.40558900  0.32032300  0.18791500  1
  H  H47  1  0.59441100  0.82032300  0.31208500  1
  H  H48  1  0.59441100  0.67967700  0.81208500  1
  H  H49  1  0.40558900  0.17967700  0.68791500  1
  H  H50  1  0.56554200  0.39473100  0.18737500  1
  H  H51  1  0.43445800  0.89473100  0.31262500  1
  H  H52  1  0.43445800  0.60526900  0.81262500  1
  H  H53  1  0.56554200  0.10526900  0.68737500  1
  H  H54  1  0.73210000  0.28322300  0.36361500  1
  H  H55  1  0.26790000  0.78322300  0.13638500  1
  H  H56  1  0.26790000  0.71677700  0.63638500  1
  H  H57  1  0.73210000  0.21677700  0.86361500  1
  H  H58  1  0.76132600  0.36359000  0.49291500  1
  H  H59  1  0.23867400  0.86359000  0.00708500  1
  H  H60  1  0.23867400  0.63641000  0.50708500  1
  H  H61  1  0.76132600  0.13641000  0.99291500  1
  H  H62  1  0.58974800  0.29361700  0.49190000  1
  H  H63  1  0.41025200  0.79361700  0.00810000  1
  H  H64  1  0.41025200  0.70638300  0.50810000  1
  H  H65  1  0.58974800  0.20638300  0.99190000  1
  H  H66  1  0.15301900  0.48196700  0.21672400  1
  H  H67  1  0.84698100  0.98196700  0.28327600  1
  H  H68  1  0.84698100  0.51803300  0.78327600  1
  H  H69  1  0.15301900  0.01803300  0.71672400  1
  H  H70  1  0.24471600  0.43853900  0.07240400  1
  H  H71  1  0.75528400  0.93853900  0.42759600  1
  H  H72  1  0.75528400  0.56146100  0.92759600  1
  H  H73  1  0.24471600  0.06146100  0.57240400  1
  H  H74  1  0.92915900  0.38375000  0.05908400  1
  H  H75  1  0.07084100  0.88375000  0.44091600  1
  H  H76  1  0.07084100  0.61625000  0.94091600  1
  H  H77  1  0.92915900  0.11625000  0.55908400  1
  H  H78  1  0.10857500  0.31366100  0.12126100  1
  H  H79  1  0.89142500  0.81366100  0.37873900  1
  H  H80  1  0.89142500  0.68633900  0.87873900  1
  H  H81  1  0.10857500  0.18633900  0.62126100  1
  H  H82  1  0.02737800  0.35692800  0.27413500  1
  H  H83  1  0.97262200  0.85692800  0.22586500  1
  H  H84  1  0.97262200  0.64307200  0.72586500  1
  H  H85  1  0.02737800  0.14307200  0.77413500  1
  C  C86  1  0.50460800  0.36203400  0.26675500  1
  C  C87  1  0.49539200  0.86203400  0.23324500  1
  C  C88  1  0.49539200  0.63796600  0.73324500  1
  C  C89  1  0.50460800  0.13796600  0.76675500  1
  C  C90  1  0.65517900  0.32420400  0.41352900  1
  C  C91  1  0.34482100  0.82420400  0.08647100  1
  C  C92  1  0.34482100  0.67579600  0.58647100  1
  C  C93  1  0.65517900  0.17579600  0.91352900  1
  C  C94  1  0.20714800  0.42896200  0.18503000  1
  C  C95  1  0.79285200  0.92896200  0.31497000  1
  C  C96  1  0.79285200  0.57103800  0.81497000  1
  C  C97  1  0.20714800  0.07103800  0.68503000  1
  C  C98  1  0.06160000  0.36657200  0.16039900  1
  C  C99  1  0.93840000  0.86657200  0.33960100  1
  C  C100  1  0.93840000  0.63342800  0.83960100  1
  C  C101  1  0.06160000  0.13342800  0.66039900  1
  O  O102  1  0.38667800  0.41344800  0.32390200  1
  O  O103  1  0.61332200  0.91344800  0.17609800  1
  O  O104  1  0.61332200  0.58655200  0.67609800  1
  O  O105  1  0.38667800  0.08655200  0.82390200  1
