# generated using pymatgen
data_BP4(SI)3
_symmetry_space_group_name_H-M   'P 1'
_cell_length_a   9.12876600
_cell_length_b   12.31238200
_cell_length_c   13.29316400
_cell_angle_alpha   90.00000000
_cell_angle_beta   90.00000000
_cell_angle_gamma   90.00000000
_symmetry_Int_Tables_number   1
_chemical_formula_structural   BP4(SI)3
_chemical_formula_sum   'B4 P16 S12 I12'
_cell_volume   1494.10981571
_cell_formula_units_Z   4
loop_
 _symmetry_equiv_pos_site_id
 _symmetry_equiv_pos_as_xyz
  1  'x, y, z'
loop_
 _atom_site_type_symbol
 _atom_site_label
 _atom_site_symmetry_multiplicity
 _atom_site_fract_x
 _atom_site_fract_y
 _atom_site_fract_z
 _atom_site_occupancy
  B  B0  1  0.46709200  0.75000000  0.13814300  1
  B  B1  1  0.03290800  0.75000000  0.63814300  1
  B  B2  1  0.53290800  0.25000000  0.86185700  1
  B  B3  1  0.96709200  0.25000000  0.36185700  1
  P  P4  1  0.67965200  0.75000000  0.11305100  1
  P  P5  1  0.82034800  0.75000000  0.61305100  1
  P  P6  1  0.32034800  0.25000000  0.88694900  1
  P  P7  1  0.17965200  0.25000000  0.38694900  1
  P  P8  1  0.01541900  0.75000000  0.17609700  1
  P  P9  1  0.48458100  0.75000000  0.67609700  1
  P  P10  1  0.98458100  0.25000000  0.82390300  1
  P  P11  1  0.51541900  0.25000000  0.32390300  1
  P  P12  1  0.98045400  0.65754800  0.02910600  1
  P  P13  1  0.51954600  0.84245200  0.52910600  1
  P  P14  1  0.01954600  0.15754800  0.97089400  1
  P  P15  1  0.48045400  0.34245200  0.47089400  1
  P  P16  1  0.01954600  0.34245200  0.97089400  1
  P  P17  1  0.48045400  0.15754800  0.47089400  1
  P  P18  1  0.98045400  0.84245200  0.02910600  1
  P  P19  1  0.51954600  0.65754800  0.52910600  1
  S  S20  1  0.80692800  0.75000000  0.24432500  1
  S  S21  1  0.69307200  0.75000000  0.74432500  1
  S  S22  1  0.19307200  0.25000000  0.75567500  1
  S  S23  1  0.30692800  0.25000000  0.25567500  1
  S  S24  1  0.75605500  0.61594500  0.03213900  1
  S  S25  1  0.74394500  0.88405500  0.53213900  1
  S  S26  1  0.24394500  0.11594500  0.96786100  1
  S  S27  1  0.25605500  0.38405500  0.46786100  1
  S  S28  1  0.24394500  0.38405500  0.96786100  1
  S  S29  1  0.25605500  0.11594500  0.46786100  1
  S  S30  1  0.75605500  0.88405500  0.03213900  1
  S  S31  1  0.74394500  0.61594500  0.53213900  1
  I  I32  1  0.36390700  0.75000000  0.98474600  1
  I  I33  1  0.13609300  0.75000000  0.48474600  1
  I  I34  1  0.63609300  0.25000000  0.01525400  1
  I  I35  1  0.86390700  0.25000000  0.51525400  1
  I  I36  1  0.42014200  0.59809700  0.22295400  1
  I  I37  1  0.07985800  0.90190300  0.72295400  1
  I  I38  1  0.57985800  0.09809700  0.77704600  1
  I  I39  1  0.92014200  0.40190300  0.27704600  1
  I  I40  1  0.57985800  0.40190300  0.77704600  1
  I  I41  1  0.92014200  0.09809700  0.27704600  1
  I  I42  1  0.42014200  0.90190300  0.22295400  1
  I  I43  1  0.07985800  0.59809700  0.72295400  1
