# generated using pymatgen
data_Mg3Si2O9
_symmetry_space_group_name_H-M   'P 1'
_cell_length_a   5.43025200
_cell_length_b   5.44098375
_cell_length_c   29.28565061
_cell_angle_alpha   91.22538606
_cell_angle_beta   89.40594403
_cell_angle_gamma   119.28787762
_symmetry_Int_Tables_number   1
_chemical_formula_structural   Mg3Si2O9
_chemical_formula_sum   'Mg12 Si8 O36'
_cell_volume   754.49347991
_cell_formula_units_Z   4
loop_
 _symmetry_equiv_pos_site_id
 _symmetry_equiv_pos_as_xyz
  1  'x, y, z'
loop_
 _atom_site_type_symbol
 _atom_site_label
 _atom_site_symmetry_multiplicity
 _atom_site_fract_x
 _atom_site_fract_y
 _atom_site_fract_z
 _atom_site_occupancy
  Mg  Mg0  1  0.98735300  0.99783100  0.99891800  1
  Mg  Mg1  1  0.32112800  0.66524300  0.99862000  1
  Mg  Mg2  1  0.65247100  0.33249000  0.00138200  1
  Mg  Mg3  1  0.00135700  0.33668400  0.75005900  1
  Mg  Mg4  1  0.32357000  0.01319300  0.74958500  1
  Mg  Mg5  1  0.67689700  0.65788800  0.75011100  1
  Mg  Mg6  1  0.98382000  0.99332900  0.50006700  1
  Mg  Mg7  1  0.31746100  0.66096400  0.50078700  1
  Mg  Mg8  1  0.65102300  0.32528100  0.49998600  1
  Mg  Mg9  1  0.71071600  0.02493700  0.24940700  1
  Mg  Mg10  1  0.95804500  0.64868200  0.24965700  1
  Mg  Mg11  1  0.33425000  0.33865000  0.24958800  1
  Si  Si12  1  0.99493400  0.66891900  0.84483900  1
  Si  Si13  1  0.32874500  0.33306600  0.84486400  1
  Si  Si14  1  0.00554600  0.00378900  0.65490900  1
  Si  Si15  1  0.67194100  0.33840000  0.65493500  1
  Si  Si16  1  0.99833900  0.33331300  0.34513200  1
  Si  Si17  1  0.66324800  0.66864700  0.34510500  1
  Si  Si18  1  0.00371600  0.00519900  0.15403300  1
  Si  Si19  1  0.66764400  0.33967000  0.15408900  1
  O  O20  1  0.66171000  0.50453900  0.86244600  1
  O  O21  1  0.15914700  0.50044500  0.86281600  1
  O  O22  1  0.16536700  0.00284900  0.86278700  1
  O  O23  1  0.99203300  0.66393900  0.78854600  1
  O  O24  1  0.32564500  0.32689400  0.78862400  1
  O  O25  1  0.33891400  0.16670000  0.63730400  1
  O  O26  1  0.84138900  0.17160400  0.63658800  1
  O  O27  1  0.83410400  0.66919300  0.63733400  1
  O  O28  1  0.00965000  0.01101200  0.71121400  1
  O  O29  1  0.67615700  0.34398800  0.71121000  1
  O  O30  1  0.33089400  0.49779100  0.36251200  1
  O  O31  1  0.83314300  0.50474300  0.36249300  1
  O  O32  1  0.82710200  0.00252400  0.36254300  1
  O  O33  1  0.00152300  0.32332000  0.28876500  1
  O  O34  1  0.66466800  0.65782400  0.28880400  1
  O  O35  1  0.33570400  0.17483700  0.13637000  1
  O  O36  1  0.83267200  0.16808400  0.13670300  1
  O  O37  1  0.83852200  0.67079900  0.13685800  1
  O  O38  1  0.00528600  0.01842100  0.21031200  1
  O  O39  1  0.66523600  0.35064800  0.21043300  1
  O  O40  1  0.65419400  0.01606700  0.02996500  1
  O  O41  1  0.98862300  0.68781000  0.03020300  1
  O  O42  1  0.31512100  0.35283900  0.03021400  1
  O  O43  1  0.98342000  0.30997800  0.96905600  1
  O  O44  1  0.32337400  0.98075100  0.96890200  1
  O  O45  1  0.65566600  0.64034000  0.96874000  1
  O  O46  1  0.64950800  0.98651500  0.77784900  1
  O  O47  1  0.35181200  0.68505600  0.72220500  1
  O  O48  1  0.00492500  0.35013400  0.53126600  1
  O  O49  1  0.33872700  0.01927200  0.53134900  1
  O  O50  1  0.67247300  0.68361500  0.53083500  1
  O  O51  1  0.63064900  0.96880000  0.46997500  1
  O  O52  1  0.96532000  0.63735900  0.47037000  1
  O  O53  1  0.29832700  0.30437400  0.47038400  1
  O  O54  1  0.33375800  0.92751400  0.27094000  1
  O  O55  1  0.33502800  0.74525000  0.22800900  1
