# generated using pymatgen
data_CoN5Cl3
_symmetry_space_group_name_H-M   'P 1'
_cell_length_a   6.16758500
_cell_length_b   7.31864900
_cell_length_c   14.66186300
_cell_angle_alpha   90.00000000
_cell_angle_beta   90.00000000
_cell_angle_gamma   90.00000000
_symmetry_Int_Tables_number   1
_chemical_formula_structural   CoN5Cl3
_chemical_formula_sum   'Co4 N20 Cl12'
_cell_volume   661.81288718
_cell_formula_units_Z   4
loop_
 _symmetry_equiv_pos_site_id
 _symmetry_equiv_pos_as_xyz
  1  'x, y, z'
loop_
 _atom_site_type_symbol
 _atom_site_label
 _atom_site_symmetry_multiplicity
 _atom_site_fract_x
 _atom_site_fract_y
 _atom_site_fract_z
 _atom_site_occupancy
  Co  Co0  1  0.25000000  0.30954700  0.89554900  1
  Co  Co1  1  0.25000000  0.19045300  0.39554900  1
  Co  Co2  1  0.75000000  0.69045300  0.10445100  1
  Co  Co3  1  0.75000000  0.80954700  0.60445100  1
  N  N4  1  0.25000000  0.12941900  0.82104500  1
  N  N5  1  0.25000000  0.37058100  0.32104500  1
  N  N6  1  0.75000000  0.87058100  0.17895500  1
  N  N7  1  0.75000000  0.62941900  0.67895500  1
  N  N8  1  0.25000000  0.61516300  0.85200100  1
  N  N9  1  0.25000000  0.88483700  0.35200100  1
  N  N10  1  0.75000000  0.38483700  0.14799900  1
  N  N11  1  0.75000000  0.11516300  0.64799900  1
  N  N12  1  0.25000000  0.24592800  0.00170300  1
  N  N13  1  0.25000000  0.25407200  0.50170300  1
  N  N14  1  0.75000000  0.75407200  0.99829700  1
  N  N15  1  0.75000000  0.74592800  0.49829700  1
  N  N16  1  0.95475200  0.35420500  0.87027900  1
  N  N17  1  0.54524800  0.14579500  0.37027900  1
  N  N18  1  0.45475200  0.64579500  0.12972100  1
  N  N19  1  0.04524800  0.85420500  0.62972100  1
  N  N20  1  0.04524800  0.64579500  0.12972100  1
  N  N21  1  0.45475200  0.85420500  0.62972100  1
  N  N22  1  0.54524800  0.35420500  0.87027900  1
  N  N23  1  0.95475200  0.14579500  0.37027900  1
  Cl  Cl24  1  0.25000000  0.74324700  0.09342700  1
  Cl  Cl25  1  0.25000000  0.75675300  0.59342700  1
  Cl  Cl26  1  0.75000000  0.25675300  0.90657300  1
  Cl  Cl27  1  0.75000000  0.24324700  0.40657300  1
  Cl  Cl28  1  0.97572400  0.23957600  0.62208000  1
  Cl  Cl29  1  0.52427600  0.26042400  0.12208000  1
  Cl  Cl30  1  0.47572400  0.76042400  0.37792000  1
  Cl  Cl31  1  0.02427600  0.73957600  0.87792000  1
  Cl  Cl32  1  0.02427600  0.76042400  0.37792000  1
  Cl  Cl33  1  0.47572400  0.73957600  0.87792000  1
  Cl  Cl34  1  0.52427600  0.23957600  0.62208000  1
  Cl  Cl35  1  0.97572400  0.26042400  0.12208000  1
