# generated using pymatgen
data_GeP2O9
_symmetry_space_group_name_H-M   'P 1'
_cell_length_a   4.84844500
_cell_length_b   8.31645649
_cell_length_c   15.39097663
_cell_angle_alpha   101.56816611
_cell_angle_beta   90.00000000
_cell_angle_gamma   90.00000000
_symmetry_Int_Tables_number   1
_chemical_formula_structural   GeP2O9
_chemical_formula_sum   'Ge4 P8 O36'
_cell_volume   607.98692052
_cell_formula_units_Z   4
loop_
 _symmetry_equiv_pos_site_id
 _symmetry_equiv_pos_as_xyz
  1  'x, y, z'
loop_
 _atom_site_type_symbol
 _atom_site_label
 _atom_site_symmetry_multiplicity
 _atom_site_fract_x
 _atom_site_fract_y
 _atom_site_fract_z
 _atom_site_occupancy
  Ge  Ge0  1  0.24487900  0.74642400  0.98810800  1
  Ge  Ge1  1  0.74487900  0.75357600  0.51189200  1
  Ge  Ge2  1  0.75512100  0.25357600  0.01189200  1
  Ge  Ge3  1  0.25512100  0.24642400  0.48810800  1
  P  P4  1  0.73829500  0.88921400  0.89120100  1
  P  P5  1  0.23829500  0.61078600  0.60879900  1
  P  P6  1  0.26170500  0.11078600  0.10879900  1
  P  P7  1  0.76170500  0.38921400  0.39120100  1
  P  P8  1  0.24404700  0.86576600  0.39838200  1
  P  P9  1  0.74404700  0.63423400  0.10161800  1
  P  P10  1  0.75595300  0.13423400  0.60161800  1
  P  P11  1  0.25595300  0.36576600  0.89838200  1
  O  O12  1  0.63562000  0.06050700  0.93570100  1
  O  O13  1  0.13562000  0.43949300  0.56429900  1
  O  O14  1  0.36438000  0.93949300  0.06429900  1
  O  O15  1  0.86438000  0.56050700  0.43570100  1
  O  O16  1  0.04385200  0.86062800  0.91320500  1
  O  O17  1  0.54385200  0.63937200  0.58679500  1
  O  O18  1  0.95614800  0.13937200  0.08679500  1
  O  O19  1  0.45614800  0.36062800  0.41320500  1
  O  O20  1  0.55853500  0.75257800  0.91733800  1
  O  O21  1  0.05853500  0.74742200  0.58266200  1
  O  O22  1  0.44146500  0.24742200  0.08266200  1
  O  O23  1  0.94146500  0.25257800  0.41733800  1
  O  O24  1  0.71043700  0.87964200  0.78893600  1
  O  O25  1  0.21043700  0.62035800  0.71106400  1
  O  O26  1  0.28956300  0.12035800  0.21106400  1
  O  O27  1  0.78956300  0.37964200  0.28893600  1
  O  O28  1  0.43678400  0.75097400  0.43760200  1
  O  O29  1  0.93678400  0.74902600  0.06239800  1
  O  O30  1  0.56321600  0.24902600  0.56239800  1
  O  O31  1  0.06321600  0.25097400  0.93760200  1
  O  O32  1  0.94639000  0.86609400  0.43427300  1
  O  O33  1  0.44639000  0.63390600  0.06572700  1
  O  O34  1  0.05361000  0.13390600  0.56572700  1
  O  O35  1  0.55361000  0.36609400  0.93427300  1
  O  O36  1  0.23665300  0.79392700  0.29610400  1
  O  O37  1  0.73665300  0.70607300  0.20389600  1
  O  O38  1  0.76334700  0.20607300  0.70389600  1
  O  O39  1  0.26334700  0.29392700  0.79610400  1
  O  O40  1  0.64295500  0.95705400  0.58460400  1
  O  O41  1  0.14295500  0.54294600  0.91539600  1
  O  O42  1  0.35704500  0.04294600  0.41539600  1
  O  O43  1  0.85704500  0.45705400  0.08460400  1
  O  O44  1  0.15069900  0.50970700  0.26059500  1
  O  O45  1  0.65069900  0.99029300  0.23940500  1
  O  O46  1  0.84930100  0.49029300  0.73940500  1
  O  O47  1  0.34930100  0.00970700  0.76059500  1
