# generated using pymatgen
data_Bi6Se3(BrO7)2
_symmetry_space_group_name_H-M   'P 1'
_cell_length_a   7.23838100
_cell_length_b   11.27055878
_cell_length_c   12.36506835
_cell_angle_alpha   66.91265652
_cell_angle_beta   81.84165661
_cell_angle_gamma   77.98411641
_symmetry_Int_Tables_number   1
_chemical_formula_structural   Bi6Se3(BrO7)2
_chemical_formula_sum   'Bi12 Se6 Br4 O28'
_cell_volume   905.58663413
_cell_formula_units_Z   2
loop_
 _symmetry_equiv_pos_site_id
 _symmetry_equiv_pos_as_xyz
  1  'x, y, z'
loop_
 _atom_site_type_symbol
 _atom_site_label
 _atom_site_symmetry_multiplicity
 _atom_site_fract_x
 _atom_site_fract_y
 _atom_site_fract_z
 _atom_site_occupancy
  Bi  Bi0  1  0.53964300  0.63582000  0.36221300  1
  Bi  Bi1  1  0.46035700  0.36418000  0.63778700  1
  Bi  Bi2  1  0.06615400  0.81217500  0.32710400  1
  Bi  Bi3  1  0.93384600  0.18782500  0.67289600  1
  Bi  Bi4  1  0.13687900  0.45993600  0.37965500  1
  Bi  Bi5  1  0.86312100  0.54006400  0.62034500  1
  Bi  Bi6  1  0.80438100  0.92086900  0.00659400  1
  Bi  Bi7  1  0.19561900  0.07913100  0.99340600  1
  Bi  Bi8  1  0.28856300  0.70697500  0.06815100  1
  Bi  Bi9  1  0.71143700  0.29302500  0.93184900  1
  Bi  Bi10  1  0.31680000  0.75354800  0.61284300  1
  Bi  Bi11  1  0.68320000  0.24645200  0.38715700  1
  Se  Se12  1  0.53257300  0.01352900  0.20523100  1
  Se  Se13  1  0.46742700  0.98647100  0.79476900  1
  Se  Se14  1  0.23998200  0.10851900  0.43170100  1
  Se  Se15  1  0.76001800  0.89148100  0.56829900  1
  Se  Se16  1  0.81539600  0.55232200  0.13484100  1
  Se  Se17  1  0.18460400  0.44767800  0.86515900  1
  Br  Br18  1  0.59586100  0.61062400  0.84171200  1
  Br  Br19  1  0.40413900  0.38937600  0.15828800  1
  Br  Br20  1  0.05684700  0.81027800  0.83473900  1
  Br  Br21  1  0.94315300  0.18972200  0.16526100  1
  O  O22  1  0.79105000  0.46362600  0.28769900  1
  O  O23  1  0.20895000  0.53637400  0.71230100  1
  O  O24  1  0.26639000  0.66902100  0.26071700  1
  O  O25  1  0.73361000  0.33097900  0.73928300  1
  O  O26  1  0.91170500  0.11176200  0.92016000  1
  O  O27  1  0.08829500  0.88823800  0.07984000  1
  O  O28  1  0.95920700  0.62541200  0.42574200  1
  O  O29  1  0.04079300  0.37458800  0.57425800  1
  O  O30  1  0.58721400  0.54529700  0.55981600  1
  O  O31  1  0.41278600  0.45470300  0.44018400  1
  O  O32  1  0.57488300  0.09430500  0.05142500  1
  O  O33  1  0.42511700  0.90569500  0.94857500  1
  O  O34  1  0.30988400  0.75165400  0.43836300  1
  O  O35  1  0.69011600  0.24834600  0.56163700  1
  O  O36  1  0.98238700  0.64223100  0.13549700  1
  O  O37  1  0.01761300  0.35776900  0.86450300  1
  O  O38  1  0.61919700  0.67359800  0.11758000  1
  O  O39  1  0.38080300  0.32640200  0.88242000  1
  O  O40  1  0.71716100  0.88385600  0.22007700  1
  O  O41  1  0.28283900  0.11614400  0.77992300  1
  O  O42  1  0.34019300  0.95016300  0.19811700  1
  O  O43  1  0.65980700  0.04983700  0.80188300  1
  O  O44  1  0.98268700  0.80719100  0.54579500  1
  O  O45  1  0.01731300  0.19280900  0.45420500  1
  O  O46  1  0.25841100  0.97769800  0.56501300  1
  O  O47  1  0.74158900  0.02230200  0.43498700  1
  O  O48  1  0.63195500  0.79046900  0.54432900  1
  O  O49  1  0.36804500  0.20953100  0.45567100  1
