# generated using pymatgen
data_UBCO5
_symmetry_space_group_name_H-M   'P 1'
_cell_length_a   7.22750500
_cell_length_b   8.95451700
_cell_length_c   10.18890200
_cell_angle_alpha   90.00000000
_cell_angle_beta   90.00000000
_cell_angle_gamma   90.00000000
_symmetry_Int_Tables_number   1
_chemical_formula_structural   UBCO5
_chemical_formula_sum   'U4 B4 C4 O20'
_cell_volume   659.41367775
_cell_formula_units_Z   4
loop_
 _symmetry_equiv_pos_site_id
 _symmetry_equiv_pos_as_xyz
  1  'x, y, z'
loop_
 _atom_site_type_symbol
 _atom_site_label
 _atom_site_symmetry_multiplicity
 _atom_site_fract_x
 _atom_site_fract_y
 _atom_site_fract_z
 _atom_site_occupancy
  U  U0  1  0.55545100  0.25000000  0.86317400  1
  U  U1  1  0.05545100  0.25000000  0.63682600  1
  U  U2  1  0.44454900  0.75000000  0.13682600  1
  U  U3  1  0.94454900  0.75000000  0.36317400  1
  B  B4  1  0.55532600  0.25000000  0.57249300  1
  B  B5  1  0.05532600  0.25000000  0.92750700  1
  B  B6  1  0.44467400  0.75000000  0.42750700  1
  B  B7  1  0.94467400  0.75000000  0.07249300  1
  C  C8  1  0.55246800  0.25000000  0.41300300  1
  C  C9  1  0.05246800  0.25000000  0.08699700  1
  C  C10  1  0.44753200  0.75000000  0.58699700  1
  C  C11  1  0.94753200  0.75000000  0.91300300  1
  O  O12  1  0.55690100  0.45253400  0.83955000  1
  O  O13  1  0.05690100  0.04746600  0.66045000  1
  O  O14  1  0.44309900  0.95253400  0.16045000  1
  O  O15  1  0.94309900  0.54746600  0.33955000  1
  O  O16  1  0.44309900  0.54746600  0.16045000  1
  O  O17  1  0.94309900  0.95253400  0.33955000  1
  O  O18  1  0.55690100  0.04746600  0.83955000  1
  O  O19  1  0.05690100  0.45253400  0.66045000  1
  O  O20  1  0.22254700  0.25000000  0.87599200  1
  O  O21  1  0.72254700  0.25000000  0.62400800  1
  O  O22  1  0.77745300  0.75000000  0.12400800  1
  O  O23  1  0.27745300  0.75000000  0.37599200  1
  O  O24  1  0.88847300  0.25000000  0.87343500  1
  O  O25  1  0.38847300  0.25000000  0.62656500  1
  O  O26  1  0.11152700  0.75000000  0.12656500  1
  O  O27  1  0.61152700  0.75000000  0.37343500  1
  O  O28  1  0.55942200  0.25000000  0.05002900  1
  O  O29  1  0.05942200  0.25000000  0.44997100  1
  O  O30  1  0.44057800  0.75000000  0.94997100  1
  O  O31  1  0.94057800  0.75000000  0.55002900  1
