# generated using pymatgen
data_Ca2Al2FeSi4BO16
_symmetry_space_group_name_H-M   'P 1'
_cell_length_a   7.26528600
_cell_length_b   9.01882458
_cell_length_c   9.19262106
_cell_angle_alpha   88.26797795
_cell_angle_beta   102.43039454
_cell_angle_gamma   98.45434376
_symmetry_Int_Tables_number   1
_chemical_formula_structural   Ca2Al2FeSi4BO16
_chemical_formula_sum   'Ca4 Al4 Fe2 Si8 B2 O32'
_cell_volume   581.82787227
_cell_formula_units_Z   2
loop_
 _symmetry_equiv_pos_site_id
 _symmetry_equiv_pos_as_xyz
  1  'x, y, z'
loop_
 _atom_site_type_symbol
 _atom_site_label
 _atom_site_symmetry_multiplicity
 _atom_site_fract_x
 _atom_site_fract_y
 _atom_site_fract_z
 _atom_site_occupancy
  Ca  Ca0  1  0.24556400  0.60437900  0.33340400  1
  Ca  Ca1  1  0.75443600  0.39562100  0.66659600  1
  Ca  Ca2  1  0.82169500  0.90314000  0.09325500  1
  Ca  Ca3  1  0.17830500  0.09686000  0.90674500  1
  Al  Al4  1  0.94945600  0.74102700  0.81862300  1
  Al  Al5  1  0.05054400  0.25897300  0.18137700  1
  Al  Al6  1  0.65907300  0.58549100  0.94240000  1
  Al  Al7  1  0.34092700  0.41450900  0.05760000  1
  Fe  Fe8  1  0.23256700  0.87832900  0.60117400  1
  Fe  Fe9  1  0.76743300  0.12167100  0.39882600  1
  Si  Si10  1  0.78984600  0.76840100  0.45129900  1
  Si  Si11  1  0.21015400  0.23159900  0.54870100  1
  Si  Si12  1  0.78221300  0.47737000  0.27159700  1
  Si  Si13  1  0.21778700  0.52263000  0.72840300  1
  Si  Si14  1  0.30011900  0.98828900  0.26112900  1
  Si  Si15  1  0.69988100  0.01171100  0.73887100  1
  Si  Si16  1  0.35382600  0.76552500  0.01868000  1
  Si  Si17  1  0.64617400  0.23447500  0.98132000  1
  B  B18  1  0.53626200  0.71202800  0.63364800  1
  B  B19  1  0.46373800  0.28797200  0.36635200  1
  O  O20  1  0.95806000  0.81111100  0.60083400  1
  O  O21  1  0.04194000  0.18888900  0.39916600  1
  O  O22  1  0.76768100  0.91677400  0.34671800  1
  O  O23  1  0.23231900  0.08322600  0.65328200  1
  O  O24  1  0.57968500  0.69585400  0.48494300  1
  O  O25  1  0.42031500  0.30414600  0.51505700  1
  O  O26  1  0.85827500  0.63640300  0.36564300  1
  O  O27  1  0.14172500  0.36359700  0.63435700  1
  O  O28  1  0.98081500  0.43232600  0.25083000  1
  O  O29  1  0.01918500  0.56767400  0.74917000  1
  O  O30  1  0.67861800  0.35071100  0.38217200  1
  O  O31  1  0.32138200  0.64928900  0.61782800  1
  O  O32  1  0.61838100  0.50148600  0.12780700  1
  O  O33  1  0.38161900  0.49851400  0.87219300  1
  O  O34  1  0.47344700  0.12255700  0.34085800  1
  O  O35  1  0.52655300  0.87744300  0.65914200  1
  O  O36  1  0.12040600  0.06058400  0.16496800  1
  O  O37  1  0.87959400  0.93941600  0.83503200  1
  O  O38  1  0.23617000  0.87029800  0.38805300  1
  O  O39  1  0.76383000  0.12970200  0.61194700  1
  O  O40  1  0.38695400  0.90311600  0.14317100  1
  O  O41  1  0.61304600  0.09688400  0.85682900  1
  O  O42  1  0.55791700  0.76152200  0.97853900  1
  O  O43  1  0.44208300  0.23847800  0.02146100  1
  O  O44  1  0.28826000  0.61116900  0.10186700  1
  O  O45  1  0.71174000  0.38883100  0.89813300  1
  O  O46  1  0.20817800  0.82500800  0.86961800  1
  O  O47  1  0.79182200  0.17499200  0.13038200  1
  O  O48  1  0.66920600  0.64449600  0.74083800  1
  O  O49  1  0.33079400  0.35550400  0.25916200  1
  O  O50  1  0.89608800  0.69062200  0.99725800  1
  O  O51  1  0.10391200  0.30937800  0.00274200  1
