# generated using pymatgen
data_Na3Np(H3O4)2
_symmetry_space_group_name_H-M   'P 1'
_cell_length_a   6.91180566
_cell_length_b   7.96584042
_cell_length_c   7.81441500
_cell_angle_alpha   90.00000000
_cell_angle_beta   90.00000000
_cell_angle_gamma   112.32965136
_symmetry_Int_Tables_number   1
_chemical_formula_structural   Na3Np(H3O4)2
_chemical_formula_sum   'Na6 Np2 H12 O16'
_cell_volume   397.98575889
_cell_formula_units_Z   2
loop_
 _symmetry_equiv_pos_site_id
 _symmetry_equiv_pos_as_xyz
  1  'x, y, z'
loop_
 _atom_site_type_symbol
 _atom_site_label
 _atom_site_symmetry_multiplicity
 _atom_site_fract_x
 _atom_site_fract_y
 _atom_site_fract_z
 _atom_site_occupancy
  Na  Na0  1  0.50000000  0.50000000  0.00000000  1
  Na  Na1  1  0.00000000  0.50000000  0.50000000  1
  Na  Na2  1  0.40260000  0.85046600  0.17730100  1
  Na  Na3  1  0.09740000  0.14953400  0.67730100  1
  Na  Na4  1  0.59740000  0.14953400  0.82269900  1
  Na  Na5  1  0.90260000  0.85046600  0.32269900  1
  Np  Np6  1  0.00000000  0.50000000  0.00000000  1
  Np  Np7  1  0.50000000  0.50000000  0.50000000  1
  H  H8  1  0.84455900  0.71376500  0.78934800  1
  H  H9  1  0.65544100  0.28623500  0.28934800  1
  H  H10  1  0.15544100  0.28623500  0.21065200  1
  H  H11  1  0.34455900  0.71376500  0.71065200  1
  H  H12  1  0.79272600  0.87889400  0.00016200  1
  H  H13  1  0.70727400  0.12110600  0.50016200  1
  H  H14  1  0.20727400  0.12110600  0.99983800  1
  H  H15  1  0.29272600  0.87889400  0.49983800  1
  H  H16  1  0.87346700  0.08474900  0.07201300  1
  H  H17  1  0.62653300  0.91525100  0.57201300  1
  H  H18  1  0.12653300  0.91525100  0.92798700  1
  H  H19  1  0.37346700  0.08474900  0.42798700  1
  O  O20  1  0.27996500  0.65368800  0.93470200  1
  O  O21  1  0.22003500  0.34631200  0.43470200  1
  O  O22  1  0.72003500  0.34631200  0.06529800  1
  O  O23  1  0.77996500  0.65368800  0.56529800  1
  O  O24  1  0.95487000  0.38233900  0.78275900  1
  O  O25  1  0.54513000  0.61766100  0.28275900  1
  O  O26  1  0.04513000  0.61766100  0.21724100  1
  O  O27  1  0.45487000  0.38233900  0.71724100  1
  O  O28  1  0.87839900  0.72803300  0.91367800  1
  O  O29  1  0.62160100  0.27196700  0.41367800  1
  O  O30  1  0.12160100  0.27196700  0.08632200  1
  O  O31  1  0.37839900  0.72803300  0.58632200  1
  O  O32  1  0.74753800  0.96870300  0.06339800  1
  O  O33  1  0.75246200  0.03129700  0.56339800  1
  O  O34  1  0.25246200  0.03129700  0.93660200  1
  O  O35  1  0.24753800  0.96870300  0.43660200  1
