# generated using pymatgen
data_HoH15(CO5)3
_symmetry_space_group_name_H-M   'P 1'
_cell_length_a   6.74364997
_cell_length_b   9.19739090
_cell_length_c   12.19635699
_cell_angle_alpha   70.72048338
_cell_angle_beta   90.63349505
_cell_angle_gamma   66.63323573
_symmetry_Int_Tables_number   1
_chemical_formula_structural   HoH15(CO5)3
_chemical_formula_sum   'Ho2 H30 C6 O30'
_cell_volume   646.61811724
_cell_formula_units_Z   2
loop_
 _symmetry_equiv_pos_site_id
 _symmetry_equiv_pos_as_xyz
  1  'x, y, z'
loop_
 _atom_site_type_symbol
 _atom_site_label
 _atom_site_symmetry_multiplicity
 _atom_site_fract_x
 _atom_site_fract_y
 _atom_site_fract_z
 _atom_site_occupancy
  Ho  Ho0  1  0.69460600  0.91983300  0.75375400  1
  Ho  Ho1  1  0.30539400  0.08016700  0.24624600  1
  H  H2  1  0.18694500  0.76110300  0.77471300  1
  H  H3  1  0.81305500  0.23889700  0.22528700  1
  H  H4  1  0.13225100  0.62261700  0.87693900  1
  H  H5  1  0.86774900  0.37738300  0.12306100  1
  H  H6  1  0.93204300  0.84522900  0.55250000  1
  H  H7  1  0.06795700  0.15477100  0.44750000  1
  H  H8  1  0.70713800  0.00618900  0.49499000  1
  H  H9  1  0.29286200  0.99381100  0.50501000  1
  H  H10  1  0.87420600  0.16441500  0.76584300  1
  H  H11  1  0.12579400  0.83558500  0.23415700  1
  H  H12  1  0.85740600  0.17811400  0.62947100  1
  H  H13  1  0.14259400  0.82188600  0.37052900  1
  H  H14  1  0.91816800  0.85177900  0.00912400  1
  H  H15  1  0.08183200  0.14822100  0.99087600  1
  H  H16  1  0.67776100  0.99940500  0.97149300  1
  H  H17  1  0.32223900  0.00059500  0.02850700  1
  H  H18  1  0.42879700  0.25206300  0.82076900  1
  H  H19  1  0.57120300  0.74793700  0.17923100  1
  H  H20  1  0.88634500  0.56954400  0.68182300  1
  H  H21  1  0.11365500  0.43045600  0.31817700  1
  H  H22  1  0.32278700  0.86352300  0.91389500  1
  H  H23  1  0.67721300  0.13647700  0.08610500  1
  H  H24  1  0.11362100  0.61030600  0.51622500  1
  H  H25  1  0.88637900  0.38969400  0.48377500  1
  H  H26  1  0.28057200  0.67105400  0.55632000  1
  H  H27  1  0.71942800  0.32894600  0.44368000  1
  H  H28  1  0.06965800  0.63483800  0.16779600  1
  H  H29  1  0.93034200  0.36516200  0.83220400  1
  H  H30  1  0.24056100  0.70236100  0.11411300  1
  H  H31  1  0.75943900  0.29763900  0.88588700  1
  C  C32  1  0.31210300  0.24498400  0.67122400  1
  C  C33  1  0.68789700  0.75501600  0.32877600  1
  C  C34  1  0.56594400  0.68188500  0.67555400  1
  C  C35  1  0.43405600  0.31811500  0.32444600  1
  C  C36  1  0.59268900  0.66909300  0.01322000  1
  C  C37  1  0.40731100  0.33090700  0.98678000  1
  O  O38  1  0.07444600  0.74317300  0.82071000  1
  O  O39  1  0.92555400  0.25682700  0.17929000  1
  O  O40  1  0.80346300  0.93305200  0.57073500  1
  O  O41  1  0.19653700  0.06694800  0.42926500  1
  O  O42  1  0.85389500  0.10903500  0.71221400  1
  O  O43  1  0.14610500  0.89096500  0.28778600  1
  O  O44  1  0.79929700  0.93624500  0.93922800  1
  O  O45  1  0.20070300  0.06375500  0.06077200  1
  O  O46  1  0.41465000  0.16658000  0.79073600  1
  O  O47  1  0.58535000  0.83342000  0.20926400  1
  O  O48  1  0.40334900  0.14693900  0.61601800  1
  O  O49  1  0.59665100  0.85306100  0.38398200  1
  O  O50  1  0.15469600  0.38741900  0.63803300  1
  O  O51  1  0.84530400  0.61258100  0.36196700  1
  O  O52  1  0.43604100  0.81719600  0.69038600  1
  O  O53  1  0.56395900  0.18280400  0.30961400  1
  O  O54  1  0.78396400  0.63441400  0.72355900  1
  O  O55  1  0.21603600  0.36558600  0.27644100  1
  O  O56  1  0.52895500  0.59270200  0.62884100  1
  O  O57  1  0.47104500  0.40729800  0.37115900  1
  O  O58  1  0.77696900  0.57538000  0.00212100  1
  O  O59  1  0.22303100  0.42462000  0.99787900  1
  O  O60  1  0.48071700  0.82028200  0.91407000  1
  O  O61  1  0.51928300  0.17971800  0.08593000  1
  O  O62  1  0.49585600  0.65186400  0.10230200  1
  O  O63  1  0.50414400  0.34813600  0.89769800  1
  O  O64  1  0.13148600  0.71406100  0.50884300  1
  O  O65  1  0.86851400  0.28593900  0.49115700  1
  O  O66  1  0.08626300  0.74033800  0.13110700  1
  O  O67  1  0.91373700  0.25966200  0.86889300  1
