# generated using pymatgen
data_Ba2InAgS4
_symmetry_space_group_name_H-M   'P 1'
_cell_length_a   7.39111500
_cell_length_b   8.47333582
_cell_length_c   14.80429301
_cell_angle_alpha   73.49835012
_cell_angle_beta   90.00000000
_cell_angle_gamma   90.00000000
_symmetry_Int_Tables_number   1
_chemical_formula_structural   Ba2InAgS4
_chemical_formula_sum   'Ba8 In4 Ag4 S16'
_cell_volume   888.96632644
_cell_formula_units_Z   4
loop_
 _symmetry_equiv_pos_site_id
 _symmetry_equiv_pos_as_xyz
  1  'x, y, z'
loop_
 _atom_site_type_symbol
 _atom_site_label
 _atom_site_symmetry_multiplicity
 _atom_site_fract_x
 _atom_site_fract_y
 _atom_site_fract_z
 _atom_site_occupancy
  Ba  Ba0  1  0.84384600  0.80275600  0.14248600  1
  Ba  Ba1  1  0.34384600  0.69724400  0.35751400  1
  Ba  Ba2  1  0.15615400  0.19724400  0.85751400  1
  Ba  Ba3  1  0.65615400  0.30275600  0.64248600  1
  Ba  Ba4  1  0.84238000  0.30853600  0.13619400  1
  Ba  Ba5  1  0.34238000  0.19146400  0.36380600  1
  Ba  Ba6  1  0.15762000  0.69146400  0.86380600  1
  Ba  Ba7  1  0.65762000  0.80853600  0.63619400  1
  In  In8  1  0.81910700  0.43579500  0.37723800  1
  In  In9  1  0.31910700  0.06420500  0.12276200  1
  In  In10  1  0.18089300  0.56420500  0.62276200  1
  In  In11  1  0.68089300  0.93579500  0.87723800  1
  Ag  Ag12  1  0.86619500  0.92294300  0.39927700  1
  Ag  Ag13  1  0.36619500  0.57705700  0.10072300  1
  Ag  Ag14  1  0.13380500  0.07705700  0.60072300  1
  Ag  Ag15  1  0.63380500  0.42294300  0.89927700  1
  S  S16  1  0.24291400  0.86708200  0.03099400  1
  S  S17  1  0.74291400  0.63291800  0.46900600  1
  S  S18  1  0.75708600  0.13291800  0.96900600  1
  S  S19  1  0.25708600  0.36708200  0.53099400  1
  S  S20  1  0.07474800  0.48847900  0.26709900  1
  S  S21  1  0.57474800  0.01152100  0.23290100  1
  S  S22  1  0.92525200  0.51152100  0.73290100  1
  S  S23  1  0.42525200  0.98847900  0.76709900  1
  S  S24  1  0.57639500  0.49740900  0.24615700  1
  S  S25  1  0.07639500  0.00259100  0.25384300  1
  S  S26  1  0.42360500  0.50259100  0.75384300  1
  S  S27  1  0.92360500  0.99740900  0.74615700  1
  S  S28  1  0.74897500  0.14615600  0.47106600  1
  S  S29  1  0.24897500  0.35384400  0.02893400  1
  S  S30  1  0.25102500  0.85384400  0.52893400  1
  S  S31  1  0.75102500  0.64615600  0.97106600  1
