# generated using pymatgen
data_PrMoClO4
_symmetry_space_group_name_H-M   'P 1'
_cell_length_a   5.90784900
_cell_length_b   7.95906000
_cell_length_c   19.32876494
_cell_angle_alpha   89.91770280
_cell_angle_beta   90.00000000
_cell_angle_gamma   90.00000000
_symmetry_Int_Tables_number   1
_chemical_formula_structural   PrMoClO4
_chemical_formula_sum   'Pr8 Mo8 Cl8 O32'
_cell_volume   908.85546245
_cell_formula_units_Z   8
loop_
 _symmetry_equiv_pos_site_id
 _symmetry_equiv_pos_as_xyz
  1  'x, y, z'
loop_
 _atom_site_type_symbol
 _atom_site_label
 _atom_site_symmetry_multiplicity
 _atom_site_fract_x
 _atom_site_fract_y
 _atom_site_fract_z
 _atom_site_occupancy
  Pr  Pr0  1  0.69554000  0.37323200  0.10455200  1
  Pr  Pr1  1  0.19554000  0.12676800  0.89544800  1
  Pr  Pr2  1  0.30446000  0.62676800  0.89544800  1
  Pr  Pr3  1  0.80446000  0.87323200  0.10455200  1
  Pr  Pr4  1  0.69662900  0.37770600  0.60444800  1
  Pr  Pr5  1  0.19662900  0.12229400  0.39555200  1
  Pr  Pr6  1  0.30337100  0.62229400  0.39555200  1
  Pr  Pr7  1  0.80337100  0.87770600  0.60444800  1
  Mo  Mo8  1  0.74793000  0.40812700  0.82171600  1
  Mo  Mo9  1  0.24793000  0.09187300  0.17828400  1
  Mo  Mo10  1  0.25207000  0.59187300  0.17828400  1
  Mo  Mo11  1  0.75207000  0.90812700  0.82171600  1
  Mo  Mo12  1  0.75581800  0.34285000  0.32192800  1
  Mo  Mo13  1  0.25581800  0.15715000  0.67807200  1
  Mo  Mo14  1  0.24418200  0.65715000  0.67807200  1
  Mo  Mo15  1  0.74418200  0.84285000  0.32192800  1
  Cl  Cl16  1  0.76460300  0.12516600  0.98976900  1
  Cl  Cl17  1  0.26460300  0.37483400  0.01023100  1
  Cl  Cl18  1  0.23539700  0.87483400  0.01023100  1
  Cl  Cl19  1  0.73539700  0.62516600  0.98976900  1
  Cl  Cl20  1  0.76318000  0.12716200  0.48964200  1
  Cl  Cl21  1  0.26318000  0.37283800  0.51035800  1
  Cl  Cl22  1  0.23682000  0.87283800  0.51035800  1
  Cl  Cl23  1  0.73682000  0.62716200  0.48964200  1
  O  O24  1  0.76505600  0.37604800  0.73130600  1
  O  O25  1  0.26505600  0.12395200  0.26869400  1
  O  O26  1  0.23494400  0.62395200  0.26869400  1
  O  O27  1  0.73494400  0.87604800  0.73130600  1
  O  O28  1  0.81951800  0.13036500  0.82873500  1
  O  O29  1  0.31951800  0.36963500  0.17126500  1
  O  O30  1  0.18048200  0.86963500  0.17126500  1
  O  O31  1  0.68048200  0.63036500  0.82873500  1
  O  O32  1  0.98579900  0.15702700  0.13495000  1
  O  O33  1  0.48579900  0.34297300  0.86505000  1
  O  O34  1  0.01420100  0.84297300  0.86505000  1
  O  O35  1  0.51420100  0.65702700  0.13495000  1
  O  O36  1  0.52109300  0.09576300  0.13227900  1
  O  O37  1  0.02109300  0.40423700  0.86772100  1
  O  O38  1  0.47890700  0.90423700  0.86772100  1
  O  O39  1  0.97890700  0.59576300  0.13227900  1
  O  O40  1  0.75845900  0.37838700  0.23152800  1
  O  O41  1  0.25845900  0.12161300  0.76847200  1
  O  O42  1  0.24154100  0.62161300  0.76847200  1
  O  O43  1  0.74154100  0.87838700  0.23152800  1
  O  O44  1  0.82062800  0.12009000  0.32854600  1
  O  O45  1  0.32062800  0.37991000  0.67145400  1
  O  O46  1  0.17937200  0.87991000  0.67145400  1
  O  O47  1  0.67937200  0.62009000  0.32854600  1
  O  O48  1  0.97840600  0.15449000  0.63479100  1
  O  O49  1  0.47840600  0.34551000  0.36520900  1
  O  O50  1  0.02159400  0.84551000  0.36520900  1
  O  O51  1  0.52159400  0.65449000  0.63479100  1
  O  O52  1  0.51370700  0.09386600  0.63188400  1
  O  O53  1  0.01370700  0.40613400  0.36811600  1
  O  O54  1  0.48629300  0.90613400  0.36811600  1
  O  O55  1  0.98629300  0.59386600  0.63188400  1
