# generated using pymatgen
data_Na6BSe5O21
_symmetry_space_group_name_H-M   'P 1'
_cell_length_a   11.79227073
_cell_length_b   11.79227073
_cell_length_c   11.79227073
_cell_angle_alpha   128.55695939
_cell_angle_beta   128.55695939
_cell_angle_gamma   75.72449699
_symmetry_Int_Tables_number   1
_chemical_formula_structural   Na6BSe5O21
_chemical_formula_sum   'Na12 B2 Se10 O42'
_cell_volume   975.37734384
_cell_formula_units_Z   2
loop_
 _symmetry_equiv_pos_site_id
 _symmetry_equiv_pos_as_xyz
  1  'x, y, z'
loop_
 _atom_site_type_symbol
 _atom_site_label
 _atom_site_symmetry_multiplicity
 _atom_site_fract_x
 _atom_site_fract_y
 _atom_site_fract_z
 _atom_site_occupancy
  Na  Na0  1  0.85884200  0.64035900  0.83501500  1
  Na  Na1  1  0.80534400  0.02382700  0.16498500  1
  Na  Na2  1  0.97617300  0.14115800  0.78151700  1
  Na  Na3  1  0.35964100  0.19465600  0.21848300  1
  Na  Na4  1  0.29680800  0.50512200  0.14985500  1
  Na  Na5  1  0.35526700  0.14695400  0.85014500  1
  Na  Na6  1  0.85304600  0.70319200  0.20831300  1
  Na  Na7  1  0.49487800  0.64473300  0.79168700  1
  Na  Na8  1  0.75816300  0.77284900  0.49070900  1
  Na  Na9  1  0.28214000  0.26745400  0.50929100  1
  Na  Na10  1  0.73254600  0.24183700  0.01468600  1
  Na  Na11  1  0.22715100  0.71786000  0.98531400  1
  B  B12  1  0.25000000  0.75000000  0.50000000  1
  B  B13  1  0.75000000  0.25000000  0.50000000  1
  Se  Se14  1  0.00000000  0.00000000  0.00000000  1
  Se  Se15  1  0.50000000  0.50000000  0.00000000  1
  Se  Se16  1  0.55613200  0.84533100  0.69484600  1
  Se  Se17  1  0.15048500  0.86128600  0.30515400  1
  Se  Se18  1  0.13871400  0.44386800  0.28919900  1
  Se  Se19  1  0.15466900  0.84951500  0.71080100  1
  Se  Se20  1  0.65451700  0.39103700  0.33713400  1
  Se  Se21  1  0.05390400  0.31738300  0.66286600  1
  Se  Se22  1  0.68261700  0.34548300  0.73652100  1
  Se  Se23  1  0.60896300  0.94609600  0.26347900  1
  O  O24  1  0.50079700  0.00079700  0.50000000  1
  O  O25  1  0.99920300  0.49920300  0.50000000  1
  O  O26  1  0.01773400  0.83309800  0.95327300  1
  O  O27  1  0.87982500  0.06446100  0.04672700  1
  O  O28  1  0.93553900  0.98226600  0.81536400  1
  O  O29  1  0.16690200  0.12017500  0.18463600  1
  O  O30  1  0.39941700  0.57405900  0.07555300  1
  O  O31  1  0.49850600  0.32386400  0.92444700  1
  O  O32  1  0.67613600  0.60058300  0.17464100  1
  O  O33  1  0.42594100  0.50149400  0.82535900  1
  O  O34  1  0.60213000  0.84584200  0.58707900  1
  O  O35  1  0.25876400  0.01505200  0.41292100  1
  O  O36  1  0.98494800  0.39787000  0.24371200  1
  O  O37  1  0.15415800  0.74123600  0.75628800  1
  O  O38  1  0.65671600  0.76964800  0.79946100  1
  O  O39  1  0.97018700  0.85725500  0.20053900  1
  O  O40  1  0.14274500  0.34328400  0.11293200  1
  O  O41  1  0.23035200  0.02981300  0.88706800  1
  O  O42  1  0.53906400  0.00954200  0.83146300  1
  O  O43  1  0.17807900  0.70760100  0.16853700  1
  O  O44  1  0.29239900  0.46093600  0.47047800  1
  O  O45  1  0.99045800  0.82192100  0.52952200  1
  O  O46  1  0.71809200  0.56909100  0.46043000  1
  O  O47  1  0.10866100  0.25766200  0.53957000  1
  O  O48  1  0.74233800  0.28190800  0.85099900  1
  O  O49  1  0.43090900  0.89133900  0.14900100  1
  O  O50  1  0.73098200  0.27678500  0.23867400  1
  O  O51  1  0.03811100  0.49230900  0.76132600  1
  O  O52  1  0.50769100  0.26901800  0.54580300  1
  O  O53  1  0.72321500  0.96188900  0.45419700  1
  O  O54  1  0.46914800  0.33733000  0.19380800  1
  O  O55  1  0.14352200  0.27534000  0.80619200  1
  O  O56  1  0.72466000  0.53085200  0.86818200  1
  O  O57  1  0.66267000  0.85647800  0.13181800  1
  O  O58  1  0.71196900  0.38469400  0.51240100  1
  O  O59  1  0.87229400  0.19956900  0.48759900  1
  O  O60  1  0.80043100  0.28803100  0.67272500  1
  O  O61  1  0.61530600  0.12770600  0.32727500  1
  O  O62  1  0.12427400  0.61780200  0.33005900  1
  O  O63  1  0.28774200  0.79421500  0.66994100  1
  O  O64  1  0.20578500  0.87572600  0.49352700  1
  O  O65  1  0.38219800  0.71225800  0.50647300  1
