# generated using pymatgen
data_GaGe2H5CNO6
_symmetry_space_group_name_H-M   'P 1'
_cell_length_a   7.29563980
_cell_length_b   7.80947509
_cell_length_c   7.80654981
_cell_angle_alpha   113.50556161
_cell_angle_beta   108.64096708
_cell_angle_gamma   101.42053059
_symmetry_Int_Tables_number   1
_chemical_formula_structural   GaGe2H5CNO6
_chemical_formula_sum   'Ga2 Ge4 H10 C2 N2 O12'
_cell_volume   358.33503693
_cell_formula_units_Z   2
loop_
 _symmetry_equiv_pos_site_id
 _symmetry_equiv_pos_as_xyz
  1  'x, y, z'
loop_
 _atom_site_type_symbol
 _atom_site_label
 _atom_site_symmetry_multiplicity
 _atom_site_fract_x
 _atom_site_fract_y
 _atom_site_fract_z
 _atom_site_occupancy
  Ga  Ga0  1  0.92759300  0.25574400  0.19317100  1
  Ga  Ga1  1  0.07240700  0.74425600  0.80682900  1
  Ge  Ge2  1  0.72070000  0.30101600  0.52226300  1
  Ge  Ge3  1  0.27930000  0.69898400  0.47773700  1
  Ge  Ge4  1  0.24367100  0.01951300  0.30630400  1
  Ge  Ge5  1  0.75632900  0.98048700  0.69369600  1
  H  H6  1  0.72411200  0.52116500  0.02983100  1
  H  H7  1  0.27588800  0.47883500  0.97016900  1
  H  H8  1  0.65028600  0.63185000  0.23403900  1
  H  H9  1  0.34971400  0.36815000  0.76596100  1
  H  H10  1  0.77347400  0.87144000  0.13476200  1
  H  H11  1  0.22652600  0.12856000  0.86523800  1
  H  H12  1  0.59336200  0.71530900  0.88549700  1
  H  H13  1  0.40663800  0.28469100  0.11450300  1
  H  H14  1  0.51029400  0.81308600  0.06331900  1
  H  H15  1  0.48970600  0.18691500  0.93668100  1
  C  C16  1  0.61006400  0.57955200  0.06914700  1
  C  C17  1  0.38993600  0.42044800  0.93085300  1
  N  N18  1  0.62311200  0.75610600  0.03688800  1
  N  N19  1  0.37688800  0.24389400  0.96311200  1
  O  O20  1  0.75215600  0.31343500  0.31416200  1
  O  O21  1  0.24784400  0.68656500  0.68583800  1
  O  O22  1  0.76528300  0.08840700  0.53311700  1
  O  O23  1  0.23471700  0.91159300  0.46688300  1
  O  O24  1  0.00793100  0.06006200  0.23841400  1
  O  O25  1  0.99206900  0.93993800  0.76158600  1
  O  O26  1  0.27326800  0.87075000  0.08589800  1
  O  O27  1  0.72673200  0.12925000  0.91410200  1
  O  O28  1  0.45217600  0.25937200  0.46526300  1
  O  O29  1  0.54782400  0.74062800  0.53473700  1
  O  O30  1  0.86870700  0.52720100  0.75909200  1
  O  O31  1  0.13129300  0.47279900  0.24090800  1
