# generated using pymatgen
data_SiC
_symmetry_space_group_name_H-M   'P 1'
_cell_length_a   3.09206762
_cell_length_b   3.09206762
_cell_length_c   43.05839039
_cell_angle_alpha   87.94232208
_cell_angle_beta   87.94232208
_cell_angle_gamma   60.00000812
_symmetry_Int_Tables_number   1
_chemical_formula_structural   SiC
_chemical_formula_sum   'Si17 C17'
_cell_volume   356.21552138
_cell_formula_units_Z   17
loop_
 _symmetry_equiv_pos_site_id
 _symmetry_equiv_pos_as_xyz
  1  'x, y, z'
loop_
 _atom_site_type_symbol
 _atom_site_label
 _atom_site_symmetry_multiplicity
 _atom_site_fract_x
 _atom_site_fract_y
 _atom_site_fract_z
 _atom_site_occupancy
  Si  Si0  1  0.99992300  0.99992300  0.00023000  1
  Si  Si1  1  0.94104900  0.94104900  0.17685200  1
  Si  Si2  1  0.86277500  0.86277500  0.41167500  1
  Si  Si3  1  0.78435900  0.78435900  0.64692200  1
  Si  Si4  1  0.70577500  0.70577500  0.88267400  1
  Si  Si5  1  0.62738300  0.62738300  0.11785100  1
  Si  Si6  1  0.58816600  0.58816600  0.23550200  1
  Si  Si7  1  0.54907200  0.54907200  0.35278500  1
  Si  Si8  1  0.50985600  0.50985600  0.47043200  1
  Si  Si9  1  0.47066100  0.47066100  0.58801600  1
  Si  Si10  1  0.43138500  0.43138500  0.70584500  1
  Si  Si11  1  0.39207800  0.39207800  0.82376600  1
  Si  Si12  1  0.35285600  0.35285600  0.94143100  1
  Si  Si13  1  0.31365700  0.31365700  0.05902800  1
  Si  Si14  1  0.23534000  0.23534000  0.29397900  1
  Si  Si15  1  0.15692300  0.15692300  0.52923200  1
  Si  Si16  1  0.07840800  0.07840800  0.76477700  1
  C  C17  1  0.98518800  0.98518800  0.04443500  1
  C  C18  1  0.92629600  0.92629600  0.22111100  1
  C  C19  1  0.84804900  0.84804900  0.45585400  1
  C  C20  1  0.76957800  0.76957800  0.69126700  1
  C  C21  1  0.69104900  0.69104900  0.92685300  1
  C  C22  1  0.61264300  0.61264300  0.16207100  1
  C  C23  1  0.57352800  0.57352800  0.27941700  1
  C  C24  1  0.53435200  0.53435200  0.39694300  1
  C  C25  1  0.49516900  0.49516900  0.51449200  1
  C  C26  1  0.45594700  0.45594700  0.63215900  1
  C  C27  1  0.41665100  0.41665100  0.75004800  1
  C  C28  1  0.37735200  0.37735200  0.86794400  1
  C  C29  1  0.33816900  0.33816900  0.98549300  1
  C  C30  1  0.29894000  0.29894000  0.10317900  1
  C  C31  1  0.22060900  0.22060900  0.33817200  1
  C  C32  1  0.14219000  0.14219000  0.57343000  1
  C  C33  1  0.06362300  0.06362300  0.80913200  1
