# generated using pymatgen
data_CuNiH16(CN)8
_symmetry_space_group_name_H-M   'P 1'
_cell_length_a   6.91085972
_cell_length_b   7.82184099
_cell_length_c   8.19127827
_cell_angle_alpha   106.52502963
_cell_angle_beta   91.86393445
_cell_angle_gamma   107.60090392
_symmetry_Int_Tables_number   1
_chemical_formula_structural   CuNiH16(CN)8
_chemical_formula_sum   'Cu1 Ni1 H16 C8 N8'
_cell_volume   401.20498522
_cell_formula_units_Z   1
loop_
 _symmetry_equiv_pos_site_id
 _symmetry_equiv_pos_as_xyz
  1  'x, y, z'
loop_
 _atom_site_type_symbol
 _atom_site_label
 _atom_site_symmetry_multiplicity
 _atom_site_fract_x
 _atom_site_fract_y
 _atom_site_fract_z
 _atom_site_occupancy
  Cu  Cu0  1  0.00000000  0.00000000  0.00000000  1
  Ni  Ni1  1  0.50000000  0.50000000  0.50000000  1
  H  H2  1  0.72006000  0.63867100  0.22290200  1
  H  H3  1  0.27994000  0.36132900  0.77709800  1
  H  H4  1  0.60187500  0.71265000  0.07144400  1
  H  H5  1  0.39812500  0.28735000  0.92855600  1
  H  H6  1  0.66294600  0.94890600  0.36026000  1
  H  H7  1  0.33705400  0.05109400  0.63974000  1
  H  H8  1  0.92627500  0.96757700  0.37594300  1
  H  H9  1  0.07372500  0.03242300  0.62405700  1
  H  H10  1  0.86821200  0.63738300  0.93916100  1
  H  H11  1  0.13178800  0.36261700  0.06083900  1
  H  H12  1  0.03277000  0.73690600  0.11772300  1
  H  H13  1  0.96723000  0.26309400  0.88227700  1
  H  H14  1  0.70999800  0.09216400  0.14406500  1
  H  H15  1  0.29000200  0.90783600  0.85593500  1
  H  H16  1  0.92159800  0.21244300  0.27779900  1
  H  H17  1  0.07840200  0.78755700  0.72220100  1
  C  C18  1  0.74259700  0.74600900  0.15665100  1
  C  C19  1  0.25740300  0.25399100  0.84334900  1
  C  C20  1  0.79106400  0.93970600  0.28653700  1
  C  C21  1  0.20893600  0.06029400  0.71346300  1
  C  C22  1  0.69509900  0.43525800  0.60522300  1
  C  C23  1  0.30490100  0.56474200  0.39477700  1
  C  C24  1  0.58308200  0.72769800  0.67193000  1
  C  C25  1  0.41691800  0.27230200  0.32807000  1
  N  N26  1  0.81918900  0.40211200  0.68162500  1
  N  N27  1  0.18081100  0.59788800  0.31837500  1
  N  N28  1  0.64082100  0.87003100  0.78614800  1
  N  N29  1  0.35917900  0.12996900  0.21385200  1
  N  N30  1  0.91200100  0.74832000  0.05060600  1
  N  N31  1  0.08799900  0.25168000  0.94939400  1
  N  N32  1  0.84204400  0.08254100  0.19488500  1
  N  N33  1  0.15795600  0.91745900  0.80511500  1
