# generated using pymatgen
data_Yb4Cl2O13
_symmetry_space_group_name_H-M   'P 1'
_cell_length_a   11.38508100
_cell_length_b   7.60159800
_cell_length_c   7.81067982
_cell_angle_alpha   61.68139621
_cell_angle_beta   90.00000000
_cell_angle_gamma   90.00000000
_symmetry_Int_Tables_number   1
_chemical_formula_structural   Yb4Cl2O13
_chemical_formula_sum   'Yb8 Cl4 O26'
_cell_volume   595.07552900
_cell_formula_units_Z   2
loop_
 _symmetry_equiv_pos_site_id
 _symmetry_equiv_pos_as_xyz
  1  'x, y, z'
loop_
 _atom_site_type_symbol
 _atom_site_label
 _atom_site_symmetry_multiplicity
 _atom_site_fract_x
 _atom_site_fract_y
 _atom_site_fract_z
 _atom_site_occupancy
  Yb  Yb0  1  0.31145200  0.68155900  0.19082300  1
  Yb  Yb1  1  0.81145200  0.31844100  0.80917700  1
  Yb  Yb2  1  0.56463600  0.00144600  0.14118000  1
  Yb  Yb3  1  0.06463600  0.99855400  0.85882000  1
  Yb  Yb4  1  0.58223200  0.35605600  0.46190400  1
  Yb  Yb5  1  0.08223200  0.64394400  0.53809600  1
  Yb  Yb6  1  0.81498700  0.66232500  0.16239600  1
  Yb  Yb7  1  0.31498700  0.33767500  0.83760400  1
  Cl  Cl8  1  0.83533100  0.21138300  0.42352700  1
  Cl  Cl9  1  0.33533100  0.78861700  0.57647300  1
  Cl  Cl10  1  0.66742200  0.62981200  0.84218800  1
  Cl  Cl11  1  0.16742200  0.37018800  0.15781200  1
  O  O12  1  0.76428200  0.73574500  0.47358500  1
  O  O13  1  0.26428200  0.26425500  0.52641500  1
  O  O14  1  0.60850100  0.20718600  0.80502000  1
  O  O15  1  0.10850100  0.79281400  0.19498000  1
  O  O16  1  0.78647700  0.38805100  0.48044700  1
  O  O17  1  0.28647700  0.61194900  0.51955300  1
  O  O18  1  0.62167900  0.68002500  0.20829400  1
  O  O19  1  0.12167900  0.31997500  0.79170600  1
  O  O20  1  0.85747900  0.97478700  0.91060700  1
  O  O21  1  0.35747900  0.02521300  0.08939300  1
  O  O22  1  0.76760500  0.07292200  0.12596000  1
  O  O23  1  0.26760500  0.92707800  0.87404000  1
  O  O24  1  0.51087800  0.33329000  0.75099000  1
  O  O25  1  0.01087800  0.66671000  0.24901000  1
  O  O26  1  0.50541200  0.66969300  0.28448200  1
  O  O27  1  0.00541200  0.33030700  0.71551800  1
  O  O28  1  0.37386700  0.99582300  0.91234000  1
  O  O29  1  0.87386700  0.00417700  0.08766000  1
  O  O30  1  0.36768800  0.30161200  0.45633900  1
  O  O31  1  0.86768800  0.69838800  0.54366100  1
  O  O32  1  0.56067100  0.08922000  0.38985300  1
  O  O33  1  0.06067100  0.91078000  0.61014700  1
  O  O34  1  0.30008800  0.45590000  0.06178600  1
  O  O35  1  0.80008800  0.54410000  0.93821400  1
  O  O36  1  0.55685500  0.26311500  0.21885600  1
  O  O37  1  0.05685500  0.73688500  0.78114400  1
