# generated using pymatgen
data_Mg14MnCO16
_symmetry_space_group_name_H-M   'P 1'
_cell_length_a   4.24829000
_cell_length_b   8.53959700
_cell_length_c   8.54168900
_cell_angle_alpha   90.00000000
_cell_angle_beta   90.00000000
_cell_angle_gamma   90.00000000
_symmetry_Int_Tables_number   1
_chemical_formula_structural   Mg14MnCO16
_chemical_formula_sum   'Mg14 Mn1 C1 O16'
_cell_volume   309.88124066
_cell_formula_units_Z   1
loop_
 _symmetry_equiv_pos_site_id
 _symmetry_equiv_pos_as_xyz
  1  'x, y, z'
loop_
 _atom_site_type_symbol
 _atom_site_label
 _atom_site_symmetry_multiplicity
 _atom_site_fract_x
 _atom_site_fract_y
 _atom_site_fract_z
 _atom_site_occupancy
  Mg  Mg0  1  0.00000000  0.00000000  0.50000000  1
  Mg  Mg1  1  0.00000000  0.50000000  0.50000000  1
  Mg  Mg2  1  0.50000000  0.74476100  0.00000000  1
  Mg  Mg3  1  0.50000000  0.25523900  0.00000000  1
  Mg  Mg4  1  0.50000000  0.74883300  0.50000000  1
  Mg  Mg5  1  0.50000000  0.25116700  0.50000000  1
  Mg  Mg6  1  0.50000000  0.00000000  0.74781100  1
  Mg  Mg7  1  0.50000000  0.50000000  0.75385200  1
  Mg  Mg8  1  0.50000000  0.00000000  0.25218900  1
  Mg  Mg9  1  0.50000000  0.50000000  0.24614800  1
  Mg  Mg10  1  0.00000000  0.74693000  0.75133300  1
  Mg  Mg11  1  0.00000000  0.25307000  0.75133300  1
  Mg  Mg12  1  0.00000000  0.74693000  0.24866700  1
  Mg  Mg13  1  0.00000000  0.25307000  0.24866700  1
  Mn  Mn14  1  0.00000000  0.00000000  0.00000000  1
  C  C15  1  0.00000000  0.50000000  0.00000000  1
  O  O16  1  0.00000000  0.00000000  0.74299000  1
  O  O17  1  0.00000000  0.50000000  0.74866000  1
  O  O18  1  0.00000000  0.00000000  0.25701000  1
  O  O19  1  0.00000000  0.50000000  0.25134000  1
  O  O20  1  0.50000000  0.74948600  0.75156500  1
  O  O21  1  0.50000000  0.25051400  0.75156500  1
  O  O22  1  0.50000000  0.74948600  0.24843500  1
  O  O23  1  0.50000000  0.25051400  0.24843500  1
  O  O24  1  0.50000000  0.00000000  0.00000000  1
  O  O25  1  0.50000000  0.50000000  0.00000000  1
  O  O26  1  0.50000000  0.00000000  0.50000000  1
  O  O27  1  0.50000000  0.50000000  0.50000000  1
  O  O28  1  0.00000000  0.74672300  0.00000000  1
  O  O29  1  0.00000000  0.25327700  0.00000000  1
  O  O30  1  0.00000000  0.74773300  0.50000000  1
  O  O31  1  0.00000000  0.25226700  0.50000000  1
