# generated using pymatgen
data_KY(BH4)4
_symmetry_space_group_name_H-M   'P 1'
_cell_length_a   7.91467282
_cell_length_b   7.91467282
_cell_length_c   9.87817700
_cell_angle_alpha   90.00000000
_cell_angle_beta   90.00000000
_cell_angle_gamma   112.08947758
_symmetry_Int_Tables_number   1
_chemical_formula_structural   KY(BH4)4
_chemical_formula_sum   'K2 Y2 B8 H32'
_cell_volume   573.36867011
_cell_formula_units_Z   2
loop_
 _symmetry_equiv_pos_site_id
 _symmetry_equiv_pos_as_xyz
  1  'x, y, z'
loop_
 _atom_site_type_symbol
 _atom_site_label
 _atom_site_symmetry_multiplicity
 _atom_site_fract_x
 _atom_site_fract_y
 _atom_site_fract_z
 _atom_site_occupancy
  K  K0  1  0.00000000  0.00000000  0.50000000  1
  K  K1  1  0.00000000  0.00000000  0.00000000  1
  Y  Y2  1  0.36391100  0.63608900  0.25000000  1
  Y  Y3  1  0.63608900  0.36391100  0.75000000  1
  B  B4  1  0.25805200  0.74194800  0.04399100  1
  B  B5  1  0.74194800  0.25805200  0.95600900  1
  B  B6  1  0.25805200  0.74194800  0.45600900  1
  B  B7  1  0.74194800  0.25805200  0.54399100  1
  B  B8  1  0.24608200  0.29720200  0.25000000  1
  B  B9  1  0.29720200  0.24608200  0.75000000  1
  B  B10  1  0.75391800  0.70279800  0.75000000  1
  B  B11  1  0.70279800  0.75391800  0.25000000  1
  H  H12  1  0.13023900  0.64332300  0.11600400  1
  H  H13  1  0.64332300  0.13023900  0.88399600  1
  H  H14  1  0.13023900  0.64332300  0.38399600  1
  H  H15  1  0.64332300  0.13023900  0.61600400  1
  H  H16  1  0.86976100  0.35667700  0.88399600  1
  H  H17  1  0.35667700  0.86976100  0.11600400  1
  H  H18  1  0.86976100  0.35667700  0.61600400  1
  H  H19  1  0.35667700  0.86976100  0.38399600  1
  H  H20  1  0.34058100  0.36262800  0.14899000  1
  H  H21  1  0.36262800  0.34058100  0.85101000  1
  H  H22  1  0.34058100  0.36262800  0.35101000  1
  H  H23  1  0.36262800  0.34058100  0.64899000  1
  H  H24  1  0.65941900  0.63737200  0.85101000  1
  H  H25  1  0.63737200  0.65941900  0.14899000  1
  H  H26  1  0.65941900  0.63737200  0.64899000  1
  H  H27  1  0.63737200  0.65941900  0.35101000  1
  H  H28  1  0.20467200  0.79532800  0.94487200  1
  H  H29  1  0.79532800  0.20467200  0.05512800  1
  H  H30  1  0.20467200  0.79532800  0.55512800  1
  H  H31  1  0.79532800  0.20467200  0.44487200  1
  H  H32  1  0.34958600  0.65041400  0.01344300  1
  H  H33  1  0.65041400  0.34958600  0.98655700  1
  H  H34  1  0.34958600  0.65041400  0.48655700  1
  H  H35  1  0.65041400  0.34958600  0.51344300  1
  H  H36  1  0.19650100  0.13257800  0.25000000  1
  H  H37  1  0.13257800  0.19650100  0.75000000  1
  H  H38  1  0.80349900  0.86742200  0.75000000  1
  H  H39  1  0.86742200  0.80349900  0.25000000  1
  H  H40  1  0.11757800  0.35052500  0.25000000  1
  H  H41  1  0.35052500  0.11757800  0.75000000  1
  H  H42  1  0.88242200  0.64947500  0.75000000  1
  H  H43  1  0.64947500  0.88242200  0.25000000  1
