# generated using pymatgen
data_LuAlB14
_symmetry_space_group_name_H-M   'P 1'
_cell_length_a   5.90436800
_cell_length_b   7.26098431
_cell_length_c   7.26098431
_cell_angle_alpha   68.71541283
_cell_angle_beta   66.00971170
_cell_angle_gamma   66.00971170
_symmetry_Int_Tables_number   1
_chemical_formula_structural   LuAlB14
_chemical_formula_sum   'Lu2 Al2 B28'
_cell_volume   252.43779044
_cell_formula_units_Z   2
loop_
 _symmetry_equiv_pos_site_id
 _symmetry_equiv_pos_as_xyz
  1  'x, y, z'
loop_
 _atom_site_type_symbol
 _atom_site_label
 _atom_site_symmetry_multiplicity
 _atom_site_fract_x
 _atom_site_fract_y
 _atom_site_fract_z
 _atom_site_occupancy
  Lu  Lu0  1  0.75000000  0.59660300  0.90339700  1
  Lu  Lu1  1  0.25000000  0.40339700  0.09660300  1
  Al  Al2  1  0.50000000  0.00000000  0.50000000  1
  Al  Al3  1  0.00000000  0.00000000  0.50000000  1
  B  B4  1  0.16762100  0.79844100  0.86631700  1
  B  B5  1  0.83237900  0.20155900  0.13368300  1
  B  B6  1  0.66762100  0.36631700  0.29844100  1
  B  B7  1  0.33237900  0.63368300  0.70155900  1
  B  B8  1  0.64486800  0.97879000  0.73147400  1
  B  B9  1  0.35513200  0.02121000  0.26852600  1
  B  B10  1  0.14486800  0.23147400  0.47879000  1
  B  B11  1  0.85513200  0.76852600  0.52121000  1
  B  B12  1  0.59037200  0.24179900  0.57745700  1
  B  B13  1  0.40962800  0.75820100  0.42254300  1
  B  B14  1  0.09037200  0.07745700  0.74179900  1
  B  B15  1  0.90962800  0.92254300  0.25820100  1
  B  B16  1  0.89953200  0.77565900  0.10111000  1
  B  B17  1  0.77630100  0.22434100  0.89889000  1
  B  B18  1  0.39953200  0.60111000  0.27565900  1
  B  B19  1  0.27630100  0.39889000  0.72434100  1
  B  B20  1  0.10046800  0.22434100  0.89889000  1
  B  B21  1  0.22369900  0.77565900  0.10111000  1
  B  B22  1  0.60046800  0.39889000  0.72434100  1
  B  B23  1  0.72369900  0.60111000  0.27565900  1
  B  B24  1  0.33270300  0.37188500  0.46780400  1
  B  B25  1  0.17239200  0.62811500  0.53219600  1
  B  B26  1  0.83270300  0.96780400  0.87188500  1
  B  B27  1  0.67239200  0.03219600  0.12811500  1
  B  B28  1  0.66729700  0.62811500  0.53219600  1
  B  B29  1  0.82760800  0.37188500  0.46780400  1
  B  B30  1  0.16729700  0.03219600  0.12811500  1
  B  B31  1  0.32760800  0.96780400  0.87188500  1
