# generated using pymatgen
data_Se2S8N4O15
_symmetry_space_group_name_H-M   'P 1'
_cell_length_a   9.66322328
_cell_length_b   13.38905684
_cell_length_c   21.86491609
_cell_angle_alpha   90.00000000
_cell_angle_beta   90.00000000
_cell_angle_gamma   90.00000000
_symmetry_Int_Tables_number   1
_chemical_formula_structural   Se2S8N4O15
_chemical_formula_sum   'Se8 S32 N16 O60'
_cell_volume   2828.91445500
_cell_formula_units_Z   4
loop_
 _symmetry_equiv_pos_site_id
 _symmetry_equiv_pos_as_xyz
  1  'x, y, z'
loop_
 _atom_site_type_symbol
 _atom_site_label
 _atom_site_symmetry_multiplicity
 _atom_site_fract_x
 _atom_site_fract_y
 _atom_site_fract_z
 _atom_site_occupancy
  Se  Se0  1  0.00898952  0.67240762  0.09659114  1
  Se  Se1  1  0.49101048  0.17240762  0.40340886  1
  Se  Se2  1  0.49101048  0.32759238  0.59659114  1
  Se  Se3  1  0.00898952  0.82759238  0.90340886  1
  Se  Se4  1  0.99101048  0.32759238  0.90340886  1
  Se  Se5  1  0.50898952  0.82759238  0.59659114  1
  Se  Se6  1  0.50898952  0.67240762  0.40340886  1
  Se  Se7  1  0.99101048  0.17240762  0.09659114  1
  S  S8  1  0.96926340  0.51770411  0.08203912  1
  S  S9  1  0.53073660  0.01770411  0.41796088  1
  S  S10  1  0.53073660  0.48229589  0.58203912  1
  S  S11  1  0.96926340  0.98229589  0.91796088  1
  S  S12  1  0.03073660  0.48229589  0.91796088  1
  S  S13  1  0.46926340  0.98229589  0.58203912  1
  S  S14  1  0.46926340  0.51770411  0.41796088  1
  S  S15  1  0.03073660  0.01770411  0.08203912  1
  S  S16  1  0.83482088  0.75695105  0.11261056  1
  S  S17  1  0.66517912  0.25695105  0.38738944  1
  S  S18  1  0.66517912  0.24304895  0.61261056  1
  S  S19  1  0.83482088  0.74304895  0.88738944  1
  S  S20  1  0.16517912  0.24304895  0.88738944  1
  S  S21  1  0.33482088  0.74304895  0.61261056  1
  S  S22  1  0.33482088  0.75695105  0.38738944  1
  S  S23  1  0.16517912  0.25695105  0.11261056  1
  S  S24  1  0.73672572  0.47805919  0.04853341  1
  S  S25  1  0.76327428  0.97805919  0.45146659  1
  S  S26  1  0.76327428  0.52194081  0.54853341  1
  S  S27  1  0.73672572  0.02194081  0.95146659  1
  S  S28  1  0.26327428  0.52194081  0.95146659  1
  S  S29  1  0.23672572  0.02194081  0.54853341  1
  S  S30  1  0.23672572  0.47805919  0.45146659  1
  S  S31  1  0.26327428  0.97805919  0.04853341  1
  S  S32  1  0.05678982  0.75559990  0.25083246  1
  S  S33  1  0.44321018  0.25559990  0.24916754  1
  S  S34  1  0.44321018  0.24440010  0.75083246  1
  S  S35  1  0.05678982  0.74440010  0.74916754  1
  S  S36  1  0.94321018  0.24440010  0.74916754  1
  S  S37  1  0.55678982  0.74440010  0.75083246  1
  S  S38  1  0.55678982  0.75559990  0.24916754  1
  S  S39  1  0.94321018  0.25559990  0.25083246  1
  N  N40  1  0.74009230  0.00362375  0.26080251  1
  N  N41  1  0.75990770  0.50362375  0.23919749  1
  N  N42  1  0.75990770  0.99637625  0.76080251  1
  N  N43  1  0.74009230  0.49637625  0.73919749  1
  N  N44  1  0.25990770  0.99637625  0.73919749  1
  N  N45  1  0.24009230  0.49637625  0.76080251  1
  N  N46  1  0.24009230  0.00362375  0.23919749  1
  N  N47  1  0.25990770  0.50362375  0.26080251  1
  N  N48  1  0.96557349  0.72881783  0.44664905  1
  N  N49  1  0.53442651  0.22881783  0.05335095  1
  N  N50  1  0.53442651  0.27118217  0.94664905  1
  N  N51  1  0.96557349  0.77118217  0.55335095  1
  N  N52  1  0.03442651  0.27118217  0.55335095  1
  N  N53  1  0.46557349  0.77118217  0.94664905  1
  N  N54  1  0.46557349  0.72881783  0.05335095  1
  N  N55  1  0.03442651  0.22881783  0.44664905  1
  O  O56  1  0.72175435  0.55410329  0.00178394  1
  O  O57  1  0.77824565  0.05410329  0.49821606  1
  O  O58  1  0.77824565  0.44589671  0.50178394  1
  O  O59  1  0.72175435  0.94589671  0.99821606  1
  O  O60  1  0.27824565  0.44589671  0.99821606  1
  O  O61  1  0.22175435  0.94589671  0.50178394  1
  O  O62  1  0.22175435  0.55410329  0.49821606  1
  O  O63  1  0.27824565  0.05410329  0.00178394  1
  O  O64  1  0.65375503  0.48591654  0.10294693  1
  O  O65  1  0.84624497  0.98591654  0.39705307  1
  O  O66  1  0.84624497  0.51408346  0.60294693  1
  O  O67  1  0.65375503  0.01408346  0.89705307  1
  O  O68  1  0.34624497  0.51408346  0.89705307  1
  O  O69  1  0.15375503  0.01408346  0.60294693  1
  O  O70  1  0.15375503  0.48591654  0.39705307  1
  O  O71  1  0.34624497  0.98591654  0.10294693  1
  O  O72  1  0.78271338  0.37954305  0.02926517  1
  O  O73  1  0.71728662  0.87954305  0.47073483  1
  O  O74  1  0.71728662  0.62045695  0.52926517  1
  O  O75  1  0.78271338  0.12045695  0.97073483  1
  O  O76  1  0.21728662  0.62045695  0.97073483  1
  O  O77  1  0.28271338  0.12045695  0.52926517  1
  O  O78  1  0.28271338  0.37954305  0.47073483  1
  O  O79  1  0.21728662  0.87954305  0.02926517  1
  O  O80  1  0.16950053  0.77026071  0.20857070  1
  O  O81  1  0.33049947  0.27026071  0.29142930  1
  O  O82  1  0.33049947  0.22973929  0.70857070  1
  O  O83  1  0.16950053  0.72973929  0.79142930  1
  O  O84  1  0.83049947  0.22973929  0.79142930  1
  O  O85  1  0.66950053  0.72973929  0.70857070  1
  O  O86  1  0.66950053  0.77026071  0.29142930  1
  O  O87  1  0.83049947  0.27026071  0.20857070  1
  O  O88  1  0.01374152  0.65556206  0.26515983  1
  O  O89  1  0.48625848  0.15556206  0.23484017  1
  O  O90  1  0.48625848  0.34443794  0.76515983  1
  O  O91  1  0.01374152  0.84443794  0.73484017  1
  O  O92  1  0.98625848  0.34443794  0.73484017  1
  O  O93  1  0.51374152  0.84443794  0.76515983  1
  O  O94  1  0.51374152  0.65556206  0.23484017  1
  O  O95  1  0.98625848  0.15556206  0.26515983  1
  O  O96  1  0.98821204  0.84027580  0.27707308  1
  O  O97  1  0.51178796  0.34027580  0.22292692  1
  O  O98  1  0.51178796  0.15972420  0.77707308  1
  O  O99  1  0.98821204  0.65972420  0.72292692  1
  O  O100  1  0.01178796  0.15972420  0.72292692  1
  O  O101  1  0.48821204  0.65972420  0.77707308  1
  O  O102  1  0.48821204  0.84027580  0.22292692  1
  O  O103  1  0.01178796  0.34027580  0.27707308  1
  O  O104  1  0.65211186  0.98959506  0.11143091  1
  O  O105  1  0.84788814  0.48959506  0.38856909  1
  O  O106  1  0.84788814  0.01040494  0.61143091  1
  O  O107  1  0.65211186  0.51040494  0.88856909  1
  O  O108  1  0.34788814  0.01040494  0.88856909  1
  O  O109  1  0.15211186  0.51040494  0.61143091  1
  O  O110  1  0.15211186  0.98959506  0.38856909  1
  O  O111  1  0.34788814  0.48959506  0.11143091  1
  O  O112  1  0.46631402  0.75000000  0.00000000  1
  O  O113  1  0.03368598  0.25000000  0.50000000  1
  O  O114  1  0.53368598  0.25000000  0.00000000  1
  O  O115  1  0.96631402  0.75000000  0.50000000  1
