# generated using pymatgen
data_KHgH2I3O
_symmetry_space_group_name_H-M   'P 1'
_cell_length_a   8.69724500
_cell_length_b   9.64158800
_cell_length_c   11.98207100
_cell_angle_alpha   90.00000000
_cell_angle_beta   90.00000000
_cell_angle_gamma   90.00000000
_symmetry_Int_Tables_number   1
_chemical_formula_structural   KHgH2I3O
_chemical_formula_sum   'K4 Hg4 H8 I12 O4'
_cell_volume   1004.75959547
_cell_formula_units_Z   4
loop_
 _symmetry_equiv_pos_site_id
 _symmetry_equiv_pos_as_xyz
  1  'x, y, z'
loop_
 _atom_site_type_symbol
 _atom_site_label
 _atom_site_symmetry_multiplicity
 _atom_site_fract_x
 _atom_site_fract_y
 _atom_site_fract_z
 _atom_site_occupancy
  K  K0  1  0.55659700  0.84486600  0.56977600  1
  K  K1  1  0.44340300  0.15513400  0.06977600  1
  K  K2  1  0.94340300  0.34486600  0.06977600  1
  K  K3  1  0.05659700  0.65513400  0.56977600  1
  Hg  Hg4  1  0.24509700  0.20297600  0.42730200  1
  Hg  Hg5  1  0.75490300  0.79702400  0.92730200  1
  Hg  Hg6  1  0.25490300  0.70297600  0.92730200  1
  Hg  Hg7  1  0.74509700  0.29702400  0.42730200  1
  H  H8  1  0.93565700  0.93316000  0.49717700  1
  H  H9  1  0.06434300  0.06684000  0.99717700  1
  H  H10  1  0.56434300  0.43316000  0.99717700  1
  H  H11  1  0.43565700  0.56684000  0.49717700  1
  H  H12  1  0.89963700  0.96939800  0.61974400  1
  H  H13  1  0.10036300  0.03060200  0.11974400  1
  H  H14  1  0.60036300  0.46939800  0.11974400  1
  H  H15  1  0.39963700  0.53060200  0.61974400  1
  I  I16  1  0.23678300  0.92209700  0.36487900  1
  I  I17  1  0.76321700  0.07790300  0.86487900  1
  I  I18  1  0.26321700  0.42209700  0.86487900  1
  I  I19  1  0.73678300  0.57790300  0.36487900  1
  I  I20  1  0.26381600  0.41507800  0.27033800  1
  I  I21  1  0.73618400  0.58492200  0.77033800  1
  I  I22  1  0.23618400  0.91507800  0.77033800  1
  I  I23  1  0.76381600  0.08492200  0.27033800  1
  I  I24  1  0.50392800  0.22705600  0.58455500  1
  I  I25  1  0.49607200  0.77294400  0.08455500  1
  I  I26  1  0.99607200  0.72705600  0.08455500  1
  I  I27  1  0.00392800  0.27294400  0.58455500  1
  O  O28  1  0.87755800  0.90015500  0.56226800  1
  O  O29  1  0.12244200  0.09984500  0.06226800  1
  O  O30  1  0.62244200  0.40015500  0.06226800  1
  O  O31  1  0.37755800  0.59984500  0.56226800  1
