# generated using pymatgen
data_H2
_symmetry_space_group_name_H-M   'P 1'
_cell_length_a   8.47172200
_cell_length_b   6.78984100
_cell_length_c   7.57692270
_cell_angle_alpha   78.79492505
_cell_angle_beta   90.00000000
_cell_angle_gamma   90.00000000
_symmetry_Int_Tables_number   1
_chemical_formula_structural   H2
_chemical_formula_sum   H32
_cell_volume   427.52911156
_cell_formula_units_Z   16
loop_
 _symmetry_equiv_pos_site_id
 _symmetry_equiv_pos_as_xyz
  1  'x, y, z'
loop_
 _atom_site_type_symbol
 _atom_site_label
 _atom_site_symmetry_multiplicity
 _atom_site_fract_x
 _atom_site_fract_y
 _atom_site_fract_z
 _atom_site_occupancy
  H  H0  1  0.26708400  0.00688800  0.17036200  1
  H  H1  1  0.76708400  0.99311200  0.82963800  1
  H  H2  1  0.75793100  0.52638400  0.14731800  1
  H  H3  1  0.25793100  0.47361600  0.85268200  1
  H  H4  1  0.18311200  0.98033000  0.15467100  1
  H  H5  1  0.68311200  0.01967000  0.84532900  1
  H  H6  1  0.67302200  0.54151600  0.12095400  1
  H  H7  1  0.17302200  0.45848400  0.87904600  1
  H  H8  1  0.00083500  0.55519800  0.09691400  1
  H  H9  1  0.50083500  0.44480200  0.90308600  1
  H  H10  1  0.51892400  0.94738500  0.10266800  1
  H  H11  1  0.01892400  0.05261500  0.89733200  1
  H  H12  1  0.04908900  0.49014400  0.16843900  1
  H  H13  1  0.54908900  0.50985600  0.83156100  1
  H  H14  1  0.55250900  0.03197100  0.14122800  1
  H  H15  1  0.05250900  0.96802900  0.85877200  1
  H  H16  1  0.85361300  0.84031800  0.13165300  1
  H  H17  1  0.35361300  0.15968200  0.86834700  1
  H  H18  1  0.33908200  0.69630700  0.14410100  1
  H  H19  1  0.83908200  0.30369300  0.85589900  1
  H  H20  1  0.83523000  0.90198600  0.20100300  1
  H  H21  1  0.33523000  0.09801400  0.79899700  1
  H  H22  1  0.34691700  0.58717400  0.18550800  1
  H  H23  1  0.84691700  0.41282600  0.81449200  1
  H  H24  1  0.07040000  0.68060400  0.61158700  1
  H  H25  1  0.57040000  0.31939600  0.38841300  1
  H  H26  1  0.56606600  0.83649900  0.58571600  1
  H  H27  1  0.06606600  0.16350100  0.41428400  1
  H  H28  1  0.98472100  0.65169800  0.61185700  1
  H  H29  1  0.48472100  0.34830200  0.38814300  1
  H  H30  1  0.48546600  0.86404100  0.61479400  1
  H  H31  1  0.98546600  0.13595900  0.38520600  1
