# generated using pymatgen
data_Tb2(MoO4)3
_symmetry_space_group_name_H-M   'P 1'
_cell_length_a   7.48431500
_cell_length_b   7.48431500
_cell_length_c   10.75374800
_cell_angle_alpha   90.00000000
_cell_angle_beta   90.00000000
_cell_angle_gamma   90.00000000
_symmetry_Int_Tables_number   1
_chemical_formula_structural   Tb2(MoO4)3
_chemical_formula_sum   'Tb4 Mo6 O24'
_cell_volume   602.37088257
_cell_formula_units_Z   2
loop_
 _symmetry_equiv_pos_site_id
 _symmetry_equiv_pos_as_xyz
  1  'x, y, z'
loop_
 _atom_site_type_symbol
 _atom_site_label
 _atom_site_symmetry_multiplicity
 _atom_site_fract_x
 _atom_site_fract_y
 _atom_site_fract_z
 _atom_site_occupancy
  Tb  Tb0  1  0.18777700  0.68777700  0.26188600  1
  Tb  Tb1  1  0.81222300  0.31222300  0.26188600  1
  Tb  Tb2  1  0.68777700  0.81222300  0.73811400  1
  Tb  Tb3  1  0.31222300  0.18777700  0.73811400  1
  Mo  Mo4  1  0.20677400  0.70677400  0.64394800  1
  Mo  Mo5  1  0.79322600  0.29322600  0.64394800  1
  Mo  Mo6  1  0.70677400  0.79322600  0.35605200  1
  Mo  Mo7  1  0.29322600  0.20677400  0.35605200  1
  Mo  Mo8  1  0.00000000  0.00000000  0.00000000  1
  Mo  Mo9  1  0.50000000  0.50000000  0.00000000  1
  O  O10  1  0.19435600  0.69435600  0.47895900  1
  O  O11  1  0.80564400  0.30564400  0.47895900  1
  O  O12  1  0.69435600  0.80564400  0.52104100  1
  O  O13  1  0.30564400  0.19435600  0.52104100  1
  O  O14  1  0.62638200  0.12638200  0.69083000  1
  O  O15  1  0.37361800  0.87361800  0.69083000  1
  O  O16  1  0.12638200  0.37361800  0.30917000  1
  O  O17  1  0.87361800  0.62638200  0.30917000  1
  O  O18  1  0.77371600  0.00567700  0.29726000  1
  O  O19  1  0.22628400  0.99432300  0.29726000  1
  O  O20  1  0.50567700  0.27371600  0.29726000  1
  O  O21  1  0.49432300  0.72628400  0.29726000  1
  O  O22  1  0.00567700  0.22628400  0.70274000  1
  O  O23  1  0.99432300  0.77371600  0.70274000  1
  O  O24  1  0.72628400  0.50567700  0.70274000  1
  O  O25  1  0.27371600  0.49432300  0.70274000  1
  O  O26  1  0.81120700  0.95405600  0.90287600  1
  O  O27  1  0.18879300  0.04594400  0.90287600  1
  O  O28  1  0.45405600  0.31120700  0.90287600  1
  O  O29  1  0.54594400  0.68879300  0.90287600  1
  O  O30  1  0.95405600  0.18879300  0.09712400  1
  O  O31  1  0.04594400  0.81120700  0.09712400  1
  O  O32  1  0.68879300  0.45405600  0.09712400  1
  O  O33  1  0.31120700  0.54594400  0.09712400  1
