# generated using pymatgen
data_Pr5Mg41
_symmetry_space_group_name_H-M   'P 1'
_cell_length_a   11.66140461
_cell_length_b   11.66140461
_cell_length_c   11.66140461
_cell_angle_alpha   101.64925990
_cell_angle_beta   101.64925990
_cell_angle_gamma   126.59536526
_symmetry_Int_Tables_number   1
_chemical_formula_structural   Pr5Mg41
_chemical_formula_sum   'Pr5 Mg41'
_cell_volume   1137.41434808
_cell_formula_units_Z   1
loop_
 _symmetry_equiv_pos_site_id
 _symmetry_equiv_pos_as_xyz
  1  'x, y, z'
loop_
 _atom_site_type_symbol
 _atom_site_label
 _atom_site_symmetry_multiplicity
 _atom_site_fract_x
 _atom_site_fract_y
 _atom_site_fract_z
 _atom_site_occupancy
  Pr  Pr0  1  0.00000000  0.00000000  0.00000000  1
  Pr  Pr1  1  0.76375400  0.42927500  0.19302900  1
  Pr  Pr2  1  0.23624600  0.57072500  0.80697100  1
  Pr  Pr3  1  0.42927500  0.23624600  0.66552100  1
  Pr  Pr4  1  0.57072500  0.76375400  0.33447900  1
  Mg  Mg5  1  0.50000000  0.50000000  0.00000000  1
  Mg  Mg6  1  0.50000000  0.00000000  0.00000000  1
  Mg  Mg7  1  0.00000000  0.50000000  0.00000000  1
  Mg  Mg8  1  0.00000000  0.00000000  0.50000000  1
  Mg  Mg9  1  0.50000000  0.50000000  0.50000000  1
  Mg  Mg10  1  0.00956200  0.40258300  0.41214500  1
  Mg  Mg11  1  0.99043800  0.59741700  0.58785500  1
  Mg  Mg12  1  0.40258300  0.99043800  0.39302200  1
  Mg  Mg13  1  0.59741700  0.00956200  0.60697800  1
  Mg  Mg14  1  0.87795100  0.22143500  0.09938600  1
  Mg  Mg15  1  0.12204900  0.77856500  0.90061400  1
  Mg  Mg16  1  0.22143500  0.12204900  0.34348300  1
  Mg  Mg17  1  0.77856500  0.87795100  0.65651700  1
  Mg  Mg18  1  0.65906900  0.21720400  0.87627300  1
  Mg  Mg19  1  0.34093100  0.78279600  0.12372700  1
  Mg  Mg20  1  0.21720400  0.34093100  0.55813500  1
  Mg  Mg21  1  0.78279600  0.65906900  0.44186500  1
  Mg  Mg22  1  0.62653700  0.91406600  0.83432200  1
  Mg  Mg23  1  0.07974400  0.79221500  0.16567800  1
  Mg  Mg24  1  0.91406600  0.07974400  0.28752900  1
  Mg  Mg25  1  0.79221500  0.62653700  0.71247100  1
  Mg  Mg26  1  0.37346300  0.08593400  0.16567800  1
  Mg  Mg27  1  0.92025600  0.20778500  0.83432200  1
  Mg  Mg28  1  0.08593400  0.92025600  0.71247100  1
  Mg  Mg29  1  0.20778500  0.37346300  0.28752900  1
  Mg  Mg30  1  0.38655400  0.17383300  0.94076100  1
  Mg  Mg31  1  0.23307200  0.44579300  0.05923900  1
  Mg  Mg32  1  0.17383300  0.23307200  0.78727900  1
  Mg  Mg33  1  0.44579300  0.38655400  0.21272100  1
  Mg  Mg34  1  0.61344600  0.82616700  0.05923900  1
  Mg  Mg35  1  0.76692800  0.55420700  0.94076100  1
  Mg  Mg36  1  0.82616700  0.76692800  0.21272100  1
  Mg  Mg37  1  0.55420700  0.61344600  0.78727900  1
  Mg  Mg38  1  0.66499100  0.10843300  0.29030500  1
  Mg  Mg39  1  0.81812800  0.37468600  0.70969500  1
  Mg  Mg40  1  0.10843300  0.81812800  0.44344100  1
  Mg  Mg41  1  0.37468600  0.66499100  0.55655900  1
  Mg  Mg42  1  0.33500900  0.89156700  0.70969500  1
  Mg  Mg43  1  0.18187200  0.62531400  0.29030500  1
  Mg  Mg44  1  0.89156700  0.18187200  0.55655900  1
  Mg  Mg45  1  0.62531400  0.33500900  0.44344100  1
