# generated using pymatgen
data_V2Ag4O7
_symmetry_space_group_name_H-M   'P 1'
_cell_length_a   10.99512482
_cell_length_b   14.11948071
_cell_length_c   19.05775934
_cell_angle_alpha   90.00000000
_cell_angle_beta   90.00000000
_cell_angle_gamma   90.00000000
_symmetry_Int_Tables_number   1
_chemical_formula_structural   V2Ag4O7
_chemical_formula_sum   'V32 Ag64 O112'
_cell_volume   2958.63047809
_cell_formula_units_Z   16
loop_
 _symmetry_equiv_pos_site_id
 _symmetry_equiv_pos_as_xyz
  1  'x, y, z'
loop_
 _atom_site_type_symbol
 _atom_site_label
 _atom_site_symmetry_multiplicity
 _atom_site_fract_x
 _atom_site_fract_y
 _atom_site_fract_z
 _atom_site_occupancy
  V  V0  1  0.98632797  0.74982495  0.75727226  1
  V  V1  1  0.51367203  0.25017505  0.25727226  1
  V  V2  1  0.48632797  0.75017505  0.24272774  1
  V  V3  1  0.01367203  0.24982495  0.74272774  1
  V  V4  1  0.01367203  0.25017505  0.24272774  1
  V  V5  1  0.48632797  0.74982495  0.74272774  1
  V  V6  1  0.51367203  0.24982495  0.75727226  1
  V  V7  1  0.98632797  0.75017505  0.25727226  1
  V  V8  1  0.98300575  0.48370025  0.75763043  1
  V  V9  1  0.51699425  0.51629975  0.25763043  1
  V  V10  1  0.48300575  0.01629975  0.24236957  1
  V  V11  1  0.01699425  0.98370025  0.74236957  1
  V  V12  1  0.01699425  0.51629975  0.24236957  1
  V  V13  1  0.48300575  0.48370025  0.74236957  1
  V  V14  1  0.51699425  0.98370025  0.75763043  1
  V  V15  1  0.98300575  0.01629975  0.25763043  1
  V  V16  1  0.75648471  0.77076949  0.49881766  1
  V  V17  1  0.74351529  0.22923051  0.99881766  1
  V  V18  1  0.25648471  0.72923051  0.50118234  1
  V  V19  1  0.24351529  0.27076949  0.00118234  1
  V  V20  1  0.24351529  0.22923051  0.50118234  1
  V  V21  1  0.25648471  0.77076949  0.00118234  1
  V  V22  1  0.74351529  0.27076949  0.49881766  1
  V  V23  1  0.75648471  0.72923051  0.99881766  1
  V  V24  1  0.25490075  0.00359168  0.99795878  1
  V  V25  1  0.24509925  0.99640832  0.49795878  1
  V  V26  1  0.75490075  0.49640832  0.00204122  1
  V  V27  1  0.74509925  0.50359168  0.50204122  1
  V  V28  1  0.74509925  0.99640832  0.00204122  1
  V  V29  1  0.75490075  0.00359168  0.50204122  1
  V  V30  1  0.24509925  0.50359168  0.99795878  1
  V  V31  1  0.25490075  0.49640832  0.49795878  1
  Ag  Ag32  1  0.00874870  0.61483889  0.41841787  1
  Ag  Ag33  1  0.49125130  0.38516111  0.91841787  1
  Ag  Ag34  1  0.50874870  0.88516111  0.58158213  1
  Ag  Ag35  1  0.99125130  0.11483889  0.08158213  1
  Ag  Ag36  1  0.99125130  0.38516111  0.58158213  1
  Ag  Ag37  1  0.50874870  0.61483889  0.08158213  1
  Ag  Ag38  1  0.49125130  0.11483889  0.41841787  1
  Ag  Ag39  1  0.00874870  0.88516111  0.91841787  1
  Ag  Ag40  1  0.00177477  0.37631961  0.41602376  1
  Ag  Ag41  1  0.49822523  0.62368039  0.91602376  1
  Ag  Ag42  1  0.50177477  0.12368039  0.58397624  1
  Ag  Ag43  1  0.99822523  0.87631961  0.08397624  1
  Ag  Ag44  1  0.99822523  0.62368039  0.58397624  1
  Ag  Ag45  1  0.50177477  0.37631961  0.08397624  1
  Ag  Ag46  1  0.49822523  0.87631961  0.41602376  1
  Ag  Ag47  1  0.00177477  0.12368039  0.91602376  1
  Ag  Ag48  1  0.22260317  0.60144012  0.67433805  1
  Ag  Ag49  1  0.27739683  0.39855988  0.17433805  1
  Ag  Ag50  1  0.72260317  0.89855988  0.32566195  1
  Ag  Ag51  1  0.77739683  0.10144012  0.82566195  1
  Ag  Ag52  1  0.77739683  0.39855988  0.32566195  1
  Ag  Ag53  1  0.72260317  0.60144012  0.82566195  1
  Ag  Ag54  1  0.27739683  0.10144012  0.67433805  1
  Ag  Ag55  1  0.22260317  0.89855988  0.17433805  1
  Ag  Ag56  1  0.75127822  0.37777775  0.67042909  1
  Ag  Ag57  1  0.74872178  0.62222225  0.17042909  1
  Ag  Ag58  1  0.25127822  0.12222225  0.32957091  1
  Ag  Ag59  1  0.24872178  0.87777775  0.82957091  1
  Ag  Ag60  1  0.24872178  0.62222225  0.32957091  1
  Ag  Ag61  1  0.25127822  0.37777775  0.82957091  1
  Ag  Ag62  1  0.74872178  0.87777775  0.67042909  1
  Ag  Ag63  1  0.75127822  0.12222225  0.17042909  1
  Ag  Ag64  1  0.24857597  0.87002566  0.33565611  1
  Ag  Ag65  1  0.25142403  0.12997434  0.83565611  1
  Ag  Ag66  1  0.74857597  0.62997434  0.66434389  1
  Ag  Ag67  1  0.75142403  0.37002566  0.16434389  1
  Ag  Ag68  1  0.75142403  0.12997434  0.66434389  1
  Ag  Ag69  1  0.74857597  0.87002566  0.16434389  1
  Ag  Ag70  1  0.25142403  0.37002566  0.33565611  1
  Ag  Ag71  1  0.24857597  0.62997434  0.83565611  1
  Ag  Ag72  1  0.74541645  0.84201554  0.83822156  1
  Ag  Ag73  1  0.75458355  0.15798446  0.33822156  1
  Ag  Ag74  1  0.24541645  0.65798446  0.16177844  1
  Ag  Ag75  1  0.25458355  0.34201554  0.66177844  1
  Ag  Ag76  1  0.25458355  0.15798446  0.16177844  1
  Ag  Ag77  1  0.24541645  0.84201554  0.66177844  1
  Ag  Ag78  1  0.75458355  0.34201554  0.83822156  1
  Ag  Ag79  1  0.74541645  0.65798446  0.33822156  1
  Ag  Ag80  1  0.49752871  0.35911979  0.59088225  1
  Ag  Ag81  1  0.00247129  0.64088021  0.09088225  1
  Ag  Ag82  1  0.99752871  0.14088021  0.40911775  1
  Ag  Ag83  1  0.50247129  0.85911979  0.90911775  1
  Ag  Ag84  1  0.50247129  0.64088021  0.40911775  1
  Ag  Ag85  1  0.99752871  0.35911979  0.90911775  1
  Ag  Ag86  1  0.00247129  0.85911979  0.59088225  1
  Ag  Ag87  1  0.49752871  0.14088021  0.09088225  1
  Ag  Ag88  1  0.51120720  0.63075875  0.58695542  1
  Ag  Ag89  1  0.98879280  0.36924125  0.08695542  1
  Ag  Ag90  1  0.01120720  0.86924125  0.41304458  1
  Ag  Ag91  1  0.48879280  0.13075875  0.91304458  1
  Ag  Ag92  1  0.48879280  0.36924125  0.41304458  1
  Ag  Ag93  1  0.01120720  0.63075875  0.91304458  1
  Ag  Ag94  1  0.98879280  0.13075875  0.58695542  1
  Ag  Ag95  1  0.51120720  0.86924125  0.08695542  1
  O  O96  1  0.46846574  0.87628130  0.71101578  1
  O  O97  1  0.03153426  0.12371870  0.21101578  1
  O  O98  1  0.96846574  0.62371870  0.28898422  1
  O  O99  1  0.53153426  0.37628130  0.78898422  1
  O  O100  1  0.53153426  0.12371870  0.28898422  1
  O  O101  1  0.96846574  0.87628130  0.78898422  1
  O  O102  1  0.03153426  0.37628130  0.71101578  1
  O  O103  1  0.46846574  0.62371870  0.21101578  1
  O  O104  1  0.41561885  0.76056842  0.82463620  1
  O  O105  1  0.08438115  0.23943158  0.32463620  1
  O  O106  1  0.91561885  0.73943158  0.17536380  1
  O  O107  1  0.58438115  0.26056842  0.67536380  1
  O  O108  1  0.58438115  0.23943158  0.17536380  1
  O  O109  1  0.91561885  0.76056842  0.67536380  1
  O  O110  1  0.08438115  0.26056842  0.82463620  1
  O  O111  1  0.41561885  0.73943158  0.32463620  1
  O  O112  1  0.09536033  0.19244257  0.67722594  1
  O  O113  1  0.40463967  0.80755743  0.17722594  1
  O  O114  1  0.59536033  0.30755743  0.32277406  1
  O  O115  1  0.90463967  0.69244257  0.82277406  1
  O  O116  1  0.90463967  0.80755743  0.32277406  1
  O  O117  1  0.59536033  0.19244257  0.82277406  1
  O  O118  1  0.40463967  0.69244257  0.67722594  1
  O  O119  1  0.09536033  0.30755743  0.17722594  1
  O  O120  1  0.35617738  0.23781114  0.75862462  1
  O  O121  1  0.14382262  0.76218886  0.25862462  1
  O  O122  1  0.85617738  0.26218886  0.24137538  1
  O  O123  1  0.64382262  0.73781114  0.74137538  1
  O  O124  1  0.64382262  0.76218886  0.24137538  1
  O  O125  1  0.85617738  0.23781114  0.74137538  1
  O  O126  1  0.14382262  0.73781114  0.75862462  1
  O  O127  1  0.35617738  0.26218886  0.25862462  1
  O  O128  1  0.56400152  0.49165443  0.66461031  1
  O  O129  1  0.93599848  0.50834557  0.16461031  1
  O  O130  1  0.06400152  0.00834557  0.33538969  1
  O  O131  1  0.43599848  0.99165443  0.83538969  1
  O  O132  1  0.43599848  0.50834557  0.33538969  1
  O  O133  1  0.06400152  0.49165443  0.83538969  1
  O  O134  1  0.93599848  0.99165443  0.66461031  1
  O  O135  1  0.56400152  0.00834557  0.16461031  1
  O  O136  1  0.82661415  0.47034900  0.77366344  1
  O  O137  1  0.67338585  0.52965100  0.27366344  1
  O  O138  1  0.32661415  0.02965100  0.22633656  1
  O  O139  1  0.17338585  0.97034900  0.72633656  1
  O  O140  1  0.17338585  0.52965100  0.22633656  1
  O  O141  1  0.32661415  0.47034900  0.72633656  1
  O  O142  1  0.67338585  0.97034900  0.77366344  1
  O  O143  1  0.82661415  0.02965100  0.27366344  1
  O  O144  1  0.32134163  0.50859346  0.91702598  1
  O  O145  1  0.17865837  0.49140654  0.41702598  1
  O  O146  1  0.82134163  0.99140654  0.08297402  1
  O  O147  1  0.67865837  0.00859346  0.58297402  1
  O  O148  1  0.67865837  0.49140654  0.08297402  1
  O  O149  1  0.82134163  0.50859346  0.58297402  1
  O  O150  1  0.17865837  0.00859346  0.91702598  1
  O  O151  1  0.32134163  0.99140654  0.41702598  1
  O  O152  1  0.16836698  0.11216898  0.50034760  1
  O  O153  1  0.33163302  0.88783102  0.00034760  1
  O  O154  1  0.66836698  0.38783102  0.49965240  1
  O  O155  1  0.83163302  0.61216898  0.99965240  1
  O  O156  1  0.83163302  0.88783102  0.49965240  1
  O  O157  1  0.66836698  0.11216898  0.99965240  1
  O  O158  1  0.33163302  0.61216898  0.50034760  1
  O  O159  1  0.16836698  0.38783102  0.00034760  1
  O  O160  1  0.83278197  0.26960546  0.57450301  1
  O  O161  1  0.66721803  0.73039454  0.07450301  1
  O  O162  1  0.33278197  0.23039454  0.42549699  1
  O  O163  1  0.16721803  0.76960546  0.92549699  1
  O  O164  1  0.16721803  0.73039454  0.42549699  1
  O  O165  1  0.33278197  0.26960546  0.92549699  1
  O  O166  1  0.66721803  0.76960546  0.57450301  1
  O  O167  1  0.83278197  0.23039454  0.07450301  1
  O  O168  1  0.87413263  0.69112074  0.49984894  1
  O  O169  1  0.62586737  0.30887926  0.99984894  1
  O  O170  1  0.37413263  0.80887926  0.50015106  1
  O  O171  1  0.12586737  0.19112074  0.00015106  1
  O  O172  1  0.12586737  0.30887926  0.50015106  1
  O  O173  1  0.37413263  0.69112074  0.00015106  1
  O  O174  1  0.62586737  0.19112074  0.49984894  1
  O  O175  1  0.87413263  0.80887926  0.99984894  1
  O  O176  1  0.67212482  0.73288456  0.92129802  1
  O  O177  1  0.82787518  0.26711544  0.42129802  1
  O  O178  1  0.17212482  0.76711544  0.07870198  1
  O  O179  1  0.32787518  0.23288456  0.57870198  1
  O  O180  1  0.32787518  0.26711544  0.07870198  1
  O  O181  1  0.17212482  0.73288456  0.57870198  1
  O  O182  1  0.82787518  0.23288456  0.92129802  1
  O  O183  1  0.67212482  0.76711544  0.42129802  1
  O  O184  1  0.84264362  0.99634124  0.93050539  1
  O  O185  1  0.65735638  0.00365876  0.43050539  1
  O  O186  1  0.34264362  0.50365876  0.06949461  1
  O  O187  1  0.15735638  0.49634124  0.56949461  1
  O  O188  1  0.15735638  0.00365876  0.06949461  1
  O  O189  1  0.34264362  0.99634124  0.56949461  1
  O  O190  1  0.65735638  0.49634124  0.93050539  1
  O  O191  1  0.84264362  0.50365876  0.43050539  1
  O  O192  1  0.37070986  0.41416453  0.50515402  1
  O  O193  1  0.12929014  0.58583547  0.00515402  1
  O  O194  1  0.87070986  0.08583547  0.49484598  1
  O  O195  1  0.62929014  0.91416453  0.99484598  1
  O  O196  1  0.62929014  0.58583547  0.49484598  1
  O  O197  1  0.87070986  0.41416453  0.99484598  1
  O  O198  1  0.12929014  0.91416453  0.50515402  1
  O  O199  1  0.37070986  0.08583547  0.00515402  1
  O  O200  1  0.98939187  0.08345169  0.79230727  1
  O  O201  1  0.51060813  0.91654831  0.29230727  1
  O  O202  1  0.48939187  0.41654831  0.20769273  1
  O  O203  1  0.01060813  0.58345169  0.70769273  1
  O  O204  1  0.01060813  0.91654831  0.20769273  1
  O  O205  1  0.48939187  0.08345169  0.70769273  1
  O  O206  1  0.51060813  0.58345169  0.79230727  1
  O  O207  1  0.98939187  0.41654831  0.29230727  1
