# generated using pymatgen
data_Na2FeNi2(PO4)3
_symmetry_space_group_name_H-M   'P 1'
_cell_length_a   8.59361192
_cell_length_b   8.59361192
_cell_length_c   6.51936075
_cell_angle_alpha   73.93111193
_cell_angle_beta   73.93111193
_cell_angle_gamma   94.28970781
_symmetry_Int_Tables_number   1
_chemical_formula_structural   Na2FeNi2(PO4)3
_chemical_formula_sum   'Na4 Fe2 Ni4 P6 O24'
_cell_volume   438.55184995
_cell_formula_units_Z   2
loop_
 _symmetry_equiv_pos_site_id
 _symmetry_equiv_pos_as_xyz
  1  'x, y, z'
loop_
 _atom_site_type_symbol
 _atom_site_label
 _atom_site_symmetry_multiplicity
 _atom_site_fract_x
 _atom_site_fract_y
 _atom_site_fract_z
 _atom_site_occupancy
  Na  Na0  1  0.00000000  0.00000000  0.50000000  1
  Na  Na1  1  0.00000000  0.00000000  0.00000000  1
  Na  Na2  1  0.48453500  0.51546500  0.25000000  1
  Na  Na3  1  0.51546500  0.48453500  0.75000000  1
  Fe  Fe4  1  0.23407500  0.76592500  0.75000000  1
  Fe  Fe5  1  0.76592500  0.23407500  0.25000000  1
  Ni  Ni6  1  0.12362300  0.44523400  0.62454100  1
  Ni  Ni7  1  0.55476600  0.87637700  0.87545900  1
  Ni  Ni8  1  0.87637700  0.55476600  0.37545900  1
  Ni  Ni9  1  0.44523400  0.12362300  0.12454100  1
  P  P10  1  0.20410800  0.79589200  0.25000000  1
  P  P11  1  0.79589200  0.20410800  0.75000000  1
  P  P12  1  0.84508400  0.61985800  0.87616700  1
  P  P13  1  0.38014200  0.15491600  0.62383300  1
  P  P14  1  0.15491600  0.38014200  0.12383300  1
  P  P15  1  0.61985800  0.84508400  0.37616700  1
  O  O16  1  0.24211900  0.68703100  0.46530700  1
  O  O17  1  0.31296900  0.75788100  0.03469300  1
  O  O18  1  0.75788100  0.31296900  0.53469300  1
  O  O19  1  0.68703100  0.24211900  0.96530700  1
  O  O20  1  0.67511400  0.67071200  0.89190200  1
  O  O21  1  0.32928800  0.32488600  0.60809800  1
  O  O22  1  0.32488600  0.32928800  0.10809800  1
  O  O23  1  0.67071200  0.67511400  0.39190200  1
  O  O24  1  0.89992000  0.54227800  0.68680200  1
  O  O25  1  0.45772200  0.10008000  0.81319800  1
  O  O26  1  0.10008000  0.45772200  0.31319800  1
  O  O27  1  0.54227800  0.89992000  0.18680200  1
  O  O28  1  0.82276500  0.48722900  0.11147700  1
  O  O29  1  0.51277100  0.17723500  0.38852300  1
  O  O30  1  0.17723500  0.51277100  0.88852300  1
  O  O31  1  0.48722900  0.82276500  0.61147700  1
  O  O32  1  0.02477900  0.76629000  0.25695500  1
  O  O33  1  0.23371000  0.97522100  0.24304500  1
  O  O34  1  0.97522100  0.23371000  0.74304500  1
  O  O35  1  0.76629000  0.02477900  0.75695500  1
  O  O36  1  0.98448300  0.76441100  0.83235300  1
  O  O37  1  0.23558900  0.01551700  0.66764700  1
  O  O38  1  0.01551700  0.23558900  0.16764700  1
  O  O39  1  0.76441100  0.98448300  0.33235300  1
