# generated using pymatgen
data_C
_symmetry_space_group_name_H-M   'P 1'
_cell_length_a   7.57115200
_cell_length_b   9.19047055
_cell_length_c   23.54600371
_cell_angle_alpha   97.89290370
_cell_angle_beta   96.75065915
_cell_angle_gamma   104.97552837
_symmetry_Int_Tables_number   1
_chemical_formula_structural   C
_chemical_formula_sum   C80
_cell_volume   1547.56942498
_cell_formula_units_Z   80
loop_
 _symmetry_equiv_pos_site_id
 _symmetry_equiv_pos_as_xyz
  1  'x, y, z'
loop_
 _atom_site_type_symbol
 _atom_site_label
 _atom_site_symmetry_multiplicity
 _atom_site_fract_x
 _atom_site_fract_y
 _atom_site_fract_z
 _atom_site_occupancy
  C  C0  1  0.27438100  0.49336600  0.00492200  1
  C  C1  1  0.43361000  0.48080300  0.99775800  1
  C  C2  1  0.57720700  0.48537700  0.03697600  1
  C  C3  1  0.66784800  0.51969700  0.08751900  1
  C  C4  1  0.67575400  0.58460100  0.14565600  1
  C  C5  1  0.81334300  0.65053100  0.19397100  1
  C  C6  1  0.88649800  0.72452800  0.24285300  1
  C  C7  1  0.87933200  0.81900100  0.29233400  1
  C  C8  1  0.88495300  0.86924900  0.35130100  1
  C  C9  1  0.72344500  0.85770300  0.31087200  1
  C  C10  1  0.53879200  0.80562700  0.31746200  1
  C  C11  1  0.41385600  0.74613200  0.26532500  1
  C  C12  1  0.34106400  0.69673200  0.21402200  1
  C  C13  1  0.33686300  0.63183100  0.15537700  1
  C  C14  1  0.19840700  0.54886600  0.04786300  1
  C  C15  1  0.21660400  0.59223400  0.10176300  1
  C  C16  1  0.50407800  0.60599900  0.15076200  1
  C  C17  1  0.67868900  0.81849100  0.41587200  1
  C  C18  1  0.84234100  0.85095700  0.40583500  1
  C  C19  1  0.50736500  0.77203600  0.37664500  1
  C  C20  1  0.78163200  0.94723000  0.06666100  1
  C  C21  1  0.62360700  0.96881400  0.06820500  1
  C  C22  1  0.56894700  0.05234700  0.10991900  1
  C  C23  1  0.60714600  0.14543300  0.15700300  1
  C  C24  1  0.75530000  0.20665300  0.20034000  1
  C  C25  1  0.85576500  0.26277000  0.25597500  1
  C  C26  1  0.87256500  0.31527000  0.31549900  1
  C  C27  1  0.99624600  0.35879900  0.35893100  1
  C  C28  1  0.15715300  0.39775600  0.39868200  1
  C  C29  1  0.27613100  0.29812800  0.39148700  1
  C  C30  1  0.39317900  0.28076200  0.34736400  1
  C  C31  1  0.34501900  0.22700300  0.28879200  1
  C  C32  1  0.24771200  0.18223500  0.24036300  1
  C  C33  1  0.09443500  0.15074600  0.19543300  1
  C  C34  1  0.95501700  0.99217900  0.09428200  1
  C  C35  1  0.06101300  0.06091300  0.14045200  1
  C  C36  1  0.94630200  0.20548600  0.21299600  1
  C  C37  1  0.31189100  0.53649600  0.39845100  1
  C  C38  1  0.34809300  0.67470500  0.38669400  1
  C  C39  1  0.43753800  0.41459500  0.38884400  1
  C  C40  1  0.95244600  0.54016300  0.55484000  1
  C  C41  1  0.79662400  0.56706600  0.55735300  1
  C  C42  1  0.74122900  0.62514400  0.60448200  1
  C  C43  1  0.76046800  0.69742400  0.65552200  1
  C  C44  1  0.87113600  0.75154400  0.71025500  1
  C  C45  1  0.85313300  0.80922300  0.76698500  1
  C  C46  1  0.90057100  0.84915400  0.82002500  1
  C  C47  1  0.01260700  0.85090600  0.87116000  1
  C  C48  1  0.14332000  0.91618200  0.92265400  1
  C  C49  1  0.18096000  0.81357900  0.87760800  1
  C  C50  1  0.35935400  0.83051400  0.86010100  1
  C  C51  1  0.35674000  0.76175300  0.80251000  1
  C  C52  1  0.31368300  0.71785800  0.74949000  1
  C  C53  1  0.20042500  0.69219600  0.69457100  1
  C  C54  1  0.12046300  0.57951100  0.58567300  1
  C  C55  1  0.20221900  0.62888400  0.63709800  1
  C  C56  1  0.03806600  0.72722600  0.70116100  1
  C  C57  1  0.41657800  0.01254800  0.93966200  1
  C  C58  1  0.27338700  0.03959700  0.96232700  1
  C  C59  1  0.49353800  0.94867700  0.89984900  1
  C  C60  1  0.61366300  0.36892000  0.87918900  1
  C  C61  1  0.75385800  0.32134200  0.89079800  1
  C  C62  1  0.84552400  0.25254000  0.85600600  1
  C  C63  1  0.87333000  0.20832600  0.80574600  1
  C  C64  1  0.78659500  0.19465400  0.75024100  1
  C  C65  1  0.72781900  0.14313500  0.69062500  1
  C  C66  1  0.71768300  0.05882600  0.63637200  1
  C  C67  1  0.66948800  0.03041400  0.58310900  1
  C  C68  1  0.55878400  0.03865700  0.53176500  1
  C  C69  1  0.39689900  0.07716800  0.54597900  1
  C  C70  1  0.30869000  0.17998000  0.56425200  1
  C  C71  1  0.30284300  0.25689000  0.61855400  1
  C  C72  1  0.37007500  0.28472900  0.67053800  1
  C  C73  1  0.48390200  0.30066300  0.72417300  1
  C  C74  1  0.46191300  0.36333800  0.77952800  1
  C  C75  1  0.50779900  0.38975100  0.83342400  1
  C  C76  1  0.63335000  0.23408900  0.72064600  1
  C  C77  1  0.43806100  0.13705800  0.47262200  1
  C  C78  1  0.59212800  0.08738200  0.47713400  1
  C  C79  1  0.31732900  0.17670400  0.50321600  1
