# generated using pymatgen
data_W2Br5
_symmetry_space_group_name_H-M   'P 1'
_cell_length_a   11.23835800
_cell_length_b   9.53850000
_cell_length_c   18.54378562
_cell_angle_alpha   76.07094509
_cell_angle_beta   90.00000000
_cell_angle_gamma   90.00000000
_symmetry_Int_Tables_number   1
_chemical_formula_structural   W2Br5
_chemical_formula_sum   'W16 Br40'
_cell_volume   1929.38628289
_cell_formula_units_Z   8
loop_
 _symmetry_equiv_pos_site_id
 _symmetry_equiv_pos_as_xyz
  1  'x, y, z'
loop_
 _atom_site_type_symbol
 _atom_site_label
 _atom_site_symmetry_multiplicity
 _atom_site_fract_x
 _atom_site_fract_y
 _atom_site_fract_z
 _atom_site_occupancy
  W  W0  1  0.24517400  0.84043500  0.61222200  1
  W  W1  1  0.74517400  0.15956500  0.88777800  1
  W  W2  1  0.75482600  0.15956500  0.38777800  1
  W  W3  1  0.25482600  0.84043500  0.11222200  1
  W  W4  1  0.30139200  0.57428100  0.63528000  1
  W  W5  1  0.80139200  0.42571900  0.86472000  1
  W  W6  1  0.69860800  0.42571900  0.36472000  1
  W  W7  1  0.19860800  0.57428100  0.13528000  1
  W  W8  1  0.60523800  0.34679700  0.80915500  1
  W  W9  1  0.10523800  0.65320300  0.69084500  1
  W  W10  1  0.39476200  0.65320300  0.19084500  1
  W  W11  1  0.89476200  0.34679700  0.30915500  1
  W  W12  1  0.10971500  0.62430600  0.55689600  1
  W  W13  1  0.60971500  0.37569400  0.94310400  1
  W  W14  1  0.89028500  0.37569400  0.44310400  1
  W  W15  1  0.39028500  0.62430600  0.05689600  1
  Br  Br16  1  0.81526700  0.30442900  0.74845300  1
  Br  Br17  1  0.31526700  0.69557100  0.75154700  1
  Br  Br18  1  0.18473300  0.69557100  0.25154700  1
  Br  Br19  1  0.68473300  0.30442900  0.24845300  1
  Br  Br20  1  0.56477500  0.07170400  0.82325900  1
  Br  Br21  1  0.06477500  0.92829600  0.67674100  1
  Br  Br22  1  0.43522500  0.92829600  0.17674100  1
  Br  Br23  1  0.93522500  0.07170400  0.32325900  1
  Br  Br24  1  0.44785500  0.77281200  0.56379000  1
  Br  Br25  1  0.94785500  0.22718800  0.93621000  1
  Br  Br26  1  0.55214500  0.22718800  0.43621000  1
  Br  Br27  1  0.05214500  0.77281200  0.06379000  1
  Br  Br28  1  0.67735700  0.61524100  0.76798700  1
  Br  Br29  1  0.17735700  0.38475900  0.73201300  1
  Br  Br30  1  0.32264300  0.38475900  0.23201300  1
  Br  Br31  1  0.82264300  0.61524100  0.26798700  1
  Br  Br32  1  0.91039000  0.68040600  0.61358100  1
  Br  Br33  1  0.41039000  0.31959400  0.88641900  1
  Br  Br34  1  0.08961000  0.31959400  0.38641900  1
  Br  Br35  1  0.58961000  0.68040600  0.11358100  1
  Br  Br36  1  0.15240200  0.89163300  0.48463400  1
  Br  Br37  1  0.65240200  0.10836700  0.01536600  1
  Br  Br38  1  0.84759800  0.10836700  0.51536600  1
  Br  Br39  1  0.34759800  0.89163300  0.98463400  1
  Br  Br40  1  0.29406300  0.52061400  0.50423300  1
  Br  Br41  1  0.79406300  0.47938600  0.99576700  1
  Br  Br42  1  0.70593700  0.47938600  0.49576700  1
  Br  Br43  1  0.20593700  0.52061400  0.00423300  1
  Br  Br44  1  0.49094800  0.39567000  0.67599900  1
  Br  Br45  1  0.99094800  0.60433000  0.82400100  1
  Br  Br46  1  0.50905200  0.60433000  0.32400100  1
  Br  Br47  1  0.00905200  0.39567000  0.17599900  1
  Br  Br48  1  0.34735600  0.07307200  0.62358500  1
  Br  Br49  1  0.84735600  0.92692800  0.87641500  1
  Br  Br50  1  0.65264400  0.92692800  0.37641500  1
  Br  Br51  1  0.15264400  0.07307200  0.12358500  1
  Br  Br52  1  0.02071300  0.36340900  0.57655900  1
  Br  Br53  1  0.52071300  0.63659100  0.92344100  1
  Br  Br54  1  0.97928700  0.63659100  0.42344100  1
  Br  Br55  1  0.47928700  0.36340900  0.07655900  1
