# generated using pymatgen
data_MgP(CO3)2
_symmetry_space_group_name_H-M   'P 1'
_cell_length_a   8.38956900
_cell_length_b   10.48846600
_cell_length_c   12.19492900
_cell_angle_alpha   90.00000000
_cell_angle_beta   90.00000000
_cell_angle_gamma   90.00000000
_symmetry_Int_Tables_number   1
_chemical_formula_structural   MgP(CO3)2
_chemical_formula_sum   'Mg8 P8 C16 O48'
_cell_volume   1073.07703628
_cell_formula_units_Z   8
loop_
 _symmetry_equiv_pos_site_id
 _symmetry_equiv_pos_as_xyz
  1  'x, y, z'
loop_
 _atom_site_type_symbol
 _atom_site_label
 _atom_site_symmetry_multiplicity
 _atom_site_fract_x
 _atom_site_fract_y
 _atom_site_fract_z
 _atom_site_occupancy
  Mg  Mg0  1  0.64466200  0.05456700  0.43996600  1
  Mg  Mg1  1  0.14466200  0.44543300  0.56003400  1
  Mg  Mg2  1  0.35533800  0.55456700  0.06003400  1
  Mg  Mg3  1  0.85533800  0.94543300  0.93996600  1
  Mg  Mg4  1  0.35533800  0.94543300  0.56003400  1
  Mg  Mg5  1  0.85533800  0.55456700  0.43996600  1
  Mg  Mg6  1  0.64466200  0.44543300  0.93996600  1
  Mg  Mg7  1  0.14466200  0.05456700  0.06003400  1
  P  P8  1  0.77341100  0.30945900  0.56704900  1
  P  P9  1  0.27341100  0.19054100  0.43295100  1
  P  P10  1  0.22658900  0.80945900  0.93295100  1
  P  P11  1  0.72658900  0.69054100  0.06704900  1
  P  P12  1  0.22658900  0.69054100  0.43295100  1
  P  P13  1  0.72658900  0.80945900  0.56704900  1
  P  P14  1  0.77341100  0.19054100  0.06704900  1
  P  P15  1  0.27341100  0.30945900  0.93295100  1
  C  C16  1  0.80463000  0.17347100  0.22502900  1
  C  C17  1  0.30463000  0.32652900  0.77497100  1
  C  C18  1  0.19537000  0.67347100  0.27497100  1
  C  C19  1  0.69537000  0.82652900  0.72502900  1
  C  C20  1  0.19537000  0.82652900  0.77497100  1
  C  C21  1  0.69537000  0.67347100  0.22502900  1
  C  C22  1  0.80463000  0.32652900  0.72502900  1
  C  C23  1  0.30463000  0.17347100  0.27497100  1
  C  C24  1  0.89970300  0.03432000  0.26471800  1
  C  C25  1  0.39970300  0.46568000  0.73528200  1
  C  C26  1  0.10029700  0.53432000  0.23528200  1
  C  C27  1  0.60029700  0.96568000  0.76471800  1
  C  C28  1  0.10029700  0.96568000  0.73528200  1
  C  C29  1  0.60029700  0.53432000  0.26471800  1
  C  C30  1  0.89970300  0.46568000  0.76471800  1
  C  C31  1  0.39970300  0.03432000  0.23528200  1
  O  O32  1  0.91532000  0.38465200  0.51663800  1
  O  O33  1  0.41532000  0.11534800  0.48336200  1
  O  O34  1  0.08468000  0.88465200  0.98336200  1
  O  O35  1  0.58468000  0.61534800  0.01663800  1
  O  O36  1  0.08468000  0.61534800  0.48336200  1
  O  O37  1  0.58468000  0.88465200  0.51663800  1
  O  O38  1  0.91532000  0.11534800  0.01663800  1
  O  O39  1  0.41532000  0.38465200  0.98336200  1
  O  O40  1  0.62182700  0.38406700  0.57624100  1
  O  O41  1  0.12182700  0.11593300  0.42375900  1
  O  O42  1  0.37817300  0.88406700  0.92375900  1
  O  O43  1  0.87817300  0.61593300  0.07624100  1
  O  O44  1  0.37817300  0.61593300  0.42375900  1
  O  O45  1  0.87817300  0.88406700  0.57624100  1
  O  O46  1  0.62182700  0.11593300  0.07624100  1
  O  O47  1  0.12182700  0.38406700  0.92375900  1
  O  O48  1  0.76856800  0.16989900  0.53851100  1
  O  O49  1  0.26856800  0.33010100  0.46148900  1
  O  O50  1  0.23143200  0.66989900  0.96148900  1
  O  O51  1  0.73143200  0.83010100  0.03851100  1
  O  O52  1  0.23143200  0.83010100  0.46148900  1
  O  O53  1  0.73143200  0.66989900  0.53851100  1
  O  O54  1  0.76856800  0.33010100  0.03851100  1
  O  O55  1  0.26856800  0.16989900  0.96148900  1
  O  O56  1  0.51402600  0.00360300  0.29290200  1
  O  O57  1  0.01402600  0.49639700  0.70709800  1
  O  O58  1  0.48597400  0.50360300  0.20709800  1
  O  O59  1  0.98597400  0.99639700  0.79290200  1
  O  O60  1  0.48597400  0.99639700  0.70709800  1
  O  O61  1  0.98597400  0.50360300  0.29290200  1
  O  O62  1  0.51402600  0.49639700  0.79290200  1
  O  O63  1  0.01402600  0.00360300  0.20709800  1
  O  O64  1  0.83087300  0.98932100  0.34507000  1
  O  O65  1  0.33087300  0.51067900  0.65493000  1
  O  O66  1  0.16912700  0.48932100  0.15493000  1
  O  O67  1  0.66912700  0.01067900  0.84507000  1
  O  O68  1  0.16912700  0.01067900  0.65493000  1
  O  O69  1  0.66912700  0.48932100  0.34507000  1
  O  O70  1  0.83087300  0.51067900  0.84507000  1
  O  O71  1  0.33087300  0.98932100  0.15493000  1
  O  O72  1  0.73547800  0.23171100  0.29430900  1
  O  O73  1  0.23547800  0.26828900  0.70569100  1
  O  O74  1  0.26452200  0.73171100  0.20569100  1
  O  O75  1  0.76452200  0.76828900  0.79430900  1
  O  O76  1  0.26452200  0.76828900  0.70569100  1
  O  O77  1  0.76452200  0.73171100  0.29430900  1
  O  O78  1  0.73547800  0.26828900  0.79430900  1
  O  O79  1  0.23547800  0.23171100  0.20569100  1
