# generated using pymatgen
data_H14Pb6C8O13
_symmetry_space_group_name_H-M   'P 1'
_cell_length_a   7.35792600
_cell_length_b   11.88543504
_cell_length_c   13.89899833
_cell_angle_alpha   112.30952331
_cell_angle_beta   100.62744790
_cell_angle_gamma   90.45637781
_symmetry_Int_Tables_number   1
_chemical_formula_structural   H14Pb6C8O13
_chemical_formula_sum   'H28 Pb12 C16 O26'
_cell_volume   1101.15337640
_cell_formula_units_Z   2
loop_
 _symmetry_equiv_pos_site_id
 _symmetry_equiv_pos_as_xyz
  1  'x, y, z'
loop_
 _atom_site_type_symbol
 _atom_site_label
 _atom_site_symmetry_multiplicity
 _atom_site_fract_x
 _atom_site_fract_y
 _atom_site_fract_z
 _atom_site_occupancy
  H  H0  1  0.28415400  0.55127900  0.34189500  1
  H  H1  1  0.71584600  0.44872100  0.65810500  1
  H  H2  1  0.06563400  0.54097800  0.33658800  1
  H  H3  1  0.93436600  0.45902200  0.66341200  1
  H  H4  1  0.75832000  0.48827200  0.47450300  1
  H  H5  1  0.24168000  0.51172800  0.52549700  1
  H  H6  1  0.86791500  0.61930800  0.47019300  1
  H  H7  1  0.13208500  0.38069200  0.52980700  1
  H  H8  1  0.63032600  0.61745900  0.48614900  1
  H  H9  1  0.36967400  0.38254100  0.51385100  1
  H  H10  1  0.51219800  0.13427000  0.32044300  1
  H  H11  1  0.48780200  0.86573000  0.67955700  1
  H  H12  1  0.57000400  0.29321000  0.36590900  1
  H  H13  1  0.42999600  0.70679000  0.63409100  1
  H  H14  1  0.33298300  0.23623900  0.34244300  1
  H  H15  1  0.66701700  0.76376100  0.65755700  1
  H  H16  1  0.92590500  0.86047900  0.50314200  1
  H  H17  1  0.07409500  0.13952100  0.49685800  1
  H  H18  1  0.14899000  0.93011800  0.51221000  1
  H  H19  1  0.85101000  0.06988200  0.48779000  1
  H  H20  1  0.13595900  0.80099000  0.54414600  1
  H  H21  1  0.86404100  0.19901000  0.45585400  1
  H  H22  1  0.61503900  0.23000200  0.63168400  1
  H  H23  1  0.38496100  0.76999800  0.36831600  1
  H  H24  1  0.57657000  0.10196200  0.66375100  1
  H  H25  1  0.42343000  0.89803800  0.33624900  1
  H  H26  1  0.38417200  0.18162200  0.63347200  1
  H  H27  1  0.61582800  0.81837800  0.36652800  1
  Pb  Pb28  1  0.65997800  0.41154500  0.08308600  1
  Pb  Pb29  1  0.34002200  0.58845500  0.91691400  1
  Pb  Pb30  1  0.93133700  0.22008100  0.20890800  1
  Pb  Pb31  1  0.06866300  0.77991900  0.79109200  1
  Pb  Pb32  1  0.14458900  0.40846200  0.07029100  1
  Pb  Pb33  1  0.85541100  0.59153800  0.92970900  1
  Pb  Pb34  1  0.86018000  0.08959400  0.91925500  1
  Pb  Pb35  1  0.13982000  0.91040600  0.08074500  1
  Pb  Pb36  1  0.04956400  0.27779200  0.78020400  1
  Pb  Pb37  1  0.95043600  0.72220800  0.21979600  1
  Pb  Pb38  1  0.33468100  0.09061300  0.91355600  1
  Pb  Pb39  1  0.66531900  0.90938700  0.08644400  1
  C  C40  1  0.66886500  0.51156000  0.32786800  1
  C  C41  1  0.33113500  0.48844000  0.67213200  1
  C  C42  1  0.73535400  0.56382900  0.44723700  1
  C  C43  1  0.26464600  0.43617100  0.55276300  1
  C  C44  1  0.43900200  0.20496600  0.19971400  1
  C  C45  1  0.56099800  0.79503400  0.80028600  1
  C  C46  1  0.46351400  0.21916300  0.31431500  1
  C  C47  1  0.53648600  0.78083700  0.68568500  1
  C  C48  1  0.07338900  0.96701700  0.66397900  1
  C  C49  1  0.92661100  0.03298300  0.33602100  1
  C  C50  1  0.06870200  0.88469600  0.54862000  1
  C  C51  1  0.93129800  0.11530400  0.45138000  1
  C  C52  1  0.56312100  0.27412900  0.78913700  1
  C  C53  1  0.43687900  0.72587100  0.21086300  1
  C  C54  1  0.53081700  0.19254200  0.67191200  1
  C  C55  1  0.46918300  0.80745800  0.32808800  1
  O  O56  1  0.89113800  0.28371200  0.07548000  1
  O  O57  1  0.10886200  0.71628800  0.92452000  1
  O  O58  1  0.88899400  0.03372000  0.07718700  1
  O  O59  1  0.11100600  0.96628000  0.92281300  1
  O  O60  1  0.10536000  0.46313100  0.91737800  1
  O  O61  1  0.89464000  0.53686900  0.08262200  1
  O  O62  1  0.10781800  0.21713900  0.91946100  1
  O  O63  1  0.89218200  0.78286100  0.08053900  1
  O  O64  1  0.17897200  0.59692000  0.36673000  1
  O  O65  1  0.82102800  0.40308000  0.63327000  1
  O  O66  1  0.79824300  0.48577200  0.27221900  1
  O  O67  1  0.20175700  0.51422800  0.72778100  1
  O  O68  1  0.49879500  0.49292900  0.28700500  1
  O  O69  1  0.50120500  0.50707100  0.71299500  1
  O  O70  1  0.27559800  0.19374300  0.14461000  1
  O  O71  1  0.72440200  0.80625700  0.85539000  1
  O  O72  1  0.58292000  0.19872400  0.15839600  1
  O  O73  1  0.41708000  0.80127600  0.84160400  1
  O  O74  1  0.42597100  0.30964700  0.83386300  1
  O  O75  1  0.57402900  0.69035300  0.16613700  1
  O  O76  1  0.73141700  0.30244900  0.84141500  1
  O  O77  1  0.26858300  0.69755100  0.15858500  1
  O  O78  1  0.23791500  0.00075300  0.72265700  1
  O  O79  1  0.76208500  0.99924700  0.27734300  1
  O  O80  1  0.92394200  0.99644500  0.69562200  1
  O  O81  1  0.07605800  0.00355500  0.30437800  1
