# generated using pymatgen
data_Sr2Mn3P4(HO8)2
_symmetry_space_group_name_H-M   'P 1'
_cell_length_a   8.02220279
_cell_length_b   8.89289600
_cell_length_c   9.72187781
_cell_angle_alpha   90.00000000
_cell_angle_beta   101.52806984
_cell_angle_gamma   90.00000000
_symmetry_Int_Tables_number   1
_chemical_formula_structural   Sr2Mn3P4(HO8)2
_chemical_formula_sum   'Sr4 Mn6 P8 H4 O32'
_cell_volume   679.57340222
_cell_formula_units_Z   2
loop_
 _symmetry_equiv_pos_site_id
 _symmetry_equiv_pos_as_xyz
  1  'x, y, z'
loop_
 _atom_site_type_symbol
 _atom_site_label
 _atom_site_symmetry_multiplicity
 _atom_site_fract_x
 _atom_site_fract_y
 _atom_site_fract_z
 _atom_site_occupancy
  Sr  Sr0  1  0.57395500  0.02422300  0.73526800  1
  Sr  Sr1  1  0.42604500  0.52422300  0.76473200  1
  Sr  Sr2  1  0.42604500  0.97577700  0.26473200  1
  Sr  Sr3  1  0.57395500  0.47577700  0.23526800  1
  Mn  Mn4  1  0.00000000  0.00000000  0.00000000  1
  Mn  Mn5  1  0.00000000  0.50000000  0.50000000  1
  Mn  Mn6  1  0.89808100  0.64380800  0.90457800  1
  Mn  Mn7  1  0.10191900  0.14380800  0.59542200  1
  Mn  Mn8  1  0.10191900  0.35619200  0.09542200  1
  Mn  Mn9  1  0.89808100  0.85619200  0.40457800  1
  P  P10  1  0.14545700  0.79768500  0.73018200  1
  P  P11  1  0.85454300  0.29768500  0.76981800  1
  P  P12  1  0.85454300  0.20231500  0.26981800  1
  P  P13  1  0.14545700  0.70231500  0.23018200  1
  P  P14  1  0.65599700  0.78504700  0.06470300  1
  P  P15  1  0.34400300  0.28504700  0.43529700  1
  P  P16  1  0.34400300  0.21495300  0.93529700  1
  P  P17  1  0.65599700  0.71495300  0.56470300  1
  H  H18  1  0.40144500  0.83983900  0.93230700  1
  H  H19  1  0.59855500  0.33983900  0.56769300  1
  H  H20  1  0.59855500  0.16016100  0.06769300  1
  H  H21  1  0.40144500  0.66016100  0.43230700  1
  O  O22  1  0.05833100  0.82081200  0.85766200  1
  O  O23  1  0.94166900  0.32081200  0.64233800  1
  O  O24  1  0.94166900  0.17918800  0.14233800  1
  O  O25  1  0.05833100  0.67918800  0.35766200  1
  O  O26  1  0.06831600  0.90613600  0.60858300  1
  O  O27  1  0.93168400  0.40613600  0.89141700  1
  O  O28  1  0.93168400  0.09386400  0.39141700  1
  O  O29  1  0.06831600  0.59386400  0.10858300  1
  O  O30  1  0.12272400  0.63135500  0.68269800  1
  O  O31  1  0.87727600  0.13135500  0.81730200  1
  O  O32  1  0.87727600  0.36864500  0.31730200  1
  O  O33  1  0.12272400  0.86864500  0.18269800  1
  O  O34  1  0.34152800  0.82675200  0.77815900  1
  O  O35  1  0.65847200  0.32675200  0.72184100  1
  O  O36  1  0.65847200  0.17324800  0.22184100  1
  O  O37  1  0.34152800  0.67324800  0.27815900  1
  O  O38  1  0.70595000  0.80742400  0.22396600  1
  O  O39  1  0.29405000  0.30742400  0.27603400  1
  O  O40  1  0.29405000  0.19257600  0.77603400  1
  O  O41  1  0.70595000  0.69257600  0.72396600  1
  O  O42  1  0.76164900  0.87389800  0.97639900  1
  O  O43  1  0.23835100  0.37389800  0.52360100  1
  O  O44  1  0.23835100  0.12610200  0.02360100  1
  O  O45  1  0.76164900  0.62610200  0.47639900  1
  O  O46  1  0.65231100  0.61788700  0.01917400  1
  O  O47  1  0.34768900  0.11788700  0.48082600  1
  O  O48  1  0.34768900  0.38211300  0.98082600  1
  O  O49  1  0.65231100  0.88211300  0.51917400  1
  O  O50  1  0.46494900  0.84683400  0.03602200  1
  O  O51  1  0.53505100  0.34683400  0.46397800  1
  O  O52  1  0.53505100  0.15316600  0.96397800  1
  O  O53  1  0.46494900  0.65316600  0.53602200  1
