# generated using pymatgen
data_Sr5Cr3O12F
_symmetry_space_group_name_H-M   'P 1'
_cell_length_a   10.16034845
_cell_length_b   10.16034845
_cell_length_c   7.31893000
_cell_angle_alpha   90.00000000
_cell_angle_beta   90.00000000
_cell_angle_gamma   120.00000294
_symmetry_Int_Tables_number   1
_chemical_formula_structural   Sr5Cr3O12F
_chemical_formula_sum   'Sr10 Cr6 O24 F2'
_cell_volume   654.32786760
_cell_formula_units_Z   2
loop_
 _symmetry_equiv_pos_site_id
 _symmetry_equiv_pos_as_xyz
  1  'x, y, z'
loop_
 _atom_site_type_symbol
 _atom_site_label
 _atom_site_symmetry_multiplicity
 _atom_site_fract_x
 _atom_site_fract_y
 _atom_site_fract_z
 _atom_site_occupancy
  Sr  Sr0  1  0.33333300  0.66666700  0.50116700  1
  Sr  Sr1  1  0.66666700  0.33333300  0.00116700  1
  Sr  Sr2  1  0.66666700  0.33333300  0.49883300  1
  Sr  Sr3  1  0.33333300  0.66666700  0.99883300  1
  Sr  Sr4  1  0.23878700  0.23956900  0.75000000  1
  Sr  Sr5  1  0.76043100  0.99921700  0.75000000  1
  Sr  Sr6  1  0.00078300  0.76121300  0.75000000  1
  Sr  Sr7  1  0.76121300  0.76043100  0.25000000  1
  Sr  Sr8  1  0.23956900  0.00078300  0.25000000  1
  Sr  Sr9  1  0.99921700  0.23878700  0.25000000  1
  Cr  Cr10  1  0.40517900  0.03046600  0.75000000  1
  Cr  Cr11  1  0.96953400  0.37471300  0.75000000  1
  Cr  Cr12  1  0.62528700  0.59482100  0.75000000  1
  Cr  Cr13  1  0.59482100  0.96953400  0.25000000  1
  Cr  Cr14  1  0.03046600  0.62528700  0.25000000  1
  Cr  Cr15  1  0.37471300  0.40517900  0.25000000  1
  O  O16  1  0.31726500  0.83549900  0.75000000  1
  O  O17  1  0.16450100  0.48176600  0.75000000  1
  O  O18  1  0.51823400  0.68273500  0.75000000  1
  O  O19  1  0.68273500  0.16450100  0.25000000  1
  O  O20  1  0.83549900  0.51823400  0.25000000  1
  O  O21  1  0.48176600  0.31726500  0.25000000  1
  O  O22  1  0.60174700  0.13001500  0.75000000  1
  O  O23  1  0.86998500  0.47173100  0.75000000  1
  O  O24  1  0.52826900  0.39825300  0.75000000  1
  O  O25  1  0.39825300  0.86998500  0.25000000  1
  O  O26  1  0.13001500  0.52826900  0.25000000  1
  O  O27  1  0.47173100  0.60174700  0.25000000  1
  O  O28  1  0.34816600  0.09193100  0.56261000  1
  O  O29  1  0.90806900  0.25623500  0.56261000  1
  O  O30  1  0.74376500  0.65183400  0.56261000  1
  O  O31  1  0.65183400  0.90806900  0.06261000  1
  O  O32  1  0.09193100  0.74376500  0.06261000  1
  O  O33  1  0.25623500  0.34816600  0.06261000  1
  O  O34  1  0.65183400  0.90806900  0.43739000  1
  O  O35  1  0.09193100  0.74376500  0.43739000  1
  O  O36  1  0.25623500  0.34816600  0.43739000  1
  O  O37  1  0.34816600  0.09193100  0.93739000  1
  O  O38  1  0.90806900  0.25623500  0.93739000  1
  O  O39  1  0.74376500  0.65183400  0.93739000  1
  F  F40  1  0.00000000  0.00000000  0.50000000  1
  F  F41  1  0.00000000  0.00000000  0.00000000  1
