# generated using pymatgen
data_Li2Zn(Cl2O)2
_symmetry_space_group_name_H-M   'P 1'
_cell_length_a   6.43845000
_cell_length_b   11.00127500
_cell_length_c   10.62992100
_cell_angle_alpha   90.00000000
_cell_angle_beta   90.00000000
_cell_angle_gamma   90.00000000
_symmetry_Int_Tables_number   1
_chemical_formula_structural   Li2Zn(Cl2O)2
_chemical_formula_sum   'Li8 Zn4 Cl16 O8'
_cell_volume   752.92962476
_cell_formula_units_Z   4
loop_
 _symmetry_equiv_pos_site_id
 _symmetry_equiv_pos_as_xyz
  1  'x, y, z'
loop_
 _atom_site_type_symbol
 _atom_site_label
 _atom_site_symmetry_multiplicity
 _atom_site_fract_x
 _atom_site_fract_y
 _atom_site_fract_z
 _atom_site_occupancy
  Li  Li0  1  0.28356000  0.63387500  0.82027500  1
  Li  Li1  1  0.78356000  0.86612500  0.17972500  1
  Li  Li2  1  0.71644000  0.13387500  0.67972500  1
  Li  Li3  1  0.21644000  0.36612500  0.32027500  1
  Li  Li4  1  0.79035100  0.81302100  0.75932600  1
  Li  Li5  1  0.29035100  0.68697900  0.24067400  1
  Li  Li6  1  0.20964900  0.31302100  0.74067400  1
  Li  Li7  1  0.70964900  0.18697900  0.25932600  1
  Zn  Zn8  1  0.28652900  0.95732600  0.54978600  1
  Zn  Zn9  1  0.78652900  0.54267400  0.45021500  1
  Zn  Zn10  1  0.71347100  0.45732600  0.95021400  1
  Zn  Zn11  1  0.21347100  0.04267400  0.04978600  1
  Cl  Cl12  1  0.90772700  0.95081000  0.53022500  1
  Cl  Cl13  1  0.40772700  0.54919000  0.46977500  1
  Cl  Cl14  1  0.09227300  0.45081000  0.96977500  1
  Cl  Cl15  1  0.59227300  0.04919000  0.03022500  1
  Cl  Cl16  1  0.36471500  0.83982000  0.71820200  1
  Cl  Cl17  1  0.86471500  0.66018000  0.28179800  1
  Cl  Cl18  1  0.63528500  0.33982000  0.78179800  1
  Cl  Cl19  1  0.13528500  0.16018000  0.21820200  1
  Cl  Cl20  1  0.82794300  0.62437300  0.64179000  1
  Cl  Cl21  1  0.32794300  0.87562700  0.35821000  1
  Cl  Cl22  1  0.17205800  0.12437300  0.85821000  1
  Cl  Cl23  1  0.67205700  0.37562700  0.14179000  1
  Cl  Cl24  1  0.60038700  0.65459900  0.94678100  1
  Cl  Cl25  1  0.10038700  0.84540100  0.05321900  1
  Cl  Cl26  1  0.39961300  0.15459900  0.55321900  1
  Cl  Cl27  1  0.89961300  0.34540100  0.44678100  1
  O  O28  1  0.78880700  0.96486900  0.66738900  1
  O  O29  1  0.28880700  0.53513100  0.33261100  1
  O  O30  1  0.21119300  0.46486900  0.83261100  1
  O  O31  1  0.71119300  0.03513100  0.16738900  1
  O  O32  1  0.05199500  0.74868600  0.83158900  1
  O  O33  1  0.55199500  0.75131400  0.16841100  1
  O  O34  1  0.94800500  0.24868600  0.66841100  1
  O  O35  1  0.44800500  0.25131400  0.33158900  1
