# generated using pymatgen
data_Na2CaZr2Si10O27
_symmetry_space_group_name_H-M   'P 1'
_cell_length_a   9.35933635
_cell_length_b   9.35933635
_cell_length_c   19.03028952
_cell_angle_alpha   81.97905236
_cell_angle_beta   81.97905236
_cell_angle_gamma   112.79876000
_symmetry_Int_Tables_number   1
_chemical_formula_structural   Na2CaZr2Si10O27
_chemical_formula_sum   'Na4 Ca2 Zr4 Si20 O54'
_cell_volume   1487.10747746
_cell_formula_units_Z   2
loop_
 _symmetry_equiv_pos_site_id
 _symmetry_equiv_pos_as_xyz
  1  'x, y, z'
loop_
 _atom_site_type_symbol
 _atom_site_label
 _atom_site_symmetry_multiplicity
 _atom_site_fract_x
 _atom_site_fract_y
 _atom_site_fract_z
 _atom_site_occupancy
  Na  Na0  1  0.02813100  0.05046800  0.34654400  1
  Na  Na1  1  0.94953200  0.97186900  0.15345600  1
  Na  Na2  1  0.97186900  0.94953200  0.65345600  1
  Na  Na3  1  0.05046800  0.02813100  0.84654400  1
  Ca  Ca4  1  0.62595400  0.37404600  0.25000000  1
  Ca  Ca5  1  0.37404600  0.62595400  0.75000000  1
  Zr  Zr6  1  0.02480700  0.49493600  0.25545000  1
  Zr  Zr7  1  0.50506400  0.97519300  0.24455000  1
  Zr  Zr8  1  0.97519300  0.50506400  0.74455000  1
  Zr  Zr9  1  0.49493600  0.02480700  0.75545000  1
  Si  Si10  1  0.84410000  0.24271800  0.63691500  1
  Si  Si11  1  0.75728200  0.15590000  0.86308500  1
  Si  Si12  1  0.15590000  0.75728200  0.36308500  1
  Si  Si13  1  0.24271800  0.84410000  0.13691500  1
  Si  Si14  1  0.25258700  0.85523300  0.63733100  1
  Si  Si15  1  0.14476700  0.74741300  0.86266900  1
  Si  Si16  1  0.74741300  0.14476700  0.36266900  1
  Si  Si17  1  0.85523300  0.25258700  0.13733100  1
  Si  Si18  1  0.71123400  0.29734300  0.49857000  1
  Si  Si19  1  0.70265700  0.28876600  0.00143000  1
  Si  Si20  1  0.28876600  0.70265700  0.50143000  1
  Si  Si21  1  0.29734300  0.71123400  0.99857000  1
  Si  Si22  1  0.81347400  0.60196000  0.38024100  1
  Si  Si23  1  0.39804000  0.18652600  0.11975900  1
  Si  Si24  1  0.18652600  0.39804000  0.61975900  1
  Si  Si25  1  0.60196000  0.81347400  0.88024100  1
  Si  Si26  1  0.60193200  0.79155600  0.38389100  1
  Si  Si27  1  0.20844400  0.39806800  0.11610900  1
  Si  Si28  1  0.39806800  0.20844400  0.61610900  1
  Si  Si29  1  0.79155600  0.60193200  0.88389100  1
  O  O30  1  0.66766500  0.65488900  0.38960900  1
  O  O31  1  0.34511100  0.33233500  0.11039100  1
  O  O32  1  0.33233500  0.34511100  0.61039100  1
  O  O33  1  0.65488900  0.66766500  0.88960900  1
  O  O34  1  0.81187100  0.51747600  0.31078000  1
  O  O35  1  0.48252400  0.18812900  0.18922000  1
  O  O36  1  0.18812900  0.48252400  0.68922000  1
  O  O37  1  0.51747600  0.81187100  0.81078000  1
  O  O38  1  0.97807700  0.76634300  0.36964700  1
  O  O39  1  0.23365700  0.02192300  0.13035300  1
  O  O40  1  0.02192300  0.23365700  0.63035300  1
  O  O41  1  0.76634300  0.97807700  0.86964700  1
  O  O42  1  0.79339500  0.48249600  0.45573400  1
  O  O43  1  0.51750400  0.20660500  0.04426600  1
  O  O44  1  0.20660500  0.51750400  0.54426600  1
  O  O45  1  0.48249600  0.79339500  0.95573400  1
  O  O46  1  0.54075800  0.80478200  0.30893100  1
  O  O47  1  0.19521800  0.45924200  0.19106900  1
  O  O48  1  0.45924200  0.19521800  0.69106900  1
  O  O49  1  0.80478200  0.54075800  0.80893100  1
  O  O50  1  0.74916500  0.96455200  0.38187400  1
  O  O51  1  0.03544800  0.25083500  0.11812600  1
  O  O52  1  0.25083500  0.03544800  0.61812600  1
  O  O53  1  0.96455200  0.74916500  0.88187400  1
  O  O54  1  0.46638500  0.74640100  0.45651900  1
  O  O55  1  0.25359900  0.53361500  0.04348100  1
  O  O56  1  0.53361500  0.25359900  0.54348100  1
  O  O57  1  0.74640100  0.46638500  0.95651900  1
  O  O58  1  0.17976800  0.73176600  0.44689700  1
  O  O59  1  0.26823400  0.82023200  0.05310300  1
  O  O60  1  0.82023200  0.26823400  0.55310300  1
  O  O61  1  0.73176600  0.17976800  0.94689700  1
  O  O62  1  0.69497300  0.18274300  0.44097600  1
  O  O63  1  0.81725700  0.30502700  0.05902400  1
  O  O64  1  0.30502700  0.81725700  0.55902400  1
  O  O65  1  0.18274300  0.69497300  0.94097600  1
  O  O66  1  0.85953100  0.39630100  0.67124400  1
  O  O67  1  0.60369900  0.14046900  0.82875600  1
  O  O68  1  0.14046900  0.60369900  0.32875600  1
  O  O69  1  0.39630100  0.85953100  0.17124400  1
  O  O70  1  0.38380000  0.85849600  0.68623700  1
  O  O71  1  0.14150400  0.61620000  0.81376300  1
  O  O72  1  0.61620000  0.14150400  0.31376300  1
  O  O73  1  0.85849600  0.38380000  0.18623700  1
  O  O74  1  0.71434200  0.07442200  0.68581400  1
  O  O75  1  0.92557800  0.28565800  0.81418600  1
  O  O76  1  0.28565800  0.92557800  0.31418600  1
  O  O77  1  0.07442200  0.71434200  0.18581400  1
  O  O78  1  0.93081700  0.25990000  0.32268200  1
  O  O79  1  0.74010000  0.06918300  0.17731800  1
  O  O80  1  0.06918300  0.74010000  0.67731800  1
  O  O81  1  0.25990000  0.93081700  0.82268200  1
  O  O82  1  0.46950100  0.53049900  0.25000000  1
  O  O83  1  0.53049900  0.46950100  0.75000000  1
