# generated using pymatgen
data_Cs3LaBr6
_symmetry_space_group_name_H-M   'P 1'
_cell_length_a   15.20555139
_cell_length_b   15.20555139
_cell_length_c   14.21499788
_cell_angle_alpha   81.34631865
_cell_angle_beta   81.34631865
_cell_angle_gamma   33.98185179
_symmetry_Int_Tables_number   1
_chemical_formula_structural   Cs3LaBr6
_chemical_formula_sum   'Cs12 La4 Br24'
_cell_volume   1814.12092818
_cell_formula_units_Z   4
loop_
 _symmetry_equiv_pos_site_id
 _symmetry_equiv_pos_as_xyz
  1  'x, y, z'
loop_
 _atom_site_type_symbol
 _atom_site_label
 _atom_site_symmetry_multiplicity
 _atom_site_fract_x
 _atom_site_fract_y
 _atom_site_fract_z
 _atom_site_occupancy
  Cs  Cs0  1  0.16305200  0.52728600  0.64560800  1
  Cs  Cs1  1  0.47271400  0.83694800  0.85439200  1
  Cs  Cs2  1  0.83694800  0.47271400  0.35439200  1
  Cs  Cs3  1  0.52728600  0.16305200  0.14560800  1
  Cs  Cs4  1  0.66867000  0.23318300  0.42634100  1
  Cs  Cs5  1  0.76681700  0.33133000  0.07365900  1
  Cs  Cs6  1  0.33133000  0.76681700  0.57365900  1
  Cs  Cs7  1  0.23318300  0.66867000  0.92634100  1
  Cs  Cs8  1  0.34186500  0.98071000  0.19965900  1
  Cs  Cs9  1  0.01929000  0.65813500  0.30034100  1
  Cs  Cs10  1  0.65813500  0.01929000  0.80034100  1
  Cs  Cs11  1  0.98071000  0.34186500  0.69965900  1
  La  La12  1  0.50000000  0.00000000  0.50000000  1
  La  La13  1  0.00000000  0.50000000  0.00000000  1
  La  La14  1  0.19861900  0.80138100  0.25000000  1
  La  La15  1  0.80138100  0.19861900  0.75000000  1
  Br  Br16  1  0.37508300  0.28022500  0.41968100  1
  Br  Br17  1  0.71977500  0.62491700  0.08031900  1
  Br  Br18  1  0.62491700  0.71977500  0.58031900  1
  Br  Br19  1  0.28022500  0.37508300  0.91968100  1
  Br  Br20  1  0.48957500  0.63140600  0.32040700  1
  Br  Br21  1  0.36859400  0.51042500  0.17959300  1
  Br  Br22  1  0.51042500  0.36859400  0.67959300  1
  Br  Br23  1  0.63140600  0.48957500  0.82040700  1
  Br  Br24  1  0.78165100  0.86780900  0.53387300  1
  Br  Br25  1  0.13219100  0.21834900  0.96612700  1
  Br  Br26  1  0.21834900  0.13219100  0.46612700  1
  Br  Br27  1  0.86780900  0.78165100  0.03387300  1
  Br  Br28  1  0.36260600  0.13805500  0.69120800  1
  Br  Br29  1  0.86194500  0.63739400  0.80879200  1
  Br  Br30  1  0.63739400  0.86194500  0.30879200  1
  Br  Br31  1  0.13805500  0.36260600  0.19120800  1
  Br  Br32  1  0.16996400  0.71597900  0.43808100  1
  Br  Br33  1  0.28402100  0.83003600  0.06191900  1
  Br  Br34  1  0.83003600  0.28402100  0.56191900  1
  Br  Br35  1  0.71597900  0.16996400  0.93808100  1
  Br  Br36  1  0.01043200  0.11059500  0.29551500  1
  Br  Br37  1  0.88940500  0.98956800  0.20448500  1
  Br  Br38  1  0.98956800  0.88940500  0.70448500  1
  Br  Br39  1  0.11059500  0.01043200  0.79551500  1
