# generated using pymatgen
data_KNaAl6Si6(HO6)4
_symmetry_space_group_name_H-M   'P 1'
_cell_length_a   9.02010200
_cell_length_b   5.19526700
_cell_length_c   19.88538910
_cell_angle_alpha   85.31069417
_cell_angle_beta   90.00000000
_cell_angle_gamma   90.00000000
_symmetry_Int_Tables_number   1
_chemical_formula_structural   KNaAl6Si6(HO6)4
_chemical_formula_sum   'K2 Na2 Al12 Si12 H8 O48'
_cell_volume   928.74661846
_cell_formula_units_Z   2
loop_
 _symmetry_equiv_pos_site_id
 _symmetry_equiv_pos_as_xyz
  1  'x, y, z'
loop_
 _atom_site_type_symbol
 _atom_site_label
 _atom_site_symmetry_multiplicity
 _atom_site_fract_x
 _atom_site_fract_y
 _atom_site_fract_z
 _atom_site_occupancy
  K  K0  1  0.39911100  0.00000000  0.00000000  1
  K  K1  1  0.90069500  0.50000000  0.00000000  1
  Na  Na2  1  0.58123000  0.00000000  0.50000000  1
  Na  Na3  1  0.11499700  0.50000000  0.50000000  1
  Al  Al4  1  0.08650400  0.26497500  0.25845800  1
  Al  Al5  1  0.26038500  0.05517200  0.39586300  1
  Al  Al6  1  0.08650400  0.73502500  0.74154200  1
  Al  Al7  1  0.26038500  0.94482800  0.60413700  1
  Al  Al8  1  0.91454600  0.76232300  0.25606800  1
  Al  Al9  1  0.74034900  0.97084900  0.11841400  1
  Al  Al10  1  0.91454600  0.23767700  0.74393200  1
  Al  Al11  1  0.74034900  0.02915100  0.88158600  1
  Al  Al12  1  0.58520900  0.76676600  0.25629300  1
  Al  Al13  1  0.58520900  0.23323400  0.74370700  1
  Al  Al14  1  0.41635100  0.26050700  0.25797000  1
  Al  Al15  1  0.41635100  0.73949300  0.74203000  1
  Si  Si16  1  0.92945400  0.06247200  0.39542600  1
  Si  Si17  1  0.92945400  0.93752800  0.60457400  1
  Si  Si18  1  0.07066000  0.96654000  0.11902500  1
  Si  Si19  1  0.07066000  0.03346000  0.88097500  1
  Si  Si20  1  0.43046800  0.53783600  0.39604500  1
  Si  Si21  1  0.75675800  0.57192600  0.39453000  1
  Si  Si22  1  0.43046800  0.46216400  0.60395500  1
  Si  Si23  1  0.75675800  0.42807400  0.60547000  1
  Si  Si24  1  0.57071000  0.48929200  0.11832200  1
  Si  Si25  1  0.24458300  0.45537900  0.12013500  1
  Si  Si26  1  0.57071000  0.51070800  0.88167800  1
  Si  Si27  1  0.24458300  0.54462100  0.87986500  1
  H  H28  1  0.65907200  0.15570700  0.31221600  1
  H  H29  1  0.65907200  0.84429300  0.68778400  1
  H  H30  1  0.34160900  0.87091100  0.20317500  1
  H  H31  1  0.34160900  0.12908900  0.79682500  1
  H  H32  1  0.14617100  0.64143100  0.32615600  1
  H  H33  1  0.14617100  0.35856900  0.67384400  1
  H  H34  1  0.85459800  0.38520000  0.18854700  1
  H  H35  1  0.85459800  0.61480000  0.81145300  1
  O  O36  1  0.94294800  0.05525200  0.31296400  1
  O  O37  1  0.25121400  0.13591700  0.30838500  1
  O  O38  1  0.56659900  0.06209100  0.30684900  1
  O  O39  1  0.08521600  0.13221800  0.42966700  1
  O  O40  1  0.80066800  0.26906900  0.41754200  1
  O  O41  1  0.87335500  0.77189700  0.42723700  1
  O  O42  1  0.94294800  0.94474800  0.68703600  1
  O  O43  1  0.25121400  0.86408300  0.69161500  1
  O  O44  1  0.56659900  0.93790900  0.69315100  1
  O  O45  1  0.08521600  0.86778200  0.57033300  1
  O  O46  1  0.80066800  0.73093100  0.58245800  1
  O  O47  1  0.87335500  0.22810300  0.57276300  1
  O  O48  1  0.05824500  0.97264800  0.20145700  1
  O  O49  1  0.75042000  0.89028200  0.20600700  1
  O  O50  1  0.43439600  0.96513800  0.20734800  1
  O  O51  1  0.91537700  0.91416400  0.08279900  1
  O  O52  1  0.19309200  0.75238500  0.09613700  1
  O  O53  1  0.13386400  0.25013200  0.08636600  1
  O  O54  1  0.05824500  0.02735200  0.79854300  1
  O  O55  1  0.75042000  0.10971800  0.79399300  1
  O  O56  1  0.43439600  0.03486200  0.79265200  1
  O  O57  1  0.91537700  0.08583600  0.91720100  1
  O  O58  1  0.19309200  0.24761500  0.90386300  1
  O  O59  1  0.13386400  0.74986800  0.91363400  1
  O  O60  1  0.44885300  0.55068400  0.31301800  1
  O  O61  1  0.75202700  0.62281000  0.31279400  1
  O  O62  1  0.05911600  0.56186900  0.30753300  1
  O  O63  1  0.59292100  0.63012800  0.42681500  1
  O  O64  1  0.29693300  0.72579200  0.41745800  1
  O  O65  1  0.39832800  0.24692300  0.42983000  1
  O  O66  1  0.44885300  0.44931600  0.68698200  1
  O  O67  1  0.75202700  0.37719000  0.68720600  1
  O  O68  1  0.05911600  0.43813100  0.69246700  1
  O  O69  1  0.59292100  0.36987200  0.57318500  1
  O  O70  1  0.29693300  0.27420800  0.58254200  1
  O  O71  1  0.39832800  0.75307700  0.57017000  1
  O  O72  1  0.55207500  0.47703600  0.20150000  1
  O  O73  1  0.24925600  0.40488500  0.20182800  1
  O  O74  1  0.94226700  0.46581900  0.20651900  1
  O  O75  1  0.40753800  0.41042600  0.08663100  1
  O  O76  1  0.69902600  0.29506000  0.09669700  1
  O  O77  1  0.60793400  0.77518300  0.08369800  1
  O  O78  1  0.55207500  0.52296400  0.79850000  1
  O  O79  1  0.24925600  0.59511500  0.79817200  1
  O  O80  1  0.94226700  0.53418100  0.79348100  1
  O  O81  1  0.40753800  0.58957400  0.91336900  1
  O  O82  1  0.69902600  0.70494000  0.90330300  1
  O  O83  1  0.60793400  0.22481700  0.91630200  1
