# generated using pymatgen
data_Rb3Mo2HCO13
_symmetry_space_group_name_H-M   'P 1'
_cell_length_a   11.98377300
_cell_length_b   6.47705200
_cell_length_c   17.01548000
_cell_angle_alpha   90.00000000
_cell_angle_beta   90.00000000
_cell_angle_gamma   90.00000000
_symmetry_Int_Tables_number   1
_chemical_formula_structural   Rb3Mo2HCO13
_chemical_formula_sum   'Rb12 Mo8 H4 C4 O52'
_cell_volume   1320.73340510
_cell_formula_units_Z   4
loop_
 _symmetry_equiv_pos_site_id
 _symmetry_equiv_pos_as_xyz
  1  'x, y, z'
loop_
 _atom_site_type_symbol
 _atom_site_label
 _atom_site_symmetry_multiplicity
 _atom_site_fract_x
 _atom_site_fract_y
 _atom_site_fract_z
 _atom_site_occupancy
  Rb  Rb0  1  0.40052700  0.75250200  0.85247000  1
  Rb  Rb1  1  0.59947300  0.24749800  0.35247000  1
  Rb  Rb2  1  0.09947300  0.75250200  0.35247000  1
  Rb  Rb3  1  0.90052700  0.24749800  0.85247000  1
  Rb  Rb4  1  0.59115600  0.24181700  0.64806300  1
  Rb  Rb5  1  0.40884400  0.75818300  0.14806300  1
  Rb  Rb6  1  0.90884400  0.24181700  0.14806300  1
  Rb  Rb7  1  0.09115600  0.75818300  0.64806300  1
  Rb  Rb8  1  0.43031500  0.72410100  0.44588800  1
  Rb  Rb9  1  0.56968500  0.27589900  0.94588800  1
  Rb  Rb10  1  0.06968500  0.72410100  0.94588800  1
  Rb  Rb11  1  0.93031500  0.27589900  0.44588800  1
  Mo  Mo12  1  0.73745200  0.78499200  0.75782000  1
  Mo  Mo13  1  0.26254800  0.21500800  0.25782000  1
  Mo  Mo14  1  0.76254800  0.78499200  0.25782000  1
  Mo  Mo15  1  0.23745200  0.21500800  0.75782000  1
  Mo  Mo16  1  0.76012500  0.79375300  0.53691000  1
  Mo  Mo17  1  0.23987500  0.20624700  0.03691000  1
  Mo  Mo18  1  0.73987500  0.79375300  0.03691000  1
  Mo  Mo19  1  0.26012500  0.20624700  0.53691000  1
  H  H20  1  0.90644800  0.26512900  0.65417900  1
  H  H21  1  0.09355200  0.73487100  0.15417900  1
  H  H22  1  0.59355200  0.26512900  0.15417900  1
  H  H23  1  0.40644800  0.73487100  0.65417900  1
  C  C24  1  0.86128100  0.41442400  0.65217100  1
  C  C25  1  0.13871900  0.58557600  0.15217100  1
  C  C26  1  0.63871900  0.41442400  0.15217100  1
  C  C27  1  0.36128100  0.58557600  0.65217100  1
  O  O28  1  0.89820400  0.86078500  0.74801500  1
  O  O29  1  0.10179600  0.13921500  0.24801500  1
  O  O30  1  0.60179600  0.86078500  0.24801500  1
  O  O31  1  0.39820400  0.13921500  0.74801500  1
  O  O32  1  0.87415300  0.76323600  0.82491100  1
  O  O33  1  0.12584700  0.23676400  0.32491100  1
  O  O34  1  0.62584700  0.76323600  0.32491100  1
  O  O35  1  0.37415300  0.23676400  0.82491100  1
  O  O36  1  0.65712000  0.58314200  0.82614800  1
  O  O37  1  0.34288000  0.41685800  0.32614800  1
  O  O38  1  0.84288000  0.58314200  0.32614800  1
  O  O39  1  0.15712000  0.41685800  0.82614800  1
  O  O40  1  0.59897200  0.61443100  0.75049900  1
  O  O41  1  0.40102800  0.38556900  0.25049900  1
  O  O42  1  0.90102800  0.61443100  0.25049900  1
  O  O43  1  0.09897200  0.38556900  0.75049900  1
  O  O44  1  0.64339300  0.57396100  0.53562400  1
  O  O45  1  0.35660700  0.42603900  0.03562400  1
  O  O46  1  0.85660700  0.57396100  0.03562400  1
  O  O47  1  0.14339300  0.42603900  0.53562400  1
  O  O48  1  0.71526000  0.56452700  0.46520100  1
  O  O49  1  0.28474000  0.43547300  0.96520100  1
  O  O50  1  0.78474000  0.56452700  0.96520100  1
  O  O51  1  0.21526000  0.43547300  0.46520100  1
  O  O52  1  0.90397500  0.81930300  0.47822500  1
  O  O53  1  0.09602500  0.18069700  0.97822500  1
  O  O54  1  0.59602500  0.81930300  0.97822500  1
  O  O55  1  0.40397500  0.18069700  0.47822500  1
  O  O56  1  0.90905000  0.92465900  0.55547500  1
  O  O57  1  0.09095000  0.07534100  0.05547500  1
  O  O58  1  0.59095000  0.92465900  0.05547500  1
  O  O59  1  0.40905000  0.07534100  0.55547500  1
  O  O60  1  0.68267300  0.01619800  0.79365700  1
  O  O61  1  0.31732700  0.98380200  0.29365700  1
  O  O62  1  0.81732700  0.01619800  0.29365700  1
  O  O63  1  0.18267300  0.98380200  0.79365700  1
  O  O64  1  0.72065600  0.84806800  0.64617100  1
  O  O65  1  0.27934400  0.15193200  0.14617100  1
  O  O66  1  0.77934400  0.84806800  0.14617100  1
  O  O67  1  0.22065600  0.15193200  0.64617100  1
  O  O68  1  0.68749100  0.00135800  0.49659400  1
  O  O69  1  0.31250900  0.99864200  0.99659400  1
  O  O70  1  0.81250900  0.00135800  0.99659400  1
  O  O71  1  0.18749100  0.99864200  0.49659400  1
  O  O72  1  0.81087900  0.46515100  0.71470400  1
  O  O73  1  0.18912100  0.53484900  0.21470400  1
  O  O74  1  0.68912100  0.46515100  0.21470400  1
  O  O75  1  0.31087900  0.53484900  0.71470400  1
  O  O76  1  0.86596300  0.51131800  0.58741500  1
  O  O77  1  0.13403700  0.48868200  0.08741500  1
  O  O78  1  0.63403700  0.51131800  0.08741500  1
  O  O79  1  0.36596300  0.48868200  0.58741500  1
