# generated using pymatgen
data_Na2MgP4(H2O3)6
_symmetry_space_group_name_H-M   'P 1'
_cell_length_a   11.56598900
_cell_length_b   8.23156500
_cell_length_c   9.14655995
_cell_angle_alpha   66.13644458
_cell_angle_beta   90.00000000
_cell_angle_gamma   90.00000000
_symmetry_Int_Tables_number   1
_chemical_formula_structural   Na2MgP4(H2O3)6
_chemical_formula_sum   'Na4 Mg2 P8 H24 O36'
_cell_volume   796.36493592
_cell_formula_units_Z   2
loop_
 _symmetry_equiv_pos_site_id
 _symmetry_equiv_pos_as_xyz
  1  'x, y, z'
loop_
 _atom_site_type_symbol
 _atom_site_label
 _atom_site_symmetry_multiplicity
 _atom_site_fract_x
 _atom_site_fract_y
 _atom_site_fract_z
 _atom_site_occupancy
  Na  Na0  1  0.75000000  0.75668700  0.91531200  1
  Na  Na1  1  0.25000000  0.24331300  0.08468800  1
  Na  Na2  1  0.75000000  0.01028100  0.44447900  1
  Na  Na3  1  0.25000000  0.98971900  0.55552100  1
  Mg  Mg4  1  0.25000000  0.52813700  0.73616100  1
  Mg  Mg5  1  0.75000000  0.47186300  0.26383900  1
  P  P6  1  0.51033600  0.70272300  0.64630700  1
  P  P7  1  0.01033600  0.29727700  0.35369300  1
  P  P8  1  0.48966400  0.29727700  0.35369300  1
  P  P9  1  0.98966400  0.70272300  0.64630700  1
  P  P10  1  0.50010300  0.31148700  0.83310100  1
  P  P11  1  0.00010300  0.68851300  0.16689900  1
  P  P12  1  0.49989700  0.68851300  0.16689900  1
  P  P13  1  0.99989700  0.31148700  0.83310100  1
  H  H14  1  0.50801600  0.74815300  0.86976200  1
  H  H15  1  0.00801600  0.25184700  0.13023800  1
  H  H16  1  0.49198400  0.25184700  0.13023800  1
  H  H17  1  0.99198400  0.74815300  0.86976200  1
  H  H18  1  0.48568000  0.17888300  0.66397400  1
  H  H19  1  0.98568000  0.82111700  0.33602600  1
  H  H20  1  0.51432000  0.82111700  0.33602600  1
  H  H21  1  0.01432000  0.17888300  0.66397400  1
  H  H22  1  0.68167300  0.38359700  0.01831700  1
  H  H23  1  0.18167300  0.61640300  0.98168300  1
  H  H24  1  0.31832700  0.61640300  0.98168300  1
  H  H25  1  0.81832700  0.38359700  0.01831700  1
  H  H26  1  0.68176500  0.10051300  0.71375200  1
  H  H27  1  0.18176500  0.89948700  0.28624800  1
  H  H28  1  0.31823500  0.89948700  0.28624800  1
  H  H29  1  0.81823500  0.10051300  0.71375200  1
  H  H30  1  0.68289300  0.06107200  0.12202800  1
  H  H31  1  0.18289300  0.93892800  0.87797200  1
  H  H32  1  0.31710700  0.93892800  0.87797200  1
  H  H33  1  0.81710700  0.06107200  0.12202800  1
  H  H34  1  0.31702300  0.42395800  0.50599200  1
  H  H35  1  0.81702300  0.57604200  0.49400800  1
  H  H36  1  0.68297700  0.57604200  0.49400800  1
  H  H37  1  0.18297700  0.42395800  0.50599200  1
  O  O38  1  0.56458800  0.75415700  0.78055700  1
  O  O39  1  0.06458800  0.24584300  0.21944300  1
  O  O40  1  0.43541200  0.24584300  0.21944300  1
  O  O41  1  0.93541200  0.75415700  0.78055700  1
  O  O42  1  0.54890800  0.49544900  0.69506000  1
  O  O43  1  0.04890800  0.50455100  0.30494000  1
  O  O44  1  0.45109200  0.50455100  0.30494000  1
  O  O45  1  0.95109200  0.49544900  0.69506000  1
  O  O46  1  0.38025100  0.71661500  0.64511800  1
  O  O47  1  0.88025100  0.28338500  0.35488200  1
  O  O48  1  0.61974900  0.28338500  0.35488200  1
  O  O49  1  0.11974900  0.71661500  0.64511800  1
  O  O50  1  0.57599500  0.80008600  0.49151100  1
  O  O51  1  0.07599500  0.19991400  0.50848900  1
  O  O52  1  0.42400500  0.19991400  0.50848900  1
  O  O53  1  0.92400500  0.80008600  0.49151100  1
  O  O54  1  0.53210900  0.16959300  0.76414600  1
  O  O55  1  0.03210900  0.83040700  0.23585400  1
  O  O56  1  0.46789100  0.83040700  0.23585400  1
  O  O57  1  0.96789100  0.16959300  0.76414600  1
  O  O58  1  0.56931300  0.26835400  0.98578200  1
  O  O59  1  0.06931300  0.73164600  0.01421800  1
  O  O60  1  0.43068700  0.73164600  0.01421800  1
  O  O61  1  0.93068700  0.26835400  0.98578200  1
  O  O62  1  0.37181700  0.33126200  0.84885100  1
  O  O63  1  0.87181700  0.66873800  0.15114900  1
  O  O64  1  0.62818300  0.66873800  0.15114900  1
  O  O65  1  0.12818300  0.33126200  0.84885100  1
  O  O66  1  0.75000000  0.44314300  0.04115400  1
  O  O67  1  0.25000000  0.55685700  0.95884600  1
  O  O68  1  0.75000000  0.03425700  0.70435000  1
  O  O69  1  0.25000000  0.96574300  0.29565000  1
  O  O70  1  0.75000000  0.00963600  0.19017000  1
  O  O71  1  0.25000000  0.99036400  0.80983000  1
  O  O72  1  0.25000000  0.48504800  0.52560700  1
  O  O73  1  0.75000000  0.51495200  0.47439300  1
