# generated using pymatgen
data_P2SN2(Cl3O)2
_symmetry_space_group_name_H-M   'P 1'
_cell_length_a   8.02459500
_cell_length_b   12.54771400
_cell_length_c   12.92571470
_cell_angle_alpha   84.43666702
_cell_angle_beta   90.00000000
_cell_angle_gamma   90.00000000
_symmetry_Int_Tables_number   1
_chemical_formula_structural   P2SN2(Cl3O)2
_chemical_formula_sum   'P8 S4 N8 Cl24 O8'
_cell_volume   1295.36388837
_cell_formula_units_Z   4
loop_
 _symmetry_equiv_pos_site_id
 _symmetry_equiv_pos_as_xyz
  1  'x, y, z'
loop_
 _atom_site_type_symbol
 _atom_site_label
 _atom_site_symmetry_multiplicity
 _atom_site_fract_x
 _atom_site_fract_y
 _atom_site_fract_z
 _atom_site_occupancy
  P  P0  1  0.54635400  0.36598400  0.67207400  1
  P  P1  1  0.04635400  0.63401600  0.82792600  1
  P  P2  1  0.45364600  0.63401600  0.32792600  1
  P  P3  1  0.95364600  0.36598400  0.17207400  1
  P  P4  1  0.16045300  0.13245700  0.81747800  1
  P  P5  1  0.66045300  0.86754300  0.68252200  1
  P  P6  1  0.83954700  0.86754300  0.18252200  1
  P  P7  1  0.33954700  0.13245700  0.31747800  1
  S  S8  1  0.45424200  0.25357900  0.87099700  1
  S  S9  1  0.95424200  0.74642100  0.62900300  1
  S  S10  1  0.54575800  0.74642100  0.12900300  1
  S  S11  1  0.04575800  0.25357900  0.37099700  1
  N  N12  1  0.54980000  0.27219400  0.75986700  1
  N  N13  1  0.04980000  0.72780600  0.74013300  1
  N  N14  1  0.45020000  0.72780600  0.24013300  1
  N  N15  1  0.95020000  0.27219400  0.25986700  1
  N  N16  1  0.26040100  0.23192500  0.84373800  1
  N  N17  1  0.76040100  0.76807500  0.65626200  1
  N  N18  1  0.73959900  0.76807500  0.15626200  1
  N  N19  1  0.23959900  0.23192500  0.34373800  1
  Cl  Cl20  1  0.56137900  0.51588400  0.71324300  1
  Cl  Cl21  1  0.06137900  0.48411600  0.78675700  1
  Cl  Cl22  1  0.43862100  0.48411600  0.28675700  1
  Cl  Cl23  1  0.93862100  0.51588400  0.21324300  1
  Cl  Cl24  1  0.34850200  0.37051200  0.57691700  1
  Cl  Cl25  1  0.84850200  0.62948800  0.92308300  1
  Cl  Cl26  1  0.65149800  0.62948800  0.42308300  1
  Cl  Cl27  1  0.15149800  0.37051200  0.07691700  1
  Cl  Cl28  1  0.74080200  0.35052100  0.57955500  1
  Cl  Cl29  1  0.24080200  0.64947900  0.92044500  1
  Cl  Cl30  1  0.25919800  0.64947900  0.42044500  1
  Cl  Cl31  1  0.75919800  0.35052100  0.07955500  1
  Cl  Cl32  1  0.20850600  0.99200700  0.90012200  1
  Cl  Cl33  1  0.70850600  0.00799300  0.59987800  1
  Cl  Cl34  1  0.79149400  0.00799300  0.09987800  1
  Cl  Cl35  1  0.29149400  0.99200700  0.40012200  1
  Cl  Cl36  1  0.16883800  0.09670000  0.66942300  1
  Cl  Cl37  1  0.66883800  0.90330000  0.83057700  1
  Cl  Cl38  1  0.83116200  0.90330000  0.33057700  1
  Cl  Cl39  1  0.33116200  0.09670000  0.16942300  1
  Cl  Cl40  1  0.92019300  0.16100200  0.84062700  1
  Cl  Cl41  1  0.42019300  0.83899800  0.65937300  1
  Cl  Cl42  1  0.07980700  0.83899800  0.15937300  1
  Cl  Cl43  1  0.57980700  0.16100200  0.34062700  1
  O  O44  1  0.52896600  0.15942800  0.92501300  1
  O  O45  1  0.02896600  0.84057200  0.57498700  1
  O  O46  1  0.47103400  0.84057200  0.07498700  1
  O  O47  1  0.97103400  0.15942800  0.42501300  1
  O  O48  1  0.45511700  0.35097400  0.92253600  1
  O  O49  1  0.95511700  0.64902600  0.57746400  1
  O  O50  1  0.54488300  0.64902600  0.07746400  1
  O  O51  1  0.04488300  0.35097400  0.42253600  1
