# generated using pymatgen
data_KB5H2O9
_symmetry_space_group_name_H-M   'P 1'
_cell_length_a   8.01937633
_cell_length_b   9.13990400
_cell_length_c   10.96499198
_cell_angle_alpha   90.00000000
_cell_angle_beta   99.17024067
_cell_angle_gamma   90.00000000
_symmetry_Int_Tables_number   1
_chemical_formula_structural   KB5H2O9
_chemical_formula_sum   'K4 B20 H8 O36'
_cell_volume   793.42179941
_cell_formula_units_Z   4
loop_
 _symmetry_equiv_pos_site_id
 _symmetry_equiv_pos_as_xyz
  1  'x, y, z'
loop_
 _atom_site_type_symbol
 _atom_site_label
 _atom_site_symmetry_multiplicity
 _atom_site_fract_x
 _atom_site_fract_y
 _atom_site_fract_z
 _atom_site_occupancy
  K  K0  1  0.88219700  0.42572500  0.24040200  1
  K  K1  1  0.61780300  0.92572500  0.25959800  1
  K  K2  1  0.11780300  0.57427500  0.75959800  1
  K  K3  1  0.38219700  0.07427500  0.74040200  1
  B  B4  1  0.38657700  0.15548100  0.42368900  1
  B  B5  1  0.11342300  0.65548100  0.07631100  1
  B  B6  1  0.61342300  0.84451900  0.57631100  1
  B  B7  1  0.88657700  0.34451900  0.92368900  1
  B  B8  1  0.58303300  0.35402700  0.47089200  1
  B  B9  1  0.91696700  0.85402700  0.02910800  1
  B  B10  1  0.41696700  0.64597300  0.52910800  1
  B  B11  1  0.08303300  0.14597300  0.97089200  1
  B  B12  1  0.51136100  0.25874600  0.03428800  1
  B  B13  1  0.98863900  0.75874600  0.46571200  1
  B  B14  1  0.48863900  0.74125400  0.96571200  1
  B  B15  1  0.01136100  0.24125400  0.53428800  1
  B  B16  1  0.47590800  0.29691600  0.25272500  1
  B  B17  1  0.02409200  0.79691600  0.24727500  1
  B  B18  1  0.52409200  0.70308400  0.74727500  1
  B  B19  1  0.97590800  0.20308400  0.75272500  1
  B  B20  1  0.19098800  0.93596500  0.41966800  1
  B  B21  1  0.30901200  0.43596500  0.08033200  1
  B  B22  1  0.80901200  0.06403500  0.58033200  1
  B  B23  1  0.69098800  0.56403500  0.91966800  1
  H  H24  1  0.67582800  0.12309900  0.97050600  1
  H  H25  1  0.82417200  0.62309900  0.52949400  1
  H  H26  1  0.32417200  0.87690100  0.02949400  1
  H  H27  1  0.17582800  0.37690100  0.47050600  1
  H  H28  1  0.66779900  0.43671600  0.64133000  1
  H  H29  1  0.83220100  0.93671600  0.85867000  1
  H  H30  1  0.33220100  0.56328400  0.35867000  1
  H  H31  1  0.16779900  0.06328400  0.14133000  1
  O  O32  1  0.59923900  0.36555600  0.34966100  1
  O  O33  1  0.90076100  0.86555600  0.15033900  1
  O  O34  1  0.40076100  0.63444400  0.65033900  1
  O  O35  1  0.09923900  0.13444400  0.84966100  1
  O  O36  1  0.38679600  0.17273800  0.30146000  1
  O  O37  1  0.11320400  0.67273800  0.19854000  1
  O  O38  1  0.61320400  0.82726200  0.69854000  1
  O  O39  1  0.88679600  0.32726200  0.80146000  1
  O  O40  1  0.47884600  0.24756200  0.51204100  1
  O  O41  1  0.02115400  0.74756200  0.98795900  1
  O  O42  1  0.52115400  0.75243800  0.48795900  1
  O  O43  1  0.97884600  0.25243800  0.01204100  1
  O  O44  1  0.37868500  0.35412000  0.99325200  1
  O  O45  1  0.12131500  0.85412000  0.50674800  1
  O  O46  1  0.62131500  0.64588000  0.00674800  1
  O  O47  1  0.87868500  0.14588000  0.49325200  1
  O  O48  1  0.30315800  0.04237100  0.47295200  1
  O  O49  1  0.19684200  0.54237100  0.02704800  1
  O  O50  1  0.69684200  0.95762900  0.52704800  1
  O  O51  1  0.80315800  0.45762900  0.97295200  1
  O  O52  1  0.56787300  0.23671000  0.15661900  1
  O  O53  1  0.93212700  0.73671000  0.34338100  1
  O  O54  1  0.43212700  0.76329000  0.84338100  1
  O  O55  1  0.06787300  0.26329000  0.65661900  1
  O  O56  1  0.58256200  0.19072200  0.94237900  1
  O  O57  1  0.91743800  0.69072200  0.55762100  1
  O  O58  1  0.41743800  0.80927800  0.05762100  1
  O  O59  1  0.08256200  0.30927800  0.44237900  1
  O  O60  1  0.35000400  0.41086700  0.20277700  1
  O  O61  1  0.14999600  0.91086700  0.29722300  1
  O  O62  1  0.64999600  0.58913300  0.79722300  1
  O  O63  1  0.85000400  0.08913300  0.70277700  1
  O  O64  1  0.67696500  0.44781400  0.55352200  1
  O  O65  1  0.82303500  0.94781400  0.94647800  1
  O  O66  1  0.32303500  0.55218600  0.44647800  1
  O  O67  1  0.17696500  0.05218600  0.05352200  1
