# generated using pymatgen
data_Cs2CeN5O17
_symmetry_space_group_name_H-M   'P 1'
_cell_length_a   7.28501891
_cell_length_b   7.28501891
_cell_length_c   16.77439584
_cell_angle_alpha   78.96858107
_cell_angle_beta   78.96858107
_cell_angle_gamma   78.45685741
_symmetry_Int_Tables_number   1
_chemical_formula_structural   Cs2CeN5O17
_chemical_formula_sum   'Cs4 Ce2 N10 O34'
_cell_volume   845.20689626
_cell_formula_units_Z   2
loop_
 _symmetry_equiv_pos_site_id
 _symmetry_equiv_pos_as_xyz
  1  'x, y, z'
loop_
 _atom_site_type_symbol
 _atom_site_label
 _atom_site_symmetry_multiplicity
 _atom_site_fract_x
 _atom_site_fract_y
 _atom_site_fract_z
 _atom_site_occupancy
  Cs  Cs0  1  0.73702800  0.63298900  0.57729000  1
  Cs  Cs1  1  0.36701100  0.26297200  0.92271000  1
  Cs  Cs2  1  0.26297200  0.36701100  0.42271000  1
  Cs  Cs3  1  0.63298900  0.73702800  0.07729000  1
  Ce  Ce4  1  0.05146800  0.94853200  0.75000000  1
  Ce  Ce5  1  0.94853200  0.05146800  0.25000000  1
  N  N6  1  0.15330100  0.82366400  0.94972300  1
  N  N7  1  0.17633600  0.84669900  0.55027700  1
  N  N8  1  0.84669900  0.17633600  0.05027700  1
  N  N9  1  0.82366400  0.15330100  0.44972300  1
  N  N10  1  0.24332300  0.27895600  0.65679300  1
  N  N11  1  0.72104400  0.75667700  0.84320700  1
  N  N12  1  0.75667700  0.72104400  0.34320700  1
  N  N13  1  0.27895600  0.24332300  0.15679300  1
  N  N14  1  0.37829600  0.62170400  0.75000000  1
  N  N15  1  0.62170400  0.37829600  0.25000000  1
  O  O16  1  0.86353200  0.22298100  0.50556300  1
  O  O17  1  0.77701900  0.13646800  0.99443700  1
  O  O18  1  0.13646800  0.77701900  0.49443700  1
  O  O19  1  0.22298100  0.86353200  0.00556300  1
  O  O20  1  0.07078400  0.82181400  0.62277300  1
  O  O21  1  0.17818600  0.92921600  0.87722700  1
  O  O22  1  0.92921600  0.17818600  0.37722700  1
  O  O23  1  0.82181400  0.07078400  0.12277300  1
  O  O24  1  0.06297500  0.69034400  0.95988100  1
  O  O25  1  0.30965600  0.93702500  0.54011900  1
  O  O26  1  0.93702500  0.30965600  0.04011900  1
  O  O27  1  0.69034400  0.06297500  0.45988100  1
  O  O28  1  0.82747700  0.70716100  0.77856700  1
  O  O29  1  0.29283900  0.17252300  0.72143300  1
  O  O30  1  0.17252300  0.29283900  0.22143300  1
  O  O31  1  0.70716100  0.82747700  0.27856700  1
  O  O32  1  0.08580500  0.25994700  0.63694700  1
  O  O33  1  0.74005300  0.91419500  0.86305300  1
  O  O34  1  0.91419500  0.74005300  0.36305300  1
  O  O35  1  0.25994700  0.08580500  0.13694700  1
  O  O36  1  0.33968100  0.39304100  0.61319400  1
  O  O37  1  0.60695900  0.66031900  0.88680600  1
  O  O38  1  0.66031900  0.60695900  0.38680600  1
  O  O39  1  0.39304100  0.33968100  0.11319400  1
  O  O40  1  0.20930500  0.60015000  0.78536400  1
  O  O41  1  0.39985000  0.79069500  0.71463600  1
  O  O42  1  0.79069500  0.39985000  0.21463600  1
  O  O43  1  0.60015000  0.20930500  0.28536400  1
  O  O44  1  0.51229900  0.48770100  0.75000000  1
  O  O45  1  0.48770100  0.51229900  0.25000000  1
  O  O46  1  0.88234400  0.21394500  0.79554600  1
  O  O47  1  0.78605500  0.11765600  0.70445400  1
  O  O48  1  0.11765600  0.78605500  0.20445400  1
  O  O49  1  0.21394500  0.88234400  0.29554600  1
