# generated using pymatgen
data_TlCu2(AsO4)2
_symmetry_space_group_name_H-M   'P 1'
_cell_length_a   11.21128000
_cell_length_b   6.39191100
_cell_length_c   10.60198483
_cell_angle_alpha   81.86212419
_cell_angle_beta   90.00000000
_cell_angle_gamma   90.00000000
_symmetry_Int_Tables_number   1
_chemical_formula_structural   TlCu2(AsO4)2
_chemical_formula_sum   'Tl4 Cu8 As8 O32'
_cell_volume   752.10367952
_cell_formula_units_Z   4
loop_
 _symmetry_equiv_pos_site_id
 _symmetry_equiv_pos_as_xyz
  1  'x, y, z'
loop_
 _atom_site_type_symbol
 _atom_site_label
 _atom_site_symmetry_multiplicity
 _atom_site_fract_x
 _atom_site_fract_y
 _atom_site_fract_z
 _atom_site_occupancy
  Tl  Tl0  1  0.41557500  0.73058400  0.02262700  1
  Tl  Tl1  1  0.91557500  0.26941600  0.47737300  1
  Tl  Tl2  1  0.58442500  0.26941600  0.97737300  1
  Tl  Tl3  1  0.08442500  0.73058400  0.52262700  1
  Cu  Cu4  1  0.95652900  0.58951000  0.15795200  1
  Cu  Cu5  1  0.45652900  0.41049000  0.34204800  1
  Cu  Cu6  1  0.04347100  0.41049000  0.84204800  1
  Cu  Cu7  1  0.54347100  0.58951000  0.65795200  1
  Cu  Cu8  1  0.15601400  0.94287400  0.17767600  1
  Cu  Cu9  1  0.65601400  0.05712600  0.32232400  1
  Cu  Cu10  1  0.84398600  0.05712600  0.82232400  1
  Cu  Cu11  1  0.34398600  0.94287400  0.67767600  1
  As  As12  1  0.38706300  0.88230300  0.37645300  1
  As  As13  1  0.88706300  0.11769700  0.12354700  1
  As  As14  1  0.61293700  0.11769700  0.62354700  1
  As  As15  1  0.11293700  0.88230300  0.87645300  1
  As  As16  1  0.70770200  0.63216900  0.23666000  1
  As  As17  1  0.20770200  0.36783100  0.26334000  1
  As  As18  1  0.29229800  0.36783100  0.76334000  1
  As  As19  1  0.79229800  0.63216900  0.73666000  1
  O  O20  1  0.29646700  0.89084100  0.50594700  1
  O  O21  1  0.79646700  0.10915900  0.99405300  1
  O  O22  1  0.70353300  0.10915900  0.49405300  1
  O  O23  1  0.20353300  0.89084100  0.00594700  1
  O  O24  1  0.31484100  0.86795400  0.23493000  1
  O  O25  1  0.81484100  0.13204600  0.26507000  1
  O  O26  1  0.68515900  0.13204600  0.76507000  1
  O  O27  1  0.18515900  0.86795400  0.73493000  1
  O  O28  1  0.48450700  0.67113100  0.40247700  1
  O  O29  1  0.98450700  0.32886900  0.09752300  1
  O  O30  1  0.51549300  0.32886900  0.59752300  1
  O  O31  1  0.01549300  0.67113100  0.90247700  1
  O  O32  1  0.48604700  0.10150200  0.35584100  1
  O  O33  1  0.98604700  0.89849800  0.14415900  1
  O  O34  1  0.51395300  0.89849800  0.64415900  1
  O  O35  1  0.01395300  0.10150200  0.85584100  1
  O  O36  1  0.63179000  0.87162400  0.19754200  1
  O  O37  1  0.13179000  0.12837600  0.30245800  1
  O  O38  1  0.36821000  0.12837600  0.80245800  1
  O  O39  1  0.86821000  0.87162400  0.69754200  1
  O  O40  1  0.79670500  0.60298100  0.10328500  1
  O  O41  1  0.29670500  0.39701900  0.39671500  1
  O  O42  1  0.20329500  0.39701900  0.89671500  1
  O  O43  1  0.70329500  0.60298100  0.60328500  1
  O  O44  1  0.59998100  0.42973700  0.24389900  1
  O  O45  1  0.09998100  0.57026300  0.25610100  1
  O  O46  1  0.40001900  0.57026300  0.75610100  1
  O  O47  1  0.90001900  0.42973700  0.74389900  1
  O  O48  1  0.80507500  0.61391700  0.35975200  1
  O  O49  1  0.30507500  0.38608300  0.14024800  1
  O  O50  1  0.19492500  0.38608300  0.64024800  1
  O  O51  1  0.69492500  0.61391700  0.85975200  1
