# generated using pymatgen
data_Cs2VS5O
_symmetry_space_group_name_H-M   'P 1'
_cell_length_a   10.67329600
_cell_length_b   7.65281400
_cell_length_c   14.16678130
_cell_angle_alpha   69.25352759
_cell_angle_beta   90.00000000
_cell_angle_gamma   90.00000000
_symmetry_Int_Tables_number   1
_chemical_formula_structural   Cs2VS5O
_chemical_formula_sum   'Cs8 V4 S20 O4'
_cell_volume   1082.12004080
_cell_formula_units_Z   4
loop_
 _symmetry_equiv_pos_site_id
 _symmetry_equiv_pos_as_xyz
  1  'x, y, z'
loop_
 _atom_site_type_symbol
 _atom_site_label
 _atom_site_symmetry_multiplicity
 _atom_site_fract_x
 _atom_site_fract_y
 _atom_site_fract_z
 _atom_site_occupancy
  Cs  Cs0  1  0.97186800  0.50351300  0.23810900  1
  Cs  Cs1  1  0.52813200  0.50351300  0.73810900  1
  Cs  Cs2  1  0.02813200  0.49648700  0.76189100  1
  Cs  Cs3  1  0.47186800  0.49648700  0.26189100  1
  Cs  Cs4  1  0.26178800  0.03334600  0.57897300  1
  Cs  Cs5  1  0.23821200  0.03334600  0.07897300  1
  Cs  Cs6  1  0.73821200  0.96665400  0.42102700  1
  Cs  Cs7  1  0.76178800  0.96665400  0.92102700  1
  V  V8  1  0.69632400  0.24495900  0.11846500  1
  V  V9  1  0.80367600  0.24495900  0.61846500  1
  V  V10  1  0.30367600  0.75504100  0.88153500  1
  V  V11  1  0.19632400  0.75504100  0.38153500  1
  S  S12  1  0.00396300  0.35801700  0.54756600  1
  S  S13  1  0.49603700  0.35801700  0.04756600  1
  S  S14  1  0.99603700  0.64198300  0.45243400  1
  S  S15  1  0.50396300  0.64198300  0.95243400  1
  S  S16  1  0.22547400  0.54471500  0.03529700  1
  S  S17  1  0.27452600  0.54471500  0.53529700  1
  S  S18  1  0.77452600  0.45528500  0.96470300  1
  S  S19  1  0.72547400  0.45528500  0.46470300  1
  S  S20  1  0.05393600  0.00966000  0.29624900  1
  S  S21  1  0.44606400  0.00966000  0.79624900  1
  S  S22  1  0.94606400  0.99034000  0.70375100  1
  S  S23  1  0.55393600  0.99034000  0.20375100  1
  S  S24  1  0.09606600  0.73905300  0.94873900  1
  S  S25  1  0.40393400  0.73905300  0.44873900  1
  S  S26  1  0.90393400  0.26094700  0.05126100  1
  S  S27  1  0.59606600  0.26094700  0.55126100  1
  S  S28  1  0.23818900  0.07464200  0.31585800  1
  S  S29  1  0.26181100  0.07464200  0.81585800  1
  S  S30  1  0.76181100  0.92535800  0.68414200  1
  S  S31  1  0.73818900  0.92535800  0.18414200  1
  O  O32  1  0.71981600  0.33242500  0.20856900  1
  O  O33  1  0.78018400  0.33242500  0.70856900  1
  O  O34  1  0.28018400  0.66757500  0.79143100  1
  O  O35  1  0.21981600  0.66757500  0.29143100  1
