# generated using pymatgen
data_SnH3NF3
_symmetry_space_group_name_H-M   'P 1'
_cell_length_a   8.41241692
_cell_length_b   8.41241692
_cell_length_c   5.84300468
_cell_angle_alpha   78.74615825
_cell_angle_beta   78.74615825
_cell_angle_gamma   100.79836219
_symmetry_Int_Tables_number   1
_chemical_formula_structural   SnH3NF3
_chemical_formula_sum   'Sn4 H12 N4 F12'
_cell_volume   386.67560732
_cell_formula_units_Z   4
loop_
 _symmetry_equiv_pos_site_id
 _symmetry_equiv_pos_as_xyz
  1  'x, y, z'
loop_
 _atom_site_type_symbol
 _atom_site_label
 _atom_site_symmetry_multiplicity
 _atom_site_fract_x
 _atom_site_fract_y
 _atom_site_fract_z
 _atom_site_occupancy
  Sn  Sn0  1  0.90838300  0.70364900  0.52100500  1
  Sn  Sn1  1  0.29635100  0.09161700  0.97899500  1
  Sn  Sn2  1  0.09161700  0.29635100  0.47899500  1
  Sn  Sn3  1  0.70364900  0.90838300  0.02100500  1
  H  H4  1  0.84155500  0.38029300  0.13065300  1
  H  H5  1  0.61970700  0.15844500  0.36934700  1
  H  H6  1  0.15844500  0.61970700  0.86934700  1
  H  H7  1  0.38029300  0.84155500  0.63065300  1
  H  H8  1  0.70620800  0.51303000  0.13168600  1
  H  H9  1  0.48697000  0.29379200  0.36831400  1
  H  H10  1  0.29379200  0.48697000  0.86831400  1
  H  H11  1  0.51303000  0.70620800  0.63168600  1
  H  H12  1  0.67301900  0.34544100  0.99888300  1
  H  H13  1  0.65455900  0.32698100  0.50111700  1
  H  H14  1  0.32698100  0.65455900  0.00111700  1
  H  H15  1  0.34544100  0.67301900  0.49888300  1
  N  N16  1  0.71505300  0.38948300  0.13680200  1
  N  N17  1  0.61051700  0.28494700  0.36319800  1
  N  N18  1  0.28494700  0.61051700  0.86319800  1
  N  N19  1  0.38948300  0.71505300  0.63680200  1
  F  F20  1  0.67352700  0.67853400  0.76664100  1
  F  F21  1  0.32146600  0.32647300  0.73335900  1
  F  F22  1  0.32647300  0.32146600  0.23335900  1
  F  F23  1  0.67853400  0.67352700  0.26664100  1
  F  F24  1  0.82686700  0.44287300  0.58501400  1
  F  F25  1  0.55712700  0.17313300  0.91498600  1
  F  F26  1  0.17313300  0.55712700  0.41498600  1
  F  F27  1  0.44287300  0.82686700  0.08501400  1
  F  F28  1  0.99111600  0.66307900  0.84736700  1
  F  F29  1  0.33692100  0.00888400  0.65263300  1
  F  F30  1  0.00888400  0.33692100  0.15263300  1
  F  F31  1  0.66307900  0.99111600  0.34736700  1
