# generated using pymatgen
data_CdH5Br3N2
_symmetry_space_group_name_H-M   'P 1'
_cell_length_a   18.13309000
_cell_length_b   3.96557300
_cell_length_c   10.11158856
_cell_angle_alpha   87.86464677
_cell_angle_beta   90.00000000
_cell_angle_gamma   90.00000000
_symmetry_Int_Tables_number   1
_chemical_formula_structural   CdH5Br3N2
_chemical_formula_sum   'Cd4 H20 Br12 N8'
_cell_volume   726.60013457
_cell_formula_units_Z   4
loop_
 _symmetry_equiv_pos_site_id
 _symmetry_equiv_pos_as_xyz
  1  'x, y, z'
loop_
 _atom_site_type_symbol
 _atom_site_label
 _atom_site_symmetry_multiplicity
 _atom_site_fract_x
 _atom_site_fract_y
 _atom_site_fract_z
 _atom_site_occupancy
  Cd  Cd0  1  0.56904200  0.71525200  0.14891700  1
  Cd  Cd1  1  0.06904200  0.28474800  0.35108300  1
  Cd  Cd2  1  0.43095800  0.28474800  0.85108300  1
  Cd  Cd3  1  0.93095800  0.71525200  0.64891700  1
  H  H4  1  0.58674000  0.37972400  0.53997200  1
  H  H5  1  0.08674000  0.62027600  0.96002800  1
  H  H6  1  0.41326000  0.62027600  0.46002800  1
  H  H7  1  0.91326000  0.37972400  0.03997200  1
  H  H8  1  0.63731800  0.40461800  0.67613100  1
  H  H9  1  0.13731800  0.59538200  0.82386900  1
  H  H10  1  0.36268200  0.59538200  0.32386900  1
  H  H11  1  0.86268200  0.40461800  0.17613100  1
  H  H12  1  0.73660100  0.18436600  0.57632100  1
  H  H13  1  0.23660100  0.81563400  0.92367900  1
  H  H14  1  0.26339900  0.81563400  0.42367900  1
  H  H15  1  0.76339900  0.18436600  0.07632100  1
  H  H16  1  0.69388400  0.20112800  0.42739300  1
  H  H17  1  0.19388400  0.79887200  0.07260700  1
  H  H18  1  0.30611600  0.79887200  0.57260700  1
  H  H19  1  0.80611600  0.20112800  0.92739300  1
  H  H20  1  0.66616400  0.91678300  0.54664400  1
  H  H21  1  0.16616400  0.08321700  0.95335600  1
  H  H22  1  0.33383600  0.08321700  0.45335600  1
  H  H23  1  0.83383600  0.91678300  0.04664400  1
  Br  Br24  1  0.70906700  0.68769800  0.24701500  1
  Br  Br25  1  0.20906700  0.31230200  0.25298500  1
  Br  Br26  1  0.29093300  0.31230200  0.75298500  1
  Br  Br27  1  0.79093300  0.68769800  0.74701500  1
  Br  Br28  1  0.51734700  0.19120700  0.31866300  1
  Br  Br29  1  0.01734700  0.80879300  0.18133700  1
  Br  Br30  1  0.48265300  0.80879300  0.68133700  1
  Br  Br31  1  0.98265300  0.19120700  0.81866300  1
  Br  Br32  1  0.40807200  0.75274200  0.04246400  1
  Br  Br33  1  0.90807200  0.24725800  0.45753600  1
  Br  Br34  1  0.59192800  0.24725800  0.95753600  1
  Br  Br35  1  0.09192800  0.75274200  0.54246400  1
  N  N36  1  0.63865000  0.43080400  0.57442500  1
  N  N37  1  0.13865000  0.56919600  0.92557500  1
  N  N38  1  0.36135000  0.56919600  0.42557500  1
  N  N39  1  0.86135000  0.43080400  0.07442500  1
  N  N40  1  0.68607800  0.16520900  0.52872100  1
  N  N41  1  0.18607800  0.83479100  0.97127900  1
  N  N42  1  0.31392200  0.83479100  0.47127900  1
  N  N43  1  0.81392200  0.16520900  0.02872100  1
