# generated using pymatgen
data_NaAlSiO4
_symmetry_space_group_name_H-M   'P 1'
_cell_length_a   10.08120644
_cell_length_b   10.08120644
_cell_length_c   8.53139100
_cell_angle_alpha   90.00000000
_cell_angle_beta   90.00000000
_cell_angle_gamma   120.00000286
_symmetry_Int_Tables_number   1
_chemical_formula_structural   NaAlSiO4
_chemical_formula_sum   'Na8 Al8 Si8 O32'
_cell_volume   750.88854940
_cell_formula_units_Z   8
loop_
 _symmetry_equiv_pos_site_id
 _symmetry_equiv_pos_as_xyz
  1  'x, y, z'
loop_
 _atom_site_type_symbol
 _atom_site_label
 _atom_site_symmetry_multiplicity
 _atom_site_fract_x
 _atom_site_fract_y
 _atom_site_fract_z
 _atom_site_occupancy
  Na  Na0  1  0.00000000  0.00000000  0.99699700  1
  Na  Na1  1  0.00000000  0.00000000  0.49699700  1
  Na  Na2  1  0.56860600  0.01301000  0.99924100  1
  Na  Na3  1  0.44440400  0.43139400  0.99924100  1
  Na  Na4  1  0.98699000  0.55559600  0.99924100  1
  Na  Na5  1  0.43139400  0.98699000  0.49924100  1
  Na  Na6  1  0.55559600  0.56860600  0.49924100  1
  Na  Na7  1  0.01301000  0.44440400  0.49924100  1
  Al  Al8  1  0.66666700  0.33333300  0.19824100  1
  Al  Al9  1  0.33333300  0.66666700  0.69824100  1
  Al  Al10  1  0.76035600  0.09149500  0.68528000  1
  Al  Al11  1  0.33113900  0.23964400  0.68528000  1
  Al  Al12  1  0.90850500  0.66886100  0.68528000  1
  Al  Al13  1  0.23964400  0.90850500  0.18528000  1
  Al  Al14  1  0.66886100  0.76035600  0.18528000  1
  Al  Al15  1  0.09149500  0.33113900  0.18528000  1
  Si  Si16  1  0.66666700  0.33333300  0.80421000  1
  Si  Si17  1  0.33333300  0.66666700  0.30421000  1
  Si  Si18  1  0.76109000  0.09120800  0.31479200  1
  Si  Si19  1  0.33011800  0.23891000  0.31479200  1
  Si  Si20  1  0.90879200  0.66988200  0.31479200  1
  Si  Si21  1  0.23891000  0.90879200  0.81479200  1
  Si  Si22  1  0.66988200  0.76109000  0.81479200  1
  Si  Si23  1  0.09120800  0.33011800  0.81479200  1
  O  O24  1  0.66666700  0.33333300  0.99485000  1
  O  O25  1  0.33333300  0.66666700  0.49485000  1
  O  O26  1  0.71123200  0.02060900  0.49268400  1
  O  O27  1  0.30937800  0.28876800  0.49268400  1
  O  O28  1  0.97939100  0.69062200  0.49268400  1
  O  O29  1  0.28876800  0.97939100  0.99268400  1
  O  O30  1  0.69062200  0.71123200  0.99268400  1
  O  O31  1  0.02060900  0.30937800  0.99268400  1
  O  O32  1  0.64791500  0.17092700  0.74323600  1
  O  O33  1  0.52301200  0.35208500  0.74323600  1
  O  O34  1  0.82907300  0.47698800  0.74323600  1
  O  O35  1  0.35208500  0.82907300  0.24323600  1
  O  O36  1  0.47698800  0.64791500  0.24323600  1
  O  O37  1  0.17092700  0.52301200  0.24323600  1
  O  O38  1  0.65248100  0.16058600  0.25938900  1
  O  O39  1  0.50810500  0.34751900  0.25938900  1
  O  O40  1  0.83941400  0.49189500  0.25938900  1
  O  O41  1  0.34751900  0.83941400  0.75938900  1
  O  O42  1  0.49189500  0.65248100  0.75938900  1
  O  O43  1  0.16058600  0.50810500  0.75938900  1
  O  O44  1  0.94314100  0.22078100  0.31831100  1
  O  O45  1  0.27764000  0.05685900  0.31831100  1
  O  O46  1  0.77921900  0.72236000  0.31831100  1
  O  O47  1  0.05685900  0.77921900  0.81831100  1
  O  O48  1  0.72236000  0.94314100  0.81831100  1
  O  O49  1  0.22078100  0.27764000  0.81831100  1
  O  O50  1  0.95775600  0.22157000  0.68896900  1
  O  O51  1  0.26381400  0.04224400  0.68896900  1
  O  O52  1  0.77843000  0.73618600  0.68896900  1
  O  O53  1  0.04224400  0.77843000  0.18896900  1
  O  O54  1  0.73618600  0.95775600  0.18896900  1
  O  O55  1  0.22157000  0.26381400  0.18896900  1
