# generated using pymatgen
data_AlP2H2O9
_symmetry_space_group_name_H-M   'P 1'
_cell_length_a   7.39973840
_cell_length_b   8.77119142
_cell_length_c   9.27227366
_cell_angle_alpha   64.45431757
_cell_angle_beta   69.27365833
_cell_angle_gamma   67.85023841
_symmetry_Int_Tables_number   1
_chemical_formula_structural   AlP2H2O9
_chemical_formula_sum   'Al3 P6 H6 O27'
_cell_volume   489.55180222
_cell_formula_units_Z   3
loop_
 _symmetry_equiv_pos_site_id
 _symmetry_equiv_pos_as_xyz
  1  'x, y, z'
loop_
 _atom_site_type_symbol
 _atom_site_label
 _atom_site_symmetry_multiplicity
 _atom_site_fract_x
 _atom_site_fract_y
 _atom_site_fract_z
 _atom_site_occupancy
  Al  Al0  1  0.00000000  0.00000000  0.00000000  1
  Al  Al1  1  0.79272100  0.78532200  0.56214000  1
  Al  Al2  1  0.20728000  0.21467800  0.43786000  1
  P  P3  1  0.92600500  0.37834400  0.72541100  1
  P  P4  1  0.07399500  0.62165600  0.27458900  1
  P  P5  1  0.91883400  0.15225900  0.27769200  1
  P  P6  1  0.08116600  0.84774100  0.72230800  1
  P  P7  1  0.43504600  0.05289000  0.72489200  1
  P  P8  1  0.56495400  0.94711000  0.27510800  1
  H  H9  1  0.15673000  0.50626600  0.66718700  1
  H  H10  1  0.84327000  0.49373400  0.33281300  1
  H  H11  1  0.62500300  0.34310700  0.29887400  1
  H  H12  1  0.37499700  0.65689300  0.70112600  1
  H  H13  1  0.64748800  0.06089700  0.83909600  1
  H  H14  1  0.35251200  0.93910300  0.16090400  1
  O  O15  1  0.11529300  0.40202600  0.74893500  1
  O  O16  1  0.88470700  0.59797400  0.25106500  1
  O  O17  1  0.98085900  0.31702500  0.57811900  1
  O  O18  1  0.01914100  0.68297500  0.42188100  1
  O  O19  1  0.76231000  0.55309900  0.69653000  1
  O  O20  1  0.23769000  0.44690100  0.30347000  1
  O  O21  1  0.86309500  0.23176500  0.88040900  1
  O  O22  1  0.13690500  0.76823500  0.11959100  1
  O  O23  1  0.04956900  0.08574500  0.13522400  1
  O  O24  1  0.95043100  0.91425500  0.86477600  1
  O  O25  1  0.03226800  0.23334600  0.32190400  1
  O  O26  1  0.96773200  0.76665400  0.67809600  1
  O  O27  1  0.73410300  0.30625300  0.21296800  1
  O  O28  1  0.26589700  0.69374700  0.78703200  1
  O  O29  1  0.83843200  0.00749200  0.42415900  1
  O  O30  1  0.16156800  0.99250800  0.57584100  1
  O  O31  1  0.57123900  0.87650000  0.70618000  1
  O  O32  1  0.42876100  0.12350000  0.29382000  1
  O  O33  1  0.38405400  0.18597800  0.56013800  1
  O  O34  1  0.61594600  0.81402200  0.43986200  1
  O  O35  1  0.55722700  0.14003100  0.76445400  1
  O  O36  1  0.44277300  0.85996900  0.23554600  1
  O  O37  1  0.25335300  0.02210600  0.86422000  1
  O  O38  1  0.74664700  0.97789400  0.13578000  1
  O  O39  1  0.50000000  0.50000000  0.50000000  1
  O  O40  1  0.61600000  0.67129400  0.02095500  1
  O  O41  1  0.38400000  0.32870600  0.97904500  1
