# generated using pymatgen
data_Cr2H8N2O7
_symmetry_space_group_name_H-M   'P 1'
_cell_length_a   7.73382236
_cell_length_b   7.73382236
_cell_length_c   7.83192960
_cell_angle_alpha   87.19115861
_cell_angle_beta   87.19115861
_cell_angle_gamma   58.92576618
_symmetry_Int_Tables_number   1
_chemical_formula_structural   Cr2H8N2O7
_chemical_formula_sum   'Cr4 H16 N4 O14'
_cell_volume   400.58548281
_cell_formula_units_Z   2
loop_
 _symmetry_equiv_pos_site_id
 _symmetry_equiv_pos_as_xyz
  1  'x, y, z'
loop_
 _atom_site_type_symbol
 _atom_site_label
 _atom_site_symmetry_multiplicity
 _atom_site_fract_x
 _atom_site_fract_y
 _atom_site_fract_z
 _atom_site_occupancy
  Cr  Cr0  1  0.76926400  0.43225900  0.63961900  1
  Cr  Cr1  1  0.56774100  0.23073600  0.86038100  1
  Cr  Cr2  1  0.23073600  0.56774100  0.36038100  1
  Cr  Cr3  1  0.43225900  0.76926400  0.13961900  1
  H  H4  1  0.90458100  0.29876000  0.26654000  1
  H  H5  1  0.70124000  0.09541900  0.23346000  1
  H  H6  1  0.09541900  0.70124000  0.73346000  1
  H  H7  1  0.29876000  0.90458100  0.76654000  1
  H  H8  1  0.00137400  0.42587900  0.16023600  1
  H  H9  1  0.57412100  0.99862600  0.33976400  1
  H  H10  1  0.99862600  0.57412100  0.83976400  1
  H  H11  1  0.42587900  0.00137400  0.66023600  1
  H  H12  1  0.92053000  0.29840500  0.04796100  1
  H  H13  1  0.70159500  0.07947000  0.45203900  1
  H  H14  1  0.07947000  0.70159500  0.95203900  1
  H  H15  1  0.29840500  0.92053000  0.54796100  1
  H  H16  1  0.12978100  0.16898100  0.16573400  1
  H  H17  1  0.83101900  0.87021900  0.33426600  1
  H  H18  1  0.87021900  0.83101900  0.83426600  1
  H  H19  1  0.16898100  0.12978100  0.66573400  1
  N  N20  1  0.98839400  0.29854300  0.15800100  1
  N  N21  1  0.70145700  0.01160600  0.34199900  1
  N  N22  1  0.01160600  0.70145700  0.84199900  1
  N  N23  1  0.29854300  0.98839400  0.65800100  1
  O  O24  1  0.55243800  0.44756200  0.75000000  1
  O  O25  1  0.44756200  0.55243800  0.25000000  1
  O  O26  1  0.85737800  0.25488400  0.49772200  1
  O  O27  1  0.74511600  0.14262200  0.00227800  1
  O  O28  1  0.14262200  0.74511600  0.50227800  1
  O  O29  1  0.25488400  0.85737800  0.99772200  1
  O  O30  1  0.94790200  0.36947300  0.77883200  1
  O  O31  1  0.63052700  0.05209800  0.72116800  1
  O  O32  1  0.05209800  0.63052700  0.22116800  1
  O  O33  1  0.36947300  0.94790200  0.27883200  1
  O  O34  1  0.70565500  0.64824500  0.54886800  1
  O  O35  1  0.35175500  0.29434500  0.95113200  1
  O  O36  1  0.29434500  0.35175500  0.45113200  1
  O  O37  1  0.64824500  0.70565500  0.04886800  1
