# generated using pymatgen
data_Hf7Ni10
_symmetry_space_group_name_H-M   'P 1'
_cell_length_a   7.62382974
_cell_length_b   7.62382974
_cell_length_c   9.10169100
_cell_angle_alpha   90.00000000
_cell_angle_beta   90.00000000
_cell_angle_gamma   106.98795139
_symmetry_Int_Tables_number   1
_chemical_formula_structural   Hf7Ni10
_chemical_formula_sum   'Hf14 Ni20'
_cell_volume   505.93263211
_cell_formula_units_Z   2
loop_
 _symmetry_equiv_pos_site_id
 _symmetry_equiv_pos_as_xyz
  1  'x, y, z'
loop_
 _atom_site_type_symbol
 _atom_site_label
 _atom_site_symmetry_multiplicity
 _atom_site_fract_x
 _atom_site_fract_y
 _atom_site_fract_z
 _atom_site_occupancy
  Hf  Hf0  1  0.69371800  0.30628200  0.00000000  1
  Hf  Hf1  1  0.30628200  0.69371800  0.00000000  1
  Hf  Hf2  1  0.80628200  0.19371800  0.50000000  1
  Hf  Hf3  1  0.19371800  0.80628200  0.50000000  1
  Hf  Hf4  1  0.00000000  0.00000000  0.00000000  1
  Hf  Hf5  1  0.50000000  0.50000000  0.50000000  1
  Hf  Hf6  1  0.00506400  0.50506400  0.25000000  1
  Hf  Hf7  1  0.99493600  0.49493600  0.75000000  1
  Hf  Hf8  1  0.49493600  0.99493600  0.75000000  1
  Hf  Hf9  1  0.50506400  0.00506400  0.25000000  1
  Hf  Hf10  1  0.31315500  0.31315500  0.18755700  1
  Hf  Hf11  1  0.68684500  0.68684500  0.81244300  1
  Hf  Hf12  1  0.18684500  0.18684500  0.68755700  1
  Hf  Hf13  1  0.81315500  0.81315500  0.31244300  1
  Ni  Ni14  1  0.86611300  0.15494300  0.20829700  1
  Ni  Ni15  1  0.13388700  0.84505700  0.79170300  1
  Ni  Ni16  1  0.63388700  0.34505700  0.70829700  1
  Ni  Ni17  1  0.65494300  0.36611300  0.29170300  1
  Ni  Ni18  1  0.36611300  0.65494300  0.29170300  1
  Ni  Ni19  1  0.34505700  0.63388700  0.70829700  1
  Ni  Ni20  1  0.84505700  0.13388700  0.79170300  1
  Ni  Ni21  1  0.15494300  0.86611300  0.20829700  1
  Ni  Ni22  1  0.93610300  0.64651500  0.00783000  1
  Ni  Ni23  1  0.06389700  0.35348500  0.99217000  1
  Ni  Ni24  1  0.56389700  0.85348500  0.50783000  1
  Ni  Ni25  1  0.14651500  0.43610300  0.49217000  1
  Ni  Ni26  1  0.43610300  0.14651500  0.49217000  1
  Ni  Ni27  1  0.85348500  0.56389700  0.50783000  1
  Ni  Ni28  1  0.35348500  0.06389700  0.99217000  1
  Ni  Ni29  1  0.64651500  0.93610300  0.00783000  1
  Ni  Ni30  1  0.10710600  0.10710600  0.39490100  1
  Ni  Ni31  1  0.89289400  0.89289400  0.60509900  1
  Ni  Ni32  1  0.39289400  0.39289400  0.89490100  1
  Ni  Ni33  1  0.60710600  0.60710600  0.10509900  1
