# generated using pymatgen
data_AsC4N2F17
_symmetry_space_group_name_H-M   'P 1'
_cell_length_a   8.01038200
_cell_length_b   8.67240500
_cell_length_c   9.76793905
_cell_angle_alpha   79.71654432
_cell_angle_beta   90.00000000
_cell_angle_gamma   90.00000000
_symmetry_Int_Tables_number   1
_chemical_formula_structural   AsC4N2F17
_chemical_formula_sum   'As2 C8 N4 F34'
_cell_volume   667.67151286
_cell_formula_units_Z   2
loop_
 _symmetry_equiv_pos_site_id
 _symmetry_equiv_pos_as_xyz
  1  'x, y, z'
loop_
 _atom_site_type_symbol
 _atom_site_label
 _atom_site_symmetry_multiplicity
 _atom_site_fract_x
 _atom_site_fract_y
 _atom_site_fract_z
 _atom_site_occupancy
  As  As0  1  0.25000000  0.71783700  0.73733100  1
  As  As1  1  0.75000000  0.28216300  0.26266900  1
  C  C2  1  0.25000000  0.02891800  0.31039400  1
  C  C3  1  0.75000000  0.97108200  0.68960600  1
  C  C4  1  0.25000000  0.30926500  0.17145700  1
  C  C5  1  0.75000000  0.69073500  0.82854300  1
  C  C6  1  0.25000000  0.54228400  0.26701900  1
  C  C7  1  0.75000000  0.45771600  0.73298100  1
  C  C8  1  0.25000000  0.09409700  0.03816800  1
  C  C9  1  0.75000000  0.90590300  0.96183200  1
  N  N10  1  0.25000000  0.15298400  0.17680400  1
  N  N11  1  0.75000000  0.84701600  0.82319600  1
  N  N12  1  0.25000000  0.37278000  0.28496300  1
  N  N13  1  0.75000000  0.62722000  0.71503700  1
  F  F14  1  0.40772100  0.75025200  0.60918000  1
  F  F15  1  0.90772100  0.24974800  0.39082000  1
  F  F16  1  0.59227900  0.24974800  0.39082000  1
  F  F17  1  0.09227900  0.75025200  0.60918000  1
  F  F18  1  0.09303000  0.67947700  0.86859300  1
  F  F19  1  0.59303000  0.32052300  0.13140700  1
  F  F20  1  0.90697000  0.32052300  0.13140700  1
  F  F21  1  0.40697000  0.67947700  0.86859300  1
  F  F22  1  0.25000000  0.91748800  0.75210500  1
  F  F23  1  0.75000000  0.08251200  0.24789500  1
  F  F24  1  0.25000000  0.50989400  0.73324900  1
  F  F25  1  0.75000000  0.49010600  0.26675100  1
  F  F26  1  0.25000000  0.09243300  0.42322400  1
  F  F27  1  0.75000000  0.90756700  0.57677600  1
  F  F28  1  0.38759800  0.94258600  0.30587900  1
  F  F29  1  0.88759800  0.05741400  0.69412100  1
  F  F30  1  0.61240200  0.05741400  0.69412100  1
  F  F31  1  0.11240200  0.94258600  0.30587900  1
  F  F32  1  0.25000000  0.39217400  0.04465900  1
  F  F33  1  0.75000000  0.60782600  0.95534100  1
  F  F34  1  0.25000000  0.58583200  0.39077100  1
  F  F35  1  0.75000000  0.41416800  0.60922900  1
  F  F36  1  0.38828000  0.60068400  0.19591400  1
  F  F37  1  0.88828000  0.39931600  0.80408600  1
  F  F38  1  0.61172000  0.39931600  0.80408600  1
  F  F39  1  0.11172000  0.60068400  0.19591400  1
  F  F40  1  0.38689700  0.14709300  0.96735100  1
  F  F41  1  0.88689700  0.85290700  0.03264900  1
  F  F42  1  0.61310300  0.85290700  0.03264900  1
  F  F43  1  0.11310300  0.14709300  0.96735100  1
  F  F44  1  0.25000000  0.93801800  0.06382800  1
  F  F45  1  0.75000000  0.06198200  0.93617200  1
  F  F46  1  0.25000000  0.32806300  0.60508400  1
  F  F47  1  0.75000000  0.67193700  0.39491600  1
