# generated using pymatgen
data_K2(TeO4)3
_symmetry_space_group_name_H-M   'P 1'
_cell_length_a   13.42725222
_cell_length_b   11.55866321
_cell_length_c   8.28383537
_cell_angle_alpha   83.42317825
_cell_angle_beta   58.77863976
_cell_angle_gamma   37.79818199
_symmetry_Int_Tables_number   1
_chemical_formula_structural   K2(TeO4)3
_chemical_formula_sum   'K4 Te6 O24'
_cell_volume   556.92558899
_cell_formula_units_Z   2
loop_
 _symmetry_equiv_pos_site_id
 _symmetry_equiv_pos_as_xyz
  1  'x, y, z'
loop_
 _atom_site_type_symbol
 _atom_site_label
 _atom_site_symmetry_multiplicity
 _atom_site_fract_x
 _atom_site_fract_y
 _atom_site_fract_z
 _atom_site_occupancy
  K  K0  1  0.29831000  0.05775600  0.74142000  1
  K  K1  1  0.90251400  0.74142000  0.05775600  1
  K  K2  1  0.50858000  0.34748600  0.95169000  1
  K  K3  1  0.19224400  0.95169000  0.34748600  1
  Te  Te4  1  0.25529900  0.24470100  0.24470100  1
  Te  Te5  1  0.00529900  0.99470100  0.99470100  1
  Te  Te6  1  0.62909700  0.47746800  0.49844900  1
  Te  Te7  1  0.39498600  0.49844900  0.47746800  1
  Te  Te8  1  0.75155100  0.85501400  0.62090300  1
  Te  Te9  1  0.77253200  0.62090300  0.85501400  1
  O  O10  1  0.13903800  0.24132500  0.18429000  1
  O  O11  1  0.43534700  0.18429000  0.24132500  1
  O  O12  1  0.06571000  0.81465300  0.11096200  1
  O  O13  1  0.00867500  0.11096200  0.81465300  1
  O  O14  1  0.73314300  0.37810900  0.64095800  1
  O  O15  1  0.24778900  0.64095800  0.37810900  1
  O  O16  1  0.60904200  0.00221100  0.51685700  1
  O  O17  1  0.87189100  0.51685700  0.00221100  1
  O  O18  1  0.69668000  0.58098200  0.39482600  1
  O  O19  1  0.32751200  0.39482600  0.58098200  1
  O  O20  1  0.85517400  0.92248800  0.55332000  1
  O  O21  1  0.66901800  0.55332000  0.92248800  1
  O  O22  1  0.65883000  0.76652200  0.71213600  1
  O  O23  1  0.86251200  0.71213600  0.76652200  1
  O  O24  1  0.53786400  0.38748800  0.59117000  1
  O  O25  1  0.48347800  0.59117000  0.38748800  1
  O  O26  1  0.31978300  0.78936900  0.79786100  1
  O  O27  1  0.09298800  0.79786100  0.78936900  1
  O  O28  1  0.45213900  0.15701200  0.93021700  1
  O  O29  1  0.46063100  0.93021700  0.15701200  1
  O  O30  1  0.93072600  0.16629800  0.20923100  1
  O  O31  1  0.69374500  0.20923100  0.16629800  1
  O  O32  1  0.04076900  0.55625500  0.31927400  1
  O  O33  1  0.08370200  0.31927400  0.55625500  1
