# generated using pymatgen
data_NaNbO3
_symmetry_space_group_name_H-M   'P 1'
_cell_length_a   7.93582600
_cell_length_b   7.94730500
_cell_length_c   23.77232700
_cell_angle_alpha   90.00000000
_cell_angle_beta   90.00000000
_cell_angle_gamma   90.00000000
_symmetry_Int_Tables_number   1
_chemical_formula_structural   NaNbO3
_chemical_formula_sum   'Na24 Nb24 O72'
_cell_volume   1499.28333299
_cell_formula_units_Z   24
loop_
 _symmetry_equiv_pos_site_id
 _symmetry_equiv_pos_as_xyz
  1  'x, y, z'
loop_
 _atom_site_type_symbol
 _atom_site_label
 _atom_site_symmetry_multiplicity
 _atom_site_fract_x
 _atom_site_fract_y
 _atom_site_fract_z
 _atom_site_occupancy
  Na  Na0  1  0.74872400  0.50000000  0.33063800  1
  Na  Na1  1  0.74872400  0.50000000  0.66936200  1
  Na  Na2  1  0.25127600  0.00000000  0.16936200  1
  Na  Na3  1  0.25127600  0.00000000  0.83063800  1
  Na  Na4  1  0.24896700  0.50000000  0.33305800  1
  Na  Na5  1  0.24896700  0.50000000  0.66694200  1
  Na  Na6  1  0.75103300  0.00000000  0.16694200  1
  Na  Na7  1  0.75103300  0.00000000  0.83305800  1
  Na  Na8  1  0.76865600  0.50000000  0.50000000  1
  Na  Na9  1  0.23134400  0.00000000  0.00000000  1
  Na  Na10  1  0.25043800  0.50000000  0.50000000  1
  Na  Na11  1  0.74956200  0.00000000  0.00000000  1
  Na  Na12  1  0.74654300  0.50000000  0.83457000  1
  Na  Na13  1  0.74654300  0.50000000  0.16543000  1
  Na  Na14  1  0.25345700  0.00000000  0.66543000  1
  Na  Na15  1  0.25345700  0.00000000  0.33457000  1
  Na  Na16  1  0.25351900  0.50000000  0.83234700  1
  Na  Na17  1  0.25351900  0.50000000  0.16765300  1
  Na  Na18  1  0.74648100  0.00000000  0.66765300  1
  Na  Na19  1  0.74648100  0.00000000  0.33234700  1
  Na  Na20  1  0.75929600  0.50000000  0.00000000  1
  Na  Na21  1  0.24070400  0.00000000  0.50000000  1
  Na  Na22  1  0.26993800  0.50000000  0.00000000  1
  Na  Na23  1  0.73006200  0.00000000  0.50000000  1
  Nb  Nb24  1  0.00000000  0.25000000  0.25000000  1
  Nb  Nb25  1  0.00000000  0.75000000  0.25000000  1
  Nb  Nb26  1  0.00000000  0.25000000  0.75000000  1
  Nb  Nb27  1  0.00000000  0.75000000  0.75000000  1
  Nb  Nb28  1  0.50000000  0.25000000  0.25000000  1
  Nb  Nb29  1  0.50000000  0.75000000  0.25000000  1
  Nb  Nb30  1  0.50000000  0.25000000  0.75000000  1
  Nb  Nb31  1  0.50000000  0.75000000  0.75000000  1
  Nb  Nb32  1  0.99884300  0.24975500  0.41657900  1
  Nb  Nb33  1  0.99884300  0.75024500  0.41657900  1
  Nb  Nb34  1  0.99884300  0.24975500  0.58342100  1
  Nb  Nb35  1  0.99884300  0.75024500  0.58342100  1
  Nb  Nb36  1  0.00115700  0.25024500  0.08342100  1
  Nb  Nb37  1  0.00115700  0.74975500  0.08342100  1
  Nb  Nb38  1  0.00115700  0.25024500  0.91657900  1
  Nb  Nb39  1  0.00115700  0.74975500  0.91657900  1
  Nb  Nb40  1  0.49916500  0.25042800  0.41700300  1
  Nb  Nb41  1  0.49916500  0.74957200  0.41700300  1
  Nb  Nb42  1  0.49916500  0.25042800  0.58299700  1
  Nb  Nb43  1  0.49916500  0.74957200  0.58299700  1
  Nb  Nb44  1  0.50083500  0.24957200  0.08299700  1
  Nb  Nb45  1  0.50083500  0.75042800  0.08299700  1
  Nb  Nb46  1  0.50083500  0.24957200  0.91700300  1
  Nb  Nb47  1  0.50083500  0.75042800  0.91700300  1
  O  O48  1  0.74968100  0.28376800  0.23986900  1
  O  O49  1  0.74968100  0.71623200  0.23986900  1
  O  O50  1  0.74968100  0.28376800  0.76013100  1
  O  O51  1  0.74968100  0.71623200  0.76013100  1
  O  O52  1  0.25031900  0.21623200  0.26013100  1
  O  O53  1  0.25031900  0.78376800  0.26013100  1
  O  O54  1  0.25031900  0.21623200  0.73986900  1
  O  O55  1  0.25031900  0.78376800  0.73986900  1
  O  O56  1  0.74932000  0.23032300  0.42791900  1
  O  O57  1  0.74932000  0.76967700  0.42791900  1
  O  O58  1  0.74932000  0.23032300  0.57208100  1
  O  O59  1  0.74932000  0.76967700  0.57208100  1
  O  O60  1  0.25068000  0.26967700  0.07208100  1
  O  O61  1  0.25068000  0.73032300  0.07208100  1
  O  O62  1  0.25068000  0.26967700  0.92791900  1
  O  O63  1  0.25068000  0.73032300  0.92791900  1
  O  O64  1  0.24899700  0.26968100  0.40543100  1
  O  O65  1  0.24899700  0.73031900  0.40543100  1
  O  O66  1  0.24899700  0.26968100  0.59456900  1
  O  O67  1  0.24899700  0.73031900  0.59456900  1
  O  O68  1  0.75100300  0.23031900  0.09456900  1
  O  O69  1  0.75100300  0.76968100  0.09456900  1
  O  O70  1  0.75100300  0.23031900  0.90543100  1
  O  O71  1  0.75100300  0.76968100  0.90543100  1
  O  O72  1  0.96650100  0.22134600  0.33314600  1
  O  O73  1  0.96650100  0.77865400  0.33314600  1
  O  O74  1  0.96650100  0.22134600  0.66685400  1
  O  O75  1  0.96650100  0.77865400  0.66685400  1
  O  O76  1  0.03349900  0.27865400  0.16685400  1
  O  O77  1  0.03349900  0.72134600  0.16685400  1
  O  O78  1  0.03349900  0.27865400  0.83314600  1
  O  O79  1  0.03349900  0.72134600  0.83314600  1
  O  O80  1  0.53035600  0.27872600  0.33319300  1
  O  O81  1  0.53035600  0.72127400  0.33319300  1
  O  O82  1  0.53035600  0.27872600  0.66680700  1
  O  O83  1  0.53035600  0.72127400  0.66680700  1
  O  O84  1  0.46964400  0.22127400  0.16680700  1
  O  O85  1  0.46964400  0.77872600  0.16680700  1
  O  O86  1  0.46964400  0.22127400  0.83319300  1
  O  O87  1  0.46964400  0.77872600  0.83319300  1
  O  O88  1  0.02948300  0.28205900  0.50000000  1
  O  O89  1  0.02948300  0.71794100  0.50000000  1
  O  O90  1  0.97051700  0.21794100  0.00000000  1
  O  O91  1  0.97051700  0.78205900  0.00000000  1
  O  O92  1  0.46339200  0.21912400  0.50000000  1
  O  O93  1  0.46339200  0.78087600  0.50000000  1
  O  O94  1  0.53660800  0.28087600  0.00000000  1
  O  O95  1  0.53660800  0.71912400  0.00000000  1
  O  O96  1  0.03009400  0.50000000  0.26073300  1
  O  O97  1  0.03009400  0.50000000  0.73926700  1
  O  O98  1  0.96990600  0.00000000  0.23926700  1
  O  O99  1  0.96990600  0.00000000  0.76073300  1
  O  O100  1  0.46368600  0.50000000  0.24232100  1
  O  O101  1  0.46368600  0.50000000  0.75767900  1
  O  O102  1  0.53631400  0.00000000  0.25767900  1
  O  O103  1  0.53631400  0.00000000  0.74232100  1
  O  O104  1  0.97589000  0.50000000  0.40751000  1
  O  O105  1  0.97589000  0.50000000  0.59249000  1
  O  O106  1  0.02411000  0.00000000  0.09249000  1
  O  O107  1  0.02411000  0.00000000  0.90751000  1
  O  O108  1  0.51568900  0.50000000  0.42749600  1
  O  O109  1  0.51568900  0.50000000  0.57250400  1
  O  O110  1  0.48431100  0.00000000  0.07250400  1
  O  O111  1  0.48431100  0.00000000  0.92749600  1
  O  O112  1  0.97535300  0.50000000  0.92574400  1
  O  O113  1  0.97535300  0.50000000  0.07425600  1
  O  O114  1  0.02464700  0.00000000  0.57425600  1
  O  O115  1  0.02464700  0.00000000  0.42574400  1
  O  O116  1  0.51385000  0.50000000  0.90575000  1
  O  O117  1  0.51385000  0.50000000  0.09425000  1
  O  O118  1  0.48615000  0.00000000  0.59425000  1
  O  O119  1  0.48615000  0.00000000  0.40575000  1
