# generated using pymatgen
data_Bi2Se3
_symmetry_space_group_name_H-M   'P 1'
_cell_length_a   9.87224500
_cell_length_b   9.87224500
_cell_length_c   13.68539400
_cell_angle_alpha   90.00000000
_cell_angle_beta   90.00000000
_cell_angle_gamma   90.00000000
_symmetry_Int_Tables_number   1
_chemical_formula_structural   Bi2Se3
_chemical_formula_sum   'Bi16 Se24'
_cell_volume   1333.79521376
_cell_formula_units_Z   8
loop_
 _symmetry_equiv_pos_site_id
 _symmetry_equiv_pos_as_xyz
  1  'x, y, z'
loop_
 _atom_site_type_symbol
 _atom_site_label
 _atom_site_symmetry_multiplicity
 _atom_site_fract_x
 _atom_site_fract_y
 _atom_site_fract_z
 _atom_site_occupancy
  Bi  Bi0  1  0.00000000  0.00000000  0.24390500  1
  Bi  Bi1  1  0.50000000  0.50000000  0.74390500  1
  Bi  Bi2  1  0.50000000  0.50000000  0.25609500  1
  Bi  Bi3  1  0.00000000  0.00000000  0.75609500  1
  Bi  Bi4  1  0.00000000  0.50000000  0.27720200  1
  Bi  Bi5  1  0.00000000  0.50000000  0.77720200  1
  Bi  Bi6  1  0.50000000  0.00000000  0.22279800  1
  Bi  Bi7  1  0.50000000  0.00000000  0.72279800  1
  Bi  Bi8  1  0.26308400  0.73691600  0.00000000  1
  Bi  Bi9  1  0.73691600  0.73691600  0.00000000  1
  Bi  Bi10  1  0.26308400  0.26308400  0.00000000  1
  Bi  Bi11  1  0.73691600  0.26308400  0.00000000  1
  Bi  Bi12  1  0.23691600  0.76308400  0.50000000  1
  Bi  Bi13  1  0.76308400  0.76308400  0.50000000  1
  Bi  Bi14  1  0.23691600  0.23691600  0.50000000  1
  Bi  Bi15  1  0.76308400  0.23691600  0.50000000  1
  Se  Se16  1  0.73426900  0.50000000  0.86308100  1
  Se  Se17  1  0.26573100  0.50000000  0.86308100  1
  Se  Se18  1  0.00000000  0.23426900  0.36308100  1
  Se  Se19  1  0.00000000  0.76573100  0.36308100  1
  Se  Se20  1  0.76573100  0.00000000  0.63691900  1
  Se  Se21  1  0.23426900  0.00000000  0.63691900  1
  Se  Se22  1  0.50000000  0.26573100  0.13691900  1
  Se  Se23  1  0.50000000  0.73426900  0.13691900  1
  Se  Se24  1  0.27986600  0.50000000  0.39865700  1
  Se  Se25  1  0.72013400  0.50000000  0.39865700  1
  Se  Se26  1  0.00000000  0.77986600  0.89865700  1
  Se  Se27  1  0.00000000  0.22013400  0.89865700  1
  Se  Se28  1  0.22013400  0.00000000  0.10134300  1
  Se  Se29  1  0.77986600  0.00000000  0.10134300  1
  Se  Se30  1  0.50000000  0.72013400  0.60134300  1
  Se  Se31  1  0.50000000  0.27986600  0.60134300  1
  Se  Se32  1  0.79619000  0.50000000  0.12879100  1
  Se  Se33  1  0.20381000  0.50000000  0.12879100  1
  Se  Se34  1  0.00000000  0.29619000  0.62879100  1
  Se  Se35  1  0.00000000  0.70381000  0.62879100  1
  Se  Se36  1  0.70381000  0.00000000  0.37120900  1
  Se  Se37  1  0.29619000  0.00000000  0.37120900  1
  Se  Se38  1  0.50000000  0.20381000  0.87120900  1
  Se  Se39  1  0.50000000  0.79619000  0.87120900  1
