# generated using pymatgen
data_Sn2PO5
_symmetry_space_group_name_H-M   'P 1'
_cell_length_a   7.72345500
_cell_length_b   6.66355500
_cell_length_c   10.86764976
_cell_angle_alpha   66.05986321
_cell_angle_beta   90.00000000
_cell_angle_gamma   90.00000000
_symmetry_Int_Tables_number   1
_chemical_formula_structural   Sn2PO5
_chemical_formula_sum   'Sn8 P4 O20'
_cell_volume   511.19328975
_cell_formula_units_Z   4
loop_
 _symmetry_equiv_pos_site_id
 _symmetry_equiv_pos_as_xyz
  1  'x, y, z'
loop_
 _atom_site_type_symbol
 _atom_site_label
 _atom_site_symmetry_multiplicity
 _atom_site_fract_x
 _atom_site_fract_y
 _atom_site_fract_z
 _atom_site_occupancy
  Sn  Sn0  1  0.02157700  0.73956000  0.66027300  1
  Sn  Sn1  1  0.47842300  0.73956000  0.16027300  1
  Sn  Sn2  1  0.97842300  0.26044000  0.33972700  1
  Sn  Sn3  1  0.52157700  0.26044000  0.83972700  1
  Sn  Sn4  1  0.45180300  0.24215000  0.51552700  1
  Sn  Sn5  1  0.04819700  0.24215000  0.01552700  1
  Sn  Sn6  1  0.54819700  0.75785000  0.48447300  1
  Sn  Sn7  1  0.95180300  0.75785000  0.98447300  1
  P  P8  1  0.60593800  0.77917300  0.78687300  1
  P  P9  1  0.89406200  0.77917300  0.28687300  1
  P  P10  1  0.39406200  0.22082700  0.21312700  1
  P  P11  1  0.10593800  0.22082700  0.71312700  1
  O  O12  1  0.70046300  0.75870000  0.91759900  1
  O  O13  1  0.79953700  0.75870000  0.41759900  1
  O  O14  1  0.29953700  0.24130000  0.08240100  1
  O  O15  1  0.20046300  0.24130000  0.58240100  1
  O  O16  1  0.01088200  0.99511200  0.76977400  1
  O  O17  1  0.48911800  0.99511200  0.26977400  1
  O  O18  1  0.98911800  0.00488800  0.23022600  1
  O  O19  1  0.51088200  0.00488800  0.73022600  1
  O  O20  1  0.73321500  0.77146900  0.67584800  1
  O  O21  1  0.76678500  0.77146900  0.17584800  1
  O  O22  1  0.26678500  0.22853100  0.32415200  1
  O  O23  1  0.23321500  0.22853100  0.82415200  1
  O  O24  1  0.96923500  0.40162200  0.68179600  1
  O  O25  1  0.53076500  0.40162200  0.18179600  1
  O  O26  1  0.03076500  0.59837800  0.31820400  1
  O  O27  1  0.46923500  0.59837800  0.81820400  1
  O  O28  1  0.53406800  0.42784600  0.62425900  1
  O  O29  1  0.96593200  0.42784600  0.12425900  1
  O  O30  1  0.46593200  0.57215400  0.37574100  1
  O  O31  1  0.03406800  0.57215400  0.87574100  1
