# generated using pymatgen
data_Li2P(H2O3)2
_symmetry_space_group_name_H-M   'P 1'
_cell_length_a   8.00328800
_cell_length_b   5.24913400
_cell_length_c   13.90770548
_cell_angle_alpha   90.00000000
_cell_angle_beta   116.12054743
_cell_angle_gamma   90.00000000
_symmetry_Int_Tables_number   1
_chemical_formula_structural   Li2P(H2O3)2
_chemical_formula_sum   'Li8 P4 H16 O24'
_cell_volume   524.59594428
_cell_formula_units_Z   4
loop_
 _symmetry_equiv_pos_site_id
 _symmetry_equiv_pos_as_xyz
  1  'x, y, z'
loop_
 _atom_site_type_symbol
 _atom_site_label
 _atom_site_symmetry_multiplicity
 _atom_site_fract_x
 _atom_site_fract_y
 _atom_site_fract_z
 _atom_site_occupancy
  Li  Li0  1  0.99087600  0.44162900  0.67595200  1
  Li  Li1  1  0.99087600  0.05837100  0.17595200  1
  Li  Li2  1  0.00912400  0.55837100  0.32404800  1
  Li  Li3  1  0.00912400  0.94162900  0.82404800  1
  Li  Li4  1  0.39456800  0.44886800  0.75432600  1
  Li  Li5  1  0.39456800  0.05113200  0.25432600  1
  Li  Li6  1  0.60543200  0.55113200  0.24567400  1
  Li  Li7  1  0.60543200  0.94886800  0.74567400  1
  P  P8  1  0.82484700  0.45843100  0.84249100  1
  P  P9  1  0.82484700  0.04156900  0.34249100  1
  P  P10  1  0.17515300  0.54156900  0.15750900  1
  P  P11  1  0.17515300  0.95843100  0.65750900  1
  H  H12  1  0.24786100  0.47316300  0.89364600  1
  H  H13  1  0.24786100  0.02683700  0.39364600  1
  H  H14  1  0.75213900  0.52683700  0.10635400  1
  H  H15  1  0.75213900  0.97316300  0.60635400  1
  H  H16  1  0.45634300  0.36045100  0.95481100  1
  H  H17  1  0.45634300  0.13954900  0.45481100  1
  H  H18  1  0.54365700  0.63954900  0.04518900  1
  H  H19  1  0.54365700  0.86045100  0.54518900  1
  H  H20  1  0.21575800  0.92844400  0.02808600  1
  H  H21  1  0.21575800  0.57155600  0.52808600  1
  H  H22  1  0.78424200  0.07155600  0.97191400  1
  H  H23  1  0.78424200  0.42844400  0.47191400  1
  H  H24  1  0.30582800  0.09115300  0.96893000  1
  H  H25  1  0.30582800  0.40884700  0.46893000  1
  H  H26  1  0.69417200  0.90884700  0.03107000  1
  H  H27  1  0.69417200  0.59115300  0.53107000  1
  O  O28  1  0.09686700  0.44565500  0.03100300  1
  O  O29  1  0.09686700  0.05434500  0.53100300  1
  O  O30  1  0.90313300  0.55434500  0.96899700  1
  O  O31  1  0.90313300  0.94565500  0.46899700  1
  O  O32  1  0.81502600  0.16548900  0.84159300  1
  O  O33  1  0.81502600  0.33451100  0.34159300  1
  O  O34  1  0.18497400  0.83451100  0.15840700  1
  O  O35  1  0.18497400  0.66548900  0.65840700  1
  O  O36  1  0.63725100  0.59343400  0.79756600  1
  O  O37  1  0.63725100  0.90656600  0.29756600  1
  O  O38  1  0.36274900  0.40656600  0.20243400  1
  O  O39  1  0.36274900  0.09343400  0.70243400  1
  O  O40  1  0.95992600  0.56214600  0.80123000  1
  O  O41  1  0.95992600  0.93785400  0.30123000  1
  O  O42  1  0.04007400  0.43785400  0.19877000  1
  O  O43  1  0.04007400  0.06214600  0.69877000  1
  O  O44  1  0.36222200  0.42857600  0.88762400  1
  O  O45  1  0.36222200  0.07142400  0.38762400  1
  O  O46  1  0.63777800  0.57142400  0.11237600  1
  O  O47  1  0.63777800  0.92857600  0.61237600  1
  O  O48  1  0.24361600  0.92994700  0.96554000  1
  O  O49  1  0.24361600  0.57005300  0.46554000  1
  O  O50  1  0.75638400  0.07005300  0.03446000  1
  O  O51  1  0.75638400  0.42994700  0.53446000  1
