# generated using pymatgen
data_As2H2CCl4
_symmetry_space_group_name_H-M   'P 1'
_cell_length_a   12.45465653
_cell_length_b   12.45465653
_cell_length_c   11.60986266
_cell_angle_alpha   65.77594479
_cell_angle_beta   65.77594479
_cell_angle_gamma   100.38296296
_symmetry_Int_Tables_number   1
_chemical_formula_structural   As2H2CCl4
_chemical_formula_sum   'As12 H12 C6 Cl24'
_cell_volume   1359.81229960
_cell_formula_units_Z   6
loop_
 _symmetry_equiv_pos_site_id
 _symmetry_equiv_pos_as_xyz
  1  'x, y, z'
loop_
 _atom_site_type_symbol
 _atom_site_label
 _atom_site_symmetry_multiplicity
 _atom_site_fract_x
 _atom_site_fract_y
 _atom_site_fract_z
 _atom_site_occupancy
  As  As0  1  0.98973100  0.72663700  0.89417700  1
  As  As1  1  0.72663700  0.98973100  0.39417700  1
  As  As2  1  0.77951000  0.41898400  0.07791500  1
  As  As3  1  0.41898400  0.77951000  0.57791500  1
  As  As4  1  0.17250100  0.24105100  0.96521400  1
  As  As5  1  0.24105100  0.17250100  0.46521400  1
  As  As6  1  0.48292100  0.44916600  0.77755500  1
  As  As7  1  0.44916600  0.48292100  0.27755500  1
  As  As8  1  0.11802800  0.81733500  0.27769500  1
  As  As9  1  0.81733500  0.11802800  0.77769500  1
  As  As10  1  0.91426200  0.51051200  0.45403100  1
  As  As11  1  0.51051200  0.91426200  0.95403100  1
  H  H12  1  0.00866000  0.51828200  0.02740900  1
  H  H13  1  0.51828200  0.00866000  0.52740900  1
  H  H14  1  0.01800100  0.54507300  0.85801800  1
  H  H15  1  0.54507300  0.01800100  0.35801800  1
  H  H16  1  0.35412900  0.21270700  0.00185700  1
  H  H17  1  0.21270700  0.35412900  0.50185700  1
  H  H18  1  0.37907600  0.21768000  0.83532200  1
  H  H19  1  0.21768000  0.37907600  0.33532200  1
  H  H20  1  0.87957100  0.68753500  0.49714500  1
  H  H21  1  0.68753500  0.87957100  0.99714500  1
  H  H22  1  0.88910300  0.71693600  0.32695100  1
  H  H23  1  0.71693600  0.88910300  0.82695100  1
  C  C24  1  0.96456200  0.54434600  0.96126000  1
  C  C25  1  0.54434600  0.96456200  0.46126000  1
  C  C26  1  0.35474500  0.26464800  0.89849400  1
  C  C27  1  0.26464800  0.35474500  0.39849400  1
  C  C28  1  0.93386900  0.69082600  0.39239800  1
  C  C29  1  0.69082600  0.93386900  0.89239800  1
  Cl  Cl30  1  0.89926800  0.74744100  0.76084300  1
  Cl  Cl31  1  0.74744100  0.89926800  0.26084300  1
  Cl  Cl32  1  0.81984800  0.68267600  0.10628500  1
  Cl  Cl33  1  0.68267600  0.81984800  0.60628500  1
  Cl  Cl34  1  0.74969800  0.33241300  0.30419500  1
  Cl  Cl35  1  0.33241300  0.74969800  0.80419500  1
  Cl  Cl36  1  0.81619800  0.26420300  0.03772800  1
  Cl  Cl37  1  0.26420300  0.81619800  0.53772800  1
  Cl  Cl38  1  0.21546000  0.41116400  0.75452900  1
  Cl  Cl39  1  0.41116400  0.21546000  0.25452900  1
  Cl  Cl40  1  0.15079200  0.33135700  0.09913900  1
  Cl  Cl41  1  0.33135700  0.15079200  0.59913900  1
  Cl  Cl42  1  0.63900000  0.41232700  0.81427800  1
  Cl  Cl43  1  0.41232700  0.63900000  0.31427800  1
  Cl  Cl44  1  0.56597000  0.47554300  0.55300900  1
  Cl  Cl45  1  0.47554300  0.56597000  0.05300900  1
  Cl  Cl46  1  0.07806100  0.97000400  0.32014500  1
  Cl  Cl47  1  0.97000400  0.07806100  0.82014500  1
  Cl  Cl48  1  0.15143400  0.90594200  0.04917600  1
  Cl  Cl49  1  0.90594200  0.15143400  0.54917600  1
  Cl  Cl50  1  0.08519700  0.56096700  0.23911000  1
  Cl  Cl51  1  0.56096700  0.08519700  0.73911000  1
  Cl  Cl52  1  0.00824600  0.49218300  0.58396100  1
  Cl  Cl53  1  0.49218300  0.00824600  0.08396100  1
