# generated using pymatgen
data_Nb5H50C12(NO7)3
_symmetry_space_group_name_H-M   'P 1'
_cell_length_a   11.16811700
_cell_length_b   12.37556458
_cell_length_c   13.53271399
_cell_angle_alpha   85.86872508
_cell_angle_beta   68.43723166
_cell_angle_gamma   87.20808150
_symmetry_Int_Tables_number   1
_chemical_formula_structural   Nb5H50C12(NO7)3
_chemical_formula_sum   'Nb10 H100 C24 N6 O42'
_cell_volume   1734.46427387
_cell_formula_units_Z   2
loop_
 _symmetry_equiv_pos_site_id
 _symmetry_equiv_pos_as_xyz
  1  'x, y, z'
loop_
 _atom_site_type_symbol
 _atom_site_label
 _atom_site_symmetry_multiplicity
 _atom_site_fract_x
 _atom_site_fract_y
 _atom_site_fract_z
 _atom_site_occupancy
  Nb  Nb0  1  0.64467600  0.46540900  0.01748200  1
  Nb  Nb1  1  0.35532400  0.53459100  0.98251800  1
  Nb  Nb2  1  0.52190500  0.72678900  0.04604500  1
  Nb  Nb3  1  0.47809500  0.27321100  0.95395500  1
  Nb  Nb4  1  0.64801600  0.63127300  0.80222400  1
  Nb  Nb5  1  0.35198400  0.36872700  0.19777600  1
  Nb  Nb6  1  0.52050100  0.55850100  0.26134500  1
  Nb  Nb7  1  0.47949900  0.44149900  0.73865500  1
  Nb  Nb8  1  0.76370500  0.36964900  0.77443500  1
  Nb  Nb9  1  0.23629500  0.63035100  0.22556500  1
  H  H10  1  0.98651300  0.04863300  0.31214900  1
  H  H11  1  0.01348700  0.95136700  0.68785100  1
  H  H12  1  0.90343600  0.95116100  0.38865500  1
  H  H13  1  0.09656400  0.04883900  0.61134500  1
  H  H14  1  0.71018000  0.11562600  0.25324900  1
  H  H15  1  0.28982000  0.88437400  0.74675100  1
  H  H16  1  0.77739400  0.06411300  0.33290100  1
  H  H17  1  0.22260600  0.93588700  0.66709900  1
  H  H18  1  0.71679800  0.12854000  0.06634600  1
  H  H19  1  0.28320200  0.87146000  0.93365400  1
  H  H20  1  0.65398100  0.23102800  0.12654100  1
  H  H21  1  0.34601900  0.76897200  0.87345900  1
  H  H22  1  0.60166300  0.67245800  0.57464700  1
  H  H23  1  0.39833700  0.32754200  0.42535300  1
  H  H24  1  0.61002000  0.65824800  0.45750800  1
  H  H25  1  0.38998000  0.34175200  0.54249200  1
  H  H26  1  0.17475200  0.05593500  0.15712700  1
  H  H27  1  0.82524800  0.94406500  0.84287300  1
  H  H28  1  0.17278900  0.15261800  0.22856200  1
  H  H29  1  0.82721100  0.84738200  0.77143800  1
  H  H30  1  0.34239100  0.01480200  0.03157700  1
  H  H31  1  0.65760900  0.98519800  0.96842300  1
  H  H32  1  0.29963700  0.89693400  0.08924700  1
  H  H33  1  0.70036300  0.10306600  0.91075300  1
  H  H34  1  0.94132900  0.76057300  0.38543400  1
  H  H35  1  0.05867100  0.23942700  0.61456600  1
  H  H36  1  0.78790400  0.77274200  0.44770900  1
  H  H37  1  0.21209600  0.22725800  0.55229100  1
  H  H38  1  0.31925200  0.12602000  0.38261100  1
  H  H39  1  0.68074800  0.87398000  0.61738900  1
  H  H40  1  0.32724900  0.04138000  0.49419700  1
  H  H41  1  0.67275100  0.95862000  0.50580300  1
  H  H42  1  0.47258900  0.09408700  0.39504900  1
  H  H43  1  0.52741100  0.90591300  0.60495100  1
  H  H44  1  0.39806800  0.05913100  0.20783100  1
  H  H45  1  0.60193200  0.94086900  0.79216900  1
  H  H46  1  0.55075900  0.02835200  0.21890600  1
  H  H47  1  0.44924100  0.97164800  0.78109400  1
  H  H48  1  0.46702000  0.92412100  0.18641400  1
  H  H49  1  0.53298000  0.07587900  0.81358600  1
  H  H50  1  0.21016300  0.90779400  0.45366200  1
  H  H51  1  0.78983700  0.09220600  0.54633800  1
  H  H52  1  0.20611400  0.98274400  0.33685800  1
  H  H53  1  0.79388600  0.01725600  0.66314200  1
  H  H54  1  0.27365100  0.84734200  0.32597100  1
  H  H55  1  0.72634900  0.15265800  0.67402900  1
  H  H56  1  0.56626600  0.91509800  0.36433200  1
  H  H57  1  0.43373400  0.08490200  0.63566800  1
  H  H58  1  0.42486000  0.86509500  0.46892900  1
  H  H59  1  0.57514000  0.13490500  0.53107100  1
  H  H60  1  0.47751600  0.80848700  0.34010000  1
  H  H61  1  0.52248400  0.19151300  0.65990000  1
  H  H62  1  0.66506800  0.39302200  0.40217000  1
  H  H63  1  0.33493200  0.60697800  0.59783000  1
  H  H64  1  0.72865300  0.25586300  0.39569000  1
  H  H65  1  0.27134700  0.74413700  0.60431000  1
  H  H66  1  0.69619500  0.33012700  0.51401000  1
  H  H67  1  0.30380500  0.66987300  0.48599000  1
  H  H68  1  0.95143200  0.22403300  0.39379100  1
  H  H69  1  0.04856800  0.77596700  0.60620900  1
  H  H70  1  0.04704800  0.33867300  0.38837600  1
  H  H71  1  0.95295200  0.66132700  0.61162400  1
  H  H72  1  0.91333200  0.30279800  0.50846300  1
  H  H73  1  0.08666800  0.69720200  0.49153700  1
  H  H74  1  0.82276500  0.48501400  0.50720200  1
  H  H75  1  0.17723500  0.51498600  0.49279800  1
  H  H76  1  0.95856600  0.52046000  0.38758100  1
  H  H77  1  0.04143400  0.47954000  0.61241900  1
  H  H78  1  0.79591200  0.54159800  0.39155900  1
  H  H79  1  0.20408800  0.45840200  0.60844100  1
  H  H80  1  0.84406400  0.43308300  0.23652300  1
  H  H81  1  0.15593600  0.56691700  0.76347700  1
  H  H82  1  0.00790700  0.41581200  0.23272600  1
  H  H83  1  0.99209300  0.58418800  0.76727400  1
  H  H84  1  0.91390200  0.29981800  0.23861200  1
  H  H85  1  0.08609800  0.70018200  0.76138800  1
  H  H86  1  0.02983100  0.36516200  0.85153700  1
  H  H87  1  0.97016900  0.63483800  0.14846300  1
  H  H88  1  0.19905700  0.35136500  0.83168900  1
  H  H89  1  0.80094300  0.64863500  0.16831100  1
  H  H90  1  0.13733300  0.29104300  0.74316400  1
  H  H91  1  0.86266700  0.70895700  0.25683600  1
  H  H92  1  0.28726900  0.17192100  0.86249600  1
  H  H93  1  0.71273100  0.82807900  0.13750400  1
  H  H94  1  0.18019100  0.06005000  0.91260100  1
  H  H95  1  0.81980900  0.93995000  0.08739900  1
  H  H96  1  0.21835500  0.11334000  0.77783800  1
  H  H97  1  0.78164500  0.88666000  0.22216200  1
  H  H98  1  0.95523700  0.08488400  0.94424900  1
  H  H99  1  0.04476300  0.91511600  0.05575100  1
  H  H100  1  0.89106700  0.21560900  0.92116100  1
  H  H101  1  0.10893300  0.78439100  0.07883900  1
  H  H102  1  0.99147100  0.14055000  0.81024700  1
  H  H103  1  0.00852900  0.85945000  0.18975300  1
  H  H104  1  0.14885100  0.28493700  0.00666900  1
  H  H105  1  0.85114900  0.71506300  0.99333100  1
  H  H106  1  0.97762000  0.29051700  0.03422400  1
  H  H107  1  0.02238000  0.70948300  0.96577600  1
  H  H108  1  0.05500100  0.16671300  0.05945800  1
  H  H109  1  0.94499900  0.83328700  0.94054200  1
  C  C110  1  0.37621200  0.06485900  0.40984300  1
  C  C111  1  0.62378800  0.93514100  0.59015700  1
  C  C112  1  0.45632800  0.99622700  0.23151000  1
  C  C113  1  0.54367200  0.00377300  0.76849000  1
  C  C114  1  0.26053000  0.92221100  0.36766200  1
  C  C115  1  0.73947000  0.07778900  0.63233800  1
  C  C116  1  0.47083100  0.88177800  0.38284000  1
  C  C117  1  0.52916900  0.11822200  0.61716000  1
  C  C118  1  0.72784400  0.33542600  0.42696200  1
  C  C119  1  0.27215600  0.66457400  0.57303800  1
  C  C120  1  0.95017400  0.30534300  0.42127200  1
  C  C121  1  0.04982600  0.69465700  0.57872800  1
  C  C122  1  0.86037000  0.48986100  0.41997700  1
  C  C123  1  0.13963000  0.51013900  0.58002300  1
  C  C124  1  0.91088400  0.38254000  0.26349300  1
  C  C125  1  0.08911600  0.61746000  0.73650700  1
  C  C126  1  0.11650300  0.31287200  0.82486000  1
  C  C127  1  0.88349700  0.68712800  0.17514000  1
  C  C128  1  0.20266700  0.13331200  0.85931000  1
  C  C129  1  0.79733300  0.86668800  0.14069000  1
  C  C130  1  0.97320900  0.15904900  0.89249000  1
  C  C131  1  0.02679100  0.84095100  0.10751000  1
  C  C132  1  0.06603500  0.24038800  0.00733800  1
  C  C133  1  0.93396500  0.75961200  0.99266200  1
  N  N134  1  0.39081700  0.96591900  0.34785100  1
  N  N135  1  0.60918300  0.03408100  0.65214900  1
  N  N136  1  0.86236100  0.37804500  0.38288700  1
  N  N137  1  0.13763900  0.62195500  0.61711300  1
  N  N138  1  0.08980900  0.21103500  0.89593200  1
  N  N139  1  0.91019100  0.78896500  0.10406800  1
  O  O140  1  0.53767900  0.32781400  0.07699600  1
  O  O141  1  0.46232100  0.67218600  0.92300400  1
  O  O142  1  0.91294400  0.31010000  0.69216200  1
  O  O143  1  0.08705600  0.68990000  0.30783800  1
  O  O144  1  0.71603100  0.76050200  0.75010400  1
  O  O145  1  0.28396900  0.23949800  0.24989600  1
  O  O146  1  0.58159400  0.85919700  0.99616800  1
  O  O147  1  0.41840600  0.14080300  0.00383200  1
  O  O148  1  0.58127400  0.57361400  0.36436500  1
  O  O149  1  0.41872600  0.42638600  0.63563500  1
  O  O150  1  0.78915800  0.39923300  0.91815000  1
  O  O151  1  0.21084200  0.60076700  0.08185000  1
  O  O152  1  0.67625200  0.48673500  0.14178300  1
  O  O153  1  0.32374800  0.51326500  0.85821700  1
  O  O154  1  0.79158500  0.52982100  0.74470400  1
  O  O155  1  0.20841500  0.47017900  0.25529600  1
  O  O156  1  0.34153600  0.75617300  0.13477600  1
  O  O157  1  0.65846400  0.24382700  0.86522400  1
  O  O158  1  0.34370600  0.62365600  0.31322300  1
  O  O159  1  0.65629400  0.37634400  0.68677700  1
  O  O160  1  0.55673100  0.59033800  0.71212500  1
  O  O161  1  0.44326900  0.40966200  0.28787500  1
  O  O162  1  0.57724200  0.69449700  0.16528900  1
  O  O163  1  0.42275800  0.30550300  0.83471100  1
  O  O164  1  0.67454100  0.62010600  0.95276600  1
  O  O165  1  0.32545900  0.37989400  0.04723400  1
  O  O166  1  0.44844200  0.53983100  0.10053800  1
  O  O167  1  0.55155800  0.46016900  0.89946200  1
  O  O168  1  0.90463300  0.03070800  0.37206400  1
  O  O169  1  0.09536700  0.96929200  0.62793600  1
  O  O170  1  0.69291000  0.08504400  0.32648800  1
  O  O171  1  0.30709000  0.91495600  0.67351200  1
  O  O172  1  0.71863200  0.17305500  0.12336500  1
  O  O173  1  0.28136800  0.82694500  0.87663500  1
  O  O174  1  0.63095700  0.70823800  0.50256200  1
  O  O175  1  0.36904300  0.29176200  0.49743800  1
  O  O176  1  0.11659800  0.10291100  0.21165100  1
  O  O177  1  0.88340200  0.89708900  0.78834900  1
  O  O178  1  0.27276900  0.96046800  0.05292200  1
  O  O179  1  0.72723100  0.03953200  0.94707800  1
  O  O180  1  0.86939600  0.81272500  0.41574800  1
  O  O181  1  0.13060400  0.18727500  0.58425200  1
