# generated using pymatgen
data_CaH12S2O9
_symmetry_space_group_name_H-M   'P 1'
_cell_length_a   5.81551600
_cell_length_b   7.48518173
_cell_length_c   11.35611702
_cell_angle_alpha   72.09468503
_cell_angle_beta   81.99080362
_cell_angle_gamma   86.87793569
_symmetry_Int_Tables_number   1
_chemical_formula_structural   CaH12S2O9
_chemical_formula_sum   'Ca2 H24 S4 O18'
_cell_volume   465.76756273
_cell_formula_units_Z   2
loop_
 _symmetry_equiv_pos_site_id
 _symmetry_equiv_pos_as_xyz
  1  'x, y, z'
loop_
 _atom_site_type_symbol
 _atom_site_label
 _atom_site_symmetry_multiplicity
 _atom_site_fract_x
 _atom_site_fract_y
 _atom_site_fract_z
 _atom_site_occupancy
  Ca  Ca0  1  0.41465200  0.10778000  0.73476500  1
  Ca  Ca1  1  0.58534800  0.89222000  0.26523500  1
  H  H2  1  0.41428300  0.16842600  0.45474400  1
  H  H3  1  0.58571700  0.83157400  0.54525600  1
  H  H4  1  0.66465600  0.21736900  0.47287100  1
  H  H5  1  0.33534400  0.78263100  0.52712900  1
  H  H6  1  0.68367400  0.15581000  0.93367900  1
  H  H7  1  0.31632600  0.84419000  0.06632100  1
  H  H8  1  0.85934100  0.15200500  0.81549400  1
  H  H9  1  0.14065900  0.84799500  0.18450600  1
  H  H10  1  0.06178400  0.43518000  0.64477900  1
  H  H11  1  0.93821600  0.56482000  0.35522100  1
  H  H12  1  0.03636400  0.27488300  0.58597700  1
  H  H13  1  0.96363600  0.72511700  0.41402300  1
  H  H14  1  0.64181600  0.46466500  0.74034500  1
  H  H15  1  0.35818400  0.53533500  0.25965500  1
  H  H16  1  0.53074700  0.53275500  0.61536800  1
  H  H17  1  0.46925300  0.46724500  0.38463200  1
  H  H18  1  0.24505000  0.72633400  0.89522300  1
  H  H19  1  0.75495000  0.27366600  0.10477700  1
  H  H20  1  0.51749400  0.72671300  0.89828300  1
  H  H21  1  0.48250600  0.27328700  0.10171700  1
  H  H22  1  0.14503200  0.31520800  0.89659300  1
  H  H23  1  0.85496800  0.68479200  0.10340700  1
  H  H24  1  0.20423300  0.12188800  0.99648300  1
  H  H25  1  0.79576700  0.87811200  0.00351700  1
  S  S26  1  0.88534500  0.60598500  0.85259800  1
  S  S27  1  0.11465500  0.39401500  0.14740200  1
  S  S28  1  0.95039600  0.80013100  0.68200300  1
  S  S29  1  0.04960400  0.19986900  0.31799700  1
  O  O30  1  0.14162400  0.92175400  0.68288900  1
  O  O31  1  0.85837600  0.07824600  0.31711100  1
  O  O32  1  0.02023100  0.70037900  0.58710100  1
  O  O33  1  0.97976900  0.29962100  0.41289900  1
  O  O34  1  0.73262100  0.91184100  0.65415500  1
  O  O35  1  0.26737900  0.08815900  0.34584500  1
  O  O36  1  0.49752000  0.23259400  0.50001900  1
  O  O37  1  0.50248000  0.76740600  0.49998100  1
  O  O38  1  0.71928600  0.09089900  0.86923400  1
  O  O39  1  0.28071400  0.90910100  0.13076600  1
  O  O40  1  0.06943700  0.29755000  0.66277800  1
  O  O41  1  0.93056300  0.70245000  0.33722200  1
  O  O42  1  0.54039300  0.42473800  0.69116400  1
  O  O43  1  0.45960700  0.57526200  0.30883600  1
  O  O44  1  0.37081700  0.79624700  0.91115700  1
  O  O45  1  0.62918300  0.20375300  0.08884300  1
  O  O46  1  0.19527300  0.18455800  0.90724100  1
  O  O47  1  0.80472700  0.81544200  0.09275900  1
