# generated using pymatgen
data_TlH6C3S3(O4F3)3
_symmetry_space_group_name_H-M   'P 1'
_cell_length_a   12.46988783
_cell_length_b   12.46988783
_cell_length_c   14.47433455
_cell_angle_alpha   69.25408910
_cell_angle_beta   69.25408910
_cell_angle_gamma   67.03411817
_symmetry_Int_Tables_number   1
_chemical_formula_structural   TlH6C3S3(O4F3)3
_chemical_formula_sum   'Tl4 H24 C12 S12 O48 F36'
_cell_volume   1875.98694081
_cell_formula_units_Z   4
loop_
 _symmetry_equiv_pos_site_id
 _symmetry_equiv_pos_as_xyz
  1  'x, y, z'
loop_
 _atom_site_type_symbol
 _atom_site_label
 _atom_site_symmetry_multiplicity
 _atom_site_fract_x
 _atom_site_fract_y
 _atom_site_fract_z
 _atom_site_occupancy
  Tl  Tl0  1  0.78683300  0.84304800  0.32926100  1
  Tl  Tl1  1  0.15695200  0.21316700  0.17073900  1
  Tl  Tl2  1  0.21316700  0.15695200  0.67073900  1
  Tl  Tl3  1  0.84304800  0.78683300  0.82926100  1
  H  H4  1  0.95298100  0.84777300  0.12915900  1
  H  H5  1  0.15222700  0.04701900  0.37084100  1
  H  H6  1  0.04701900  0.15222700  0.87084100  1
  H  H7  1  0.84777300  0.95298100  0.62915900  1
  H  H8  1  0.00249600  0.90266200  0.18475000  1
  H  H9  1  0.09733800  0.99750400  0.31525000  1
  H  H10  1  0.99750400  0.09733800  0.81525000  1
  H  H11  1  0.90266200  0.00249600  0.68475000  1
  H  H12  1  0.66887200  0.77044800  0.53773800  1
  H  H13  1  0.22955200  0.33112800  0.96226200  1
  H  H14  1  0.33112800  0.22955200  0.46226200  1
  H  H15  1  0.77044800  0.66887200  0.03773800  1
  H  H16  1  0.56198600  0.84733500  0.47964400  1
  H  H17  1  0.15266500  0.43801400  0.02035600  1
  H  H18  1  0.43801400  0.15266500  0.52035600  1
  H  H19  1  0.84733500  0.56198600  0.97964400  1
  H  H20  1  0.59163600  0.02805700  0.26083600  1
  H  H21  1  0.97194300  0.40836400  0.23916400  1
  H  H22  1  0.40836400  0.97194300  0.73916400  1
  H  H23  1  0.02805700  0.59163600  0.76083600  1
  H  H24  1  0.67648300  0.97211100  0.16688900  1
  H  H25  1  0.02788900  0.32351700  0.33311100  1
  H  H26  1  0.32351700  0.02788900  0.83311100  1
  H  H27  1  0.97211100  0.67648300  0.66688900  1
  C  C28  1  0.61704900  0.60743600  0.32878500  1
  C  C29  1  0.39256400  0.38295100  0.17121500  1
  C  C30  1  0.38295100  0.39256400  0.67121500  1
  C  C31  1  0.60743600  0.61704900  0.82878500  1
  C  C32  1  0.71291600  0.21368200  0.41929000  1
  C  C33  1  0.78631800  0.28708400  0.08071000  1
  C  C34  1  0.28708400  0.78631800  0.58071000  1
  C  C35  1  0.21368200  0.71291600  0.91929000  1
  C  C36  1  0.14586900  0.62046600  0.38254400  1
  C  C37  1  0.37953400  0.85413100  0.11745600  1
  C  C38  1  0.85413100  0.37953400  0.61745600  1
  C  C39  1  0.62046600  0.14586900  0.88254400  1
  S  S40  1  0.76420700  0.62400300  0.23818100  1
  S  S41  1  0.37599700  0.23579300  0.26181900  1
  S  S42  1  0.23579300  0.37599700  0.76181900  1
  S  S43  1  0.62400300  0.76420700  0.73818100  1
  S  S44  1  0.71068500  0.05364400  0.46630600  1
  S  S45  1  0.94635600  0.28931500  0.03369400  1
  S  S46  1  0.28931500  0.94635600  0.53369400  1
  S  S47  1  0.05364400  0.71068500  0.96630600  1
  S  S48  1  0.02416500  0.74800400  0.43325000  1
  S  S49  1  0.25199600  0.97583500  0.06675000  1
  S  S50  1  0.97583500  0.25199600  0.56675000  1
  S  S51  1  0.74800400  0.02416500  0.93325000  1
  O  O52  1  0.92978500  0.88919500  0.18422900  1
  O  O53  1  0.11080500  0.07021500  0.31577100  1
  O  O54  1  0.07021500  0.11080500  0.81577100  1
  O  O55  1  0.88919500  0.92978500  0.68422900  1
  O  O56  1  0.64481800  0.79002300  0.47309900  1
  O  O57  1  0.20997700  0.35518200  0.02690100  1
  O  O58  1  0.35518200  0.20997700  0.52690100  1
  O  O59  1  0.79002300  0.64481800  0.97309900  1
  O  O60  1  0.64358400  0.95020300  0.24230200  1
  O  O61  1  0.04979700  0.35641600  0.25769800  1
  O  O62  1  0.35641600  0.04979700  0.75769800  1
  O  O63  1  0.95020300  0.64358400  0.74230200  1
  O  O64  1  0.83478500  0.50293400  0.22678100  1
  O  O65  1  0.49706600  0.16521500  0.27321900  1
  O  O66  1  0.16521500  0.49706600  0.77321900  1
  O  O67  1  0.50293400  0.83478500  0.72678100  1
  O  O68  1  0.73227500  0.71255300  0.14701600  1
  O  O69  1  0.28744700  0.26772500  0.35298400  1
  O  O70  1  0.26772500  0.28744700  0.85298400  1
  O  O71  1  0.71255300  0.73227500  0.64701600  1
  O  O72  1  0.81452900  0.66579600  0.29378700  1
  O  O73  1  0.33420400  0.18547100  0.20621300  1
  O  O74  1  0.18547100  0.33420400  0.70621300  1
  O  O75  1  0.66579600  0.81452900  0.79378700  1
  O  O76  1  0.74585800  0.02184800  0.36727100  1
  O  O77  1  0.97815200  0.25414300  0.13272900  1
  O  O78  1  0.25414300  0.97815200  0.63272900  1
  O  O79  1  0.02184800  0.74585700  0.86727100  1
  O  O80  1  0.80228200  0.98866200  0.52335200  1
  O  O81  1  0.01133800  0.19771800  0.97664800  1
  O  O82  1  0.19771800  0.01133800  0.47664800  1
  O  O83  1  0.98866200  0.80228200  0.02335200  1
  O  O84  1  0.58786500  0.05792200  0.52420600  1
  O  O85  1  0.94207800  0.41213500  0.97579400  1
  O  O86  1  0.41213500  0.94207800  0.47579400  1
  O  O87  1  0.05792200  0.58786500  0.02420600  1
  O  O88  1  0.91343100  0.72867600  0.43067300  1
  O  O89  1  0.27132400  0.08656900  0.06932700  1
  O  O90  1  0.08656900  0.27132400  0.56932700  1
  O  O91  1  0.72867600  0.91343100  0.93067300  1
  O  O92  1  0.04689000  0.85681900  0.36086300  1
  O  O93  1  0.14318100  0.95311000  0.13913700  1
  O  O94  1  0.95311000  0.14318100  0.63913700  1
  O  O95  1  0.85681900  0.04689000  0.86086300  1
  O  O96  1  0.03065300  0.72439300  0.53666500  1
  O  O97  1  0.27560700  0.96934700  0.96333500  1
  O  O98  1  0.96934700  0.27560700  0.46333500  1
  O  O99  1  0.72439300  0.03065300  0.03666500  1
  F  F100  1  0.54337000  0.71486700  0.34660600  1
  F  F101  1  0.28513300  0.45663000  0.15339400  1
  F  F102  1  0.45663000  0.28513300  0.65339400  1
  F  F103  1  0.71486700  0.54337000  0.84660600  1
  F  F104  1  0.56376000  0.56661900  0.28738200  1
  F  F105  1  0.43338100  0.43624000  0.21261800  1
  F  F106  1  0.43624000  0.43338100  0.71261800  1
  F  F107  1  0.56661900  0.56376000  0.78738200  1
  F  F108  1  0.63577100  0.52858700  0.41789500  1
  F  F109  1  0.47141300  0.36422900  0.08210500  1
  F  F110  1  0.36422900  0.47141300  0.58210500  1
  F  F111  1  0.52858700  0.63577100  0.91789500  1
  F  F112  1  0.81845700  0.22202400  0.35256200  1
  F  F113  1  0.77797600  0.18154300  0.14743800  1
  F  F114  1  0.18154300  0.77797600  0.64743800  1
  F  F115  1  0.22202400  0.81845700  0.85256200  1
  F  F116  1  0.69733300  0.25319600  0.50012900  1
  F  F117  1  0.74680400  0.30266700  0.99987100  1
  F  F118  1  0.30266700  0.74680400  0.49987100  1
  F  F119  1  0.25319600  0.69733300  0.00012900  1
  F  F120  1  0.62243000  0.28250300  0.37344300  1
  F  F121  1  0.71749700  0.37757000  0.12655700  1
  F  F122  1  0.37757000  0.71749700  0.62655700  1
  F  F123  1  0.28250300  0.62243000  0.87344300  1
  F  F124  1  0.13955500  0.62896800  0.28867800  1
  F  F125  1  0.37103200  0.86044500  0.21132200  1
  F  F126  1  0.86044500  0.37103200  0.71132200  1
  F  F127  1  0.62896800  0.13955500  0.78867800  1
  F  F128  1  0.25450500  0.62607200  0.37519200  1
  F  F129  1  0.37392800  0.74549500  0.12480800  1
  F  F130  1  0.74549500  0.37392800  0.62480800  1
  F  F131  1  0.62607200  0.25450500  0.87519200  1
  F  F132  1  0.13341300  0.51400900  0.44476300  1
  F  F133  1  0.48599100  0.86658700  0.05523700  1
  F  F134  1  0.86658700  0.48599100  0.55523700  1
  F  F135  1  0.51400900  0.13341300  0.94476300  1
