# generated using pymatgen
data_GaSi6BiH54C18(NCl)4
_symmetry_space_group_name_H-M   'P 1'
_cell_length_a   9.79000700
_cell_length_b   10.19585712
_cell_length_c   12.79495422
_cell_angle_alpha   71.71785379
_cell_angle_beta   68.45683359
_cell_angle_gamma   87.49833527
_symmetry_Int_Tables_number   1
_chemical_formula_structural   GaSi6BiH54C18(NCl)4
_chemical_formula_sum   'Ga1 Si6 Bi1 H54 C18 N4 Cl4'
_cell_volume   1124.26953524
_cell_formula_units_Z   1
loop_
 _symmetry_equiv_pos_site_id
 _symmetry_equiv_pos_as_xyz
  1  'x, y, z'
loop_
 _atom_site_type_symbol
 _atom_site_label
 _atom_site_symmetry_multiplicity
 _atom_site_fract_x
 _atom_site_fract_y
 _atom_site_fract_z
 _atom_site_occupancy
  Ga  Ga0  1  0.99199300  0.68885900  0.21888400  1
  Si  Si1  1  0.55931000  0.22511500  0.87003700  1
  Si  Si2  1  0.35410400  0.55911700  0.81458700  1
  Si  Si3  1  0.65154200  0.61163000  0.85094500  1
  Si  Si4  1  0.54980900  0.08728200  0.27394500  1
  Si  Si5  1  0.27999100  0.28889900  0.46820000  1
  Si  Si6  1  0.11562600  0.07653200  0.40741800  1
  Bi  Bi7  1  0.37039000  0.35283000  0.12174500  1
  H  H8  1  0.39344300  0.03037400  0.04165600  1
  H  H9  1  0.44867900  0.99575500  0.90617900  1
  H  H10  1  0.30641000  0.10725000  0.93994700  1
  H  H11  1  0.83051700  0.22870800  0.83128100  1
  H  H12  1  0.75423600  0.06797100  0.84168800  1
  H  H13  1  0.73013300  0.10606400  0.97237400  1
  H  H14  1  0.48835400  0.32502900  0.69399300  1
  H  H15  1  0.63365300  0.21477400  0.66814000  1
  H  H16  1  0.67163500  0.38623400  0.66255200  1
  H  H17  1  0.25331300  0.31318900  0.86969100  1
  H  H18  1  0.13245700  0.43843200  0.83262600  1
  H  H19  1  0.14448600  0.39510900  0.97384600  1
  H  H20  1  0.48963000  0.71347100  0.60624900  1
  H  H21  1  0.31988300  0.63749700  0.62442400  1
  H  H22  1  0.47694700  0.53973400  0.60860600  1
  H  H23  1  0.27038600  0.71033600  0.94598800  1
  H  H24  1  0.14843400  0.70125300  0.87521600  1
  H  H25  1  0.31431500  0.80978600  0.79407900  1
  H  H26  1  0.84327600  0.44077200  0.84131700  1
  H  H27  1  0.92028400  0.61496700  0.77132900  1
  H  H28  1  0.84724700  0.53473000  0.69610800  1
  H  H29  1  0.65597700  0.78862600  0.66149300  1
  H  H30  1  0.75219200  0.84885600  0.73282900  1
  H  H31  1  0.55703100  0.84556200  0.78553000  1
  H  H32  1  0.54241000  0.67385900  0.03835000  1
  H  H33  1  0.73785500  0.69640800  0.97837000  1
  H  H34  1  0.65192400  0.52900800  0.05860700  1
  H  H35  1  0.42848300  0.86362300  0.29775100  1
  H  H36  1  0.62440900  0.86806800  0.23734500  1
  H  H37  1  0.52749400  0.95392000  0.14557900  1
  H  H38  1  0.70957100  0.25134600  0.07558100  1
  H  H39  1  0.81177100  0.13354900  0.14588200  1
  H  H40  1  0.74641400  0.27918000  0.19363300  1
  H  H41  1  0.58493700  0.11870400  0.44874000  1
  H  H42  1  0.65635700  0.96484200  0.41897300  1
  H  H43  1  0.46346000  0.96868900  0.49192300  1
  H  H44  1  0.55496400  0.34174700  0.36330600  1
  H  H45  1  0.47315700  0.44434900  0.45578300  1
  H  H46  1  0.45728000  0.48549600  0.31604500  1
  H  H47  1  0.16119400  0.10157700  0.66283800  1
  H  H48  1  0.26242500  0.23179800  0.67496900  1
  H  H49  1  0.35658800  0.10291900  0.61567100  1
  H  H50  1  0.09877600  0.45739500  0.41897100  1
  H  H51  1  0.16448800  0.48841000  0.52124800  1
  H  H52  1  0.02619300  0.35208100  0.57093100  1
  H  H53  1  0.07453500  0.18246500  0.21767300  1
  H  H54  1  0.99633400  0.00959100  0.29183300  1
  H  H55  1  0.18738200  0.03874400  0.20962300  1
  H  H56  1  0.24238200  0.85700100  0.44312200  1
  H  H57  1  0.04829900  0.82499400  0.50348400  1
  H  H58  1  0.13867100  0.88834000  0.57876700  1
  H  H59  1  0.94280400  0.12903800  0.58874300  1
  H  H60  1  0.85169300  0.05740500  0.51994900  1
  H  H61  1  0.91730800  0.23573000  0.45775100  1
  C  C62  1  0.41269200  0.07781500  0.94701900  1
  C  C63  1  0.73473000  0.15200900  0.88128000  1
  C  C64  1  0.59035400  0.29573300  0.70876800  1
  C  C65  1  0.20933400  0.41121400  0.87939900  1
  C  C66  1  0.41791900  0.61654300  0.64827300  1
  C  C67  1  0.26581800  0.70920000  0.86181700  1
  C  C68  1  0.83143500  0.54242200  0.78347200  1
  C  C69  1  0.65118800  0.78968200  0.74836500  1
  C  C70  1  0.64254900  0.62793700  0.99541000  1
  C  C71  1  0.52961100  0.92913000  0.23483500  1
  C  C72  1  0.71911100  0.19925700  0.16166600  1
  C  C73  1  0.56371500  0.03061900  0.42329100  1
  C  C74  1  0.45850100  0.39876000  0.39289400  1
  C  C75  1  0.26470700  0.16874300  0.61849300  1
  C  C76  1  0.12692100  0.40619500  0.49669600  1
  C  C77  1  0.09432800  0.07855300  0.26750700  1
  C  C78  1  0.13951600  0.89514700  0.49100000  1
  C  C79  1  0.94199300  0.13183600  0.50244200  1
  N  N80  1  0.50021700  0.35881100  0.93790600  1
  N  N81  1  0.49875200  0.50245200  0.87145300  1
  N  N82  1  0.39850900  0.19348900  0.27178000  1
  N  N83  1  0.26943200  0.19449700  0.37224000  1
  Cl  Cl84  1  0.84430300  0.69508900  0.39558200  1
  Cl  Cl85  1  0.95110800  0.85899800  0.08031200  1
  Cl  Cl86  1  0.95544900  0.48449300  0.20087100  1
  Cl  Cl87  1  0.22613600  0.70833000  0.19938500  1
