# generated using pymatgen
data_Zn3H24C4Se5(N4O5)3
_symmetry_space_group_name_H-M   'P 1'
_cell_length_a   9.08943706
_cell_length_b   15.52156616
_cell_length_c   20.95514476
_cell_angle_alpha   90.00000000
_cell_angle_beta   90.00000000
_cell_angle_gamma   90.00000000
_symmetry_Int_Tables_number   1
_chemical_formula_structural   Zn3H24C4Se5(N4O5)3
_chemical_formula_sum   'Zn12 H96 C16 Se20 N48 O60'
_cell_volume   2956.39999200
_cell_formula_units_Z   4
loop_
 _symmetry_equiv_pos_site_id
 _symmetry_equiv_pos_as_xyz
  1  'x, y, z'
loop_
 _atom_site_type_symbol
 _atom_site_label
 _atom_site_symmetry_multiplicity
 _atom_site_fract_x
 _atom_site_fract_y
 _atom_site_fract_z
 _atom_site_occupancy
  Zn  Zn0  1  0.53479258  0.26122955  0.90092490  1
  Zn  Zn1  1  0.46520742  0.73877045  0.40092490  1
  Zn  Zn2  1  0.53479258  0.23877045  0.09907510  1
  Zn  Zn3  1  0.46520742  0.76122955  0.59907510  1
  Zn  Zn4  1  0.46520742  0.73877045  0.09907510  1
  Zn  Zn5  1  0.53479258  0.26122955  0.59907510  1
  Zn  Zn6  1  0.46520742  0.76122955  0.90092490  1
  Zn  Zn7  1  0.53479258  0.23877045  0.40092490  1
  Zn  Zn8  1  0.91873384  0.25000000  0.00000000  1
  Zn  Zn9  1  0.08126616  0.75000000  0.50000000  1
  Zn  Zn10  1  0.08126616  0.75000000  0.00000000  1
  Zn  Zn11  1  0.91873384  0.25000000  0.50000000  1
  H  H12  1  0.97623708  0.44177802  0.64574644  1
  H  H13  1  0.02376292  0.55822198  0.14574644  1
  H  H14  1  0.97623708  0.05822198  0.35425356  1
  H  H15  1  0.02376292  0.94177802  0.85425356  1
  H  H16  1  0.02376292  0.55822198  0.35425356  1
  H  H17  1  0.97623708  0.44177802  0.85425356  1
  H  H18  1  0.02376292  0.94177802  0.64574644  1
  H  H19  1  0.97623708  0.05822198  0.14574644  1
  H  H20  1  0.81191467  0.42048459  0.68993841  1
  H  H21  1  0.18808533  0.57951541  0.18993841  1
  H  H22  1  0.81191467  0.07951541  0.31006159  1
  H  H23  1  0.18808533  0.92048459  0.81006159  1
  H  H24  1  0.18808533  0.57951541  0.31006159  1
  H  H25  1  0.81191467  0.42048459  0.81006159  1
  H  H26  1  0.18808533  0.92048459  0.68993841  1
  H  H27  1  0.81191467  0.07951541  0.18993841  1
  H  H28  1  0.98619990  0.57005552  0.58450284  1
  H  H29  1  0.01380010  0.42994448  0.08450284  1
  H  H30  1  0.98619990  0.92994448  0.41549716  1
  H  H31  1  0.01380010  0.07005552  0.91549716  1
  H  H32  1  0.01380010  0.42994448  0.41549716  1
  H  H33  1  0.98619990  0.57005552  0.91549716  1
  H  H34  1  0.01380010  0.07005552  0.58450284  1
  H  H35  1  0.98619990  0.92994448  0.08450284  1
  H  H36  1  0.83532992  0.63602994  0.58197485  1
  H  H37  1  0.16467008  0.36397006  0.08197485  1
  H  H38  1  0.83532992  0.86397006  0.41802515  1
  H  H39  1  0.16467008  0.13602994  0.91802515  1
  H  H40  1  0.16467008  0.36397006  0.41802515  1
  H  H41  1  0.83532992  0.63602994  0.91802515  1
  H  H42  1  0.16467008  0.13602994  0.58197485  1
  H  H43  1  0.83532992  0.86397006  0.08197485  1
  H  H44  1  0.61458714  0.50526863  0.68156866  1
  H  H45  1  0.38541286  0.49473137  0.18156866  1
  H  H46  1  0.61458714  0.99473137  0.31843134  1
  H  H47  1  0.38541286  0.00526863  0.81843134  1
  H  H48  1  0.38541286  0.49473137  0.31843134  1
  H  H49  1  0.61458714  0.50526863  0.81843134  1
  H  H50  1  0.38541286  0.00526863  0.68156866  1
  H  H51  1  0.61458714  0.99473137  0.18156866  1
  H  H52  1  0.60792023  0.58849213  0.62569429  1
  H  H53  1  0.39207977  0.41150787  0.12569429  1
  H  H54  1  0.60792023  0.91150787  0.37430571  1
  H  H55  1  0.39207977  0.08849213  0.87430571  1
  H  H56  1  0.39207977  0.41150787  0.37430571  1
  H  H57  1  0.60792023  0.58849213  0.87430571  1
  H  H58  1  0.39207977  0.08849213  0.62569429  1
  H  H59  1  0.60792023  0.91150787  0.12569429  1
  H  H60  1  0.21449638  0.23859547  0.79188602  1
  H  H61  1  0.78550362  0.76140453  0.29188602  1
  H  H62  1  0.21449638  0.26140453  0.20811398  1
  H  H63  1  0.78550362  0.73859547  0.70811398  1
  H  H64  1  0.78550362  0.76140453  0.20811398  1
  H  H65  1  0.21449638  0.23859547  0.70811398  1
  H  H66  1  0.78550362  0.73859547  0.79188602  1
  H  H67  1  0.21449638  0.26140453  0.29188602  1
  H  H68  1  0.82443267  0.24365294  0.80616281  1
  H  H69  1  0.17556733  0.75634706  0.30616281  1
  H  H70  1  0.82443267  0.25634706  0.19383719  1
  H  H71  1  0.17556733  0.74365294  0.69383719  1
  H  H72  1  0.17556733  0.75634706  0.19383719  1
  H  H73  1  0.82443267  0.24365294  0.69383719  1
  H  H74  1  0.17556733  0.74365294  0.80616281  1
  H  H75  1  0.82443267  0.25634706  0.30616281  1
  H  H76  1  0.99119142  0.24666475  0.84836149  1
  H  H77  1  0.00880858  0.75333525  0.34836149  1
  H  H78  1  0.99119142  0.25333525  0.15163851  1
  H  H79  1  0.00880858  0.74666475  0.65163851  1
  H  H80  1  0.00880858  0.75333525  0.15163851  1
  H  H81  1  0.99119142  0.24666475  0.65163851  1
  H  H82  1  0.00880858  0.74666475  0.84836149  1
  H  H83  1  0.99119142  0.25333525  0.34836149  1
  H  H84  1  0.20233229  0.41257996  0.79306646  1
  H  H85  1  0.79766771  0.58742004  0.29306646  1
  H  H86  1  0.20233229  0.08742004  0.20693354  1
  H  H87  1  0.79766771  0.91257996  0.70693354  1
  H  H88  1  0.79766771  0.58742004  0.20693354  1
  H  H89  1  0.20233229  0.41257996  0.70693354  1
  H  H90  1  0.79766771  0.91257996  0.79306646  1
  H  H91  1  0.20233229  0.08742004  0.29306646  1
  H  H92  1  0.27970643  0.52684330  0.65412663  1
  H  H93  1  0.72029357  0.47315670  0.15412663  1
  H  H94  1  0.27970643  0.97315670  0.34587337  1
  H  H95  1  0.72029357  0.02684330  0.84587337  1
  H  H96  1  0.72029357  0.47315670  0.34587337  1
  H  H97  1  0.27970643  0.52684330  0.84587337  1
  H  H98  1  0.72029357  0.02684330  0.65412663  1
  H  H99  1  0.27970643  0.97315670  0.15412663  1
  H  H100  1  0.34547101  0.62074891  0.69268662  1
  H  H101  1  0.65452899  0.37925109  0.19268662  1
  H  H102  1  0.34547101  0.87925109  0.30731338  1
  H  H103  1  0.65452899  0.12074891  0.80731338  1
  H  H104  1  0.65452899  0.37925109  0.30731338  1
  H  H105  1  0.34547101  0.62074891  0.80731338  1
  H  H106  1  0.65452899  0.12074891  0.69268662  1
  H  H107  1  0.34547101  0.87925109  0.19268662  1
  C  C108  1  0.80697339  0.52795483  0.63598405  1
  C  C109  1  0.19302661  0.47204517  0.13598405  1
  C  C110  1  0.80697339  0.97204517  0.36401595  1
  C  C111  1  0.19302661  0.02795483  0.86401595  1
  C  C112  1  0.19302661  0.47204517  0.36401595  1
  C  C113  1  0.80697339  0.52795483  0.86401595  1
  C  C114  1  0.19302661  0.02795483  0.63598405  1
  C  C115  1  0.80697339  0.97204517  0.13598405  1
  C  C116  1  0.00993058  0.23789713  0.75000000  1
  C  C117  1  0.99006942  0.76210287  0.25000000  1
  C  C118  1  0.00993058  0.26210287  0.25000000  1
  C  C119  1  0.99006942  0.73789713  0.75000000  1
  C  C120  1  0.28759836  0.51824734  0.75000000  1
  C  C121  1  0.71240164  0.48175266  0.25000000  1
  C  C122  1  0.28759836  0.98175266  0.25000000  1
  C  C123  1  0.71240164  0.01824734  0.75000000  1
  Se  Se124  1  0.21166223  0.34342606  0.93035952  1
  Se  Se125  1  0.78833777  0.65657394  0.43035952  1
  Se  Se126  1  0.21166223  0.15657394  0.06964048  1
  Se  Se127  1  0.78833777  0.84342606  0.56964048  1
  Se  Se128  1  0.78833777  0.65657394  0.06964048  1
  Se  Se129  1  0.21166223  0.34342606  0.56964048  1
  Se  Se130  1  0.78833777  0.84342606  0.93035952  1
  Se  Se131  1  0.21166223  0.15657394  0.43035952  1
  Se  Se132  1  0.66880635  0.10159322  0.98718000  1
  Se  Se133  1  0.33119365  0.89840678  0.48718000  1
  Se  Se134  1  0.66880635  0.39840678  0.01282000  1
  Se  Se135  1  0.33119365  0.60159322  0.51282000  1
  Se  Se136  1  0.33119365  0.89840678  0.01282000  1
  Se  Se137  1  0.66880635  0.10159322  0.51282000  1
  Se  Se138  1  0.33119365  0.60159322  0.98718000  1
  Se  Se139  1  0.66880635  0.39840678  0.48718000  1
  Se  Se140  1  0.54136142  0.30370937  0.75000000  1
  Se  Se141  1  0.45863858  0.69629063  0.25000000  1
  Se  Se142  1  0.54136142  0.19629063  0.25000000  1
  Se  Se143  1  0.45863858  0.80370937  0.75000000  1
  N  N144  1  0.87408481  0.46073374  0.66218091  1
  N  N145  1  0.12591519  0.53926626  0.16218091  1
  N  N146  1  0.87408481  0.03926626  0.33781909  1
  N  N147  1  0.12591519  0.96073374  0.83781909  1
  N  N148  1  0.12591519  0.53926626  0.33781909  1
  N  N149  1  0.87408481  0.46073374  0.83781909  1
  N  N150  1  0.12591519  0.96073374  0.66218091  1
  N  N151  1  0.87408481  0.03926626  0.16218091  1
  N  N152  1  0.87582412  0.57641826  0.59169305  1
  N  N153  1  0.12417588  0.42358174  0.09169305  1
  N  N154  1  0.87582412  0.92358174  0.40830695  1
  N  N155  1  0.12417588  0.07641826  0.90830695  1
  N  N156  1  0.12417588  0.42358174  0.40830695  1
  N  N157  1  0.87582412  0.57641826  0.90830695  1
  N  N158  1  0.12417588  0.07641826  0.59169305  1
  N  N159  1  0.87582412  0.92358174  0.09169305  1
  N  N160  1  0.66942957  0.54868543  0.65387150  1
  N  N161  1  0.33057043  0.45131457  0.15387150  1
  N  N162  1  0.66942957  0.95131457  0.34612850  1
  N  N163  1  0.33057043  0.04868543  0.84612850  1
  N  N164  1  0.33057043  0.45131457  0.34612850  1
  N  N165  1  0.66942957  0.54868543  0.84612850  1
  N  N166  1  0.33057043  0.04868543  0.65387150  1
  N  N167  1  0.66942957  0.95131457  0.15387150  1
  N  N168  1  0.15792046  0.23333683  0.75000000  1
  N  N169  1  0.84207954  0.76666317  0.25000000  1
  N  N170  1  0.15792046  0.26666317  0.25000000  1
  N  N171  1  0.84207954  0.73333683  0.75000000  1
  N  N172  1  0.93725669  0.23944165  0.80540266  1
  N  N173  1  0.06274331  0.76055835  0.30540266  1
  N  N174  1  0.93725669  0.26055835  0.19459734  1
  N  N175  1  0.06274331  0.73944165  0.69459734  1
  N  N176  1  0.06274331  0.76055835  0.19459734  1
  N  N177  1  0.93725669  0.23944165  0.69459734  1
  N  N178  1  0.06274331  0.73944165  0.80540266  1
  N  N179  1  0.93725669  0.26055835  0.30540266  1
  N  N180  1  0.23099913  0.43890744  0.75000000  1
  N  N181  1  0.76900087  0.56109256  0.25000000  1
  N  N182  1  0.23099913  0.06109256  0.25000000  1
  N  N183  1  0.76900087  0.93890744  0.75000000  1
  N  N184  1  0.31899133  0.55651092  0.69423121  1
  N  N185  1  0.68100867  0.44348908  0.19423121  1
  N  N186  1  0.31899133  0.94348908  0.30576879  1
  N  N187  1  0.68100867  0.05651092  0.80576879  1
  N  N188  1  0.68100867  0.44348908  0.30576879  1
  N  N189  1  0.31899133  0.55651092  0.80576879  1
  N  N190  1  0.68100867  0.05651092  0.69423121  1
  N  N191  1  0.31899133  0.94348908  0.19423121  1
  O  O192  1  0.52767336  0.14685066  0.94216815  1
  O  O193  1  0.47232664  0.85314934  0.44216815  1
  O  O194  1  0.52767336  0.35314934  0.05783185  1
  O  O195  1  0.47232664  0.64685066  0.55783185  1
  O  O196  1  0.47232664  0.85314934  0.05783185  1
  O  O197  1  0.52767336  0.14685066  0.55783185  1
  O  O198  1  0.47232664  0.64685066  0.94216815  1
  O  O199  1  0.52767336  0.35314934  0.44216815  1
  O  O200  1  0.61824683  0.24329190  0.81280289  1
  O  O201  1  0.38175317  0.75670810  0.31280289  1
  O  O202  1  0.61824683  0.25670810  0.18719711  1
  O  O203  1  0.38175317  0.74329190  0.68719711  1
  O  O204  1  0.38175317  0.75670810  0.18719711  1
  O  O205  1  0.61824683  0.24329190  0.68719711  1
  O  O206  1  0.38175317  0.74329190  0.81280289  1
  O  O207  1  0.61824683  0.25670810  0.31280289  1
  O  O208  1  0.32448833  0.28306833  0.87962978  1
  O  O209  1  0.67551167  0.71693167  0.37962978  1
  O  O210  1  0.32448833  0.21693167  0.12037022  1
  O  O211  1  0.67551167  0.78306833  0.62037022  1
  O  O212  1  0.67551167  0.71693167  0.12037022  1
  O  O213  1  0.32448833  0.28306833  0.62037022  1
  O  O214  1  0.67551167  0.78306833  0.87962978  1
  O  O215  1  0.32448833  0.21693167  0.37962978  1
  O  O216  1  0.65328589  0.35266010  0.93851057  1
  O  O217  1  0.34671411  0.64733990  0.43851057  1
  O  O218  1  0.65328589  0.14733990  0.06148943  1
  O  O219  1  0.34671411  0.85266010  0.56148943  1
  O  O220  1  0.34671411  0.64733990  0.06148943  1
  O  O221  1  0.65328589  0.35266010  0.56148943  1
  O  O222  1  0.34671411  0.85266010  0.93851057  1
  O  O223  1  0.65328589  0.14733990  0.43851057  1
  O  O224  1  0.82581335  0.15029959  0.95726549  1
  O  O225  1  0.17418665  0.84970041  0.45726549  1
  O  O226  1  0.82581335  0.34970041  0.04273451  1
  O  O227  1  0.17418665  0.65029959  0.54273451  1
  O  O228  1  0.17418665  0.84970041  0.04273451  1
  O  O229  1  0.82581335  0.15029959  0.54273451  1
  O  O230  1  0.17418665  0.65029959  0.95726549  1
  O  O231  1  0.82581335  0.34970041  0.45726549  1
  O  O232  1  0.05743098  0.27667566  0.92776449  1
  O  O233  1  0.94256902  0.72332434  0.42776449  1
  O  O234  1  0.05743098  0.22332434  0.07223551  1
  O  O235  1  0.94256902  0.77667566  0.57223551  1
  O  O236  1  0.94256902  0.72332434  0.07223551  1
  O  O237  1  0.05743098  0.27667566  0.57223551  1
  O  O238  1  0.94256902  0.77667566  0.92776449  1
  O  O239  1  0.05743098  0.22332434  0.42776449  1
  O  O240  1  0.16231567  0.42813016  0.88341864  1
  O  O241  1  0.83768433  0.57186984  0.38341864  1
  O  O242  1  0.16231567  0.07186984  0.11658136  1
  O  O243  1  0.83768433  0.92813016  0.61658136  1
  O  O244  1  0.83768433  0.57186984  0.11658136  1
  O  O245  1  0.16231567  0.42813016  0.61658136  1
  O  O246  1  0.83768433  0.92813016  0.88341864  1
  O  O247  1  0.16231567  0.07186984  0.38341864  1
  O  O248  1  0.64200194  0.39581005  0.75000000  1
  O  O249  1  0.35799806  0.60418995  0.25000000  1
  O  O250  1  0.64200194  0.10418995  0.25000000  1
  O  O251  1  0.35799806  0.89581005  0.75000000  1
