# generated using pymatgen
data_ErHSO5
_symmetry_space_group_name_H-M   'P 1'
_cell_length_a   7.99086741
_cell_length_b   8.15207417
_cell_length_c   10.94528500
_cell_angle_alpha   90.00000000
_cell_angle_beta   90.00000000
_cell_angle_gamma   94.15443410
_symmetry_Int_Tables_number   1
_chemical_formula_structural   ErHSO5
_chemical_formula_sum   'Er8 H8 S8 O40'
_cell_volume   711.12585647
_cell_formula_units_Z   8
loop_
 _symmetry_equiv_pos_site_id
 _symmetry_equiv_pos_as_xyz
  1  'x, y, z'
loop_
 _atom_site_type_symbol
 _atom_site_label
 _atom_site_symmetry_multiplicity
 _atom_site_fract_x
 _atom_site_fract_y
 _atom_site_fract_z
 _atom_site_occupancy
  Er  Er0  1  0.68833700  0.90889400  0.92630500  1
  Er  Er1  1  0.18833700  0.40889400  0.57369500  1
  Er  Er2  1  0.31166300  0.09110600  0.07369500  1
  Er  Er3  1  0.81166300  0.59110600  0.42630500  1
  Er  Er4  1  0.66057300  0.37430800  0.93799000  1
  Er  Er5  1  0.16057300  0.87430800  0.56201000  1
  Er  Er6  1  0.33942700  0.62569200  0.06201000  1
  Er  Er7  1  0.83942700  0.12569200  0.43799000  1
  H  H8  1  0.65887900  0.13117600  0.12270300  1
  H  H9  1  0.15887900  0.63117600  0.37729700  1
  H  H10  1  0.34112100  0.86882400  0.87729700  1
  H  H11  1  0.84112100  0.36882400  0.62270300  1
  H  H12  1  0.31279100  0.35379100  0.90819700  1
  H  H13  1  0.81279100  0.85379100  0.59180300  1
  H  H14  1  0.68720900  0.64620900  0.09180300  1
  H  H15  1  0.18720900  0.14620900  0.40819700  1
  S  S16  1  0.00028700  0.63545100  0.82977300  1
  S  S17  1  0.50028700  0.13545100  0.67022700  1
  S  S18  1  0.99971300  0.36454900  0.17022700  1
  S  S19  1  0.49971300  0.86454900  0.32977300  1
  S  S20  1  0.04361900  0.13368600  0.80932400  1
  S  S21  1  0.54361900  0.63368600  0.69067600  1
  S  S22  1  0.95638100  0.86631400  0.19067600  1
  S  S23  1  0.45638100  0.36631400  0.30932400  1
  O  O24  1  0.92591200  0.78396100  0.87383800  1
  O  O25  1  0.42591200  0.28396100  0.62616200  1
  O  O26  1  0.07408800  0.21603900  0.12616200  1
  O  O27  1  0.57408800  0.71603900  0.37383800  1
  O  O28  1  0.06141900  0.65756600  0.70014600  1
  O  O29  1  0.56141900  0.15756600  0.79985400  1
  O  O30  1  0.93858100  0.34243400  0.29985400  1
  O  O31  1  0.43858100  0.84243400  0.20014600  1
  O  O32  1  0.87063400  0.49570600  0.82926700  1
  O  O33  1  0.37063400  0.99570600  0.67073300  1
  O  O34  1  0.12936600  0.50429400  0.17073300  1
  O  O35  1  0.62936600  0.00429400  0.32926700  1
  O  O36  1  0.14531200  0.59926400  0.90713400  1
  O  O37  1  0.64531200  0.09926400  0.59286600  1
  O  O38  1  0.85468800  0.40073600  0.09286600  1
  O  O39  1  0.35468800  0.90073600  0.40713400  1
  O  O40  1  0.87847400  0.14794500  0.87186100  1
  O  O41  1  0.37847400  0.64794500  0.62813900  1
  O  O42  1  0.12152600  0.85205500  0.12813900  1
  O  O43  1  0.62152600  0.35205500  0.37186100  1
  O  O44  1  0.11343300  0.29577600  0.76165700  1
  O  O45  1  0.61343300  0.79577600  0.73834300  1
  O  O46  1  0.88656700  0.70422400  0.23834300  1
  O  O47  1  0.38656700  0.20422400  0.26165700  1
  O  O48  1  0.01563900  0.01908200  0.70520300  1
  O  O49  1  0.51563900  0.51908200  0.79479700  1
  O  O50  1  0.98436100  0.98091800  0.29479700  1
  O  O51  1  0.48436100  0.48091800  0.20520300  1
  O  O52  1  0.16490700  0.07233700  0.89728600  1
  O  O53  1  0.66490700  0.57233700  0.60271400  1
  O  O54  1  0.83509300  0.92766300  0.10271400  1
  O  O55  1  0.33509300  0.42766300  0.39728600  1
  O  O56  1  0.59896000  0.13140400  0.04485900  1
  O  O57  1  0.09896000  0.63140400  0.45514100  1
  O  O58  1  0.40104000  0.86859600  0.95514100  1
  O  O59  1  0.90104000  0.36859600  0.54485900  1
  O  O60  1  0.37348200  0.35747300  0.98626500  1
  O  O61  1  0.87348300  0.85747300  0.51373500  1
  O  O62  1  0.62651700  0.64252700  0.01373500  1
  O  O63  1  0.12651800  0.14252700  0.48626500  1
