# generated using pymatgen
data_HSNO4
_symmetry_space_group_name_H-M   'P 1'
_cell_length_a   16.00157000
_cell_length_b   4.74932800
_cell_length_c   16.91828415
_cell_angle_alpha   90.00000000
_cell_angle_beta   121.80353502
_cell_angle_gamma   90.00000000
_symmetry_Int_Tables_number   1
_chemical_formula_structural   HSNO4
_chemical_formula_sum   'H8 S8 N8 O32'
_cell_volume   1092.69399193
_cell_formula_units_Z   8
loop_
 _symmetry_equiv_pos_site_id
 _symmetry_equiv_pos_as_xyz
  1  'x, y, z'
loop_
 _atom_site_type_symbol
 _atom_site_label
 _atom_site_symmetry_multiplicity
 _atom_site_fract_x
 _atom_site_fract_y
 _atom_site_fract_z
 _atom_site_occupancy
  H  H0  1  0.86663700  0.18308300  0.48628400  1
  H  H1  1  0.13336300  0.81691700  0.51371600  1
  H  H2  1  0.86663700  0.31691700  0.98628400  1
  H  H3  1  0.13336300  0.68308300  0.01371600  1
  H  H4  1  0.38381800  0.32536800  0.24595600  1
  H  H5  1  0.61618200  0.67463200  0.75404400  1
  H  H6  1  0.38381800  0.17463200  0.74595600  1
  H  H7  1  0.61618200  0.82536800  0.25404400  1
  S  S8  1  0.87500200  0.77263200  0.54356100  1
  S  S9  1  0.12499800  0.22736800  0.45643900  1
  S  S10  1  0.87500200  0.72736800  0.04356100  1
  S  S11  1  0.12499800  0.27263200  0.95643900  1
  S  S12  1  0.37411500  0.74681600  0.28918700  1
  S  S13  1  0.62588500  0.25318400  0.71081300  1
  S  S14  1  0.37411500  0.75318400  0.78918700  1
  S  S15  1  0.62588500  0.24681600  0.21081300  1
  N  N16  1  0.87640300  0.86132000  0.79000400  1
  N  N17  1  0.12359700  0.13868000  0.20999600  1
  N  N18  1  0.87640300  0.63868000  0.29000400  1
  N  N19  1  0.12359700  0.36132000  0.70999600  1
  N  N20  1  0.37288500  0.69610200  0.53595200  1
  N  N21  1  0.62711500  0.30389800  0.46404800  1
  N  N22  1  0.37288500  0.80389800  0.03595200  1
  N  N23  1  0.62711500  0.19610200  0.96404800  1
  O  O24  1  0.95790400  0.86712200  0.63463600  1
  O  O25  1  0.04209600  0.13287800  0.36536400  1
  O  O26  1  0.95790400  0.63287800  0.13463600  1
  O  O27  1  0.04209600  0.36712200  0.86536400  1
  O  O28  1  0.79089400  0.79201100  0.55686500  1
  O  O29  1  0.20910600  0.20798900  0.44313500  1
  O  O30  1  0.79089400  0.70798900  0.05686500  1
  O  O31  1  0.20910600  0.29201100  0.94313500  1
  O  O32  1  0.88744300  0.50149600  0.51205900  1
  O  O33  1  0.11255700  0.49850400  0.48794100  1
  O  O34  1  0.88744300  0.99850400  0.01205900  1
  O  O35  1  0.11255700  0.00149600  0.98794100  1
  O  O36  1  0.86072900  0.97943000  0.46589500  1
  O  O37  1  0.13927100  0.02057000  0.53410500  1
  O  O38  1  0.86072900  0.52057000  0.96589500  1
  O  O39  1  0.13927100  0.47943000  0.03410500  1
  O  O40  1  0.45728300  0.79667600  0.38540000  1
  O  O41  1  0.54271700  0.20332400  0.61460000  1
  O  O42  1  0.45728300  0.70332400  0.88540000  1
  O  O43  1  0.54271700  0.29667600  0.11460000  1
  O  O44  1  0.29662100  0.62714400  0.30124300  1
  O  O45  1  0.70337900  0.37285600  0.69875700  1
  O  O46  1  0.29662100  0.87285600  0.80124300  1
  O  O47  1  0.70337900  0.12714400  0.19875700  1
  O  O48  1  0.40309300  0.52359000  0.23993000  1
  O  O49  1  0.59690700  0.47641000  0.76007000  1
  O  O50  1  0.40309300  0.97641000  0.73993000  1
  O  O51  1  0.59690700  0.02359000  0.26007000  1
  O  O52  1  0.34791700  0.99657800  0.23097600  1
  O  O53  1  0.65208300  0.00342200  0.76902400  1
  O  O54  1  0.34791700  0.50342200  0.73097600  1
  O  O55  1  0.65208300  0.49657800  0.26902400  1
