# generated using pymatgen
data_SiP2H18(C3Br2)2
_symmetry_space_group_name_H-M   'P 1'
_cell_length_a   8.81441300
_cell_length_b   14.17927200
_cell_length_c   15.27132305
_cell_angle_alpha   66.42940357
_cell_angle_beta   90.00000000
_cell_angle_gamma   90.00000000
_symmetry_Int_Tables_number   1
_chemical_formula_structural   SiP2H18(C3Br2)2
_chemical_formula_sum   'Si4 P8 H72 C24 Br16'
_cell_volume   1749.39835765
_cell_formula_units_Z   4
loop_
 _symmetry_equiv_pos_site_id
 _symmetry_equiv_pos_as_xyz
  1  'x, y, z'
loop_
 _atom_site_type_symbol
 _atom_site_label
 _atom_site_symmetry_multiplicity
 _atom_site_fract_x
 _atom_site_fract_y
 _atom_site_fract_z
 _atom_site_occupancy
  Si  Si0  1  0.00000000  0.00000000  0.00000000  1
  Si  Si1  1  0.50000000  0.50000000  0.00000000  1
  Si  Si2  1  0.50000000  0.50000000  0.50000000  1
  Si  Si3  1  0.00000000  0.00000000  0.50000000  1
  P  P4  1  0.79441300  0.05254700  0.07670900  1
  P  P5  1  0.29441300  0.44745300  0.92329100  1
  P  P6  1  0.20558700  0.94745300  0.92329100  1
  P  P7  1  0.70558700  0.55254700  0.07670900  1
  P  P8  1  0.70526900  0.38439300  0.58252800  1
  P  P9  1  0.20526900  0.11560700  0.41747200  1
  P  P10  1  0.29473100  0.61560700  0.41747200  1
  P  P11  1  0.79473100  0.88439300  0.58252800  1
  H  H12  1  0.59389700  0.97695600  0.19006400  1
  H  H13  1  0.09389700  0.52304400  0.80993600  1
  H  H14  1  0.40610300  0.02304400  0.80993600  1
  H  H15  1  0.90610300  0.47695600  0.19006400  1
  H  H16  1  0.66376600  0.88951100  0.14065300  1
  H  H17  1  0.16376600  0.61048900  0.85934700  1
  H  H18  1  0.33623400  0.11048900  0.85934700  1
  H  H19  1  0.83623400  0.38951100  0.14065300  1
  H  H20  1  0.77048200  0.91054900  0.23090100  1
  H  H21  1  0.27048200  0.58945100  0.76909900  1
  H  H22  1  0.22951800  0.08945100  0.76909900  1
  H  H23  1  0.72951800  0.41054900  0.23090100  1
  H  H24  1  0.92353200  0.09863600  0.19308700  1
  H  H25  1  0.42353200  0.40136400  0.80691300  1
  H  H26  1  0.07646800  0.90136400  0.80691300  1
  H  H27  1  0.57646800  0.59863600  0.19308700  1
  H  H28  1  0.89939200  0.20681800  0.08035200  1
  H  H29  1  0.39939200  0.29318200  0.91964800  1
  H  H30  1  0.10060800  0.79318200  0.91964800  1
  H  H31  1  0.60060800  0.70681800  0.08035200  1
  H  H32  1  0.74244400  0.16126200  0.16068800  1
  H  H33  1  0.24244400  0.33873800  0.83931200  1
  H  H34  1  0.25755600  0.83873800  0.83931200  1
  H  H35  1  0.75755600  0.66126200  0.16068800  1
  H  H36  1  0.55191500  0.13490100  0.03545300  1
  H  H37  1  0.05191500  0.36509900  0.96454700  1
  H  H38  1  0.44808500  0.86509900  0.96454700  1
  H  H39  1  0.94808500  0.63490100  0.03545300  1
  H  H40  1  0.69075300  0.19671100  0.94443100  1
  H  H41  1  0.19075300  0.30328900  0.05556900  1
  H  H42  1  0.30924700  0.80328900  0.05556900  1
  H  H43  1  0.80924700  0.69671100  0.94443100  1
  H  H44  1  0.60801600  0.07735600  0.95429000  1
  H  H45  1  0.10801600  0.42264400  0.04571000  1
  H  H46  1  0.39198400  0.92264400  0.04571000  1
  H  H47  1  0.89198400  0.57735600  0.95429000  1
  H  H48  1  0.57905500  0.26101100  0.72079700  1
  H  H49  1  0.07905500  0.23898900  0.27920300  1
  H  H50  1  0.42094500  0.73898900  0.27920300  1
  H  H51  1  0.92094500  0.76101100  0.72079700  1
  H  H52  1  0.58550400  0.22001300  0.62428300  1
  H  H53  1  0.08550400  0.27998700  0.37571700  1
  H  H54  1  0.41449600  0.77998700  0.37571700  1
  H  H55  1  0.91449600  0.72001300  0.62428300  1
  H  H56  1  0.75226100  0.20969800  0.69542800  1
  H  H57  1  0.25226100  0.29030200  0.30457200  1
  H  H58  1  0.24773900  0.79030200  0.30457200  1
  H  H59  1  0.74773900  0.70969800  0.69542800  1
  H  H60  1  0.92648300  0.38546700  0.67405500  1
  H  H61  1  0.42648300  0.11453300  0.32594500  1
  H  H62  1  0.07351700  0.61453300  0.32594500  1
  H  H63  1  0.57351700  0.88546700  0.67405500  1
  H  H64  1  0.84862300  0.51269900  0.61284200  1
  H  H65  1  0.34862300  0.98730100  0.38715800  1
  H  H66  1  0.15137700  0.48730100  0.38715800  1
  H  H67  1  0.65137700  0.01269900  0.61284200  1
  H  H68  1  0.76036500  0.42436700  0.71933300  1
  H  H69  1  0.26036500  0.07563300  0.28066700  1
  H  H70  1  0.23963500  0.57563300  0.28066700  1
  H  H71  1  0.73963500  0.92436700  0.71933300  1
  H  H72  1  0.79005800  0.30765000  0.47544100  1
  H  H73  1  0.29005800  0.19235000  0.52455900  1
  H  H74  1  0.20994200  0.69235000  0.52455900  1
  H  H75  1  0.70994200  0.80765000  0.47544100  1
  H  H76  1  0.86065700  0.43611100  0.44173700  1
  H  H77  1  0.36065700  0.06388900  0.55826300  1
  H  H78  1  0.13934300  0.56388900  0.55826300  1
  H  H79  1  0.63934300  0.93611100  0.44173700  1
  H  H80  1  0.94315600  0.33072500  0.54132800  1
  H  H81  1  0.44315600  0.16927500  0.45867200  1
  H  H82  1  0.05684400  0.66927500  0.45867200  1
  H  H83  1  0.55684400  0.83072500  0.54132800  1
  C  C84  1  0.69577800  0.94652500  0.16888500  1
  C  C85  1  0.19577800  0.55347500  0.83111500  1
  C  C86  1  0.30422200  0.05347500  0.83111500  1
  C  C87  1  0.80422200  0.44652500  0.16888500  1
  C  C88  1  0.84564600  0.13815100  0.13382000  1
  C  C89  1  0.34564600  0.36184900  0.86618000  1
  C  C90  1  0.15435400  0.86184900  0.86618000  1
  C  C91  1  0.65435400  0.63815100  0.13382000  1
  C  C92  1  0.64581400  0.12224800  0.99386200  1
  C  C93  1  0.14581400  0.37775200  0.00613800  1
  C  C94  1  0.35418600  0.87775200  0.00613800  1
  C  C95  1  0.85418600  0.62224800  0.99386200  1
  C  C96  1  0.65013400  0.25573400  0.66409100  1
  C  C97  1  0.15013400  0.24426600  0.33590900  1
  C  C98  1  0.34986600  0.74426600  0.33590900  1
  C  C99  1  0.84986600  0.75573400  0.66409100  1
  C  C100  1  0.82177700  0.43159600  0.65459900  1
  C  C101  1  0.32177700  0.06840400  0.34540100  1
  C  C102  1  0.17822300  0.56840400  0.34540100  1
  C  C103  1  0.67822300  0.93159600  0.65459900  1
  C  C104  1  0.83818600  0.36272200  0.50168800  1
  C  C105  1  0.33818600  0.13727800  0.49831200  1
  C  C106  1  0.16181400  0.63727800  0.49831200  1
  C  C107  1  0.66181400  0.86272200  0.50168800  1
  Br  Br108  1  0.18955200  0.06309900  0.07950300  1
  Br  Br109  1  0.68955200  0.43690100  0.92049700  1
  Br  Br110  1  0.81044800  0.93690100  0.92049700  1
  Br  Br111  1  0.31044800  0.56309900  0.07950300  1
  Br  Br112  1  0.98836300  0.17041000  0.86969600  1
  Br  Br113  1  0.48836300  0.32959000  0.13030400  1
  Br  Br114  1  0.01163700  0.82959000  0.13030400  1
  Br  Br115  1  0.51163700  0.67041000  0.86969600  1
  Br  Br116  1  0.69213600  0.62355800  0.40760400  1
  Br  Br117  1  0.19213600  0.87644200  0.59239600  1
  Br  Br118  1  0.30786400  0.37644200  0.59239600  1
  Br  Br119  1  0.80786400  0.12355800  0.40760400  1
  Br  Br120  1  0.49835300  0.42409400  0.38250800  1
  Br  Br121  1  0.99835300  0.07590600  0.61749200  1
  Br  Br122  1  0.50164700  0.57590600  0.61749200  1
  Br  Br123  1  0.00164700  0.92409400  0.38250800  1
