# generated using pymatgen
data_U2ClO9
_symmetry_space_group_name_H-M   'P 1'
_cell_length_a   9.87105000
_cell_length_b   10.04378300
_cell_length_c   12.43840533
_cell_angle_alpha   90.00000000
_cell_angle_beta   120.60306943
_cell_angle_gamma   90.00000000
_symmetry_Int_Tables_number   1
_chemical_formula_structural   U2ClO9
_chemical_formula_sum   'U8 Cl4 O36'
_cell_volume   1061.41354630
_cell_formula_units_Z   4
loop_
 _symmetry_equiv_pos_site_id
 _symmetry_equiv_pos_as_xyz
  1  'x, y, z'
loop_
 _atom_site_type_symbol
 _atom_site_label
 _atom_site_symmetry_multiplicity
 _atom_site_fract_x
 _atom_site_fract_y
 _atom_site_fract_z
 _atom_site_occupancy
  U  U0  1  0.52347500  0.56635700  0.36402700  1
  U  U1  1  0.52347500  0.93364300  0.86402700  1
  U  U2  1  0.47652500  0.43364300  0.63597300  1
  U  U3  1  0.47652500  0.06635700  0.13597300  1
  U  U4  1  0.13490900  0.62654200  0.40288800  1
  U  U5  1  0.13490900  0.87345800  0.90288800  1
  U  U6  1  0.86509100  0.37345800  0.59711200  1
  U  U7  1  0.86509100  0.12654200  0.09711200  1
  Cl  Cl8  1  0.23034400  0.70251100  0.22330300  1
  Cl  Cl9  1  0.23034400  0.79748900  0.72330300  1
  Cl  Cl10  1  0.76965600  0.29748900  0.77669700  1
  Cl  Cl11  1  0.76965600  0.20251100  0.27669700  1
  O  O12  1  0.61898100  0.71126100  0.46268600  1
  O  O13  1  0.61898100  0.78873900  0.96268600  1
  O  O14  1  0.38101900  0.28873900  0.53731400  1
  O  O15  1  0.38101900  0.21126100  0.03731400  1
  O  O16  1  0.41776500  0.41604800  0.28063300  1
  O  O17  1  0.41776500  0.08395200  0.78063300  1
  O  O18  1  0.58223500  0.58395200  0.71936700  1
  O  O19  1  0.58223500  0.91604800  0.21936700  1
  O  O20  1  0.19294200  0.80143700  0.44393000  1
  O  O21  1  0.19294200  0.69856300  0.94393000  1
  O  O22  1  0.80705800  0.19856300  0.55607000  1
  O  O23  1  0.80705800  0.30143700  0.05607000  1
  O  O24  1  0.05879700  0.47020300  0.31460300  1
  O  O25  1  0.05879700  0.02979700  0.81460300  1
  O  O26  1  0.94120300  0.52979700  0.68539700  1
  O  O27  1  0.94120300  0.97020300  0.18539700  1
  O  O28  1  0.37618200  0.56068100  0.45500500  1
  O  O29  1  0.37618200  0.93931900  0.95500500  1
  O  O30  1  0.62381800  0.43931900  0.54499500  1
  O  O31  1  0.62381800  0.06068100  0.04499500  1
  O  O32  1  0.76299900  0.47627400  0.43043500  1
  O  O33  1  0.76299900  0.02372600  0.93043500  1
  O  O34  1  0.23700100  0.52372600  0.56956500  1
  O  O35  1  0.23700100  0.97627400  0.06956500  1
  O  O36  1  0.54909900  0.62814200  0.23370700  1
  O  O37  1  0.54909900  0.87185800  0.73370700  1
  O  O38  1  0.45090100  0.37185800  0.76629300  1
  O  O39  1  0.45090100  0.12814200  0.26629300  1
  O  O40  1  0.94308800  0.65823800  0.41277700  1
  O  O41  1  0.94308800  0.84176200  0.91277700  1
  O  O42  1  0.05691200  0.34176200  0.58722300  1
  O  O43  1  0.05691200  0.15823800  0.08722300  1
  O  O44  1  0.93039200  0.71661400  0.22429100  1
  O  O45  1  0.93039200  0.78338600  0.72429100  1
  O  O46  1  0.06960800  0.28338600  0.77570900  1
  O  O47  1  0.06960800  0.21661400  0.27570900  1
