# generated using pymatgen
data_Ho3Ir2
_symmetry_space_group_name_H-M   'P 1'
_cell_length_a   14.87129137
_cell_length_b   14.87129137
_cell_length_c   14.87129137
_cell_angle_alpha   135.67832401
_cell_angle_beta   135.67832401
_cell_angle_gamma   64.47804528
_symmetry_Int_Tables_number   1
_chemical_formula_structural   Ho3Ir2
_chemical_formula_sum   'Ho42 Ir28'
_cell_volume   1583.25407369
_cell_formula_units_Z   14
loop_
 _symmetry_equiv_pos_site_id
 _symmetry_equiv_pos_as_xyz
  1  'x, y, z'
loop_
 _atom_site_type_symbol
 _atom_site_label
 _atom_site_symmetry_multiplicity
 _atom_site_fract_x
 _atom_site_fract_y
 _atom_site_fract_z
 _atom_site_occupancy
  Ho  Ho0  1  0.63224900  0.50389400  0.27927800  1
  Ho  Ho1  1  0.22461700  0.35297100  0.72072200  1
  Ho  Ho2  1  0.13224900  0.85297100  0.12835400  1
  Ho  Ho3  1  0.72461700  0.00389400  0.87164600  1
  Ho  Ho4  1  0.35297100  0.63224900  0.12835400  1
  Ho  Ho5  1  0.50389400  0.22461700  0.87164600  1
  Ho  Ho6  1  0.00389400  0.13224900  0.27927800  1
  Ho  Ho7  1  0.85297100  0.72461700  0.72072200  1
  Ho  Ho8  1  0.36775100  0.49610600  0.72072200  1
  Ho  Ho9  1  0.77538300  0.64702900  0.27927800  1
  Ho  Ho10  1  0.86775100  0.14702900  0.87164600  1
  Ho  Ho11  1  0.27538300  0.99610600  0.12835400  1
  Ho  Ho12  1  0.64702900  0.36775100  0.87164600  1
  Ho  Ho13  1  0.49610600  0.77538300  0.12835400  1
  Ho  Ho14  1  0.99610600  0.86775100  0.72072200  1
  Ho  Ho15  1  0.14702900  0.27538300  0.27927800  1
  Ho  Ho16  1  0.38578700  0.51679700  0.29014200  1
  Ho  Ho17  1  0.22665500  0.09564500  0.70985800  1
  Ho  Ho18  1  0.88578700  0.59564500  0.86899000  1
  Ho  Ho19  1  0.72665500  0.01679700  0.13101000  1
  Ho  Ho20  1  0.09564500  0.38578700  0.86899000  1
  Ho  Ho21  1  0.51679700  0.22665500  0.13101000  1
  Ho  Ho22  1  0.01679700  0.88578700  0.29014200  1
  Ho  Ho23  1  0.59564500  0.72665500  0.70985800  1
  Ho  Ho24  1  0.61421300  0.48320300  0.70985800  1
  Ho  Ho25  1  0.77334500  0.90435500  0.29014200  1
  Ho  Ho26  1  0.11421300  0.40435500  0.13101000  1
  Ho  Ho27  1  0.27334500  0.98320300  0.86899000  1
  Ho  Ho28  1  0.90435500  0.61421300  0.13101000  1
  Ho  Ho29  1  0.48320300  0.77334500  0.86899000  1
  Ho  Ho30  1  0.98320300  0.11421300  0.70985800  1
  Ho  Ho31  1  0.40435500  0.27334500  0.29014200  1
  Ho  Ho32  1  0.85027900  0.35027900  0.20055700  1
  Ho  Ho33  1  0.14972100  0.64972100  0.79944300  1
  Ho  Ho34  1  0.35027900  0.14972100  0.50000000  1
  Ho  Ho35  1  0.64972100  0.85027900  0.50000000  1
  Ho  Ho36  1  0.38772800  0.88772800  0.50000000  1
  Ho  Ho37  1  0.88772800  0.38772800  0.50000000  1
  Ho  Ho38  1  0.61227200  0.11227200  0.50000000  1
  Ho  Ho39  1  0.11227200  0.61227200  0.50000000  1
  Ho  Ho40  1  0.25000000  0.75000000  0.50000000  1
  Ho  Ho41  1  0.75000000  0.25000000  0.50000000  1
  Ir  Ir42  1  0.71482300  0.21482300  0.14166100  1
  Ir  Ir43  1  0.07316200  0.57316200  0.85833900  1
  Ir  Ir44  1  0.21482300  0.07316200  0.50000000  1
  Ir  Ir45  1  0.57316200  0.71482300  0.50000000  1
  Ir  Ir46  1  0.28517700  0.78517700  0.85833900  1
  Ir  Ir47  1  0.92683800  0.42683800  0.14166100  1
  Ir  Ir48  1  0.78517700  0.92683800  0.50000000  1
  Ir  Ir49  1  0.42683800  0.28517700  0.50000000  1
  Ir  Ir50  1  0.46553500  0.96553500  0.80808000  1
  Ir  Ir51  1  0.15745500  0.65745500  0.19192000  1
  Ir  Ir52  1  0.96553500  0.15745500  0.50000000  1
  Ir  Ir53  1  0.65745500  0.46553500  0.50000000  1
  Ir  Ir54  1  0.53446500  0.03446500  0.19192000  1
  Ir  Ir55  1  0.84254500  0.34254500  0.80808000  1
  Ir  Ir56  1  0.03446500  0.84254500  0.50000000  1
  Ir  Ir57  1  0.34254500  0.53446500  0.50000000  1
  Ir  Ir58  1  0.59667600  0.09667600  0.69335100  1
  Ir  Ir59  1  0.40332400  0.90332400  0.30664900  1
  Ir  Ir60  1  0.09667600  0.40332400  0.50000000  1
  Ir  Ir61  1  0.90332400  0.59667600  0.50000000  1
  Ir  Ir62  1  0.36607400  0.36607400  0.00000000  1
  Ir  Ir63  1  0.86607400  0.86607400  0.00000000  1
  Ir  Ir64  1  0.63392600  0.63392600  0.00000000  1
  Ir  Ir65  1  0.13392600  0.13392600  0.00000000  1
  Ir  Ir66  1  0.50000000  0.50000000  0.00000000  1
  Ir  Ir67  1  0.00000000  0.00000000  0.00000000  1
  Ir  Ir68  1  0.25000000  0.25000000  0.00000000  1
  Ir  Ir69  1  0.75000000  0.75000000  0.00000000  1
