# generated using pymatgen
data_Y2Cu5Ni12
_symmetry_space_group_name_H-M   'P 1'
_cell_length_a   8.13269500
_cell_length_b   8.32422257
_cell_length_c   8.32422257
_cell_angle_alpha   119.88003556
_cell_angle_beta   90.00000000
_cell_angle_gamma   90.00000000
_symmetry_Int_Tables_number   1
_chemical_formula_structural   Y2Cu5Ni12
_chemical_formula_sum   'Y4 Cu10 Ni24'
_cell_volume   488.62559138
_cell_formula_units_Z   2
loop_
 _symmetry_equiv_pos_site_id
 _symmetry_equiv_pos_as_xyz
  1  'x, y, z'
loop_
 _atom_site_type_symbol
 _atom_site_label
 _atom_site_symmetry_multiplicity
 _atom_site_fract_x
 _atom_site_fract_y
 _atom_site_fract_z
 _atom_site_occupancy
  Y  Y0  1  0.75000000  0.99964200  0.00035800  1
  Y  Y1  1  0.25000000  0.00035800  0.99964200  1
  Y  Y2  1  0.25000000  0.66633900  0.33366100  1
  Y  Y3  1  0.75000000  0.33366100  0.66633900  1
  Cu  Cu4  1  0.60504300  0.66669100  0.33330900  1
  Cu  Cu5  1  0.39495700  0.33330900  0.66669100  1
  Cu  Cu6  1  0.10504300  0.33330900  0.66669100  1
  Cu  Cu7  1  0.89495700  0.66669100  0.33330900  1
  Cu  Cu8  1  0.50000000  0.50000000  0.00000000  1
  Cu  Cu9  1  0.50000000  0.50000000  0.50000000  1
  Cu  Cu10  1  0.50000000  0.00000000  0.50000000  1
  Cu  Cu11  1  0.00000000  0.50000000  0.00000000  1
  Cu  Cu12  1  0.00000000  0.50000000  0.50000000  1
  Cu  Cu13  1  0.00000000  0.00000000  0.50000000  1
  Ni  Ni14  1  0.75000000  0.67404800  0.03801400  1
  Ni  Ni15  1  0.75000000  0.36395600  0.32601400  1
  Ni  Ni16  1  0.75000000  0.96204900  0.63631700  1
  Ni  Ni17  1  0.75000000  0.36368300  0.03795100  1
  Ni  Ni18  1  0.75000000  0.96198600  0.32595200  1
  Ni  Ni19  1  0.75000000  0.67398600  0.63604400  1
  Ni  Ni20  1  0.25000000  0.32595200  0.96198600  1
  Ni  Ni21  1  0.25000000  0.63604400  0.67398600  1
  Ni  Ni22  1  0.25000000  0.03795100  0.36368300  1
  Ni  Ni23  1  0.25000000  0.63631700  0.96204900  1
  Ni  Ni24  1  0.25000000  0.03801400  0.67404800  1
  Ni  Ni25  1  0.25000000  0.32601400  0.36395600  1
  Ni  Ni26  1  0.48175700  0.83569900  0.67151900  1
  Ni  Ni27  1  0.48185500  0.83577600  0.16422400  1
  Ni  Ni28  1  0.48175700  0.32848100  0.16430100  1
  Ni  Ni29  1  0.51824300  0.16430100  0.32848100  1
  Ni  Ni30  1  0.51814500  0.16422400  0.83577600  1
  Ni  Ni31  1  0.51824300  0.67151900  0.83569900  1
  Ni  Ni32  1  0.98175700  0.16430100  0.32848100  1
  Ni  Ni33  1  0.98185500  0.16422400  0.83577600  1
  Ni  Ni34  1  0.98175700  0.67151900  0.83569900  1
  Ni  Ni35  1  0.01824300  0.83569900  0.67151900  1
  Ni  Ni36  1  0.01814500  0.83577600  0.16422400  1
  Ni  Ni37  1  0.01824300  0.32848100  0.16430100  1
