# generated using pymatgen
data_Pd(IO3)2
_symmetry_space_group_name_H-M   'P 1'
_cell_length_a   5.94578900
_cell_length_b   6.23477900
_cell_length_c   15.37445200
_cell_angle_alpha   90.00000000
_cell_angle_beta   90.00000000
_cell_angle_gamma   90.00000000
_symmetry_Int_Tables_number   1
_chemical_formula_structural   Pd(IO3)2
_chemical_formula_sum   'Pd4 I8 O24'
_cell_volume   569.94139635
_cell_formula_units_Z   4
loop_
 _symmetry_equiv_pos_site_id
 _symmetry_equiv_pos_as_xyz
  1  'x, y, z'
loop_
 _atom_site_type_symbol
 _atom_site_label
 _atom_site_symmetry_multiplicity
 _atom_site_fract_x
 _atom_site_fract_y
 _atom_site_fract_z
 _atom_site_occupancy
  Pd  Pd0  1  0.00000000  0.00000000  0.50000000  1
  Pd  Pd1  1  0.50000000  0.50000000  0.50000000  1
  Pd  Pd2  1  0.00000000  0.50000000  0.00000000  1
  Pd  Pd3  1  0.50000000  0.00000000  0.00000000  1
  I  I4  1  0.04052300  0.40502300  0.65073500  1
  I  I5  1  0.54052300  0.09497700  0.34926500  1
  I  I6  1  0.95947700  0.90502300  0.84926500  1
  I  I7  1  0.45947700  0.59497700  0.15073500  1
  I  I8  1  0.95947700  0.59497700  0.34926500  1
  I  I9  1  0.45947700  0.90502300  0.65073500  1
  I  I10  1  0.04052300  0.09497700  0.15073500  1
  I  I11  1  0.54052300  0.40502300  0.84926500  1
  O  O12  1  0.88228300  0.17155400  0.60332100  1
  O  O13  1  0.38228300  0.32844600  0.39667900  1
  O  O14  1  0.11771700  0.67155400  0.89667900  1
  O  O15  1  0.61771700  0.82844600  0.10332100  1
  O  O16  1  0.11771700  0.82844600  0.39667900  1
  O  O17  1  0.61771700  0.67155400  0.60332100  1
  O  O18  1  0.88228300  0.32844600  0.10332100  1
  O  O19  1  0.38228300  0.17155400  0.89667900  1
  O  O20  1  0.25674900  0.26550700  0.71407000  1
  O  O21  1  0.75674900  0.23449300  0.28593000  1
  O  O22  1  0.74325100  0.76550700  0.78593000  1
  O  O23  1  0.24325100  0.73449300  0.21407000  1
  O  O24  1  0.74325100  0.73449300  0.28593000  1
  O  O25  1  0.24325100  0.76550700  0.71407000  1
  O  O26  1  0.25674900  0.23449300  0.21407000  1
  O  O27  1  0.75674900  0.26550700  0.78593000  1
  O  O28  1  0.18687700  0.49595400  0.55147800  1
  O  O29  1  0.68687700  0.00404600  0.44852200  1
  O  O30  1  0.81312300  0.99595400  0.94852200  1
  O  O31  1  0.31312300  0.50404600  0.05147800  1
  O  O32  1  0.81312300  0.50404600  0.44852200  1
  O  O33  1  0.31312300  0.99595400  0.55147800  1
  O  O34  1  0.18687700  0.00404600  0.05147800  1
  O  O35  1  0.68687700  0.49595400  0.94852200  1
