# generated using pymatgen
data_Dy2Mn12Ga5
_symmetry_space_group_name_H-M   'P 1'
_cell_length_a   8.68823800
_cell_length_b   8.69476400
_cell_length_c   8.79643259
_cell_angle_alpha   60.38160253
_cell_angle_beta   90.00000000
_cell_angle_gamma   90.00000000
_symmetry_Int_Tables_number   1
_chemical_formula_structural   Dy2Mn12Ga5
_chemical_formula_sum   'Dy4 Mn24 Ga10'
_cell_volume   577.67542415
_cell_formula_units_Z   2
loop_
 _symmetry_equiv_pos_site_id
 _symmetry_equiv_pos_as_xyz
  1  'x, y, z'
loop_
 _atom_site_type_symbol
 _atom_site_label
 _atom_site_symmetry_multiplicity
 _atom_site_fract_x
 _atom_site_fract_y
 _atom_site_fract_z
 _atom_site_occupancy
  Dy  Dy0  1  0.25000000  0.99855200  0.00289600  1
  Dy  Dy1  1  0.75000000  0.00144800  0.99710400  1
  Dy  Dy2  1  0.75000000  0.66144200  0.67711600  1
  Dy  Dy3  1  0.25000000  0.33855800  0.32288400  1
  Mn  Mn4  1  0.25000000  0.96956500  0.35894600  1
  Mn  Mn5  1  0.25000000  0.67912900  0.96223800  1
  Mn  Mn6  1  0.25000000  0.35701700  0.67126800  1
  Mn  Mn7  1  0.25000000  0.97171600  0.67126800  1
  Mn  Mn8  1  0.25000000  0.67148800  0.35894600  1
  Mn  Mn9  1  0.25000000  0.35863300  0.96223800  1
  Mn  Mn10  1  0.75000000  0.03043500  0.64105400  1
  Mn  Mn11  1  0.75000000  0.32087100  0.03776200  1
  Mn  Mn12  1  0.75000000  0.64298300  0.32873200  1
  Mn  Mn13  1  0.75000000  0.02828400  0.32873200  1
  Mn  Mn14  1  0.75000000  0.32851200  0.64105400  1
  Mn  Mn15  1  0.75000000  0.64136700  0.03776200  1
  Mn  Mn16  1  0.51837000  0.31692400  0.83793100  1
  Mn  Mn17  1  0.51475300  0.84347200  0.31305600  1
  Mn  Mn18  1  0.51837000  0.84514500  0.83793100  1
  Mn  Mn19  1  0.48163000  0.68307600  0.16206900  1
  Mn  Mn20  1  0.48524700  0.15652800  0.68694400  1
  Mn  Mn21  1  0.48163000  0.15485500  0.16206900  1
  Mn  Mn22  1  0.01837000  0.68307600  0.16206900  1
  Mn  Mn23  1  0.01475300  0.15652800  0.68694400  1
  Mn  Mn24  1  0.01837000  0.15485500  0.16206900  1
  Mn  Mn25  1  0.98163000  0.31692400  0.83793100  1
  Mn  Mn26  1  0.98524700  0.84347200  0.31305600  1
  Mn  Mn27  1  0.98163000  0.84514500  0.83793100  1
  Ga  Ga28  1  0.39330500  0.66662000  0.66676100  1
  Ga  Ga29  1  0.60669500  0.33338000  0.33323900  1
  Ga  Ga30  1  0.89330500  0.33338000  0.33323900  1
  Ga  Ga31  1  0.10669500  0.66662000  0.66676100  1
  Ga  Ga32  1  0.50000000  0.00000000  0.50000000  1
  Ga  Ga33  1  0.50000000  0.50000000  0.00000000  1
  Ga  Ga34  1  0.50000000  0.50000000  0.50000000  1
  Ga  Ga35  1  0.00000000  0.00000000  0.50000000  1
  Ga  Ga36  1  0.00000000  0.50000000  0.00000000  1
  Ga  Ga37  1  0.00000000  0.50000000  0.50000000  1
