# generated using pymatgen
data_CoSO10
_symmetry_space_group_name_H-M   'P 1'
_cell_length_a   6.52020744
_cell_length_b   6.52020744
_cell_length_c   24.47017439
_cell_angle_alpha   80.48574859
_cell_angle_beta   80.48574859
_cell_angle_gamma   68.81823240
_symmetry_Int_Tables_number   1
_chemical_formula_structural   CoSO10
_chemical_formula_sum   'Co4 S4 O40'
_cell_volume   950.35140485
_cell_formula_units_Z   4
loop_
 _symmetry_equiv_pos_site_id
 _symmetry_equiv_pos_as_xyz
  1  'x, y, z'
loop_
 _atom_site_type_symbol
 _atom_site_label
 _atom_site_symmetry_multiplicity
 _atom_site_fract_x
 _atom_site_fract_y
 _atom_site_fract_z
 _atom_site_occupancy
  Co  Co0  1  0.00000000  0.00000000  0.50000000  1
  Co  Co1  1  0.00000000  0.00000000  0.00000000  1
  Co  Co2  1  0.94682500  0.05317500  0.75000000  1
  Co  Co3  1  0.05317500  0.94682500  0.25000000  1
  S  S4  1  0.58117200  0.67960100  0.62210700  1
  S  S5  1  0.32039900  0.41882800  0.87789300  1
  S  S6  1  0.41882800  0.32039900  0.37789300  1
  S  S7  1  0.67960100  0.58117200  0.12210700  1
  O  O8  1  0.81055900  0.63782300  0.63378500  1
  O  O9  1  0.36217700  0.18944100  0.86621500  1
  O  O10  1  0.18944100  0.36217700  0.36621500  1
  O  O11  1  0.63782300  0.81055900  0.13378500  1
  O  O12  1  0.45956000  0.56426300  0.66546900  1
  O  O13  1  0.43573700  0.54044000  0.83453100  1
  O  O14  1  0.54044000  0.43573700  0.33453100  1
  O  O15  1  0.56426300  0.45956000  0.16546900  1
  O  O16  1  0.57073500  0.58713300  0.57156700  1
  O  O17  1  0.41286700  0.42926500  0.92843300  1
  O  O18  1  0.42926500  0.41286700  0.42843300  1
  O  O19  1  0.58713300  0.57073500  0.07156700  1
  O  O20  1  0.48193300  0.92423000  0.61738100  1
  O  O21  1  0.07577000  0.51806700  0.88261900  1
  O  O22  1  0.51806700  0.07577000  0.38261900  1
  O  O23  1  0.92423000  0.48193300  0.11738100  1
  O  O24  1  0.11055200  0.72012800  0.52990800  1
  O  O25  1  0.27987200  0.88944800  0.97009200  1
  O  O26  1  0.88944800  0.27987200  0.47009200  1
  O  O27  1  0.72012800  0.11055200  0.02990800  1
  O  O28  1  0.15414300  0.86516700  0.44122500  1
  O  O29  1  0.13483300  0.84585700  0.05877500  1
  O  O30  1  0.84585700  0.13483300  0.55877500  1
  O  O31  1  0.86516700  0.15414300  0.94122500  1
  O  O32  1  0.82222900  0.87586600  0.48202700  1
  O  O33  1  0.12413400  0.17777100  0.01797300  1
  O  O34  1  0.17777100  0.12413400  0.51797300  1
  O  O35  1  0.87586600  0.82222900  0.98202700  1
  O  O36  1  0.20638300  0.01045700  0.77289800  1
  O  O37  1  0.98954300  0.79361700  0.72710200  1
  O  O38  1  0.79361700  0.98954300  0.22710200  1
  O  O39  1  0.01045700  0.20638300  0.27289800  1
  O  O40  1  0.90487800  0.30830800  0.77452300  1
  O  O41  1  0.69169200  0.09512200  0.72547700  1
  O  O42  1  0.09512200  0.69169200  0.22547700  1
  O  O43  1  0.30830800  0.90487800  0.27452300  1
  O  O44  1  0.81638900  0.91810800  0.80653900  1
  O  O45  1  0.08189200  0.18361100  0.69346100  1
  O  O46  1  0.18361100  0.08189200  0.19346100  1
  O  O47  1  0.91810800  0.81638900  0.30653900  1
