# generated using pymatgen
data_Dy2Mo8O33
_symmetry_space_group_name_H-M   'P 1'
_cell_length_a   10.51423100
_cell_length_b   9.37338000
_cell_length_c   14.22181052
_cell_angle_alpha   88.70641521
_cell_angle_beta   90.00000000
_cell_angle_gamma   90.00000000
_symmetry_Int_Tables_number   1
_chemical_formula_structural   Dy2Mo8O33
_chemical_formula_sum   'Dy4 Mo16 O66'
_cell_volume   1401.25743341
_cell_formula_units_Z   2
loop_
 _symmetry_equiv_pos_site_id
 _symmetry_equiv_pos_as_xyz
  1  'x, y, z'
loop_
 _atom_site_type_symbol
 _atom_site_label
 _atom_site_symmetry_multiplicity
 _atom_site_fract_x
 _atom_site_fract_y
 _atom_site_fract_z
 _atom_site_occupancy
  Dy  Dy0  1  0.48443300  0.27721400  0.06329800  1
  Dy  Dy1  1  0.98443300  0.72278600  0.93670200  1
  Dy  Dy2  1  0.78629600  0.22936400  0.42692500  1
  Dy  Dy3  1  0.28629600  0.77063600  0.57307500  1
  Mo  Mo4  1  0.41994000  0.88245900  0.15572500  1
  Mo  Mo5  1  0.91994000  0.11754100  0.84427500  1
  Mo  Mo6  1  0.20896300  0.60734100  0.31864000  1
  Mo  Mo7  1  0.70896300  0.39265900  0.68136000  1
  Mo  Mo8  1  0.99741500  0.37575700  0.21744300  1
  Mo  Mo9  1  0.49741500  0.62424300  0.78255700  1
  Mo  Mo10  1  0.07650500  0.90470300  0.18240400  1
  Mo  Mo11  1  0.57650500  0.09529700  0.81759600  1
  Mo  Mo12  1  0.04376000  0.90006400  0.41839200  1
  Mo  Mo13  1  0.54376000  0.09993600  0.58160800  1
  Mo  Mo14  1  0.28450000  0.14048500  0.28131700  1
  Mo  Mo15  1  0.78450000  0.85951500  0.71868300  1
  Mo  Mo16  1  0.86717200  0.62891000  0.34807300  1
  Mo  Mo17  1  0.36717200  0.37109000  0.65192700  1
  Mo  Mo18  1  0.24579200  0.61296700  0.08312800  1
  Mo  Mo19  1  0.74579200  0.38703300  0.91687200  1
  O  O20  1  0.06485000  0.49860000  0.35139100  1
  O  O21  1  0.56485000  0.50140000  0.64860900  1
  O  O22  1  0.48435500  0.03224900  0.08738100  1
  O  O23  1  0.98435500  0.96775100  0.91261900  1
  O  O24  1  0.96882300  0.34192100  0.10201500  1
  O  O25  1  0.46882300  0.65807900  0.89798500  1
  O  O26  1  0.33932200  0.77971100  0.05140300  1
  O  O27  1  0.83932200  0.22028900  0.94859700  1
  O  O28  1  0.22192700  0.01278100  0.14754500  1
  O  O29  1  0.72192700  0.98721900  0.85245500  1
  O  O30  1  0.38620900  0.25212300  0.20458100  1
  O  O31  1  0.88620900  0.74787700  0.79541900  1
  O  O32  1  0.74194900  0.74144500  0.32830300  1
  O  O33  1  0.24194900  0.25855500  0.67169700  1
  O  O34  1  0.01898700  0.77809500  0.28861200  1
  O  O35  1  0.51898700  0.22190500  0.71138800  1
  O  O36  1  0.94974200  0.01345200  0.16165100  1
  O  O37  1  0.44974200  0.98654800  0.83834900  1
  O  O38  1  0.13327300  0.93363500  0.52082000  1
  O  O39  1  0.63327300  0.06636500  0.47918000  1
  O  O40  1  0.14784100  0.52241100  0.18461800  1
  O  O41  1  0.64784100  0.47758900  0.81538200  1
  O  O42  1  0.88749500  0.54415900  0.22787900  1
  O  O43  1  0.38749500  0.45584100  0.77212100  1
  O  O44  1  0.26787100  0.73766900  0.21350700  1
  O  O45  1  0.76787100  0.26233100  0.78649300  1
  O  O46  1  0.15534300  0.57787400  0.98132600  1
  O  O47  1  0.65534300  0.42212600  0.01867400  1
  O  O48  1  0.13714300  0.25322900  0.24882300  1
  O  O49  1  0.63714300  0.74677100  0.75117700  1
  O  O50  1  0.14219500  0.98954600  0.31640400  1
  O  O51  1  0.64219500  0.01045400  0.68359600  1
  O  O52  1  0.06605700  0.77724200  0.08676300  1
  O  O53  1  0.56605700  0.22275800  0.91323700  1
  O  O54  1  0.36816500  0.48352400  0.07652600  1
  O  O55  1  0.86816500  0.51647600  0.92347400  1
  O  O56  1  0.21810900  0.73237100  0.41646800  1
  O  O57  1  0.71810900  0.26762900  0.58353200  1
  O  O58  1  0.31436600  0.18642400  0.39426100  1
  O  O59  1  0.81436600  0.81357600  0.60573900  1
  O  O60  1  0.54546000  0.77239900  0.17985200  1
  O  O61  1  0.04546000  0.22760100  0.82014800  1
  O  O62  1  0.40030300  0.97675100  0.27288300  1
  O  O63  1  0.90030300  0.02324900  0.72711700  1
  O  O64  1  0.33567200  0.49833000  0.33962400  1
  O  O65  1  0.83567200  0.50167000  0.66037600  1
  O  O66  1  0.88661600  0.26354200  0.28722100  1
  O  O67  1  0.38661600  0.73645800  0.71277900  1
  O  O68  1  0.92082400  0.03128300  0.42428000  1
  O  O69  1  0.42082400  0.96871700  0.57572000  1
  O  O70  1  0.95220700  0.73246200  0.45100000  1
  O  O71  1  0.45220700  0.26753800  0.54900000  1
  O  O72  1  0.80022400  0.47618700  0.41066000  1
  O  O73  1  0.30022400  0.52381300  0.58934000  1
  O  O74  1  0.27772800  0.17829300  0.01900200  1
  O  O75  1  0.77772800  0.82170700  0.98099800  1
  O  O76  1  0.60296600  0.34280700  0.35427300  1
  O  O77  1  0.10296600  0.65719300  0.64572700  1
  O  O78  1  0.66621100  0.17292100  0.13732600  1
  O  O79  1  0.16621100  0.82707900  0.86267400  1
  O  O80  1  0.50003900  0.71212800  0.53112500  1
  O  O81  1  0.00003900  0.28787200  0.46887500  1
  O  O82  1  0.68788800  0.15904100  0.28063700  1
  O  O83  1  0.18788800  0.84095900  0.71936300  1
  O  O84  1  0.57886200  0.35369300  0.20979300  1
  O  O85  1  0.07886200  0.64630700  0.79020700  1
