# generated using pymatgen
data_Ho3Fe29
_symmetry_space_group_name_H-M   'P 1'
_cell_length_a   6.33977754
_cell_length_b   6.33977754
_cell_length_c   10.40718698
_cell_angle_alpha   84.65182155
_cell_angle_beta   84.65182155
_cell_angle_gamma   82.41451902
_symmetry_Int_Tables_number   1
_chemical_formula_structural   Ho3Fe29
_chemical_formula_sum   'Ho3 Fe29'
_cell_volume   411.43883491
_cell_formula_units_Z   1
loop_
 _symmetry_equiv_pos_site_id
 _symmetry_equiv_pos_as_xyz
  1  'x, y, z'
loop_
 _atom_site_type_symbol
 _atom_site_label
 _atom_site_symmetry_multiplicity
 _atom_site_fract_x
 _atom_site_fract_y
 _atom_site_fract_z
 _atom_site_occupancy
  Ho  Ho0  1  0.00000000  0.00000000  0.00000000  1
  Ho  Ho1  1  0.18531900  0.18531900  0.40550400  1
  Ho  Ho2  1  0.81468100  0.81468100  0.59449600  1
  Fe  Fe3  1  0.50000000  0.50000000  0.50000000  1
  Fe  Fe4  1  0.29467500  0.29467500  0.86296900  1
  Fe  Fe5  1  0.70532500  0.70532500  0.13703100  1
  Fe  Fe6  1  0.52307700  0.52307700  0.74404800  1
  Fe  Fe7  1  0.47692300  0.47692300  0.25595200  1
  Fe  Fe8  1  0.30425900  0.87581800  0.20215600  1
  Fe  Fe9  1  0.12418200  0.69574100  0.79784400  1
  Fe  Fe10  1  0.69574100  0.12418200  0.79784400  1
  Fe  Fe11  1  0.87581800  0.30425900  0.20215600  1
  Fe  Fe12  1  0.54521200  0.81912100  0.37291900  1
  Fe  Fe13  1  0.18087900  0.45478800  0.62708100  1
  Fe  Fe14  1  0.45478800  0.18087900  0.62708100  1
  Fe  Fe15  1  0.81912100  0.54521200  0.37291900  1
  Fe  Fe16  1  0.64269700  0.35730300  0.00000000  1
  Fe  Fe17  1  0.35730300  0.64269700  0.00000000  1
  Fe  Fe18  1  0.27668100  0.27668100  0.11204100  1
  Fe  Fe19  1  0.72331900  0.72331900  0.88795900  1
  Fe  Fe20  1  0.09378400  0.59129400  0.20055100  1
  Fe  Fe21  1  0.40870600  0.90621600  0.79944900  1
  Fe  Fe22  1  0.90621600  0.40870600  0.79944900  1
  Fe  Fe23  1  0.59129400  0.09378400  0.20055100  1
  Fe  Fe24  1  0.90555600  0.90555600  0.29479500  1
  Fe  Fe25  1  0.09444400  0.09444400  0.70520500  1
  Fe  Fe26  1  0.32307400  0.81598300  0.59116500  1
  Fe  Fe27  1  0.18401700  0.67692600  0.40883500  1
  Fe  Fe28  1  0.67692600  0.18401700  0.40883500  1
  Fe  Fe29  1  0.81598300  0.32307400  0.59116500  1
  Fe  Fe30  1  0.00000000  0.50000000  0.00000000  1
  Fe  Fe31  1  0.50000000  0.00000000  0.00000000  1
