# generated using pymatgen
data_SmFeH8C6(N3O2)2
_symmetry_space_group_name_H-M   'P 1'
_cell_length_a   7.81472886
_cell_length_b   7.81472886
_cell_length_c   14.40207300
_cell_angle_alpha   90.00000000
_cell_angle_beta   90.00000000
_cell_angle_gamma   120.87276971
_symmetry_Int_Tables_number   1
_chemical_formula_structural   SmFeH8C6(N3O2)2
_chemical_formula_sum   'Sm2 Fe2 H16 C12 N12 O8'
_cell_volume   754.91219135
_cell_formula_units_Z   2
loop_
 _symmetry_equiv_pos_site_id
 _symmetry_equiv_pos_as_xyz
  1  'x, y, z'
loop_
 _atom_site_type_symbol
 _atom_site_label
 _atom_site_symmetry_multiplicity
 _atom_site_fract_x
 _atom_site_fract_y
 _atom_site_fract_z
 _atom_site_occupancy
  Sm  Sm0  1  0.32168800  0.67831200  0.25000000  1
  Sm  Sm1  1  0.67831200  0.32168800  0.75000000  1
  Fe  Fe2  1  0.00000000  0.00000000  0.00000000  1
  Fe  Fe3  1  0.00000000  0.00000000  0.50000000  1
  H  H4  1  0.51861400  0.13017700  0.19515400  1
  H  H5  1  0.13017700  0.51861400  0.80484600  1
  H  H6  1  0.51861400  0.13017700  0.30484600  1
  H  H7  1  0.13017700  0.51861400  0.69515400  1
  H  H8  1  0.48138600  0.86982300  0.80484600  1
  H  H9  1  0.86982300  0.48138600  0.19515400  1
  H  H10  1  0.48138600  0.86982300  0.69515400  1
  H  H11  1  0.86982300  0.48138600  0.30484600  1
  H  H12  1  0.59583200  0.40416800  0.07941900  1
  H  H13  1  0.40416800  0.59583200  0.92058100  1
  H  H14  1  0.59583200  0.40416800  0.42058100  1
  H  H15  1  0.40416800  0.59583200  0.57941900  1
  H  H16  1  0.70720500  0.29279500  0.05521200  1
  H  H17  1  0.29279500  0.70720500  0.94478800  1
  H  H18  1  0.70720500  0.29279500  0.44478800  1
  H  H19  1  0.29279500  0.70720500  0.55521200  1
  C  C20  1  0.14489300  0.85510700  0.06239100  1
  C  C21  1  0.85510700  0.14489300  0.93760900  1
  C  C22  1  0.14489300  0.85510700  0.43760900  1
  C  C23  1  0.85510700  0.14489300  0.56239100  1
  C  C24  1  0.24777400  0.14969400  0.90468800  1
  C  C25  1  0.14969400  0.24777400  0.09531200  1
  C  C26  1  0.24777400  0.14969400  0.59531200  1
  C  C27  1  0.14969400  0.24777400  0.40468800  1
  C  C28  1  0.75222600  0.85030600  0.09531200  1
  C  C29  1  0.85030600  0.75222600  0.90468800  1
  C  C30  1  0.75222600  0.85030600  0.40468800  1
  C  C31  1  0.85030600  0.75222600  0.59531200  1
  N  N32  1  0.21956200  0.78043800  0.10331800  1
  N  N33  1  0.78043800  0.21956200  0.89668200  1
  N  N34  1  0.21956200  0.78043800  0.39668200  1
  N  N35  1  0.78043800  0.21956200  0.60331800  1
  N  N36  1  0.61349300  0.77676700  0.14450700  1
  N  N37  1  0.77676700  0.61349300  0.85549300  1
  N  N38  1  0.61349300  0.77676700  0.35549300  1
  N  N39  1  0.77676700  0.61349300  0.64450700  1
  N  N40  1  0.38650700  0.22323300  0.85549300  1
  N  N41  1  0.22323300  0.38650700  0.14450700  1
  N  N42  1  0.38650700  0.22323300  0.64450700  1
  N  N43  1  0.22323300  0.38650700  0.35549300  1
  O  O44  1  0.47492800  0.04213000  0.25000000  1
  O  O45  1  0.04213000  0.47492800  0.75000000  1
  O  O46  1  0.52507200  0.95787000  0.75000000  1
  O  O47  1  0.95787000  0.52507200  0.25000000  1
  O  O48  1  0.66122000  0.33878000  0.10749400  1
  O  O49  1  0.33878000  0.66122000  0.89250600  1
  O  O50  1  0.66122000  0.33878000  0.39250600  1
  O  O51  1  0.33878000  0.66122000  0.60749400  1
