# generated using pymatgen
data_LiCeS2O9
_symmetry_space_group_name_H-M   'P 1'
_cell_length_a   4.64807300
_cell_length_b   8.18298040
_cell_length_c   18.31941531
_cell_angle_alpha   97.94680916
_cell_angle_beta   90.00000000
_cell_angle_gamma   90.00000000
_symmetry_Int_Tables_number   1
_chemical_formula_structural   LiCeS2O9
_chemical_formula_sum   'Li4 Ce4 S8 O36'
_cell_volume   690.08932180
_cell_formula_units_Z   4
loop_
 _symmetry_equiv_pos_site_id
 _symmetry_equiv_pos_as_xyz
  1  'x, y, z'
loop_
 _atom_site_type_symbol
 _atom_site_label
 _atom_site_symmetry_multiplicity
 _atom_site_fract_x
 _atom_site_fract_y
 _atom_site_fract_z
 _atom_site_occupancy
  Li  Li0  1  0.93210900  0.11422500  0.29435700  1
  Li  Li1  1  0.43210900  0.88577500  0.20564300  1
  Li  Li2  1  0.06789100  0.88577500  0.70564300  1
  Li  Li3  1  0.56789100  0.11422500  0.79435700  1
  Ce  Ce4  1  0.51271400  0.61683200  0.39948200  1
  Ce  Ce5  1  0.01271400  0.38316800  0.10051800  1
  Ce  Ce6  1  0.48728600  0.38316800  0.60051800  1
  Ce  Ce7  1  0.98728600  0.61683200  0.89948200  1
  S  S8  1  0.96623300  0.29114900  0.44716900  1
  S  S9  1  0.46623300  0.70885100  0.05283100  1
  S  S10  1  0.03376700  0.70885100  0.55283100  1
  S  S11  1  0.53376700  0.29114900  0.94716900  1
  S  S12  1  0.94772600  0.72528800  0.26412900  1
  S  S13  1  0.44772600  0.27471200  0.23587100  1
  S  S14  1  0.05227400  0.27471200  0.73587100  1
  S  S15  1  0.55227400  0.72528800  0.76412900  1
  O  O16  1  0.92919500  0.13336100  0.40118600  1
  O  O17  1  0.42919500  0.86663900  0.09881400  1
  O  O18  1  0.07080500  0.86663900  0.59881400  1
  O  O19  1  0.57080500  0.13336100  0.90118600  1
  O  O20  1  0.67612100  0.36853000  0.47031000  1
  O  O21  1  0.17612100  0.63147000  0.02969000  1
  O  O22  1  0.32387900  0.63147000  0.52969000  1
  O  O23  1  0.82387900  0.36853000  0.97031000  1
  O  O24  1  0.12218600  0.27168300  0.51706000  1
  O  O25  1  0.62218600  0.72831700  0.98294000  1
  O  O26  1  0.87781400  0.72831700  0.48294000  1
  O  O27  1  0.37781400  0.27168300  0.01706000  1
  O  O28  1  0.11407000  0.41270500  0.40683300  1
  O  O29  1  0.61407000  0.58729500  0.09316700  1
  O  O30  1  0.88593000  0.58729500  0.59316700  1
  O  O31  1  0.38593000  0.41270500  0.90683300  1
  O  O32  1  0.06280300  0.88996500  0.25609000  1
  O  O33  1  0.56280300  0.11003500  0.24391000  1
  O  O34  1  0.93719700  0.11003500  0.74391000  1
  O  O35  1  0.43719700  0.88996500  0.75609000  1
  O  O36  1  0.05229400  0.60534700  0.20155200  1
  O  O37  1  0.55229400  0.39465300  0.29844800  1
  O  O38  1  0.94770600  0.39465300  0.79844800  1
  O  O39  1  0.44770600  0.60534700  0.70155200  1
  O  O40  1  0.62945000  0.72998400  0.26868500  1
  O  O41  1  0.12945000  0.27001600  0.23131500  1
  O  O42  1  0.37055000  0.27001600  0.73131500  1
  O  O43  1  0.87055000  0.72998400  0.76868500  1
  O  O44  1  0.04859100  0.67192200  0.33550400  1
  O  O45  1  0.54859100  0.32807800  0.16449600  1
  O  O46  1  0.95140900  0.32807800  0.66449600  1
  O  O47  1  0.45140900  0.67192200  0.83550400  1
  O  O48  1  0.93712500  0.13602100  0.08158900  1
  O  O49  1  0.43712500  0.86397900  0.41841100  1
  O  O50  1  0.06287500  0.86397900  0.91841100  1
  O  O51  1  0.56287500  0.13602100  0.58158900  1
