# generated using pymatgen
data_TcP4H36(C6Br)2
_symmetry_space_group_name_H-M   'P 1'
_cell_length_a   9.59993010
_cell_length_b   9.59993010
_cell_length_c   9.59993010
_cell_angle_alpha   117.71043763
_cell_angle_beta   117.71043763
_cell_angle_gamma   94.01360456
_symmetry_Int_Tables_number   1
_chemical_formula_structural   TcP4H36(C6Br)2
_chemical_formula_sum   'Tc1 P4 H36 C12 Br2'
_cell_volume   645.52537503
_cell_formula_units_Z   1
loop_
 _symmetry_equiv_pos_site_id
 _symmetry_equiv_pos_as_xyz
  1  'x, y, z'
loop_
 _atom_site_type_symbol
 _atom_site_label
 _atom_site_symmetry_multiplicity
 _atom_site_fract_x
 _atom_site_fract_y
 _atom_site_fract_z
 _atom_site_occupancy
  Tc  Tc0  1  0.00000000  0.00000000  0.00000000  1
  P  P1  1  0.14374800  0.14374800  0.34355700  1
  P  P2  1  0.80019100  0.80019100  0.65644300  1
  P  P3  1  0.19980900  0.85625200  0.00000000  1
  P  P4  1  0.85625200  0.19980900  0.00000000  1
  H  H5  1  0.11044600  0.89952700  0.36240900  1
  H  H6  1  0.53711800  0.74803600  0.63759100  1
  H  H7  1  0.46288200  0.10047300  0.21091800  1
  H  H8  1  0.88955400  0.25196400  0.78908200  1
  H  H9  1  0.25196400  0.88955400  0.78908200  1
  H  H10  1  0.10047300  0.46288200  0.21091800  1
  H  H11  1  0.89952700  0.11044600  0.36240900  1
  H  H12  1  0.74803600  0.53711800  0.63759100  1
  H  H13  1  0.32343000  0.99175000  0.44516100  1
  H  H14  1  0.54658900  0.87826900  0.55483900  1
  H  H15  1  0.45341100  0.00825000  0.33167900  1
  H  H16  1  0.67657000  0.12173100  0.66832100  1
  H  H17  1  0.12173100  0.67657000  0.66832100  1
  H  H18  1  0.00825000  0.45341100  0.33167900  1
  H  H19  1  0.99175000  0.32343000  0.44516100  1
  H  H20  1  0.87826900  0.54658900  0.55483900  1
  H  H21  1  0.25116000  0.09213300  0.59290400  1
  H  H22  1  0.49922900  0.65825600  0.40709600  1
  H  H23  1  0.50077100  0.90786700  0.15902700  1
  H  H24  1  0.74884000  0.34174400  0.84097300  1
  H  H25  1  0.34174400  0.74884000  0.84097300  1
  H  H26  1  0.90786700  0.50077100  0.15902700  1
  H  H27  1  0.09213300  0.25116000  0.59290400  1
  H  H28  1  0.65825600  0.49922900  0.40709600  1
  H  H29  1  0.43757700  0.31114400  0.49704600  1
  H  H30  1  0.81409800  0.94053100  0.50295400  1
  H  H31  1  0.18590200  0.68885600  0.12643400  1
  H  H32  1  0.56242300  0.05946900  0.87356600  1
  H  H33  1  0.05946900  0.56242300  0.87356600  1
  H  H34  1  0.68885600  0.18590200  0.12643400  1
  H  H35  1  0.31114400  0.43757700  0.49704600  1
  H  H36  1  0.94053100  0.81409800  0.50295400  1
  H  H37  1  0.37718000  0.37718000  0.66172000  1
  H  H38  1  0.71546000  0.71546000  0.33828000  1
  H  H39  1  0.28454000  0.62282000  0.00000000  1
  H  H40  1  0.62282000  0.28454000  0.00000000  1
  C  C41  1  0.21466800  0.01954000  0.44531300  1
  C  C42  1  0.57422700  0.76935500  0.55468700  1
  C  C43  1  0.42577300  0.98046000  0.19512800  1
  C  C44  1  0.78533200  0.23064500  0.80487200  1
  C  C45  1  0.23064500  0.78533200  0.80487200  1
  C  C46  1  0.98046000  0.42577300  0.19512800  1
  C  C47  1  0.01954000  0.21466800  0.44531300  1
  C  C48  1  0.76935500  0.57422700  0.55468700  1
  C  C49  1  0.33594600  0.33594600  0.51662500  1
  C  C50  1  0.81932100  0.81932100  0.48337500  1
  C  C51  1  0.18067900  0.66405400  0.00000000  1
  C  C52  1  0.66405400  0.18067900  0.00000000  1
  Br  Br53  1  0.80101400  0.80101400  0.00000000  1
  Br  Br54  1  0.19898600  0.19898600  0.00000000  1
