# generated using pymatgen
data_Ba7Ga5AgSe15
_symmetry_space_group_name_H-M   'P 1'
_cell_length_a   10.22083323
_cell_length_b   10.22083323
_cell_length_c   19.02052700
_cell_angle_alpha   90.00000000
_cell_angle_beta   90.00000000
_cell_angle_gamma   119.99999500
_symmetry_Int_Tables_number   1
_chemical_formula_structural   Ba7Ga5AgSe15
_chemical_formula_sum   'Ba14 Ga10 Ag2 Se30'
_cell_volume   1720.78179706
_cell_formula_units_Z   2
loop_
 _symmetry_equiv_pos_site_id
 _symmetry_equiv_pos_as_xyz
  1  'x, y, z'
loop_
 _atom_site_type_symbol
 _atom_site_label
 _atom_site_symmetry_multiplicity
 _atom_site_fract_x
 _atom_site_fract_y
 _atom_site_fract_z
 _atom_site_occupancy
  Ba  Ba0  1  0.00000000  0.00000000  0.82118400  1
  Ba  Ba1  1  0.00000000  0.00000000  0.32118400  1
  Ba  Ba2  1  0.64909900  0.72801300  0.51682900  1
  Ba  Ba3  1  0.07891400  0.35090100  0.51682900  1
  Ba  Ba4  1  0.27198700  0.92108600  0.51682900  1
  Ba  Ba5  1  0.92108600  0.27198700  0.01682900  1
  Ba  Ba6  1  0.72801300  0.64909900  0.01682900  1
  Ba  Ba7  1  0.35090100  0.07891400  0.01682900  1
  Ba  Ba8  1  0.57827200  0.97547100  0.70714800  1
  Ba  Ba9  1  0.39719900  0.42172800  0.70714800  1
  Ba  Ba10  1  0.02452900  0.60280100  0.70714800  1
  Ba  Ba11  1  0.60280100  0.02452900  0.20714800  1
  Ba  Ba12  1  0.97547100  0.57827200  0.20714800  1
  Ba  Ba13  1  0.42172800  0.39719900  0.20714800  1
  Ga  Ga14  1  0.66666700  0.33333300  0.57664800  1
  Ga  Ga15  1  0.33333300  0.66666700  0.07664800  1
  Ga  Ga16  1  0.53606600  0.89018500  0.90619700  1
  Ga  Ga17  1  0.35411900  0.46393400  0.90619700  1
  Ga  Ga18  1  0.10981500  0.64588100  0.90619700  1
  Ga  Ga19  1  0.64588100  0.10981500  0.40619700  1
  Ga  Ga20  1  0.89018500  0.53606600  0.40619700  1
  Ga  Ga21  1  0.46393400  0.35411900  0.40619700  1
  Ga  Ga22  1  0.00000000  0.00000000  0.62978500  1
  Ga  Ga23  1  0.00000000  0.00000000  0.12978500  1
  Ag  Ag24  1  0.66666700  0.33333300  0.85629100  1
  Ag  Ag25  1  0.33333300  0.66666700  0.35629100  1
  Se  Se26  1  0.87972000  0.62438600  0.86373000  1
  Se  Se27  1  0.74466700  0.12028000  0.86373000  1
  Se  Se28  1  0.37561400  0.25533300  0.86373000  1
  Se  Se29  1  0.25533300  0.37561400  0.36373000  1
  Se  Se30  1  0.62438600  0.87972000  0.36373000  1
  Se  Se31  1  0.12028000  0.74466700  0.36373000  1
  Se  Se32  1  0.57000900  0.68921700  0.85931800  1
  Se  Se33  1  0.11920800  0.42999100  0.85931800  1
  Se  Se34  1  0.31078300  0.88079200  0.85931800  1
  Se  Se35  1  0.88079200  0.31078300  0.35931800  1
  Se  Se36  1  0.68921700  0.57000900  0.35931800  1
  Se  Se37  1  0.42999100  0.11920800  0.35931800  1
  Se  Se38  1  0.89505200  0.55781400  0.53476100  1
  Se  Se39  1  0.66276200  0.10494800  0.53476100  1
  Se  Se40  1  0.44218600  0.33723800  0.53476100  1
  Se  Se41  1  0.33723800  0.44218600  0.03476100  1
  Se  Se42  1  0.55781400  0.89505200  0.03476100  1
  Se  Se43  1  0.10494800  0.66276200  0.03476100  1
  Se  Se44  1  0.66666700  0.33333300  0.70079400  1
  Se  Se45  1  0.33333300  0.66666700  0.20079400  1
  Se  Se46  1  0.00000000  0.00000000  0.50059500  1
  Se  Se47  1  0.00000000  0.00000000  0.00059500  1
  Se  Se48  1  0.77215600  0.79085600  0.68129900  1
  Se  Se49  1  0.01870000  0.22784400  0.68129900  1
  Se  Se50  1  0.20914400  0.98130000  0.68129900  1
  Se  Se51  1  0.98130000  0.20914400  0.18129900  1
  Se  Se52  1  0.79085600  0.77215600  0.18129900  1
  Se  Se53  1  0.22784400  0.01870000  0.18129900  1
  Se  Se54  1  0.33333300  0.66666700  0.60856900  1
  Se  Se55  1  0.66666700  0.33333300  0.10856900  1
