# generated using pymatgen
data_Na2Al3P3(HO7)2
_symmetry_space_group_name_H-M   'P 1'
_cell_length_a   8.56703500
_cell_length_b   8.57152800
_cell_length_c   14.46011100
_cell_angle_alpha   90.00000000
_cell_angle_beta   90.00000000
_cell_angle_gamma   90.00000000
_symmetry_Int_Tables_number   1
_chemical_formula_structural   Na2Al3P3(HO7)2
_chemical_formula_sum   'Na8 Al12 P12 H8 O56'
_cell_volume   1061.84326330
_cell_formula_units_Z   4
loop_
 _symmetry_equiv_pos_site_id
 _symmetry_equiv_pos_as_xyz
  1  'x, y, z'
loop_
 _atom_site_type_symbol
 _atom_site_label
 _atom_site_symmetry_multiplicity
 _atom_site_fract_x
 _atom_site_fract_y
 _atom_site_fract_z
 _atom_site_occupancy
  Na  Na0  1  0.77194300  0.98853900  0.78608800  1
  Na  Na1  1  0.72805700  0.01146100  0.28608800  1
  Na  Na2  1  0.22805700  0.48853900  0.71391200  1
  Na  Na3  1  0.27194300  0.51146100  0.21391200  1
  Na  Na4  1  0.24722400  0.53020300  0.46071600  1
  Na  Na5  1  0.25277600  0.46979700  0.96071600  1
  Na  Na6  1  0.75277600  0.03020300  0.03928400  1
  Na  Na7  1  0.74722400  0.96979700  0.53928400  1
  Al  Al8  1  0.13220300  0.09542000  0.70845800  1
  Al  Al9  1  0.36779700  0.90458000  0.20845800  1
  Al  Al10  1  0.86779700  0.59542000  0.79154200  1
  Al  Al11  1  0.63220300  0.40458000  0.29154200  1
  Al  Al12  1  0.36736100  0.88478200  0.55166400  1
  Al  Al13  1  0.13263900  0.11521800  0.05166400  1
  Al  Al14  1  0.63263900  0.38478200  0.94833600  1
  Al  Al15  1  0.86736100  0.61521800  0.44833600  1
  Al  Al16  1  0.63929600  0.35815100  0.63645400  1
  Al  Al17  1  0.86070400  0.64184900  0.13645400  1
  Al  Al18  1  0.36070400  0.85815100  0.86354600  1
  Al  Al19  1  0.13929600  0.14184900  0.36354600  1
  P  P20  1  0.46454000  0.21239700  0.45772000  1
  P  P21  1  0.03546000  0.78760300  0.95772000  1
  P  P22  1  0.53546000  0.71239700  0.04228000  1
  P  P23  1  0.96454000  0.28760300  0.54228000  1
  P  P24  1  0.02623000  0.77836400  0.62240000  1
  P  P25  1  0.47377000  0.22163600  0.12240000  1
  P  P26  1  0.97377000  0.27836400  0.87760000  1
  P  P27  1  0.52623000  0.72163600  0.37760000  1
  P  P28  1  0.54742500  0.69863200  0.70453800  1
  P  P29  1  0.95257500  0.30136800  0.20453800  1
  P  P30  1  0.45257500  0.19863200  0.79546200  1
  P  P31  1  0.04742500  0.80136800  0.29546200  1
  H  H32  1  0.33388800  0.13982300  0.60510600  1
  H  H33  1  0.16611200  0.86017700  0.10510600  1
  H  H34  1  0.66611200  0.63982300  0.89489400  1
  H  H35  1  0.83388800  0.36017700  0.39489400  1
  H  H36  1  0.88843700  0.36796400  0.70217200  1
  H  H37  1  0.61156300  0.63203600  0.20217200  1
  H  H38  1  0.11156300  0.86796400  0.79782800  1
  H  H39  1  0.38843700  0.13203600  0.29782800  1
  O  O40  1  0.56798300  0.23381300  0.37112000  1
  O  O41  1  0.93201700  0.76618700  0.87112000  1
  O  O42  1  0.43201700  0.73381300  0.12888000  1
  O  O43  1  0.06798300  0.26618700  0.62888000  1
  O  O44  1  0.71209400  0.73179600  0.74248500  1
  O  O45  1  0.78790600  0.26820400  0.24248500  1
  O  O46  1  0.28790600  0.23179600  0.75751500  1
  O  O47  1  0.21209400  0.76820400  0.25751500  1
  O  O48  1  0.27516100  0.04401800  0.61425500  1
  O  O49  1  0.22483900  0.95598200  0.11425500  1
  O  O50  1  0.72483900  0.54401800  0.88574500  1
  O  O51  1  0.77516100  0.45598200  0.38574500  1
  O  O52  1  0.79997200  0.43908000  0.70801500  1
  O  O53  1  0.70002800  0.56092000  0.20801500  1
  O  O54  1  0.20002800  0.93908000  0.79198500  1
  O  O55  1  0.29997200  0.06092000  0.29198500  1
  O  O56  1  0.98831700  0.94627300  0.65752900  1
  O  O57  1  0.51168300  0.05372700  0.15752900  1
  O  O58  1  0.01168300  0.44627300  0.84247100  1
  O  O59  1  0.48831700  0.55372700  0.34247100  1
  O  O60  1  0.51911300  0.82456900  0.62978700  1
  O  O61  1  0.98088700  0.17543100  0.12978700  1
  O  O62  1  0.48088700  0.32456900  0.87021300  1
  O  O63  1  0.01911300  0.67543100  0.37021300  1
  O  O64  1  0.89986800  0.74439900  0.54818500  1
  O  O65  1  0.60013200  0.25560100  0.04818500  1
  O  O66  1  0.10013200  0.24439900  0.95181500  1
  O  O67  1  0.39986800  0.75560100  0.45181500  1
  O  O68  1  0.97948600  0.16141100  0.79611500  1
  O  O69  1  0.52051400  0.83858900  0.29611500  1
  O  O70  1  0.02051400  0.66141100  0.70388500  1
  O  O71  1  0.47948600  0.33858900  0.20388500  1
  O  O72  1  0.19171600  0.76238200  0.57884400  1
  O  O73  1  0.30828400  0.23761800  0.07884400  1
  O  O74  1  0.80828400  0.26238200  0.92115600  1
  O  O75  1  0.69171600  0.73761800  0.42115600  1
  O  O76  1  0.98723900  0.45921500  0.51009300  1
  O  O77  1  0.51276100  0.54078500  0.01009300  1
  O  O78  1  0.01276100  0.95921500  0.98990700  1
  O  O79  1  0.48723900  0.04078500  0.48990700  1
  O  O80  1  0.49910400  0.32604900  0.53843300  1
  O  O81  1  0.00089600  0.67395100  0.03843300  1
  O  O82  1  0.50089600  0.82604900  0.96156700  1
  O  O83  1  0.99910400  0.17395100  0.46156700  1
  O  O84  1  0.29050400  0.24648100  0.43227400  1
  O  O85  1  0.20949600  0.75351900  0.93227400  1
  O  O86  1  0.70949600  0.74648100  0.06772600  1
  O  O87  1  0.79050400  0.25351900  0.56772600  1
  O  O88  1  0.52463700  0.53472900  0.66185600  1
  O  O89  1  0.97536300  0.46527100  0.16185600  1
  O  O90  1  0.47536300  0.03472900  0.83814400  1
  O  O91  1  0.02463700  0.96527100  0.33814400  1
  O  O92  1  0.42430200  0.70868100  0.78316000  1
  O  O93  1  0.07569800  0.29131900  0.28316000  1
  O  O94  1  0.57569800  0.20868100  0.71684000  1
  O  O95  1  0.92430200  0.79131900  0.21684000  1
