# generated using pymatgen
data_Na4XeO12
_symmetry_space_group_name_H-M   'P 1'
_cell_length_a   6.35799100
_cell_length_b   10.91535600
_cell_length_c   16.46116600
_cell_angle_alpha   90.00000000
_cell_angle_beta   90.00000000
_cell_angle_gamma   90.00000000
_symmetry_Int_Tables_number   1
_chemical_formula_structural   Na4XeO12
_chemical_formula_sum   'Na16 Xe4 O48'
_cell_volume   1142.40056164
_cell_formula_units_Z   4
loop_
 _symmetry_equiv_pos_site_id
 _symmetry_equiv_pos_as_xyz
  1  'x, y, z'
loop_
 _atom_site_type_symbol
 _atom_site_label
 _atom_site_symmetry_multiplicity
 _atom_site_fract_x
 _atom_site_fract_y
 _atom_site_fract_z
 _atom_site_occupancy
  Na  Na0  1  0.93873100  0.84272400  0.52340600  1
  Na  Na1  1  0.06126900  0.65727600  0.02340600  1
  Na  Na2  1  0.56126900  0.34272400  0.47659400  1
  Na  Na3  1  0.43873100  0.15727600  0.97659400  1
  Na  Na4  1  0.06126900  0.15727600  0.47659400  1
  Na  Na5  1  0.93873100  0.34272400  0.97659400  1
  Na  Na6  1  0.43873100  0.65727600  0.52340600  1
  Na  Na7  1  0.56126900  0.84272400  0.02340600  1
  Na  Na8  1  0.11591900  0.86569400  0.73166300  1
  Na  Na9  1  0.88408100  0.63430600  0.23166300  1
  Na  Na10  1  0.38408100  0.36569400  0.26833700  1
  Na  Na11  1  0.61591900  0.13430600  0.76833700  1
  Na  Na12  1  0.88408100  0.13430600  0.26833700  1
  Na  Na13  1  0.11591900  0.36569400  0.76833700  1
  Na  Na14  1  0.61591900  0.63430600  0.73166300  1
  Na  Na15  1  0.38408100  0.86569400  0.23166300  1
  Xe  Xe16  1  0.50000000  0.00000000  0.50000000  1
  Xe  Xe17  1  0.50000000  0.50000000  0.00000000  1
  Xe  Xe18  1  0.00000000  0.50000000  0.50000000  1
  Xe  Xe19  1  0.00000000  0.00000000  0.00000000  1
  O  O20  1  0.94265500  0.07420800  0.60040700  1
  O  O21  1  0.05734500  0.42579200  0.10040700  1
  O  O22  1  0.55734500  0.57420800  0.39959300  1
  O  O23  1  0.44265500  0.92579200  0.89959300  1
  O  O24  1  0.05734500  0.92579200  0.39959300  1
  O  O25  1  0.94265500  0.57420800  0.89959300  1
  O  O26  1  0.44265500  0.42579200  0.60040700  1
  O  O27  1  0.55734500  0.07420800  0.10040700  1
  O  O28  1  0.23683800  0.79959800  0.59899200  1
  O  O29  1  0.76316200  0.70040200  0.09899200  1
  O  O30  1  0.26316200  0.29959800  0.40100800  1
  O  O31  1  0.73683800  0.20040200  0.90100800  1
  O  O32  1  0.76316200  0.20040200  0.40100800  1
  O  O33  1  0.23683800  0.29959800  0.90100800  1
  O  O34  1  0.73683800  0.70040200  0.59899200  1
  O  O35  1  0.26316200  0.79959800  0.09899200  1
  O  O36  1  0.77222400  0.82279600  0.38948800  1
  O  O37  1  0.22777600  0.67720400  0.88948800  1
  O  O38  1  0.72777600  0.32279600  0.61051200  1
  O  O39  1  0.27222400  0.17720400  0.11051200  1
  O  O40  1  0.22777600  0.17720400  0.61051200  1
  O  O41  1  0.77222400  0.32279600  0.11051200  1
  O  O42  1  0.27222400  0.67720400  0.38948800  1
  O  O43  1  0.72777600  0.82279600  0.88948800  1
  O  O44  1  0.77109600  0.79465900  0.65052600  1
  O  O45  1  0.22890400  0.70534100  0.15052600  1
  O  O46  1  0.72890400  0.29465900  0.34947400  1
  O  O47  1  0.27109600  0.20534100  0.84947400  1
  O  O48  1  0.22890400  0.20534100  0.34947400  1
  O  O49  1  0.77109600  0.29465900  0.84947400  1
  O  O50  1  0.27109600  0.70534100  0.65052600  1
  O  O51  1  0.72890400  0.79465900  0.15052600  1
  O  O52  1  0.44307900  0.94267700  0.82148100  1
  O  O53  1  0.55692100  0.55732300  0.32148100  1
  O  O54  1  0.05692100  0.44267700  0.17851900  1
  O  O55  1  0.94307900  0.05732300  0.67851900  1
  O  O56  1  0.55692100  0.05732300  0.17851900  1
  O  O57  1  0.44307900  0.44267700  0.67851900  1
  O  O58  1  0.94307900  0.55732300  0.82148100  1
  O  O59  1  0.05692100  0.94267700  0.32148100  1
  O  O60  1  0.73376800  0.34436200  0.68659900  1
  O  O61  1  0.26623200  0.15563800  0.18659900  1
  O  O62  1  0.76623200  0.84436200  0.31340100  1
  O  O63  1  0.23376800  0.65563800  0.81340100  1
  O  O64  1  0.26623200  0.65563800  0.31340100  1
  O  O65  1  0.73376800  0.84436200  0.81340100  1
  O  O66  1  0.23376800  0.15563800  0.68659900  1
  O  O67  1  0.76623200  0.34436200  0.18659900  1
