# generated using pymatgen
data_GdCrO5
_symmetry_space_group_name_H-M   'P 1'
_cell_length_a   8.36343600
_cell_length_b   11.52149800
_cell_length_c   11.32031702
_cell_angle_alpha   90.00000000
_cell_angle_beta   131.56072056
_cell_angle_gamma   90.00000000
_symmetry_Int_Tables_number   1
_chemical_formula_structural   GdCrO5
_chemical_formula_sum   'Gd8 Cr8 O40'
_cell_volume   816.20788342
_cell_formula_units_Z   8
loop_
 _symmetry_equiv_pos_site_id
 _symmetry_equiv_pos_as_xyz
  1  'x, y, z'
loop_
 _atom_site_type_symbol
 _atom_site_label
 _atom_site_symmetry_multiplicity
 _atom_site_fract_x
 _atom_site_fract_y
 _atom_site_fract_z
 _atom_site_occupancy
  Gd  Gd0  1  0.78563000  0.94748200  0.65666700  1
  Gd  Gd1  1  0.21437000  0.44748200  0.84333300  1
  Gd  Gd2  1  0.21437000  0.05251800  0.34333300  1
  Gd  Gd3  1  0.78563000  0.55251800  0.15666700  1
  Gd  Gd4  1  0.26888700  0.92380800  0.68536700  1
  Gd  Gd5  1  0.73111300  0.42380800  0.81463300  1
  Gd  Gd6  1  0.73111300  0.07619200  0.31463300  1
  Gd  Gd7  1  0.26888700  0.57619200  0.18536700  1
  Cr  Cr8  1  0.85900900  0.67560300  0.49986500  1
  Cr  Cr9  1  0.14099100  0.17560300  0.00013500  1
  Cr  Cr10  1  0.14099100  0.32439700  0.50013500  1
  Cr  Cr11  1  0.85900900  0.82439700  0.99986500  1
  Cr  Cr12  1  0.40298400  0.69117200  0.54257500  1
  Cr  Cr13  1  0.59701600  0.19117200  0.95742500  1
  Cr  Cr14  1  0.59701600  0.30882800  0.45742500  1
  Cr  Cr15  1  0.40298400  0.80882800  0.04257500  1
  O  O16  1  0.90381200  0.81345700  0.56673600  1
  O  O17  1  0.09618800  0.31345700  0.93326400  1
  O  O18  1  0.09618800  0.18654300  0.43326400  1
  O  O19  1  0.90381200  0.68654300  0.06673600  1
  O  O20  1  0.61742200  0.63389200  0.42161400  1
  O  O21  1  0.38257800  0.13389200  0.07838600  1
  O  O22  1  0.38257800  0.36610800  0.57838600  1
  O  O23  1  0.61742200  0.86610800  0.92161400  1
  O  O24  1  0.86764000  0.66838000  0.35873800  1
  O  O25  1  0.13236000  0.16838000  0.14126200  1
  O  O26  1  0.13236000  0.33162000  0.64126200  1
  O  O27  1  0.86764000  0.83162000  0.85873800  1
  O  O28  1  0.04111800  0.58830300  0.64993900  1
  O  O29  1  0.95888200  0.08830300  0.85006100  1
  O  O30  1  0.95888200  0.41169700  0.35006100  1
  O  O31  1  0.04111800  0.91169700  0.14993900  1
  O  O32  1  0.28867700  0.73880300  0.60856300  1
  O  O33  1  0.71132300  0.23880300  0.89143700  1
  O  O34  1  0.71132300  0.26119700  0.39143700  1
  O  O35  1  0.28867700  0.76119700  0.10856300  1
  O  O36  1  0.22310700  0.62290600  0.37004600  1
  O  O37  1  0.77689300  0.12290600  0.12995400  1
  O  O38  1  0.77689300  0.37709400  0.62995400  1
  O  O39  1  0.22310700  0.87709400  0.87004600  1
  O  O40  1  0.49669400  0.81165800  0.51865300  1
  O  O41  1  0.50330600  0.31165800  0.98134700  1
  O  O42  1  0.50330600  0.18834200  0.48134700  1
  O  O43  1  0.49669400  0.68834200  0.01865300  1
  O  O44  1  0.59614300  0.60066100  0.67550400  1
  O  O45  1  0.40385700  0.10066100  0.82449600  1
  O  O46  1  0.40385700  0.39933900  0.32449600  1
  O  O47  1  0.59614300  0.89933900  0.17550400  1
  O  O48  1  0.97336000  0.03607600  0.58643200  1
  O  O49  1  0.02664000  0.53607600  0.91356800  1
  O  O50  1  0.02664000  0.96392400  0.41356800  1
  O  O51  1  0.97336000  0.46392400  0.08643200  1
  O  O52  1  0.53155100  0.01793400  0.38929000  1
  O  O53  1  0.46844900  0.51793400  0.11071000  1
  O  O54  1  0.46844900  0.98206600  0.61071000  1
  O  O55  1  0.53155100  0.48206600  0.88929000  1
