# generated using pymatgen
data_Cu4H18C6S3I4
_symmetry_space_group_name_H-M   'P 1'
_cell_length_a   16.36115601
_cell_length_b   16.36115601
_cell_length_c   11.10007300
_cell_angle_alpha   90.00000000
_cell_angle_beta   90.00000000
_cell_angle_gamma   132.22552980
_symmetry_Int_Tables_number   1
_chemical_formula_structural   Cu4H18C6S3I4
_chemical_formula_sum   'Cu16 H72 C24 S12 I16'
_cell_volume   2200.30015665
_cell_formula_units_Z   4
loop_
 _symmetry_equiv_pos_site_id
 _symmetry_equiv_pos_as_xyz
  1  'x, y, z'
loop_
 _atom_site_type_symbol
 _atom_site_label
 _atom_site_symmetry_multiplicity
 _atom_site_fract_x
 _atom_site_fract_y
 _atom_site_fract_z
 _atom_site_occupancy
  Cu  Cu0  1  0.42393300  0.57606700  0.88231500  1
  Cu  Cu1  1  0.57606700  0.42393300  0.11768500  1
  Cu  Cu2  1  0.07606700  0.92393300  0.38231500  1
  Cu  Cu3  1  0.92393300  0.07606700  0.61768500  1
  Cu  Cu4  1  0.43214000  0.56786000  0.14079300  1
  Cu  Cu5  1  0.56786000  0.43214000  0.85920700  1
  Cu  Cu6  1  0.06786000  0.93214000  0.64079300  1
  Cu  Cu7  1  0.93214000  0.06786000  0.35920700  1
  Cu  Cu8  1  0.25091400  0.53996400  0.16399600  1
  Cu  Cu9  1  0.53996400  0.25091400  0.83600400  1
  Cu  Cu10  1  0.03996400  0.75091400  0.66399600  1
  Cu  Cu11  1  0.75091400  0.03996400  0.33600400  1
  Cu  Cu12  1  0.74908600  0.46003600  0.83600400  1
  Cu  Cu13  1  0.46003600  0.74908600  0.16399600  1
  Cu  Cu14  1  0.96003600  0.24908600  0.33600400  1
  Cu  Cu15  1  0.24908600  0.96003600  0.66399600  1
  H  H16  1  0.62328200  0.58051700  0.62450500  1
  H  H17  1  0.58051700  0.62328200  0.37549500  1
  H  H18  1  0.08051700  0.12328200  0.12450500  1
  H  H19  1  0.12328200  0.08051700  0.87549500  1
  H  H20  1  0.37671800  0.41948300  0.37549500  1
  H  H21  1  0.41948300  0.37671800  0.62450500  1
  H  H22  1  0.91948300  0.87671800  0.87549500  1
  H  H23  1  0.87671800  0.91948300  0.12450500  1
  H  H24  1  0.66353700  0.68155900  0.73485700  1
  H  H25  1  0.68155900  0.66353700  0.26514300  1
  H  H26  1  0.18155900  0.16353700  0.23485700  1
  H  H27  1  0.16353700  0.18155900  0.76514300  1
  H  H28  1  0.33646300  0.31844100  0.26514300  1
  H  H29  1  0.31844100  0.33646300  0.73485700  1
  H  H30  1  0.81844100  0.83646300  0.76514300  1
  H  H31  1  0.83646300  0.81844100  0.23485700  1
  H  H32  1  0.55735400  0.63525600  0.62863800  1
  H  H33  1  0.63525600  0.55735400  0.37136200  1
  H  H34  1  0.13525600  0.05735400  0.12863800  1
  H  H35  1  0.05735400  0.13525600  0.87136200  1
  H  H36  1  0.44264600  0.36474400  0.37136200  1
  H  H37  1  0.36474400  0.44264600  0.62863800  1
  H  H38  1  0.86474400  0.94264600  0.87136200  1
  H  H39  1  0.94264600  0.86474400  0.12863800  1
  H  H40  1  0.40411200  0.77710100  0.65643100  1
  H  H41  1  0.77710100  0.40411200  0.34356900  1
  H  H42  1  0.27710100  0.90411200  0.15643100  1
  H  H43  1  0.90411200  0.27710100  0.84356900  1
  H  H44  1  0.59588800  0.22289900  0.34356900  1
  H  H45  1  0.22289900  0.59588800  0.65643100  1
  H  H46  1  0.72289900  0.09588800  0.84356900  1
  H  H47  1  0.09588800  0.72289900  0.15643100  1
  H  H48  1  0.53017700  0.81384800  0.70147800  1
  H  H49  1  0.81384800  0.53017700  0.29852200  1
  H  H50  1  0.31384800  0.03017700  0.20147800  1
  H  H51  1  0.03017700  0.31384800  0.79852200  1
  H  H52  1  0.46982300  0.18615200  0.29852200  1
  H  H53  1  0.18615200  0.46982300  0.70147800  1
  H  H54  1  0.68615200  0.96982300  0.79852200  1
  H  H55  1  0.96982300  0.68615200  0.20147800  1
  H  H56  1  0.43503700  0.78587500  0.81427900  1
  H  H57  1  0.78587500  0.43503700  0.18572100  1
  H  H58  1  0.28587500  0.93503700  0.31427900  1
  H  H59  1  0.93503700  0.28587500  0.68572100  1
  H  H60  1  0.56496300  0.21412500  0.18572100  1
  H  H61  1  0.21412500  0.56496300  0.81427900  1
  H  H62  1  0.71412500  0.06496300  0.68572100  1
  H  H63  1  0.06496300  0.71412500  0.31427900  1
  H  H64  1  0.90296200  0.36765000  0.18169200  1
  H  H65  1  0.36765000  0.90296200  0.81830800  1
  H  H66  1  0.86765000  0.40296200  0.68169200  1
  H  H67  1  0.40296200  0.86765000  0.31830800  1
  H  H68  1  0.09703800  0.63235000  0.81830800  1
  H  H69  1  0.63235000  0.09703800  0.18169200  1
  H  H70  1  0.13235000  0.59703800  0.31830800  1
  H  H71  1  0.59703800  0.13235000  0.68169200  1
  H  H72  1  0.98089500  0.37373400  0.06294300  1
  H  H73  1  0.37373400  0.98089500  0.93705700  1
  H  H74  1  0.87373400  0.48089500  0.56294300  1
  H  H75  1  0.48089500  0.87373400  0.43705700  1
  H  H76  1  0.01910500  0.62626600  0.93705700  1
  H  H77  1  0.62626600  0.01910500  0.06294300  1
  H  H78  1  0.12626600  0.51910500  0.43705700  1
  H  H79  1  0.51910500  0.12626600  0.56294300  1
  H  H80  1  0.02152700  0.49946100  0.11840400  1
  H  H81  1  0.49946100  0.02152700  0.88159600  1
  H  H82  1  0.99946100  0.52152700  0.61840400  1
  H  H83  1  0.52152800  0.99946100  0.38159600  1
  H  H84  1  0.97847300  0.50053900  0.88159600  1
  H  H85  1  0.50053900  0.97847300  0.11840400  1
  H  H86  1  0.00053900  0.47847300  0.38159600  1
  H  H87  1  0.47847300  0.00053900  0.61840400  1
  C  C88  1  0.59487000  0.61158700  0.68191200  1
  C  C89  1  0.61158700  0.59487000  0.31808800  1
  C  C90  1  0.11158700  0.09487000  0.18191200  1
  C  C91  1  0.09487000  0.11158700  0.81808800  1
  C  C92  1  0.40513000  0.38841300  0.31808800  1
  C  C93  1  0.38841300  0.40513000  0.68191200  1
  C  C94  1  0.88841300  0.90513000  0.81808800  1
  C  C95  1  0.90513000  0.88841300  0.18191200  1
  C  C96  1  0.44324500  0.76453000  0.72435800  1
  C  C97  1  0.76453000  0.44324500  0.27564200  1
  C  C98  1  0.26453000  0.94324500  0.22435800  1
  C  C99  1  0.94324500  0.26453000  0.77564200  1
  C  C100  1  0.55675500  0.23547000  0.27564200  1
  C  C101  1  0.23547000  0.55675500  0.72435800  1
  C  C102  1  0.73547000  0.05675500  0.77564200  1
  C  C103  1  0.05675500  0.73547000  0.22435800  1
  C  C104  1  0.98512800  0.41596800  0.14207300  1
  C  C105  1  0.41596800  0.98512800  0.85792700  1
  C  C106  1  0.91596800  0.48512800  0.64207300  1
  C  C107  1  0.48512800  0.91596800  0.35792700  1
  C  C108  1  0.01487200  0.58403200  0.85792700  1
  C  C109  1  0.58403200  0.01487200  0.14207300  1
  C  C110  1  0.08403200  0.51487200  0.35792700  1
  C  C111  1  0.51487200  0.08403200  0.64207300  1
  S  S112  1  0.49469400  0.50530600  0.78826700  1
  S  S113  1  0.50530600  0.49469400  0.21173300  1
  S  S114  1  0.00530600  0.99469400  0.28826700  1
  S  S115  1  0.99469400  0.00530600  0.71173300  1
  S  S116  1  0.37830800  0.62169200  0.71826100  1
  S  S117  1  0.62169200  0.37830800  0.28173900  1
  S  S118  1  0.12169200  0.87830800  0.21826100  1
  S  S119  1  0.87830800  0.12169200  0.78173900  1
  S  S120  1  0.07426500  0.42573500  0.25000000  1
  S  S121  1  0.42573500  0.07426500  0.75000000  1
  S  S122  1  0.92573500  0.57426500  0.75000000  1
  S  S123  1  0.57426500  0.92573500  0.25000000  1
  I  I124  1  0.25152400  0.41595400  0.01112000  1
  I  I125  1  0.41595400  0.25152400  0.98888000  1
  I  I126  1  0.91595400  0.75152400  0.51112000  1
  I  I127  1  0.75152400  0.91595400  0.48888000  1
  I  I128  1  0.74847600  0.58404600  0.98888000  1
  I  I129  1  0.58404600  0.74847600  0.01112000  1
  I  I130  1  0.08404600  0.24847600  0.48888000  1
  I  I131  1  0.24847600  0.08404600  0.51112000  1
  I  I132  1  0.38652700  0.61347300  0.35253000  1
  I  I133  1  0.61347300  0.38652700  0.64747000  1
  I  I134  1  0.11347300  0.88652700  0.85253000  1
  I  I135  1  0.88652700  0.11347300  0.14747000  1
  I  I136  1  0.29048500  0.70951500  0.06125000  1
  I  I137  1  0.70951500  0.29048500  0.93875000  1
  I  I138  1  0.20951500  0.79048500  0.56125000  1
  I  I139  1  0.79048500  0.20951500  0.43875000  1
