# generated using pymatgen
data_LiY(CN2)2
_symmetry_space_group_name_H-M   'P 1'
_cell_length_a   6.22206600
_cell_length_b   7.09364600
_cell_length_c   9.86364200
_cell_angle_alpha   90.00000000
_cell_angle_beta   90.00000000
_cell_angle_gamma   90.00000000
_symmetry_Int_Tables_number   1
_chemical_formula_structural   LiY(CN2)2
_chemical_formula_sum   'Li4 Y4 C8 N16'
_cell_volume   435.35288466
_cell_formula_units_Z   4
loop_
 _symmetry_equiv_pos_site_id
 _symmetry_equiv_pos_as_xyz
  1  'x, y, z'
loop_
 _atom_site_type_symbol
 _atom_site_label
 _atom_site_symmetry_multiplicity
 _atom_site_fract_x
 _atom_site_fract_y
 _atom_site_fract_z
 _atom_site_occupancy
  Li  Li0  1  0.25000000  0.61329400  0.00000000  1
  Li  Li1  1  0.75000000  0.88670600  0.50000000  1
  Li  Li2  1  0.75000000  0.38670600  0.00000000  1
  Li  Li3  1  0.25000000  0.11329400  0.50000000  1
  Y  Y4  1  0.25000000  0.13918600  0.00000000  1
  Y  Y5  1  0.75000000  0.36081400  0.50000000  1
  Y  Y6  1  0.75000000  0.86081400  0.00000000  1
  Y  Y7  1  0.25000000  0.63918600  0.50000000  1
  C  C8  1  0.91779600  0.11362200  0.25007000  1
  C  C9  1  0.41779600  0.38637800  0.24993000  1
  C  C10  1  0.08220400  0.38637800  0.75007000  1
  C  C11  1  0.58220400  0.11362200  0.74993000  1
  C  C12  1  0.08220400  0.88637800  0.74993000  1
  C  C13  1  0.58220400  0.61362200  0.75007000  1
  C  C14  1  0.91779600  0.61362200  0.24993000  1
  C  C15  1  0.41779600  0.88637800  0.25007000  1
  N  N16  1  0.92768900  0.10600000  0.12425300  1
  N  N17  1  0.42768900  0.39400000  0.37574700  1
  N  N18  1  0.07231100  0.39400000  0.62425300  1
  N  N19  1  0.57231100  0.10600000  0.87574700  1
  N  N20  1  0.07231100  0.89400000  0.87574700  1
  N  N21  1  0.57231100  0.60600000  0.62425300  1
  N  N22  1  0.92768900  0.60600000  0.37574700  1
  N  N23  1  0.42768900  0.89400000  0.12425300  1
  N  N24  1  0.40812400  0.37958800  0.12619600  1
  N  N25  1  0.90812400  0.12041200  0.37380400  1
  N  N26  1  0.59187600  0.12041200  0.62619600  1
  N  N27  1  0.09187600  0.37958800  0.87380400  1
  N  N28  1  0.59187600  0.62041200  0.87380400  1
  N  N29  1  0.09187600  0.87958800  0.62619600  1
  N  N30  1  0.40812400  0.87958800  0.37380400  1
  N  N31  1  0.90812400  0.62041200  0.12619600  1
