# generated using pymatgen
data_Al2Si2H4O9
_symmetry_space_group_name_H-M   'P 1'
_cell_length_a   5.22679576
_cell_length_b   5.22679576
_cell_length_c   14.90323481
_cell_angle_alpha   82.03448181
_cell_angle_beta   82.03448181
_cell_angle_gamma   60.07449521
_symmetry_Int_Tables_number   1
_chemical_formula_structural   Al2Si2H4O9
_chemical_formula_sum   'Al4 Si4 H8 O18'
_cell_volume   348.31408035
_cell_formula_units_Z   2
loop_
 _symmetry_equiv_pos_site_id
 _symmetry_equiv_pos_as_xyz
  1  'x, y, z'
loop_
 _atom_site_type_symbol
 _atom_site_label
 _atom_site_symmetry_multiplicity
 _atom_site_fract_x
 _atom_site_fract_y
 _atom_site_fract_z
 _atom_site_occupancy
  Al  Al0  1  0.39876100  0.26686300  0.49799600  1
  Al  Al1  1  0.26686300  0.39876100  0.99799600  1
  Al  Al2  1  0.73722000  0.59951500  0.49785200  1
  Al  Al3  1  0.59951500  0.73722000  0.99785200  1
  Si  Si4  1  0.78316200  0.34557200  0.31145300  1
  Si  Si5  1  0.34557200  0.78316200  0.81145300  1
  Si  Si6  1  0.46977200  0.00225800  0.31042800  1
  Si  Si7  1  0.00225800  0.46977200  0.81042800  1
  H  H8  1  0.09761700  0.74380300  0.41143700  1
  H  H9  1  0.74380300  0.09761700  0.91143700  1
  H  H10  1  0.18682000  0.02854500  0.11616800  1
  H  H11  1  0.02854500  0.18682000  0.61616800  1
  H  H12  1  0.89229000  0.68683700  0.12692200  1
  H  H13  1  0.68683700  0.89229000  0.62692200  1
  H  H14  1  0.58118700  0.34679600  0.12173700  1
  H  H15  1  0.34679600  0.58118700  0.62173700  1
  O  O16  1  0.13412100  0.13806300  0.28010700  1
  O  O17  1  0.13806300  0.13412100  0.78010700  1
  O  O18  1  0.67550700  0.68373100  0.26487500  1
  O  O19  1  0.68373100  0.67550700  0.76487500  1
  O  O20  1  0.60773600  0.21650100  0.26387700  1
  O  O21  1  0.21650100  0.60773600  0.76387700  1
  O  O22  1  0.70439200  0.34200100  0.42061900  1
  O  O23  1  0.34200100  0.70439200  0.92061900  1
  O  O24  1  0.47989600  0.95559300  0.42020600  1
  O  O25  1  0.95559300  0.47989600  0.92020600  1
  O  O26  1  0.08940600  0.56046000  0.42343600  1
  O  O27  1  0.56046000  0.08940600  0.92343600  1
  O  O28  1  0.04927700  0.30628600  0.56318100  1
  O  O29  1  0.30628600  0.04927700  0.06318100  1
  O  O30  1  0.66166000  0.91770600  0.56222200  1
  O  O31  1  0.91770600  0.66166000  0.06222200  1
  O  O32  1  0.44077600  0.52726800  0.56118300  1
  O  O33  1  0.52726800  0.44077600  0.06118300  1
