# generated using pymatgen
data_Ba2B5O11
_symmetry_space_group_name_H-M   'P 1'
_cell_length_a   16.60913300
_cell_length_b   6.79983900
_cell_length_c   8.40067713
_cell_angle_alpha   73.72019708
_cell_angle_beta   90.00000000
_cell_angle_gamma   90.00000000
_symmetry_Int_Tables_number   1
_chemical_formula_structural   Ba2B5O11
_chemical_formula_sum   'Ba8 B20 O44'
_cell_volume   910.72606057
_cell_formula_units_Z   4
loop_
 _symmetry_equiv_pos_site_id
 _symmetry_equiv_pos_as_xyz
  1  'x, y, z'
loop_
 _atom_site_type_symbol
 _atom_site_label
 _atom_site_symmetry_multiplicity
 _atom_site_fract_x
 _atom_site_fract_y
 _atom_site_fract_z
 _atom_site_occupancy
  Ba  Ba0  1  0.28399800  0.53172500  0.89995200  1
  Ba  Ba1  1  0.78399800  0.46827500  0.60004800  1
  Ba  Ba2  1  0.71600200  0.46827500  0.10004800  1
  Ba  Ba3  1  0.21600200  0.53172500  0.39995200  1
  Ba  Ba4  1  0.43233900  0.09811500  0.69094400  1
  Ba  Ba5  1  0.93233900  0.90188500  0.80905600  1
  Ba  Ba6  1  0.56766100  0.90188500  0.30905600  1
  Ba  Ba7  1  0.06766100  0.09811500  0.19094400  1
  B  B8  1  0.24207500  0.02379000  0.86534400  1
  B  B9  1  0.74207500  0.97621000  0.63465600  1
  B  B10  1  0.75792500  0.97621000  0.13465600  1
  B  B11  1  0.25792500  0.02379000  0.36534400  1
  B  B12  1  0.58240800  0.36042800  0.79139400  1
  B  B13  1  0.08240800  0.63957200  0.70860600  1
  B  B14  1  0.41759200  0.63957200  0.20860600  1
  B  B15  1  0.91759200  0.36042800  0.29139400  1
  B  B16  1  0.66214400  0.01354400  0.87723500  1
  B  B17  1  0.16214400  0.98645600  0.62276500  1
  B  B18  1  0.33785600  0.98645600  0.12276500  1
  B  B19  1  0.83785600  0.01354400  0.37723500  1
  B  B20  1  0.37135400  0.26784200  0.25628300  1
  B  B21  1  0.87135400  0.73215800  0.24371700  1
  B  B22  1  0.62864600  0.73215800  0.74371700  1
  B  B23  1  0.12864600  0.26784200  0.75628300  1
  B  B24  1  0.48109500  0.64047000  0.71350500  1
  B  B25  1  0.98109500  0.35953000  0.78649500  1
  B  B26  1  0.51890500  0.35953000  0.28649500  1
  B  B27  1  0.01890500  0.64047000  0.21350500  1
  O  O28  1  0.59234700  0.15316600  0.82487800  1
  O  O29  1  0.09234700  0.84683400  0.67512200  1
  O  O30  1  0.40765300  0.84683400  0.17512200  1
  O  O31  1  0.90765300  0.15316600  0.32487800  1
  O  O32  1  0.55016700  0.78073600  0.65935200  1
  O  O33  1  0.05016700  0.21926400  0.84064800  1
  O  O34  1  0.44983300  0.21926400  0.34064800  1
  O  O35  1  0.94983300  0.78073600  0.15935200  1
  O  O36  1  0.36164500  0.19709300  0.10924500  1
  O  O37  1  0.86164500  0.80290700  0.39075500  1
  O  O38  1  0.63835500  0.80290700  0.89075500  1
  O  O39  1  0.13835500  0.19709300  0.60924500  1
  O  O40  1  0.31026900  0.96256800  0.95976400  1
  O  O41  1  0.81026900  0.03743200  0.54023600  1
  O  O42  1  0.68973100  0.03743200  0.04023600  1
  O  O43  1  0.18973100  0.96256800  0.45976400  1
  O  O44  1  0.35719800  0.49921400  0.20597600  1
  O  O45  1  0.85719800  0.50078600  0.29402400  1
  O  O46  1  0.64280200  0.50078600  0.79402400  1
  O  O47  1  0.14280200  0.49921400  0.70597600  1
  O  O48  1  0.19252500  0.17908100  0.88325200  1
  O  O49  1  0.69252500  0.82091900  0.61674800  1
  O  O50  1  0.80747500  0.82091900  0.11674800  1
  O  O51  1  0.30747500  0.17908100  0.38325200  1
  O  O52  1  0.22944000  0.92434700  0.74523100  1
  O  O53  1  0.72944000  0.07565300  0.75476900  1
  O  O54  1  0.77056000  0.07565300  0.25476900  1
  O  O55  1  0.27056000  0.92434700  0.24523100  1
  O  O56  1  0.50489500  0.42702700  0.74539300  1
  O  O57  1  0.00489500  0.57297300  0.75460700  1
  O  O58  1  0.49510500  0.57297300  0.25460700  1
  O  O59  1  0.99510500  0.42702700  0.24539300  1
  O  O60  1  0.41474200  0.70556900  0.59392000  1
  O  O61  1  0.91474200  0.29443100  0.90608000  1
  O  O62  1  0.58525800  0.29443100  0.40608000  1
  O  O63  1  0.08525800  0.70556900  0.09392000  1
  O  O64  1  0.43774500  0.68864000  0.84762200  1
  O  O65  1  0.93774500  0.31136000  0.65237800  1
  O  O66  1  0.56225500  0.31136000  0.15237800  1
  O  O67  1  0.06225500  0.68864000  0.34762200  1
  O  O68  1  0.33408400  0.43423300  0.63372200  1
  O  O69  1  0.83408400  0.56576700  0.86627800  1
  O  O70  1  0.66591600  0.56576700  0.36627800  1
  O  O71  1  0.16591600  0.43423300  0.13372200  1
