# generated using pymatgen
data_K3Co(C3O7)2
_symmetry_space_group_name_H-M   'P 1'
_cell_length_a   13.20634269
_cell_length_b   13.20634269
_cell_length_c   12.71587269
_cell_angle_alpha   65.56575789
_cell_angle_beta   65.56575789
_cell_angle_gamma   51.40480058
_symmetry_Int_Tables_number   1
_chemical_formula_structural   K3Co(C3O7)2
_chemical_formula_sum   'K12 Co4 C24 O56'
_cell_volume   1539.88905253
_cell_formula_units_Z   4
loop_
 _symmetry_equiv_pos_site_id
 _symmetry_equiv_pos_as_xyz
  1  'x, y, z'
loop_
 _atom_site_type_symbol
 _atom_site_label
 _atom_site_symmetry_multiplicity
 _atom_site_fract_x
 _atom_site_fract_y
 _atom_site_fract_z
 _atom_site_occupancy
  K  K0  1  0.07712500  0.92287500  0.75000000  1
  K  K1  1  0.92287500  0.07712500  0.25000000  1
  K  K2  1  0.66738000  0.33262000  0.75000000  1
  K  K3  1  0.33262000  0.66738000  0.25000000  1
  K  K4  1  0.77190900  0.68303300  0.64886700  1
  K  K5  1  0.31696700  0.22809100  0.85113300  1
  K  K6  1  0.22809100  0.31696700  0.35113300  1
  K  K7  1  0.68303300  0.77190900  0.14886700  1
  K  K8  1  0.83311600  0.38765600  0.96116000  1
  K  K9  1  0.61234400  0.16688400  0.53884000  1
  K  K10  1  0.16688400  0.61234400  0.03884000  1
  K  K11  1  0.38765600  0.83311600  0.46116000  1
  Co  Co12  1  0.12374800  0.65429100  0.67692000  1
  Co  Co13  1  0.34570900  0.87625200  0.82308000  1
  Co  Co14  1  0.87625200  0.34570900  0.32308000  1
  Co  Co15  1  0.65429100  0.12374800  0.17692000  1
  C  C16  1  0.37888000  0.44836100  0.68180600  1
  C  C17  1  0.55163900  0.62112000  0.81819400  1
  C  C18  1  0.62112000  0.55163900  0.31819400  1
  C  C19  1  0.44836100  0.37888000  0.18180600  1
  C  C20  1  0.37974500  0.57608100  0.63676600  1
  C  C21  1  0.42391900  0.62025500  0.86323400  1
  C  C22  1  0.62025500  0.42391900  0.36323400  1
  C  C23  1  0.57608100  0.37974500  0.13676600  1
  C  C24  1  0.06282000  0.77679800  0.46280000  1
  C  C25  1  0.22320200  0.93718000  0.03720000  1
  C  C26  1  0.93718000  0.22320200  0.53720000  1
  C  C27  1  0.77679800  0.06282000  0.96280000  1
  C  C28  1  0.96653400  0.88152600  0.54050400  1
  C  C29  1  0.11847400  0.03346600  0.95949600  1
  C  C30  1  0.03346600  0.11847400  0.45949600  1
  C  C31  1  0.88152600  0.96653400  0.04050400  1
  C  C32  1  0.92184400  0.63042400  0.83495600  1
  C  C33  1  0.36957600  0.07815600  0.66504400  1
  C  C34  1  0.07815600  0.36957600  0.16504400  1
  C  C35  1  0.63042400  0.92184400  0.33495600  1
  C  C36  1  0.97670600  0.65538800  0.90194300  1
  C  C37  1  0.34461200  0.02329400  0.59805700  1
  C  C38  1  0.02329400  0.34461200  0.09805700  1
  C  C39  1  0.65538800  0.97670600  0.40194300  1
  O  O40  1  0.26296200  0.46924400  0.70552000  1
  O  O41  1  0.53075600  0.73703800  0.79448000  1
  O  O42  1  0.73703800  0.53075600  0.29448000  1
  O  O43  1  0.46924300  0.26296200  0.20552000  1
  O  O44  1  0.26243400  0.68492000  0.63314300  1
  O  O45  1  0.31508000  0.73756600  0.86685700  1
  O  O46  1  0.73756600  0.31508000  0.36685700  1
  O  O47  1  0.68492000  0.26243400  0.13314300  1
  O  O48  1  0.14889500  0.66117200  0.51551600  1
  O  O49  1  0.33882800  0.85110500  0.98448400  1
  O  O50  1  0.85110500  0.33882800  0.48448400  1
  O  O51  1  0.66117200  0.14889500  0.01551600  1
  O  O52  1  0.98985000  0.83888200  0.64512500  1
  O  O53  1  0.16111800  0.01015000  0.85487500  1
  O  O54  1  0.01015000  0.16111800  0.35487500  1
  O  O55  1  0.83888200  0.98985000  0.14512500  1
  O  O56  1  0.98752200  0.61923000  0.72676200  1
  O  O57  1  0.38077000  0.01247800  0.77323800  1
  O  O58  1  0.01247800  0.38077000  0.27323800  1
  O  O59  1  0.61923000  0.98752200  0.22676200  1
  O  O60  1  0.08158700  0.65875400  0.84049700  1
  O  O61  1  0.34124600  0.91841300  0.65950300  1
  O  O62  1  0.91841300  0.34124600  0.15950300  1
  O  O63  1  0.65875400  0.08158700  0.34049700  1
  O  O64  1  0.48210900  0.33528700  0.69631700  1
  O  O65  1  0.66471300  0.51789100  0.80368300  1
  O  O66  1  0.51789100  0.66471300  0.30368300  1
  O  O67  1  0.33528700  0.48210900  0.19631700  1
  O  O68  1  0.48395300  0.57201300  0.60819000  1
  O  O69  1  0.42798700  0.51604700  0.89181000  1
  O  O70  1  0.51604700  0.42798700  0.39181000  1
  O  O71  1  0.57201300  0.48395300  0.10819000  1
  O  O72  1  0.05717700  0.80473200  0.35860100  1
  O  O73  1  0.19526800  0.94282300  0.14139900  1
  O  O74  1  0.94282300  0.19526800  0.64139900  1
  O  O75  1  0.80473200  0.05717700  0.85860100  1
  O  O76  1  0.87703600  0.99491400  0.50297800  1
  O  O77  1  0.00508600  0.12296400  0.99702200  1
  O  O78  1  0.12296400  0.00508600  0.49702200  1
  O  O79  1  0.99491400  0.87703600  0.00297800  1
  O  O80  1  0.82361000  0.62149300  0.88222600  1
  O  O81  1  0.37850700  0.17639000  0.61777400  1
  O  O82  1  0.17639000  0.37850700  0.11777400  1
  O  O83  1  0.62149300  0.82361000  0.38222600  1
  O  O84  1  0.92402000  0.66808100  0.00623300  1
  O  O85  1  0.33191900  0.07598000  0.49376700  1
  O  O86  1  0.07598000  0.33191900  0.99376700  1
  O  O87  1  0.66808100  0.92402000  0.50623300  1
  O  O88  1  0.03385500  0.38479700  0.66193100  1
  O  O89  1  0.61520300  0.96614500  0.83806900  1
  O  O90  1  0.96614500  0.61520300  0.33806900  1
  O  O91  1  0.38479700  0.03385500  0.16193100  1
  O  O92  1  0.12078300  0.40225600  0.58688100  1
  O  O93  1  0.59774400  0.87921700  0.91311900  1
  O  O94  1  0.87921700  0.59774400  0.41311900  1
  O  O95  1  0.40225600  0.12078300  0.08688100  1
