# generated using pymatgen
data_CaMg14FeO16
_symmetry_space_group_name_H-M   'P 1'
_cell_length_a   4.33602900
_cell_length_b   8.58823300
_cell_length_c   8.62355800
_cell_angle_alpha   90.00000000
_cell_angle_beta   90.00000000
_cell_angle_gamma   90.00000000
_symmetry_Int_Tables_number   1
_chemical_formula_structural   CaMg14FeO16
_chemical_formula_sum   'Ca1 Mg14 Fe1 O16'
_cell_volume   321.13118748
_cell_formula_units_Z   1
loop_
 _symmetry_equiv_pos_site_id
 _symmetry_equiv_pos_as_xyz
  1  'x, y, z'
loop_
 _atom_site_type_symbol
 _atom_site_label
 _atom_site_symmetry_multiplicity
 _atom_site_fract_x
 _atom_site_fract_y
 _atom_site_fract_z
 _atom_site_occupancy
  Ca  Ca0  1  0.00000000  0.00000000  0.00000000  1
  Mg  Mg1  1  0.00000000  0.00000000  0.50000000  1
  Mg  Mg2  1  0.00000000  0.50000000  0.50000000  1
  Mg  Mg3  1  0.50000000  0.74405500  0.00000000  1
  Mg  Mg4  1  0.50000000  0.25594500  0.00000000  1
  Mg  Mg5  1  0.50000000  0.74892500  0.50000000  1
  Mg  Mg6  1  0.50000000  0.25107500  0.50000000  1
  Mg  Mg7  1  0.50000000  0.00000000  0.74432400  1
  Mg  Mg8  1  0.50000000  0.50000000  0.75006400  1
  Mg  Mg9  1  0.50000000  0.00000000  0.25567600  1
  Mg  Mg10  1  0.50000000  0.50000000  0.24993600  1
  Mg  Mg11  1  0.00000000  0.74659600  0.74559400  1
  Mg  Mg12  1  0.00000000  0.25340400  0.74559400  1
  Mg  Mg13  1  0.00000000  0.74659600  0.25440600  1
  Mg  Mg14  1  0.00000000  0.25340400  0.25440600  1
  Fe  Fe15  1  0.00000000  0.50000000  0.00000000  1
  O  O16  1  0.00000000  0.00000000  0.73673000  1
  O  O17  1  0.00000000  0.50000000  0.74124700  1
  O  O18  1  0.00000000  0.00000000  0.26327000  1
  O  O19  1  0.00000000  0.50000000  0.25875300  1
  O  O20  1  0.50000000  0.75004500  0.75084700  1
  O  O21  1  0.50000000  0.24995500  0.75084700  1
  O  O22  1  0.50000000  0.75004500  0.24915300  1
  O  O23  1  0.50000000  0.24995500  0.24915300  1
  O  O24  1  0.50000000  0.00000000  0.00000000  1
  O  O25  1  0.50000000  0.50000000  0.00000000  1
  O  O26  1  0.50000000  0.00000000  0.50000000  1
  O  O27  1  0.50000000  0.50000000  0.50000000  1
  O  O28  1  0.00000000  0.73838600  0.00000000  1
  O  O29  1  0.00000000  0.26161400  0.00000000  1
  O  O30  1  0.00000000  0.74859400  0.50000000  1
  O  O31  1  0.00000000  0.25140600  0.50000000  1
