# generated using pymatgen
data_MnVPbO5
_symmetry_space_group_name_H-M   'P 1'
_cell_length_a   6.06748600
_cell_length_b   7.82514800
_cell_length_c   9.39136400
_cell_angle_alpha   90.00000000
_cell_angle_beta   90.00000000
_cell_angle_gamma   90.00000000
_symmetry_Int_Tables_number   1
_chemical_formula_structural   MnVPbO5
_chemical_formula_sum   'Mn4 V4 Pb4 O20'
_cell_volume   445.89234538
_cell_formula_units_Z   4
loop_
 _symmetry_equiv_pos_site_id
 _symmetry_equiv_pos_as_xyz
  1  'x, y, z'
loop_
 _atom_site_type_symbol
 _atom_site_label
 _atom_site_symmetry_multiplicity
 _atom_site_fract_x
 _atom_site_fract_y
 _atom_site_fract_z
 _atom_site_occupancy
  Mn  Mn0  1  0.00000000  0.50000000  0.00000000  1
  Mn  Mn1  1  0.50000000  0.00000000  0.50000000  1
  Mn  Mn2  1  0.50000000  0.50000000  0.00000000  1
  Mn  Mn3  1  0.00000000  0.00000000  0.50000000  1
  V  V4  1  0.75000000  0.14608000  0.20049600  1
  V  V5  1  0.75000000  0.64608000  0.29950400  1
  V  V6  1  0.25000000  0.85392000  0.79950400  1
  V  V7  1  0.25000000  0.35392000  0.70049600  1
  Pb  Pb8  1  0.25000000  0.39311200  0.32674200  1
  Pb  Pb9  1  0.25000000  0.89311200  0.17325800  1
  Pb  Pb10  1  0.75000000  0.60688800  0.67325800  1
  Pb  Pb11  1  0.75000000  0.10688800  0.82674200  1
  O  O12  1  0.75000000  0.32396100  0.08374700  1
  O  O13  1  0.75000000  0.82396100  0.41625300  1
  O  O14  1  0.25000000  0.67603900  0.91625300  1
  O  O15  1  0.25000000  0.17603900  0.58374700  1
  O  O16  1  0.75000000  0.97271100  0.09480900  1
  O  O17  1  0.75000000  0.47271100  0.40519100  1
  O  O18  1  0.25000000  0.02728900  0.90519100  1
  O  O19  1  0.25000000  0.52728900  0.59480900  1
  O  O20  1  0.50566100  0.13355400  0.30474800  1
  O  O21  1  0.99433900  0.63355400  0.19525200  1
  O  O22  1  0.00566100  0.86644600  0.69525200  1
  O  O23  1  0.49433900  0.36644600  0.80474800  1
  O  O24  1  0.49433900  0.86644600  0.69525200  1
  O  O25  1  0.00566100  0.36644600  0.80474800  1
  O  O26  1  0.99433900  0.13355400  0.30474800  1
  O  O27  1  0.50566100  0.63355400  0.19525200  1
  O  O28  1  0.25000000  0.37899600  0.07030300  1
  O  O29  1  0.25000000  0.87899600  0.42969700  1
  O  O30  1  0.75000000  0.62100400  0.92969700  1
  O  O31  1  0.75000000  0.12100400  0.57030300  1
