# generated using pymatgen
data_Na2TmPWO8
_symmetry_space_group_name_H-M   'P 1'
_cell_length_a   11.48634613
_cell_length_b   11.48634613
_cell_length_c   11.48634613
_cell_angle_alpha   145.24566392
_cell_angle_beta   116.07843756
_cell_angle_gamma   74.85842672
_symmetry_Int_Tables_number   1
_chemical_formula_structural   Na2TmPWO8
_chemical_formula_sum   'Na8 Tm4 P4 W4 O32'
_cell_volume   761.01802132
_cell_formula_units_Z   4
loop_
 _symmetry_equiv_pos_site_id
 _symmetry_equiv_pos_as_xyz
  1  'x, y, z'
loop_
 _atom_site_type_symbol
 _atom_site_label
 _atom_site_symmetry_multiplicity
 _atom_site_fract_x
 _atom_site_fract_y
 _atom_site_fract_z
 _atom_site_occupancy
  Na  Na0  1  0.28440100  0.33641100  0.92667100  1
  Na  Na1  1  0.90974000  0.35773000  0.57332900  1
  Na  Na2  1  0.59026000  0.16358900  0.44799000  1
  Na  Na3  1  0.21559900  0.14227000  0.05201000  1
  Na  Na4  1  0.71559900  0.66358900  0.07332900  1
  Na  Na5  1  0.09026000  0.64227000  0.42667100  1
  Na  Na6  1  0.40974000  0.83641100  0.55201000  1
  Na  Na7  1  0.78440100  0.85773000  0.94799000  1
  Tm  Tm8  1  0.32238200  0.75000000  0.07238200  1
  Tm  Tm9  1  0.17761800  0.25000000  0.42761800  1
  Tm  Tm10  1  0.67761800  0.25000000  0.92761800  1
  Tm  Tm11  1  0.82238200  0.75000000  0.57238200  1
  P  P12  1  0.93082400  0.25000000  0.18082400  1
  P  P13  1  0.56917600  0.75000000  0.31917600  1
  P  P14  1  0.06917600  0.75000000  0.81917600  1
  P  P15  1  0.43082400  0.25000000  0.68082400  1
  W  W16  1  0.92636300  0.17636300  0.75000000  1
  W  W17  1  0.57363700  0.32363700  0.25000000  1
  W  W18  1  0.07363700  0.82363700  0.25000000  1
  W  W19  1  0.42636300  0.67636300  0.75000000  1
  O  O20  1  0.93951300  0.19489900  0.26992000  1
  O  O21  1  0.42497900  0.66959400  0.23008000  1
  O  O22  1  0.07502100  0.30510100  0.24461500  1
  O  O23  1  0.56048700  0.83040600  0.25538500  1
  O  O24  1  0.06048700  0.80510100  0.73008000  1
  O  O25  1  0.57502100  0.33040600  0.76992000  1
  O  O26  1  0.92497900  0.69489900  0.75538500  1
  O  O27  1  0.43951300  0.16959400  0.74461500  1
  O  O28  1  0.84280700  0.06620000  0.92447800  1
  O  O29  1  0.64172300  0.91832900  0.57552200  1
  O  O30  1  0.85827700  0.43380000  0.27660600  1
  O  O31  1  0.65719300  0.58167100  0.22339400  1
  O  O32  1  0.15719300  0.93380000  0.07552200  1
  O  O33  1  0.35827700  0.08167100  0.42447800  1
  O  O34  1  0.14172300  0.56620000  0.72339400  1
  O  O35  1  0.34280700  0.41832900  0.77660600  1
  O  O36  1  0.84358100  0.33371400  0.93929800  1
  O  O37  1  0.89441500  0.90428200  0.56070200  1
  O  O38  1  0.60558500  0.16628600  0.00986700  1
  O  O39  1  0.65641900  0.59571800  0.49013300  1
  O  O40  1  0.15641900  0.66628600  0.06070200  1
  O  O41  1  0.10558500  0.09571800  0.43929800  1
  O  O42  1  0.39441500  0.83371400  0.99013300  1
  O  O43  1  0.34358100  0.40428200  0.50986700  1
  O  O44  1  0.86194000  0.18705500  0.58505200  1
  O  O45  1  0.10200300  0.27688900  0.91494800  1
  O  O46  1  0.39799700  0.31294500  0.17488600  1
  O  O47  1  0.63806000  0.22311100  0.32511400  1
  O  O48  1  0.13806000  0.81294500  0.41494800  1
  O  O49  1  0.89799700  0.72311100  0.08505200  1
  O  O50  1  0.60200300  0.68705500  0.82511400  1
  O  O51  1  0.36194000  0.77688900  0.67488600  1
