# generated using pymatgen
data_Ba5V4(ClO7)2
_symmetry_space_group_name_H-M   'P 1'
_cell_length_a   10.23295100
_cell_length_b   11.80302300
_cell_length_c   15.39930000
_cell_angle_alpha   90.00000000
_cell_angle_beta   90.00000000
_cell_angle_gamma   90.00000000
_symmetry_Int_Tables_number   1
_chemical_formula_structural   Ba5V4(ClO7)2
_chemical_formula_sum   'Ba20 V16 Cl8 O56'
_cell_volume   1859.92369674
_cell_formula_units_Z   4
loop_
 _symmetry_equiv_pos_site_id
 _symmetry_equiv_pos_as_xyz
  1  'x, y, z'
loop_
 _atom_site_type_symbol
 _atom_site_label
 _atom_site_symmetry_multiplicity
 _atom_site_fract_x
 _atom_site_fract_y
 _atom_site_fract_z
 _atom_site_occupancy
  Ba  Ba0  1  0.82058700  0.27578200  0.79170800  1
  Ba  Ba1  1  0.82058700  0.72421800  0.79170800  1
  Ba  Ba2  1  0.82058700  0.27578200  0.20829200  1
  Ba  Ba3  1  0.82058700  0.72421800  0.20829200  1
  Ba  Ba4  1  0.17941300  0.22421800  0.70829200  1
  Ba  Ba5  1  0.17941300  0.77578200  0.70829200  1
  Ba  Ba6  1  0.17941300  0.22421800  0.29170800  1
  Ba  Ba7  1  0.17941300  0.77578200  0.29170800  1
  Ba  Ba8  1  0.63491600  0.00000000  0.29422600  1
  Ba  Ba9  1  0.63491600  0.00000000  0.70577400  1
  Ba  Ba10  1  0.36508400  0.50000000  0.20577400  1
  Ba  Ba11  1  0.36508400  0.50000000  0.79422600  1
  Ba  Ba12  1  0.35217200  0.50000000  0.50000000  1
  Ba  Ba13  1  0.64782800  0.00000000  0.00000000  1
  Ba  Ba14  1  0.83264500  0.26424000  0.50000000  1
  Ba  Ba15  1  0.83264500  0.73576000  0.50000000  1
  Ba  Ba16  1  0.16735500  0.23576000  0.00000000  1
  Ba  Ba17  1  0.16735500  0.76424000  0.00000000  1
  Ba  Ba18  1  0.32544500  0.00000000  0.50000000  1
  Ba  Ba19  1  0.67455500  0.50000000  0.00000000  1
  V  V20  1  0.01707500  0.50000000  0.38141800  1
  V  V21  1  0.01707500  0.50000000  0.61858200  1
  V  V22  1  0.98292500  0.00000000  0.11858200  1
  V  V23  1  0.98292500  0.00000000  0.88141800  1
  V  V24  1  0.50156600  0.25266600  0.38349500  1
  V  V25  1  0.50156600  0.74733400  0.38349500  1
  V  V26  1  0.50156600  0.25266600  0.61650500  1
  V  V27  1  0.50156600  0.74733400  0.61650500  1
  V  V28  1  0.49843400  0.24733400  0.11650500  1
  V  V29  1  0.49843400  0.75266600  0.11650500  1
  V  V30  1  0.49843400  0.24733400  0.88349500  1
  V  V31  1  0.49843400  0.75266600  0.88349500  1
  V  V32  1  0.01646300  0.50000000  0.88259800  1
  V  V33  1  0.01646300  0.50000000  0.11740200  1
  V  V34  1  0.98353700  0.00000000  0.61740200  1
  V  V35  1  0.98353700  0.00000000  0.38259800  1
  Cl  Cl36  1  0.65575600  0.00000000  0.50000000  1
  Cl  Cl37  1  0.34424400  0.50000000  0.00000000  1
  Cl  Cl38  1  0.67891000  0.50000000  0.50000000  1
  Cl  Cl39  1  0.32109000  0.00000000  0.00000000  1
  Cl  Cl40  1  0.16699900  0.75415700  0.50000000  1
  Cl  Cl41  1  0.16699900  0.24584300  0.50000000  1
  Cl  Cl42  1  0.83300100  0.74584300  0.00000000  1
  Cl  Cl43  1  0.83300100  0.25415700  0.00000000  1
  O  O44  1  0.01186400  0.50000000  0.50000000  1
  O  O45  1  0.98813600  0.00000000  0.00000000  1
  O  O46  1  0.94432200  0.37616500  0.34601100  1
  O  O47  1  0.94432200  0.62383500  0.34601100  1
  O  O48  1  0.94432200  0.37616500  0.65398900  1
  O  O49  1  0.94432200  0.62383500  0.65398900  1
  O  O50  1  0.05567800  0.12383500  0.15398900  1
  O  O51  1  0.05567800  0.87616500  0.15398900  1
  O  O52  1  0.05567800  0.12383500  0.84601100  1
  O  O53  1  0.05567800  0.87616500  0.84601100  1
  O  O54  1  0.17686000  0.50000000  0.34847300  1
  O  O55  1  0.17686000  0.50000000  0.65152700  1
  O  O56  1  0.82314000  0.00000000  0.15152700  1
  O  O57  1  0.82314000  0.00000000  0.84847300  1
  O  O58  1  0.65857400  0.23918300  0.34496900  1
  O  O59  1  0.65857400  0.76081700  0.34496900  1
  O  O60  1  0.65857400  0.23918300  0.65503100  1
  O  O61  1  0.65857400  0.76081700  0.65503100  1
  O  O62  1  0.34142600  0.26081700  0.15503100  1
  O  O63  1  0.34142600  0.73918300  0.15503100  1
  O  O64  1  0.34142600  0.26081700  0.84496900  1
  O  O65  1  0.34142600  0.73918300  0.84496900  1
  O  O66  1  0.41842400  0.13016000  0.35927100  1
  O  O67  1  0.41842400  0.86984000  0.35927100  1
  O  O68  1  0.41842400  0.13016000  0.64072900  1
  O  O69  1  0.41842400  0.86984000  0.64072900  1
  O  O70  1  0.58157600  0.36984000  0.14072900  1
  O  O71  1  0.58157600  0.63016000  0.14072900  1
  O  O72  1  0.58157600  0.36984000  0.85927100  1
  O  O73  1  0.58157600  0.63016000  0.85927100  1
  O  O74  1  0.41284400  0.36297600  0.34191800  1
  O  O75  1  0.41284400  0.63702400  0.34191800  1
  O  O76  1  0.41284400  0.36297600  0.65808200  1
  O  O77  1  0.41284400  0.63702400  0.65808200  1
  O  O78  1  0.58715600  0.13702400  0.15808200  1
  O  O79  1  0.58715600  0.86297600  0.15808200  1
  O  O80  1  0.58715600  0.13702400  0.84191800  1
  O  O81  1  0.58715600  0.86297600  0.84191800  1
  O  O82  1  0.50774800  0.27313600  0.50000000  1
  O  O83  1  0.50774800  0.72686400  0.50000000  1
  O  O84  1  0.49225200  0.22686400  0.00000000  1
  O  O85  1  0.49225200  0.77313600  0.00000000  1
  O  O86  1  0.08836000  0.37951900  0.84226500  1
  O  O87  1  0.08836000  0.62048100  0.84226500  1
  O  O88  1  0.08836000  0.37951900  0.15773500  1
  O  O89  1  0.08836000  0.62048100  0.15773500  1
  O  O90  1  0.91164000  0.12048100  0.65773500  1
  O  O91  1  0.91164000  0.87951900  0.65773500  1
  O  O92  1  0.91164000  0.12048100  0.34226500  1
  O  O93  1  0.91164000  0.87951900  0.34226500  1
  O  O94  1  0.85295300  0.50000000  0.85525000  1
  O  O95  1  0.85295300  0.50000000  0.14475000  1
  O  O96  1  0.14704700  0.00000000  0.64475000  1
  O  O97  1  0.14704700  0.00000000  0.35525000  1
  O  O98  1  0.03025400  0.50000000  0.00000000  1
  O  O99  1  0.96974600  0.00000000  0.50000000  1
