# generated using pymatgen
data_Cs8Fe2O7
_symmetry_space_group_name_H-M   'P 1'
_cell_length_a   18.32366000
_cell_length_b   7.37281400
_cell_length_c   7.50449397
_cell_angle_alpha   60.73052073
_cell_angle_beta   90.00000000
_cell_angle_gamma   90.00000000
_symmetry_Int_Tables_number   1
_chemical_formula_structural   Cs8Fe2O7
_chemical_formula_sum   'Cs16 Fe4 O14'
_cell_volume   884.39777766
_cell_formula_units_Z   2
loop_
 _symmetry_equiv_pos_site_id
 _symmetry_equiv_pos_as_xyz
  1  'x, y, z'
loop_
 _atom_site_type_symbol
 _atom_site_label
 _atom_site_symmetry_multiplicity
 _atom_site_fract_x
 _atom_site_fract_y
 _atom_site_fract_z
 _atom_site_occupancy
  Cs  Cs0  1  0.99209300  0.23106500  0.22883200  1
  Cs  Cs1  1  0.49209300  0.26893500  0.77116800  1
  Cs  Cs2  1  0.00790700  0.76893500  0.77116800  1
  Cs  Cs3  1  0.50790700  0.73106500  0.22883200  1
  Cs  Cs4  1  0.19175100  0.23683000  0.21711300  1
  Cs  Cs5  1  0.69175100  0.26317000  0.78288700  1
  Cs  Cs6  1  0.80824900  0.76317000  0.78288700  1
  Cs  Cs7  1  0.30824900  0.73683000  0.21711300  1
  Cs  Cs8  1  0.78543600  0.21316300  0.24316900  1
  Cs  Cs9  1  0.28543600  0.28683700  0.75683100  1
  Cs  Cs10  1  0.21456400  0.78683700  0.75683100  1
  Cs  Cs11  1  0.71456400  0.71316300  0.24316900  1
  Cs  Cs12  1  0.91716500  0.35521500  0.63995400  1
  Cs  Cs13  1  0.41716500  0.14478500  0.36004600  1
  Cs  Cs14  1  0.08283500  0.64478500  0.36004600  1
  Cs  Cs15  1  0.58283500  0.85521500  0.63995400  1
  Fe  Fe16  1  0.59482700  0.36386300  0.13681900  1
  Fe  Fe17  1  0.09482700  0.13613700  0.86318100  1
  Fe  Fe18  1  0.40517300  0.63613700  0.86318100  1
  Fe  Fe19  1  0.90517300  0.86386300  0.13681900  1
  O  O20  1  0.50000000  0.50000000  0.00000000  1
  O  O21  1  0.00000000  0.00000000  0.00000000  1
  O  O22  1  0.59791800  0.34067200  0.40266100  1
  O  O23  1  0.09791800  0.15932800  0.59733900  1
  O  O24  1  0.40208200  0.65932800  0.59733900  1
  O  O25  1  0.90208200  0.84067200  0.40266100  1
  O  O26  1  0.32645300  0.45857800  0.03228600  1
  O  O27  1  0.82645300  0.04142200  0.96771400  1
  O  O28  1  0.67354700  0.54142200  0.96771400  1
  O  O29  1  0.17354700  0.95857800  0.03228600  1
  O  O30  1  0.60430300  0.09783600  0.14841700  1
  O  O31  1  0.10430300  0.40216400  0.85158300  1
  O  O32  1  0.39569700  0.90216400  0.85158300  1
  O  O33  1  0.89569700  0.59783600  0.14841700  1
