# generated using pymatgen
data_K6Mo7O34
_symmetry_space_group_name_H-M   'P 1'
_cell_length_a   10.71218061
_cell_length_b   10.71218061
_cell_length_c   19.14652200
_cell_angle_alpha   90.00000000
_cell_angle_beta   90.00000000
_cell_angle_gamma   131.20948229
_symmetry_Int_Tables_number   1
_chemical_formula_structural   K6Mo7O34
_chemical_formula_sum   'K12 Mo14 O68'
_cell_volume   1652.87544575
_cell_formula_units_Z   2
loop_
 _symmetry_equiv_pos_site_id
 _symmetry_equiv_pos_as_xyz
  1  'x, y, z'
loop_
 _atom_site_type_symbol
 _atom_site_label
 _atom_site_symmetry_multiplicity
 _atom_site_fract_x
 _atom_site_fract_y
 _atom_site_fract_z
 _atom_site_occupancy
  K  K0  1  0.61384000  0.61384000  0.50000000  1
  K  K1  1  0.61384000  0.61384000  0.00000000  1
  K  K2  1  0.23196500  0.50402000  0.25000000  1
  K  K3  1  0.50402000  0.23196500  0.75000000  1
  K  K4  1  0.96437100  0.14344800  0.38852300  1
  K  K5  1  0.14344800  0.96437100  0.61147700  1
  K  K6  1  0.96437100  0.14344800  0.11147700  1
  K  K7  1  0.14344800  0.96437100  0.88852300  1
  K  K8  1  0.74271900  0.33327800  0.46052200  1
  K  K9  1  0.33327800  0.74271900  0.53947800  1
  K  K10  1  0.74271900  0.33327800  0.03947800  1
  K  K11  1  0.33327800  0.74271900  0.96052200  1
  Mo  Mo12  1  0.19107800  0.91210300  0.41973200  1
  Mo  Mo13  1  0.91210300  0.19107800  0.58026800  1
  Mo  Mo14  1  0.19107800  0.91210300  0.08026800  1
  Mo  Mo15  1  0.91210300  0.19107800  0.91973200  1
  Mo  Mo16  1  0.14457100  0.87722400  0.25000000  1
  Mo  Mo17  1  0.87722400  0.14457100  0.75000000  1
  Mo  Mo18  1  0.37330100  0.26050000  0.33779900  1
  Mo  Mo19  1  0.26050000  0.37330100  0.66220100  1
  Mo  Mo20  1  0.37330100  0.26050000  0.16220100  1
  Mo  Mo21  1  0.26050000  0.37330100  0.83779900  1
  Mo  Mo22  1  0.45665700  0.90761300  0.33717600  1
  Mo  Mo23  1  0.90761300  0.45665700  0.66282400  1
  Mo  Mo24  1  0.45665700  0.90761300  0.16282400  1
  Mo  Mo25  1  0.90761300  0.45665700  0.83717600  1
  O  O26  1  0.96901100  0.80672500  0.47216500  1
  O  O27  1  0.80672500  0.96901100  0.52783500  1
  O  O28  1  0.96901100  0.80672500  0.02783500  1
  O  O29  1  0.80672500  0.96901100  0.97216500  1
  O  O30  1  0.99064800  0.69278500  0.46509800  1
  O  O31  1  0.69278500  0.99064800  0.53490200  1
  O  O32  1  0.99064800  0.69278500  0.03490200  1
  O  O33  1  0.69278500  0.99064800  0.96509800  1
  O  O34  1  0.01699700  0.77798100  0.32565800  1
  O  O35  1  0.77798100  0.01699700  0.67434200  1
  O  O36  1  0.01699700  0.77798100  0.17434200  1
  O  O37  1  0.77798100  0.01699700  0.82565800  1
  O  O38  1  0.31774800  0.00412000  0.49316400  1
  O  O39  1  0.00412000  0.31774800  0.50683600  1
  O  O40  1  0.31774800  0.00412000  0.00683600  1
  O  O41  1  0.00412000  0.31774800  0.99316400  1
  O  O42  1  0.34949500  0.03612200  0.33764900  1
  O  O43  1  0.03612200  0.34949500  0.66235100  1
  O  O44  1  0.34949500  0.03612200  0.16235100  1
  O  O45  1  0.03612200  0.34949500  0.83764900  1
  O  O46  1  0.18560100  0.08725700  0.39824400  1
  O  O47  1  0.08725700  0.18560100  0.60175600  1
  O  O48  1  0.18560100  0.08725700  0.10175600  1
  O  O49  1  0.08725700  0.18560100  0.89824400  1
  O  O50  1  0.25933700  0.78433200  0.39789500  1
  O  O51  1  0.78433200  0.25933700  0.60210500  1
  O  O52  1  0.25933700  0.78433200  0.10210500  1
  O  O53  1  0.78433200  0.25933700  0.89789500  1
  O  O54  1  0.19069700  0.08105200  0.25000000  1
  O  O55  1  0.08105200  0.19069700  0.75000000  1
  O  O56  1  0.25723500  0.79477300  0.25000000  1
  O  O57  1  0.79477300  0.25723500  0.75000000  1
  O  O58  1  0.53575100  0.36479100  0.39827000  1
  O  O59  1  0.36479100  0.53575100  0.60173000  1
  O  O60  1  0.53575100  0.36479100  0.10173000  1
  O  O61  1  0.36479100  0.53575100  0.89827000  1
  O  O62  1  0.49445500  0.33181100  0.25000000  1
  O  O63  1  0.33181100  0.49445500  0.75000000  1
  O  O64  1  0.30322000  0.37085900  0.33752700  1
  O  O65  1  0.37085900  0.30322000  0.66247300  1
  O  O66  1  0.30322000  0.37085900  0.16247300  1
  O  O67  1  0.37085900  0.30322000  0.83752700  1
  O  O68  1  0.61649900  0.05158900  0.39564500  1
  O  O69  1  0.05158900  0.61649900  0.60435500  1
  O  O70  1  0.61649900  0.05158900  0.10435500  1
  O  O71  1  0.05158900  0.61649900  0.89564500  1
  O  O72  1  0.56871800  0.02337400  0.25000000  1
  O  O73  1  0.02337400  0.56871800  0.75000000  1
  O  O74  1  0.46188700  0.74828100  0.33354300  1
  O  O75  1  0.74828100  0.46188700  0.66645700  1
  O  O76  1  0.46188700  0.74828100  0.16645700  1
  O  O77  1  0.74828100  0.46188700  0.83354300  1
  O  O78  1  0.93166400  0.11646200  0.25000000  1
  O  O79  1  0.11646200  0.93166400  0.75000000  1
  O  O80  1  0.86368200  0.38186400  0.25000000  1
  O  O81  1  0.38186400  0.86368200  0.75000000  1
  O  O82  1  0.80037600  0.80530300  0.38006800  1
  O  O83  1  0.80530300  0.80037600  0.61993200  1
  O  O84  1  0.80037600  0.80530300  0.11993200  1
  O  O85  1  0.80530300  0.80037600  0.88006800  1
  O  O86  1  0.34072000  0.53519400  0.42617600  1
  O  O87  1  0.53519400  0.34072000  0.57382400  1
  O  O88  1  0.34072000  0.53519400  0.07382400  1
  O  O89  1  0.53519400  0.34072000  0.92617600  1
  O  O90  1  0.92972900  0.38435000  0.30786500  1
  O  O91  1  0.38435000  0.92972900  0.69213500  1
  O  O92  1  0.92972900  0.38435000  0.19213500  1
  O  O93  1  0.38435000  0.92972900  0.80786500  1
