# generated using pymatgen
data_CsNd(SeO6)2
_symmetry_space_group_name_H-M   'P 1'
_cell_length_a   18.27040100
_cell_length_b   6.60561900
_cell_length_c   10.15261296
_cell_angle_alpha   89.92386417
_cell_angle_beta   90.00000000
_cell_angle_gamma   90.00000000
_symmetry_Int_Tables_number   1
_chemical_formula_structural   CsNd(SeO6)2
_chemical_formula_sum   'Cs4 Nd4 Se8 O48'
_cell_volume   1225.29044578
_cell_formula_units_Z   4
loop_
 _symmetry_equiv_pos_site_id
 _symmetry_equiv_pos_as_xyz
  1  'x, y, z'
loop_
 _atom_site_type_symbol
 _atom_site_label
 _atom_site_symmetry_multiplicity
 _atom_site_fract_x
 _atom_site_fract_y
 _atom_site_fract_z
 _atom_site_occupancy
  Cs  Cs0  1  0.18331800  0.83678900  0.84006000  1
  Cs  Cs1  1  0.68331800  0.16321100  0.65994000  1
  Cs  Cs2  1  0.81668200  0.16321100  0.15994000  1
  Cs  Cs3  1  0.31668200  0.83678900  0.34006000  1
  Nd  Nd4  1  0.37256300  0.37531500  0.71318900  1
  Nd  Nd5  1  0.87256300  0.62468500  0.78681100  1
  Nd  Nd6  1  0.62743700  0.62468500  0.28681100  1
  Nd  Nd7  1  0.12743700  0.37531500  0.21318900  1
  Se  Se8  1  0.44137200  0.82650500  0.69945100  1
  Se  Se9  1  0.94137200  0.17349500  0.80054900  1
  Se  Se10  1  0.55862800  0.17349500  0.30054900  1
  Se  Se11  1  0.05862800  0.82650500  0.19945100  1
  Se  Se12  1  0.20971200  0.39546900  0.57651500  1
  Se  Se13  1  0.70971200  0.60453100  0.92348500  1
  Se  Se14  1  0.79028800  0.60453100  0.42348500  1
  Se  Se15  1  0.29028800  0.39546900  0.07651500  1
  O  O16  1  0.37519100  0.00677600  0.70244700  1
  O  O17  1  0.87519100  0.99322400  0.79755300  1
  O  O18  1  0.62480900  0.99322400  0.29755300  1
  O  O19  1  0.12480900  0.00677600  0.20244700  1
  O  O20  1  0.42423200  0.67625300  0.82918400  1
  O  O21  1  0.92423200  0.32374700  0.67081600  1
  O  O22  1  0.57576800  0.32374700  0.17081600  1
  O  O23  1  0.07576800  0.67625300  0.32918400  1
  O  O24  1  0.52266200  0.94516000  0.69981900  1
  O  O25  1  0.02266200  0.05484000  0.80018100  1
  O  O26  1  0.47733800  0.05484000  0.30018100  1
  O  O27  1  0.97733800  0.94516000  0.19981900  1
  O  O28  1  0.42990600  0.66627900  0.57283400  1
  O  O29  1  0.92990600  0.33372100  0.92716600  1
  O  O30  1  0.57009400  0.33372100  0.42716600  1
  O  O31  1  0.07009400  0.66627900  0.07283400  1
  O  O32  1  0.25609300  0.18386600  0.62806700  1
  O  O33  1  0.75609300  0.81613400  0.87193300  1
  O  O34  1  0.74390700  0.81613400  0.37193300  1
  O  O35  1  0.24390700  0.18386600  0.12806700  1
  O  O36  1  0.19430900  0.37597200  0.41407700  1
  O  O37  1  0.69430900  0.62402800  0.08592300  1
  O  O38  1  0.80569100  0.62402800  0.58592300  1
  O  O39  1  0.30569100  0.37597200  0.91407700  1
  O  O40  1  0.27412200  0.57622100  0.60491700  1
  O  O41  1  0.77412200  0.42377900  0.89508300  1
  O  O42  1  0.72587800  0.42377900  0.39508300  1
  O  O43  1  0.22587800  0.57622100  0.10491700  1
  O  O44  1  0.13614200  0.42998900  0.66581600  1
  O  O45  1  0.63614200  0.57001100  0.83418400  1
  O  O46  1  0.86385800  0.57001100  0.33418400  1
  O  O47  1  0.36385800  0.42998900  0.16581600  1
  O  O48  1  0.13785300  0.19556200  0.00824200  1
  O  O49  1  0.63785300  0.80443800  0.49175800  1
  O  O50  1  0.86214700  0.80443800  0.99175800  1
  O  O51  1  0.36214700  0.19556200  0.50824200  1
  O  O52  1  0.47335600  0.27286200  0.92924600  1
  O  O53  1  0.97335600  0.72713800  0.57075400  1
  O  O54  1  0.52664400  0.72713800  0.07075400  1
  O  O55  1  0.02664400  0.27286200  0.42924600  1
  O  O56  1  0.00569500  0.72956100  0.83206800  1
  O  O57  1  0.50569500  0.27043900  0.66793200  1
  O  O58  1  0.99430500  0.27043900  0.16793200  1
  O  O59  1  0.49430500  0.72956100  0.33206800  1
  O  O60  1  0.03910400  0.76898900  0.57859500  1
  O  O61  1  0.53910400  0.23101100  0.92140500  1
  O  O62  1  0.96089600  0.23101100  0.42140500  1
  O  O63  1  0.46089600  0.76898900  0.07859500  1
