# generated using pymatgen
data_Yb2B6Os
_symmetry_space_group_name_H-M   'P 1'
_cell_length_a   3.66681200
_cell_length_b   9.08505300
_cell_length_c   11.35591600
_cell_angle_alpha   90.00000000
_cell_angle_beta   90.00000000
_cell_angle_gamma   90.00000000
_symmetry_Int_Tables_number   1
_chemical_formula_structural   Yb2B6Os
_chemical_formula_sum   'Yb8 B24 Os4'
_cell_volume   378.30168923
_cell_formula_units_Z   4
loop_
 _symmetry_equiv_pos_site_id
 _symmetry_equiv_pos_as_xyz
  1  'x, y, z'
loop_
 _atom_site_type_symbol
 _atom_site_label
 _atom_site_symmetry_multiplicity
 _atom_site_fract_x
 _atom_site_fract_y
 _atom_site_fract_z
 _atom_site_occupancy
  Yb  Yb0  1  0.00000000  0.32732700  0.41275700  1
  Yb  Yb1  1  0.00000000  0.67267300  0.58724300  1
  Yb  Yb2  1  0.00000000  0.82732700  0.08724300  1
  Yb  Yb3  1  0.00000000  0.17267300  0.91275700  1
  Yb  Yb4  1  0.00000000  0.94466800  0.36932100  1
  Yb  Yb5  1  0.00000000  0.05533200  0.63067900  1
  Yb  Yb6  1  0.00000000  0.44466800  0.13067900  1
  Yb  Yb7  1  0.00000000  0.55533200  0.86932100  1
  B  B8  1  0.50000000  0.55427900  0.43292400  1
  B  B9  1  0.50000000  0.44572100  0.56707600  1
  B  B10  1  0.50000000  0.05427900  0.06707600  1
  B  B11  1  0.50000000  0.94572100  0.93292400  1
  B  B12  1  0.50000000  0.75124600  0.41857100  1
  B  B13  1  0.50000000  0.24875400  0.58142900  1
  B  B14  1  0.50000000  0.25124600  0.08142900  1
  B  B15  1  0.50000000  0.74875400  0.91857100  1
  B  B16  1  0.50000000  0.79534500  0.26437900  1
  B  B17  1  0.50000000  0.20465500  0.73562100  1
  B  B18  1  0.50000000  0.29534500  0.23562100  1
  B  B19  1  0.50000000  0.70465500  0.76437900  1
  B  B20  1  0.50000000  0.63347100  0.18522900  1
  B  B21  1  0.50000000  0.36652900  0.81477100  1
  B  B22  1  0.50000000  0.13347100  0.31477100  1
  B  B23  1  0.50000000  0.86652900  0.68522900  1
  B  B24  1  0.50000000  0.98446300  0.21200800  1
  B  B25  1  0.50000000  0.01553700  0.78799200  1
  B  B26  1  0.50000000  0.48446300  0.28799200  1
  B  B27  1  0.50000000  0.51553700  0.71200800  1
  B  B28  1  0.50000000  0.59676800  0.02625100  1
  B  B29  1  0.50000000  0.40323200  0.97374900  1
  B  B30  1  0.50000000  0.09676800  0.47374900  1
  B  B31  1  0.50000000  0.90323200  0.52625100  1
  Os  Os32  1  0.00000000  0.64251900  0.32046600  1
  Os  Os33  1  0.00000000  0.35748100  0.67953400  1
  Os  Os34  1  0.00000000  0.14251900  0.17953400  1
  Os  Os35  1  0.00000000  0.85748100  0.82046600  1
