# generated using pymatgen
data_CaMg14SnO16
_symmetry_space_group_name_H-M   'P 1'
_cell_length_a   4.40948500
_cell_length_b   8.72309000
_cell_length_c   8.81389400
_cell_angle_alpha   90.00000000
_cell_angle_beta   90.00000000
_cell_angle_gamma   90.00000000
_symmetry_Int_Tables_number   1
_chemical_formula_structural   CaMg14SnO16
_chemical_formula_sum   'Ca1 Mg14 Sn1 O16'
_cell_volume   339.02056714
_cell_formula_units_Z   1
loop_
 _symmetry_equiv_pos_site_id
 _symmetry_equiv_pos_as_xyz
  1  'x, y, z'
loop_
 _atom_site_type_symbol
 _atom_site_label
 _atom_site_symmetry_multiplicity
 _atom_site_fract_x
 _atom_site_fract_y
 _atom_site_fract_z
 _atom_site_occupancy
  Ca  Ca0  1  0.00000000  0.00000000  0.00000000  1
  Mg  Mg1  1  0.00000000  0.50000000  0.00000000  1
  Mg  Mg2  1  0.00000000  0.50000000  0.50000000  1
  Mg  Mg3  1  0.50000000  0.00000000  0.24679200  1
  Mg  Mg4  1  0.50000000  0.00000000  0.75320800  1
  Mg  Mg5  1  0.50000000  0.50000000  0.24958600  1
  Mg  Mg6  1  0.50000000  0.50000000  0.75041400  1
  Mg  Mg7  1  0.50000000  0.25674200  0.00000000  1
  Mg  Mg8  1  0.50000000  0.25910300  0.50000000  1
  Mg  Mg9  1  0.50000000  0.74325800  0.00000000  1
  Mg  Mg10  1  0.50000000  0.74089700  0.50000000  1
  Mg  Mg11  1  0.00000000  0.25787800  0.24896000  1
  Mg  Mg12  1  0.00000000  0.25787800  0.75104000  1
  Mg  Mg13  1  0.00000000  0.74212200  0.24896000  1
  Mg  Mg14  1  0.00000000  0.74212200  0.75104000  1
  Sn  Sn15  1  0.00000000  0.00000000  0.50000000  1
  O  O16  1  0.00000000  0.26531500  0.00000000  1
  O  O17  1  0.00000000  0.27371300  0.50000000  1
  O  O18  1  0.00000000  0.73468500  0.00000000  1
  O  O19  1  0.00000000  0.72628700  0.50000000  1
  O  O20  1  0.50000000  0.25025400  0.24981900  1
  O  O21  1  0.50000000  0.25025400  0.75018100  1
  O  O22  1  0.50000000  0.74974600  0.24981900  1
  O  O23  1  0.50000000  0.74974600  0.75018100  1
  O  O24  1  0.50000000  0.00000000  0.00000000  1
  O  O25  1  0.50000000  0.00000000  0.50000000  1
  O  O26  1  0.50000000  0.50000000  0.00000000  1
  O  O27  1  0.50000000  0.50000000  0.50000000  1
  O  O28  1  0.00000000  0.00000000  0.24358400  1
  O  O29  1  0.00000000  0.00000000  0.75641600  1
  O  O30  1  0.00000000  0.50000000  0.24809500  1
  O  O31  1  0.00000000  0.50000000  0.75190500  1
