# generated using pymatgen
data_H8S(NO2)2
_symmetry_space_group_name_H-M   'P 1'
_cell_length_a   6.10096900
_cell_length_b   7.79249100
_cell_length_c   10.72154100
_cell_angle_alpha   90.00000000
_cell_angle_beta   90.00000000
_cell_angle_gamma   90.00000000
_symmetry_Int_Tables_number   1
_chemical_formula_structural   H8S(NO2)2
_chemical_formula_sum   'H32 S4 N8 O16'
_cell_volume   509.72077921
_cell_formula_units_Z   4
loop_
 _symmetry_equiv_pos_site_id
 _symmetry_equiv_pos_as_xyz
  1  'x, y, z'
loop_
 _atom_site_type_symbol
 _atom_site_label
 _atom_site_symmetry_multiplicity
 _atom_site_fract_x
 _atom_site_fract_y
 _atom_site_fract_z
 _atom_site_occupancy
  H  H0  1  0.38709200  0.89007500  0.31826600  1
  H  H1  1  0.88709200  0.10992500  0.68173400  1
  H  H2  1  0.11290800  0.39007500  0.18173400  1
  H  H3  1  0.61290800  0.60992500  0.81826600  1
  H  H4  1  0.61290800  0.10992500  0.68173400  1
  H  H5  1  0.11290800  0.89007500  0.31826600  1
  H  H6  1  0.88709200  0.60992500  0.81826600  1
  H  H7  1  0.38709200  0.39007500  0.18173400  1
  H  H8  1  0.75000000  0.00666100  0.79495400  1
  H  H9  1  0.25000000  0.99333900  0.20504600  1
  H  H10  1  0.75000000  0.50666100  0.70504600  1
  H  H11  1  0.25000000  0.49333900  0.29495400  1
  H  H12  1  0.75000000  0.92423600  0.64826500  1
  H  H13  1  0.25000000  0.07576400  0.35173500  1
  H  H14  1  0.75000000  0.18726600  0.36896000  1
  H  H15  1  0.75000000  0.42423600  0.85173500  1
  H  H16  1  0.38838700  0.67518700  0.53929500  1
  H  H17  1  0.88838700  0.32481300  0.46070500  1
  H  H18  1  0.11161300  0.17518700  0.96070500  1
  H  H19  1  0.61161300  0.82481300  0.03929500  1
  H  H20  1  0.61161300  0.32481300  0.46070500  1
  H  H21  1  0.11161300  0.67518700  0.53929500  1
  H  H22  1  0.88838700  0.82481300  0.03929500  1
  H  H23  1  0.38838700  0.17518700  0.96070500  1
  H  H24  1  0.75000000  0.40156800  0.33662900  1
  H  H25  1  0.25000000  0.59843200  0.66337100  1
  H  H26  1  0.75000000  0.90156800  0.16337100  1
  H  H27  1  0.25000000  0.09843200  0.83662900  1
  H  H28  1  0.25000000  0.31273400  0.86896000  1
  H  H29  1  0.75000000  0.68726600  0.13104000  1
  H  H30  1  0.25000000  0.81273400  0.63104000  1
  H  H31  1  0.25000000  0.57576400  0.14826500  1
  S  S32  1  0.75000000  0.75747600  0.41947300  1
  S  S33  1  0.25000000  0.24252400  0.58052700  1
  S  S34  1  0.75000000  0.25747600  0.08052700  1
  S  S35  1  0.25000000  0.74252400  0.91947300  1
  N  N36  1  0.75000000  0.03700200  0.70188700  1
  N  N37  1  0.25000000  0.96299800  0.29811300  1
  N  N38  1  0.75000000  0.53700200  0.79811300  1
  N  N39  1  0.25000000  0.46299800  0.20188700  1
  N  N40  1  0.75000000  0.30976200  0.40565400  1
  N  N41  1  0.25000000  0.69023800  0.59434600  1
  N  N42  1  0.75000000  0.80976200  0.09434600  1
  N  N43  1  0.25000000  0.19023800  0.90565400  1
  O  O44  1  0.45155300  0.32422300  0.63302800  1
  O  O45  1  0.95155300  0.67577700  0.36697200  1
  O  O46  1  0.04844700  0.82422300  0.86697200  1
  O  O47  1  0.54844700  0.17577700  0.13302800  1
  O  O48  1  0.54844700  0.67577700  0.36697200  1
  O  O49  1  0.04844700  0.32422300  0.63302800  1
  O  O50  1  0.95155300  0.17577700  0.13302800  1
  O  O51  1  0.45155300  0.82422300  0.86697200  1
  O  O52  1  0.75000000  0.73257300  0.55852300  1
  O  O53  1  0.25000000  0.26742700  0.44147700  1
  O  O54  1  0.75000000  0.23257300  0.94147700  1
  O  O55  1  0.25000000  0.76742700  0.05852300  1
  O  O56  1  0.75000000  0.94316500  0.38748100  1
  O  O57  1  0.25000000  0.05683500  0.61251900  1
  O  O58  1  0.75000000  0.44316500  0.11251900  1
  O  O59  1  0.25000000  0.55683500  0.88748100  1
