# generated using pymatgen
data_CdSi3AsH27C9I2
_symmetry_space_group_name_H-M   'P 1'
_cell_length_a   15.97498791
_cell_length_b   16.77245455
_cell_length_c   19.22588906
_cell_angle_alpha   90.00000000
_cell_angle_beta   90.00000000
_cell_angle_gamma   90.00000000
_symmetry_Int_Tables_number   1
_chemical_formula_structural   CdSi3AsH27C9I2
_chemical_formula_sum   'Cd8 Si24 As8 H216 C72 I16'
_cell_volume   5151.38007471
_cell_formula_units_Z   8
loop_
 _symmetry_equiv_pos_site_id
 _symmetry_equiv_pos_as_xyz
  1  'x, y, z'
loop_
 _atom_site_type_symbol
 _atom_site_label
 _atom_site_symmetry_multiplicity
 _atom_site_fract_x
 _atom_site_fract_y
 _atom_site_fract_z
 _atom_site_occupancy
  Cd  Cd0  1  0.30492430  0.21874239  0.32920078  1
  Cd  Cd1  1  0.19507570  0.78125761  0.82920078  1
  Cd  Cd2  1  0.80492430  0.28125761  0.67079922  1
  Cd  Cd3  1  0.69507570  0.71874239  0.17079922  1
  Cd  Cd4  1  0.13418804  0.25799875  0.17124780  1
  Cd  Cd5  1  0.36581196  0.74200125  0.67124780  1
  Cd  Cd6  1  0.63418804  0.24200125  0.82875220  1
  Cd  Cd7  1  0.86581196  0.75799875  0.32875220  1
  Si  Si8  1  0.55049936  0.21635638  0.39876164  1
  Si  Si9  1  0.94950064  0.78364362  0.89876164  1
  Si  Si10  1  0.05049936  0.28364362  0.60123836  1
  Si  Si11  1  0.44950064  0.71635638  0.10123836  1
  Si  Si12  1  0.42529597  0.41731870  0.41009078  1
  Si  Si13  1  0.07470403  0.58268130  0.91009078  1
  Si  Si14  1  0.92529597  0.08268130  0.58990922  1
  Si  Si15  1  0.57470403  0.91731870  0.08990922  1
  Si  Si16  1  0.50184332  0.33457815  0.22824643  1
  Si  Si17  1  0.99815668  0.66542185  0.72824643  1
  Si  Si18  1  0.00184332  0.16542185  0.77175357  1
  Si  Si19  1  0.49815668  0.83457815  0.27175357  1
  Si  Si20  1  0.99836425  0.07558915  0.08733806  1
  Si  Si21  1  0.50163575  0.92441085  0.58733806  1
  Si  Si22  1  0.49836425  0.42441085  0.91266194  1
  Si  Si23  1  0.00163575  0.57558915  0.41266194  1
  Si  Si24  1  0.88831063  0.28645444  0.10393256  1
  Si  Si25  1  0.61168937  0.71354556  0.60393256  1
  Si  Si26  1  0.38831063  0.21354556  0.89606744  1
  Si  Si27  1  0.11168937  0.78645444  0.39606744  1
  Si  Si28  1  0.92773400  0.15979082  0.27199065  1
  Si  Si29  1  0.57226600  0.84020918  0.77199065  1
  Si  Si30  1  0.42773400  0.34020918  0.72800935  1
  Si  Si31  1  0.07226600  0.65979082  0.22800935  1
  As  As32  1  0.44896740  0.29933906  0.34103017  1
  As  As33  1  0.05103260  0.70066094  0.84103017  1
  As  As34  1  0.94896740  0.20066094  0.65896983  1
  As  As35  1  0.55103260  0.79933906  0.15896983  1
  As  As36  1  0.98226898  0.19261693  0.15899603  1
  As  As37  1  0.51773102  0.80738307  0.65899603  1
  As  As38  1  0.48226898  0.30738307  0.84100397  1
  As  As39  1  0.01773102  0.69261693  0.34100397  1
  H  H40  1  0.46858838  0.17959936  0.50385371  1
  H  H41  1  0.03141162  0.82040064  0.00385371  1
  H  H42  1  0.96858838  0.32040064  0.49614629  1
  H  H43  1  0.53141162  0.67959936  0.99614629  1
  H  H44  1  0.51681180  0.27462008  0.51583341  1
  H  H45  1  0.98318820  0.72537992  0.01583341  1
  H  H46  1  0.01681180  0.22537992  0.48416659  1
  H  H47  1  0.48318820  0.77462008  0.98416659  1
  H  H48  1  0.57804539  0.18713447  0.52215766  1
  H  H49  1  0.92195461  0.81286553  0.02215766  1
  H  H50  1  0.07804539  0.31286553  0.47784234  1
  H  H51  1  0.42195461  0.68713447  0.97784234  1
  H  H52  1  0.67602792  0.25532227  0.32827193  1
  H  H53  1  0.82397208  0.74467773  0.82827193  1
  H  H54  1  0.17602792  0.24467773  0.67172807  1
  H  H55  1  0.32397208  0.75532227  0.17172807  1
  H  H56  1  0.70351613  0.21323234  0.40994012  1
  H  H57  1  0.79648387  0.78676766  0.90994012  1
  H  H58  1  0.20351613  0.28676766  0.59005988  1
  H  H59  1  0.29648387  0.71323234  0.09005988  1
  H  H60  1  0.66990052  0.31373763  0.40588354  1
  H  H61  1  0.83009948  0.68626237  0.90588354  1
  H  H62  1  0.16990052  0.18626237  0.59411646  1
  H  H63  1  0.33009948  0.81373763  0.09411646  1
  H  H64  1  0.55013296  0.11102784  0.30577332  1
  H  H65  1  0.94986704  0.88897216  0.80577332  1
  H  H66  1  0.05013296  0.38897216  0.69422668  1
  H  H67  1  0.44986704  0.61102784  0.19422668  1
  H  H68  1  0.47806282  0.08768231  0.37384885  1
  H  H69  1  0.02193718  0.91231769  0.87384885  1
  H  H70  1  0.97806282  0.41231769  0.62615115  1
  H  H71  1  0.52193718  0.58768231  0.12615115  1
  H  H72  1  0.58780730  0.07481923  0.38677378  1
  H  H73  1  0.91219270  0.92518077  0.88677378  1
  H  H74  1  0.08780730  0.42518077  0.61322622  1
  H  H75  1  0.41219270  0.57481923  0.11322622  1
  H  H76  1  0.28949102  0.37165291  0.46051435  1
  H  H77  1  0.21050898  0.62834709  0.96051435  1
  H  H78  1  0.78949102  0.12834709  0.53948565  1
  H  H79  1  0.71050898  0.87165291  0.03948565  1
  H  H80  1  0.34372248  0.43857766  0.51677783  1
  H  H81  1  0.15627752  0.56142234  0.01677783  1
  H  H82  1  0.84372248  0.06142234  0.48322217  1
  H  H83  1  0.65627752  0.93857766  0.98322217  1
  H  H84  1  0.37494827  0.33632022  0.51130855  1
  H  H85  1  0.12505173  0.66367978  0.01130855  1
  H  H86  1  0.87494827  0.16367978  0.48869145  1
  H  H87  1  0.62505173  0.83632022  0.98869145  1
  H  H88  1  0.57320779  0.46791313  0.40694110  1
  H  H89  1  0.92679221  0.53208687  0.90694110  1
  H  H90  1  0.07320779  0.03208687  0.59305890  1
  H  H91  1  0.42679221  0.96791313  0.09305890  1
  H  H92  1  0.55360697  0.41612232  0.48608276  1
  H  H93  1  0.94639303  0.58387768  0.98608276  1
  H  H94  1  0.05360697  0.08387768  0.51391724  1
  H  H95  1  0.44639303  0.91612232  0.01391724  1
  H  H96  1  0.51213272  0.51324336  0.47337788  1
  H  H97  1  0.98786728  0.48675664  0.97337788  1
  H  H98  1  0.01213272  0.98675664  0.52662212  1
  H  H99  1  0.48786728  0.01324336  0.02662212  1
  H  H100  1  0.41837636  0.51853677  0.31430205  1
  H  H101  1  0.08162364  0.48146323  0.81430205  1
  H  H102  1  0.91837636  0.98146323  0.68569795  1
  H  H103  1  0.58162364  0.01853677  0.18569795  1
  H  H104  1  0.35785749  0.54568786  0.38826701  1
  H  H105  1  0.14214251  0.45431214  0.88826701  1
  H  H106  1  0.85785749  0.95431214  0.61173299  1
  H  H107  1  0.64214251  0.04568786  0.11173299  1
  H  H108  1  0.31824292  0.47379355  0.32832225  1
  H  H109  1  0.18175708  0.52620645  0.82832225  1
  H  H110  1  0.81824292  0.02620645  0.67167775  1
  H  H111  1  0.68175708  0.97379355  0.17167775  1
  H  H112  1  0.63773843  0.39126211  0.27222514  1
  H  H113  1  0.86226157  0.60873789  0.77222514  1
  H  H114  1  0.13773843  0.10873789  0.72777486  1
  H  H115  1  0.36226157  0.89126211  0.22777486  1
  H  H116  1  0.56638440  0.46833690  0.24934924  1
  H  H117  1  0.93361560  0.53166310  0.74934924  1
  H  H118  1  0.06638440  0.03166310  0.75065076  1
  H  H119  1  0.43361560  0.96833690  0.25065076  1
  H  H120  1  0.61966397  0.41478057  0.18337564  1
  H  H121  1  0.88033603  0.58521943  0.68337564  1
  H  H122  1  0.11966397  0.08521943  0.81662436  1
  H  H123  1  0.38033603  0.91478057  0.31662436  1
  H  H124  1  0.43454674  0.39742006  0.12707278  1
  H  H125  1  0.06545326  0.60257994  0.62707278  1
  H  H126  1  0.93454674  0.10257994  0.87292722  1
  H  H127  1  0.56545326  0.89742006  0.37292722  1
  H  H128  1  0.38145744  0.42672268  0.20411395  1
  H  H129  1  0.11854256  0.57327732  0.70411395  1
  H  H130  1  0.88145744  0.07327732  0.79588605  1
  H  H131  1  0.61854256  0.92672268  0.29588605  1
  H  H132  1  0.36360818  0.33058222  0.16812198  1
  H  H133  1  0.13639182  0.66941778  0.66812198  1
  H  H134  1  0.86360818  0.16941778  0.83187802  1
  H  H135  1  0.63639182  0.83058222  0.33187802  1
  H  H136  1  0.59183335  0.21236323  0.21404325  1
  H  H137  1  0.90816665  0.78763677  0.71404325  1
  H  H138  1  0.09183335  0.28763677  0.78595675  1
  H  H139  1  0.40816665  0.71236323  0.28595675  1
  H  H140  1  0.55949474  0.25281319  0.13316079  1
  H  H141  1  0.94050526  0.74718681  0.63316079  1
  H  H142  1  0.05949474  0.24718681  0.86683921  1
  H  H143  1  0.44050526  0.75281319  0.36683921  1
  H  H144  1  0.48759739  0.19598057  0.18344750  1
  H  H145  1  0.01240261  0.80401943  0.68344750  1
  H  H146  1  0.98759739  0.30401943  0.81655250  1
  H  H147  1  0.51240261  0.69598057  0.31655250  1
  H  H148  1  0.86119002  0.08761948  0.02382496  1
  H  H149  1  0.63880998  0.91238052  0.52382496  1
  H  H150  1  0.36119002  0.41238052  0.97617504  1
  H  H151  1  0.13880998  0.58761948  0.47617504  1
  H  H152  1  0.85300519  0.02174421  0.09632916  1
  H  H153  1  0.64699481  0.97825579  0.59632916  1
  H  H154  1  0.35300519  0.47825579  0.90367084  1
  H  H155  1  0.14699481  0.52174421  0.40367084  1
  H  H156  1  0.90376305  0.98999578  0.01904642  1
  H  H157  1  0.59623695  0.01000422  0.51904642  1
  H  H158  1  0.40376305  0.51000422  0.98095358  1
  H  H159  1  0.09623695  0.48999578  0.48095358  1
  H  H160  1  0.00873029  0.97234715  0.18142761  1
  H  H161  1  0.49126971  0.02765285  0.68142761  1
  H  H162  1  0.50873029  0.52765285  0.81857239  1
  H  H163  1  0.99126971  0.47234715  0.31857239  1
  H  H164  1  0.10871560  0.01599654  0.16347245  1
  H  H165  1  0.39128440  0.98400346  0.66347245  1
  H  H166  1  0.60871560  0.48400346  0.83652755  1
  H  H167  1  0.89128440  0.51599654  0.33652755  1
  H  H168  1  0.06463937  0.94544699  0.10497743  1
  H  H169  1  0.43536063  0.05455301  0.60497743  1
  H  H170  1  0.56463937  0.55455301  0.89502257  1
  H  H171  1  0.93536063  0.44544699  0.39502257  1
  H  H172  1  0.04271354  0.15080026  0.98069444  1
  H  H173  1  0.45728646  0.84919974  0.48069444  1
  H  H174  1  0.54271354  0.34919974  0.01930556  1
  H  H175  1  0.95728646  0.65080026  0.51930556  1
  H  H176  1  0.08200436  0.05094792  0.98201511  1
  H  H177  1  0.41799564  0.94905208  0.48201511  1
  H  H178  1  0.58200436  0.44905208  0.01798489  1
  H  H179  1  0.91799564  0.55094792  0.51798489  1
  H  H180  1  0.13044097  0.12582029  0.03348807  1
  H  H181  1  0.36955903  0.87417971  0.53348807  1
  H  H182  1  0.63044097  0.37417971  0.96651193  1
  H  H183  1  0.86955903  0.62582029  0.46651193  1
  H  H184  1  0.76236475  0.25619195  0.17703786  1
  H  H185  1  0.73763525  0.74380805  0.67703786  1
  H  H186  1  0.26236475  0.24380805  0.82296214  1
  H  H187  1  0.23763525  0.75619195  0.32296214  1
  H  H188  1  0.75941150  0.20076378  0.09757138  1
  H  H189  1  0.74058850  0.79923622  0.59757138  1
  H  H190  1  0.25941150  0.29923622  0.90242862  1
  H  H191  1  0.24058850  0.70076378  0.40242862  1
  H  H192  1  0.73595115  0.30405045  0.09758464  1
  H  H193  1  0.76404885  0.69594955  0.59758464  1
  H  H194  1  0.23595115  0.19594955  0.90241536  1
  H  H195  1  0.26404885  0.80405045  0.40241536  1
  H  H196  1  0.89142620  0.39178186  0.19641282  1
  H  H197  1  0.60857380  0.60821814  0.69641282  1
  H  H198  1  0.39142620  0.10821814  0.80358718  1
  H  H199  1  0.10857380  0.89178186  0.30358718  1
  H  H200  1  0.87431981  0.43193093  0.11209321  1
  H  H201  1  0.62568019  0.56806907  0.61209321  1
  H  H202  1  0.37431981  0.06806907  0.88790679  1
  H  H203  1  0.12568019  0.93193093  0.38790679  1
  H  H204  1  0.97710607  0.40288659  0.13743485  1
  H  H205  1  0.52289393  0.59711341  0.63743485  1
  H  H206  1  0.47710607  0.09711341  0.86256515  1
  H  H207  1  0.02289393  0.90288659  0.36256515  1
  H  H208  1  0.86737153  0.33017784  0.98362520  1
  H  H209  1  0.63262847  0.66982216  0.48362520  1
  H  H210  1  0.36737153  0.16982216  0.01637480  1
  H  H211  1  0.13262847  0.83017784  0.51637480  1
  H  H212  1  0.89737905  0.22861681  0.98390066  1
  H  H213  1  0.60262095  0.77138319  0.48390066  1
  H  H214  1  0.39737905  0.27138319  0.01609934  1
  H  H215  1  0.10262095  0.72861681  0.51609934  1
  H  H216  1  0.97454943  0.30483548  0.99711970  1
  H  H217  1  0.52545057  0.69516452  0.49711970  1
  H  H218  1  0.47454943  0.19516452  0.00288030  1
  H  H219  1  0.02545057  0.80483548  0.50288030  1
  H  H220  1  0.06441325  0.15205762  0.33482107  1
  H  H221  1  0.43558675  0.84794238  0.83482107  1
  H  H222  1  0.56441325  0.34794238  0.66517893  1
  H  H223  1  0.93558675  0.65205762  0.16517893  1
  H  H224  1  0.04019515  0.05860390  0.29593911  1
  H  H225  1  0.45980485  0.94139610  0.79593911  1
  H  H226  1  0.54019515  0.44139610  0.70406089  1
  H  H227  1  0.95980485  0.55860390  0.20406089  1
  H  H228  1  0.98668758  0.08916728  0.37225449  1
  H  H229  1  0.51331242  0.91083272  0.87225449  1
  H  H230  1  0.48668758  0.41083272  0.62774551  1
  H  H231  1  0.01331242  0.58916728  0.12774551  1
  H  H232  1  0.85654225  0.29356614  0.28290030  1
  H  H233  1  0.64345775  0.70643386  0.78290030  1
  H  H234  1  0.35654225  0.20643386  0.71709970  1
  H  H235  1  0.14345775  0.79356614  0.21709970  1
  H  H236  1  0.95387345  0.29125955  0.32809333  1
  H  H237  1  0.54612655  0.70874045  0.82809333  1
  H  H238  1  0.45387345  0.20874045  0.67190667  1
  H  H239  1  0.04612655  0.79125955  0.17190667  1
  H  H240  1  0.86431722  0.24302409  0.36362047  1
  H  H241  1  0.63568278  0.75697591  0.86362047  1
  H  H242  1  0.36431722  0.25697591  0.63637953  1
  H  H243  1  0.13568278  0.74302409  0.13637953  1
  H  H244  1  0.84988040  0.03623930  0.23729811  1
  H  H245  1  0.65011960  0.96376070  0.73729811  1
  H  H246  1  0.34988040  0.46376070  0.76270189  1
  H  H247  1  0.15011960  0.53623930  0.26270189  1
  H  H248  1  0.78134724  0.11997824  0.23901915  1
  H  H249  1  0.71865276  0.88002176  0.73901915  1
  H  H250  1  0.28134724  0.38002176  0.76098085  1
  H  H251  1  0.21865276  0.61997824  0.26098085  1
  H  H252  1  0.81526200  0.07480693  0.31803607  1
  H  H253  1  0.68473800  0.92519307  0.81803607  1
  H  H254  1  0.31526200  0.42519307  0.68196393  1
  H  H255  1  0.18473800  0.57480693  0.18196393  1
  C  C256  1  0.52540579  0.21476286  0.49399041  1
  C  C257  1  0.97459421  0.78523714  0.99399041  1
  C  C258  1  0.02540579  0.28523714  0.50600959  1
  C  C259  1  0.47459421  0.71476286  0.00600959  1
  C  C260  1  0.65967819  0.25420158  0.38374468  1
  C  C261  1  0.84032181  0.74579842  0.88374468  1
  C  C262  1  0.15967819  0.24579842  0.61625532  1
  C  C263  1  0.34032181  0.75420158  0.11625532  1
  C  C264  1  0.54003454  0.11297957  0.36221203  1
  C  C265  1  0.95996546  0.88702043  0.86221203  1
  C  C266  1  0.04003454  0.38702043  0.63778797  1
  C  C267  1  0.45996546  0.61297957  0.13778797  1
  C  C268  1  0.35137697  0.38732162  0.48136213  1
  C  C269  1  0.14862303  0.61267838  0.98136213  1
  C  C270  1  0.85137697  0.11267838  0.51863787  1
  C  C271  1  0.64862303  0.88732162  0.01863787  1
  C  C272  1  0.52601783  0.45622841  0.44718817  1
  C  C273  1  0.97398217  0.54377159  0.94718817  1
  C  C274  1  0.02601783  0.04377159  0.55281183  1
  C  C275  1  0.47398217  0.95622841  0.05281183  1
  C  C276  1  0.37524013  0.49555642  0.35396974  1
  C  C277  1  0.12475987  0.50444358  0.85396974  1
  C  C278  1  0.87524013  0.00444358  0.64603026  1
  C  C279  1  0.62475987  0.99555642  0.14603026  1
  C  C280  1  0.58944702  0.40894067  0.23466657  1
  C  C281  1  0.91055298  0.59105933  0.73466657  1
  C  C282  1  0.08944702  0.09105933  0.76533343  1
  C  C283  1  0.41055298  0.90894067  0.26533343  1
  C  C284  1  0.41150415  0.37623286  0.17785696  1
  C  C285  1  0.08849585  0.62376714  0.67785696  1
  C  C286  1  0.91150415  0.12376714  0.82214304  1
  C  C287  1  0.58849585  0.87623286  0.32214304  1
  C  C288  1  0.53878956  0.23958428  0.18664018  1
  C  C289  1  0.96121044  0.76041572  0.68664018  1
  C  C290  1  0.03878956  0.26041572  0.81335982  1
  C  C291  1  0.46121044  0.73958428  0.31335982  1
  C  C292  1  0.89406589  0.04134727  0.05376238  1
  C  C293  1  0.60593411  0.95865273  0.55376238  1
  C  C294  1  0.39406589  0.45865273  0.94623762  1
  C  C295  1  0.10593411  0.54134727  0.44623762  1
  C  C296  1  0.04971969  0.99534041  0.14023147  1
  C  C297  1  0.45028031  0.00465959  0.64023147  1
  C  C298  1  0.54971969  0.50465959  0.85976853  1
  C  C299  1  0.95028031  0.49534041  0.35976853  1
  C  C300  1  0.06980391  0.10436874  0.01395489  1
  C  C301  1  0.43019609  0.89563126  0.51395489  1
  C  C302  1  0.56980391  0.39563126  0.98604511  1
  C  C303  1  0.93019609  0.60436874  0.48604511  1
  C  C304  1  0.77640814  0.25817642  0.12116390  1
  C  C305  1  0.72359186  0.74182358  0.62116390  1
  C  C306  1  0.27640814  0.24182358  0.87883610  1
  C  C307  1  0.22359186  0.75817642  0.37883610  1
  C  C308  1  0.91050149  0.38734109  0.14172056  1
  C  C309  1  0.58949851  0.61265891  0.64172056  1
  C  C310  1  0.41050149  0.11265891  0.85827944  1
  C  C311  1  0.08949851  0.88734109  0.35827944  1
  C  C312  1  0.90977519  0.28671740  0.00817788  1
  C  C313  1  0.59022481  0.71328260  0.50817788  1
  C  C314  1  0.40977519  0.21328260  0.99182212  1
  C  C315  1  0.09022481  0.78671740  0.49182212  1
  C  C316  1  0.01341546  0.11038803  0.32272681  1
  C  C317  1  0.48658454  0.88961197  0.82272681  1
  C  C318  1  0.51341546  0.38961197  0.67727319  1
  C  C319  1  0.98658454  0.61038803  0.17727319  1
  C  C320  1  0.89788884  0.25636061  0.31490505  1
  C  C321  1  0.60211116  0.74363939  0.81490505  1
  C  C322  1  0.39788884  0.24363939  0.68509495  1
  C  C323  1  0.10211116  0.75636061  0.18509495  1
  C  C324  1  0.83481426  0.09168294  0.26499621  1
  C  C325  1  0.66518574  0.90831706  0.76499621  1
  C  C326  1  0.33481426  0.40831706  0.73500379  1
  C  C327  1  0.16518574  0.59168294  0.23500379  1
  I  I328  1  0.16600964  0.33176500  0.30738036  1
  I  I329  1  0.33399036  0.66823500  0.80738036  1
  I  I330  1  0.66600964  0.16823500  0.69261964  1
  I  I331  1  0.83399036  0.83176500  0.19261964  1
  I  I332  1  0.27178358  0.14459568  0.19374906  1
  I  I333  1  0.22821642  0.85540432  0.69374906  1
  I  I334  1  0.77178358  0.35540432  0.80625094  1
  I  I335  1  0.72821642  0.64459568  0.30625094  1
  I  I336  1  0.17220074  0.36514014  0.06493680  1
  I  I337  1  0.32779926  0.63485986  0.56493680  1
  I  I338  1  0.67220074  0.13485986  0.93506320  1
  I  I339  1  0.82779926  0.86514014  0.43506320  1
  I  I340  1  0.27256938  0.11028774  0.43472740  1
  I  I341  1  0.22743062  0.88971226  0.93472740  1
  I  I342  1  0.77256938  0.38971226  0.56527260  1
  I  I343  1  0.72743062  0.61028774  0.06527260  1
