# generated using pymatgen
data_CaSiBO5
_symmetry_space_group_name_H-M   'P 1'
_cell_length_a   7.71970200
_cell_length_b   4.97207000
_cell_length_c   9.58514563
_cell_angle_alpha   88.32950766
_cell_angle_beta   90.00000000
_cell_angle_gamma   90.00000000
_symmetry_Int_Tables_number   1
_chemical_formula_structural   CaSiBO5
_chemical_formula_sum   'Ca4 Si4 B4 O20'
_cell_volume   367.74931624
_cell_formula_units_Z   4
loop_
 _symmetry_equiv_pos_site_id
 _symmetry_equiv_pos_as_xyz
  1  'x, y, z'
loop_
 _atom_site_type_symbol
 _atom_site_label
 _atom_site_symmetry_multiplicity
 _atom_site_fract_x
 _atom_site_fract_y
 _atom_site_fract_z
 _atom_site_occupancy
  Ca  Ca0  1  0.61655300  0.00789500  0.82939500  1
  Ca  Ca1  1  0.11655300  0.99210500  0.67060500  1
  Ca  Ca2  1  0.38344700  0.99210500  0.17060500  1
  Ca  Ca3  1  0.88344700  0.00789500  0.32939500  1
  Si  Si4  1  0.75484600  0.53071100  0.58655500  1
  Si  Si5  1  0.25484600  0.46928900  0.91344500  1
  Si  Si6  1  0.24515400  0.46928900  0.41344500  1
  Si  Si7  1  0.74515400  0.53071100  0.08655500  1
  B  B8  1  0.90621700  0.43820700  0.82850100  1
  B  B9  1  0.40621700  0.56179300  0.67149900  1
  B  B10  1  0.09378300  0.56179300  0.17149900  1
  B  B11  1  0.59378300  0.43820700  0.32850100  1
  O  O12  1  0.89665500  0.76251000  0.54778400  1
  O  O13  1  0.39665500  0.23749000  0.95221600  1
  O  O14  1  0.10334500  0.23749000  0.45221600  1
  O  O15  1  0.60334500  0.76251000  0.04778400  1
  O  O16  1  0.79484900  0.35776400  0.94818600  1
  O  O17  1  0.29484900  0.64223600  0.55181400  1
  O  O18  1  0.20515100  0.64223600  0.05181400  1
  O  O19  1  0.70515100  0.35776400  0.44818600  1
  O  O20  1  0.83110300  0.30531500  0.70295700  1
  O  O21  1  0.33110300  0.69468500  0.79704300  1
  O  O22  1  0.16889700  0.69468500  0.29704300  1
  O  O23  1  0.66889700  0.30531500  0.20295700  1
  O  O24  1  0.58129300  0.67330500  0.65159500  1
  O  O25  1  0.08129300  0.32669500  0.84840500  1
  O  O26  1  0.41870700  0.32669500  0.34840500  1
  O  O27  1  0.91870700  0.67330500  0.15159500  1
  O  O28  1  0.90190900  0.73191200  0.80216300  1
  O  O29  1  0.40190900  0.26808800  0.69783700  1
  O  O30  1  0.09809100  0.26808800  0.19783700  1
  O  O31  1  0.59809100  0.73191200  0.30216300  1
