# generated using pymatgen
data_ErBiW2O9
_symmetry_space_group_name_H-M   'P 1'
_cell_length_a   3.91632700
_cell_length_b   5.74883500
_cell_length_c   32.71281800
_cell_angle_alpha   90.00000000
_cell_angle_beta   90.00000000
_cell_angle_gamma   90.00000000
_symmetry_Int_Tables_number   1
_chemical_formula_structural   ErBiW2O9
_chemical_formula_sum   'Er4 Bi4 W8 O36'
_cell_volume   736.50677826
_cell_formula_units_Z   4
loop_
 _symmetry_equiv_pos_site_id
 _symmetry_equiv_pos_as_xyz
  1  'x, y, z'
loop_
 _atom_site_type_symbol
 _atom_site_label
 _atom_site_symmetry_multiplicity
 _atom_site_fract_x
 _atom_site_fract_y
 _atom_site_fract_z
 _atom_site_occupancy
  Er  Er0  1  0.23990200  0.25000000  0.33282400  1
  Er  Er1  1  0.26009800  0.25000000  0.83282400  1
  Er  Er2  1  0.76009800  0.75000000  0.66717600  1
  Er  Er3  1  0.73990200  0.75000000  0.16717600  1
  Bi  Bi4  1  0.22680500  0.75000000  0.52667300  1
  Bi  Bi5  1  0.27319500  0.75000000  0.02667300  1
  Bi  Bi6  1  0.77319500  0.25000000  0.47332700  1
  Bi  Bi7  1  0.72680500  0.25000000  0.97332700  1
  W  W8  1  0.26844900  0.25000000  0.20659500  1
  W  W9  1  0.23155100  0.25000000  0.70659500  1
  W  W10  1  0.73155100  0.75000000  0.79340500  1
  W  W11  1  0.76844900  0.75000000  0.29340500  1
  W  W12  1  0.26291200  0.75000000  0.42001900  1
  W  W13  1  0.23708800  0.75000000  0.92001900  1
  W  W14  1  0.73708800  0.25000000  0.57998100  1
  W  W15  1  0.76291200  0.25000000  0.07998100  1
  O  O16  1  0.26405200  0.25000000  0.76178600  1
  O  O17  1  0.23594800  0.25000000  0.26178600  1
  O  O18  1  0.73594800  0.75000000  0.23821400  1
  O  O19  1  0.76405200  0.75000000  0.73821400  1
  O  O20  1  0.24422800  0.98018800  0.47059500  1
  O  O21  1  0.25577200  0.51981200  0.97059500  1
  O  O22  1  0.75577200  0.48018800  0.52940500  1
  O  O23  1  0.74422800  0.01981200  0.02940500  1
  O  O24  1  0.75577200  0.01981200  0.52940500  1
  O  O25  1  0.74422800  0.48018800  0.02940500  1
  O  O26  1  0.24422800  0.51981200  0.47059500  1
  O  O27  1  0.25577200  0.98018800  0.97059500  1
  O  O28  1  0.25139400  0.25000000  0.57328100  1
  O  O29  1  0.24860600  0.25000000  0.07328100  1
  O  O30  1  0.74860600  0.75000000  0.42671900  1
  O  O31  1  0.75139400  0.75000000  0.92671900  1
  O  O32  1  0.75210200  0.25000000  0.70233500  1
  O  O33  1  0.74789800  0.25000000  0.20233500  1
  O  O34  1  0.24789800  0.75000000  0.29766500  1
  O  O35  1  0.25210200  0.75000000  0.79766500  1
  O  O36  1  0.75705500  0.00022900  0.61432900  1
  O  O37  1  0.74294500  0.49977100  0.11432900  1
  O  O38  1  0.24294500  0.50022900  0.38567100  1
  O  O39  1  0.25705500  0.99977100  0.88567100  1
  O  O40  1  0.24294500  0.99977100  0.38567100  1
  O  O41  1  0.25705500  0.50022900  0.88567100  1
  O  O42  1  0.75705500  0.49977100  0.61432900  1
  O  O43  1  0.74294500  0.00022900  0.11432900  1
  O  O44  1  0.76213600  0.03089900  0.82129700  1
  O  O45  1  0.73786400  0.46910100  0.32129700  1
  O  O46  1  0.23786400  0.53089900  0.17870300  1
  O  O47  1  0.26213600  0.96910100  0.67870300  1
  O  O48  1  0.23786400  0.96910100  0.17870300  1
  O  O49  1  0.26213600  0.53089900  0.67870300  1
  O  O50  1  0.76213600  0.46910100  0.82129700  1
  O  O51  1  0.73786400  0.03089900  0.32129700  1
