# generated using pymatgen
data_CsMg14AlO16
_symmetry_space_group_name_H-M   'P 1'
_cell_length_a   4.53793300
_cell_length_b   8.62171000
_cell_length_c   8.78013300
_cell_angle_alpha   90.00000000
_cell_angle_beta   90.00000000
_cell_angle_gamma   90.00000000
_symmetry_Int_Tables_number   1
_chemical_formula_structural   CsMg14AlO16
_chemical_formula_sum   'Cs1 Mg14 Al1 O16'
_cell_volume   343.52044121
_cell_formula_units_Z   1
loop_
 _symmetry_equiv_pos_site_id
 _symmetry_equiv_pos_as_xyz
  1  'x, y, z'
loop_
 _atom_site_type_symbol
 _atom_site_label
 _atom_site_symmetry_multiplicity
 _atom_site_fract_x
 _atom_site_fract_y
 _atom_site_fract_z
 _atom_site_occupancy
  Cs  Cs0  1  0.00000000  0.50000000  0.00000000  1
  Mg  Mg1  1  0.00000000  0.00000000  0.50000000  1
  Mg  Mg2  1  0.00000000  0.50000000  0.50000000  1
  Mg  Mg3  1  0.50000000  0.75550300  0.00000000  1
  Mg  Mg4  1  0.50000000  0.24449700  0.00000000  1
  Mg  Mg5  1  0.50000000  0.74963900  0.50000000  1
  Mg  Mg6  1  0.50000000  0.25036100  0.50000000  1
  Mg  Mg7  1  0.50000000  0.00000000  0.74895100  1
  Mg  Mg8  1  0.50000000  0.50000000  0.73999500  1
  Mg  Mg9  1  0.50000000  0.00000000  0.25104900  1
  Mg  Mg10  1  0.50000000  0.50000000  0.26000500  1
  Mg  Mg11  1  0.00000000  0.75106000  0.74224900  1
  Mg  Mg12  1  0.00000000  0.24894000  0.74224900  1
  Mg  Mg13  1  0.00000000  0.75106000  0.25775100  1
  Mg  Mg14  1  0.00000000  0.24894000  0.25775100  1
  Al  Al15  1  0.00000000  0.00000000  0.00000000  1
  O  O16  1  0.00000000  0.00000000  0.75834800  1
  O  O17  1  0.00000000  0.50000000  0.71346100  1
  O  O18  1  0.00000000  0.00000000  0.24165200  1
  O  O19  1  0.00000000  0.50000000  0.28653900  1
  O  O20  1  0.50000000  0.75068500  0.75132300  1
  O  O21  1  0.50000000  0.24931500  0.75132300  1
  O  O22  1  0.50000000  0.75068500  0.24867700  1
  O  O23  1  0.50000000  0.24931500  0.24867700  1
  O  O24  1  0.50000000  0.00000000  0.00000000  1
  O  O25  1  0.50000000  0.50000000  0.00000000  1
  O  O26  1  0.50000000  0.00000000  0.50000000  1
  O  O27  1  0.50000000  0.50000000  0.50000000  1
  O  O28  1  0.00000000  0.79752000  0.00000000  1
  O  O29  1  0.00000000  0.20248000  0.00000000  1
  O  O30  1  0.00000000  0.76170500  0.50000000  1
  O  O31  1  0.00000000  0.23829500  0.50000000  1
