# generated using pymatgen
data_Gd4(SiS4)3
_symmetry_space_group_name_H-M   'P 1'
_cell_length_a   11.27702916
_cell_length_b   11.27702916
_cell_length_c   11.27702825
_cell_angle_alpha   114.79190583
_cell_angle_beta   114.79190583
_cell_angle_gamma   114.79190458
_symmetry_Int_Tables_number   1
_chemical_formula_structural   Gd4(SiS4)3
_chemical_formula_sum   'Gd8 Si6 S24'
_cell_volume   817.62319632
_cell_formula_units_Z   2
loop_
 _symmetry_equiv_pos_site_id
 _symmetry_equiv_pos_as_xyz
  1  'x, y, z'
loop_
 _atom_site_type_symbol
 _atom_site_label
 _atom_site_symmetry_multiplicity
 _atom_site_fract_x
 _atom_site_fract_y
 _atom_site_fract_z
 _atom_site_occupancy
  Gd  Gd0  1  0.50143000  0.50143000  0.50143000  1
  Gd  Gd1  1  0.00143000  0.00143000  0.00143000  1
  Gd  Gd2  1  0.52884500  0.06949100  0.29339400  1
  Gd  Gd3  1  0.06949100  0.29339400  0.52884500  1
  Gd  Gd4  1  0.29339400  0.52884500  0.06949100  1
  Gd  Gd5  1  0.79339400  0.56949100  0.02884500  1
  Gd  Gd6  1  0.56949100  0.02884500  0.79339400  1
  Gd  Gd7  1  0.02884500  0.79339400  0.56949100  1
  Si  Si8  1  0.53242800  0.35924300  0.14628000  1
  Si  Si9  1  0.35924300  0.14628000  0.53242800  1
  Si  Si10  1  0.14628000  0.53242800  0.35924300  1
  Si  Si11  1  0.64628000  0.85924300  0.03242800  1
  Si  Si12  1  0.85924300  0.03242800  0.64628000  1
  Si  Si13  1  0.03242800  0.64628000  0.85924300  1
  S  S14  1  0.71709100  0.11100400  0.18660200  1
  S  S15  1  0.11100400  0.18660200  0.71709100  1
  S  S16  1  0.18660200  0.71709100  0.11100400  1
  S  S17  1  0.68660200  0.61100400  0.21709100  1
  S  S18  1  0.61100400  0.21709100  0.68660200  1
  S  S19  1  0.21709100  0.68660200  0.61100400  1
  S  S20  1  0.31555400  0.31430900  0.12847100  1
  S  S21  1  0.31430900  0.12847100  0.31555400  1
  S  S22  1  0.12847100  0.31555400  0.31430900  1
  S  S23  1  0.62847100  0.81430900  0.81555400  1
  S  S24  1  0.81430900  0.81555400  0.62847100  1
  S  S25  1  0.81555400  0.62847100  0.81430900  1
  S  S26  1  0.70145800  0.41375600  0.38243500  1
  S  S27  1  0.41375600  0.38243500  0.70145800  1
  S  S28  1  0.38243500  0.70145800  0.41375600  1
  S  S29  1  0.88243500  0.91375600  0.20145800  1
  S  S30  1  0.91375600  0.20145800  0.88243500  1
  S  S31  1  0.20145800  0.88243500  0.91375600  1
  S  S32  1  0.37987400  0.64689300  0.91844400  1
  S  S33  1  0.64689300  0.91844400  0.37987400  1
  S  S34  1  0.91844400  0.37987400  0.64689300  1
  S  S35  1  0.41844400  0.14689300  0.87987400  1
  S  S36  1  0.14689300  0.87987400  0.41844400  1
  S  S37  1  0.87987400  0.41844400  0.14689300  1
