# generated using pymatgen
data_CuH9C3N(ClO)2
_symmetry_space_group_name_H-M   'P 1'
_cell_length_a   12.71116000
_cell_length_b   7.25753300
_cell_length_c   9.75180098
_cell_angle_alpha   85.15519816
_cell_angle_beta   90.00000000
_cell_angle_gamma   90.00000000
_symmetry_Int_Tables_number   1
_chemical_formula_structural   CuH9C3N(ClO)2
_chemical_formula_sum   'Cu4 H36 C12 N4 Cl8 O8'
_cell_volume   896.40562869
_cell_formula_units_Z   4
loop_
 _symmetry_equiv_pos_site_id
 _symmetry_equiv_pos_as_xyz
  1  'x, y, z'
loop_
 _atom_site_type_symbol
 _atom_site_label
 _atom_site_symmetry_multiplicity
 _atom_site_fract_x
 _atom_site_fract_y
 _atom_site_fract_z
 _atom_site_occupancy
  Cu  Cu0  1  0.30622100  0.63505400  0.36135000  1
  Cu  Cu1  1  0.80622100  0.86494600  0.63865000  1
  Cu  Cu2  1  0.69377900  0.36494600  0.63865000  1
  Cu  Cu3  1  0.19377900  0.13505400  0.36135000  1
  H  H4  1  0.37973600  0.88336500  0.50269600  1
  H  H5  1  0.87973600  0.61663500  0.49730400  1
  H  H6  1  0.62026400  0.11663500  0.49730400  1
  H  H7  1  0.12026400  0.38336500  0.50269600  1
  H  H8  1  0.47459600  0.75631000  0.46369200  1
  H  H9  1  0.97459600  0.74369000  0.53630800  1
  H  H10  1  0.52540400  0.24369000  0.53630800  1
  H  H11  1  0.02540400  0.25631000  0.46369200  1
  H  H12  1  0.50090600  0.13560800  0.11728100  1
  H  H13  1  0.00090600  0.36439200  0.88271900  1
  H  H14  1  0.49909400  0.86439200  0.88271900  1
  H  H15  1  0.99909400  0.63560800  0.11728100  1
  H  H16  1  0.60585100  0.23133300  0.01029700  1
  H  H17  1  0.10585100  0.26866700  0.98970300  1
  H  H18  1  0.39414900  0.76866700  0.98970300  1
  H  H19  1  0.89414900  0.73133300  0.01029700  1
  H  H20  1  0.63195900  0.14202900  0.18341300  1
  H  H21  1  0.13195900  0.35797100  0.81658700  1
  H  H22  1  0.36804100  0.85797100  0.81658700  1
  H  H23  1  0.86804100  0.64202900  0.18341300  1
  H  H24  1  0.61063800  0.66424500  0.17789800  1
  H  H25  1  0.11063800  0.83575500  0.82210200  1
  H  H26  1  0.38936200  0.33575500  0.82210200  1
  H  H27  1  0.88936200  0.16424500  0.17789800  1
  H  H28  1  0.69670600  0.48315300  0.24297800  1
  H  H29  1  0.19670600  0.01684700  0.75702200  1
  H  H30  1  0.30329400  0.51684700  0.75702200  1
  H  H31  1  0.80329400  0.98315300  0.24297800  1
  H  H32  1  0.67990800  0.52837400  0.06036300  1
  H  H33  1  0.17990800  0.97162600  0.93963700  1
  H  H34  1  0.32009200  0.47162600  0.93963700  1
  H  H35  1  0.82009200  0.02837400  0.06036300  1
  H  H36  1  0.40230700  0.32265200  0.21875400  1
  H  H37  1  0.90230700  0.17734800  0.78124600  1
  H  H38  1  0.59769300  0.67734800  0.78124600  1
  H  H39  1  0.09769300  0.82265200  0.21875400  1
  C  C40  1  0.57408600  0.21564500  0.11533300  1
  C  C41  1  0.07408600  0.28435500  0.88466700  1
  C  C42  1  0.42591400  0.78435500  0.88466700  1
  C  C43  1  0.92591400  0.71564500  0.11533300  1
  C  C44  1  0.64057900  0.52674600  0.16067100  1
  C  C45  1  0.14057900  0.97325400  0.83932900  1
  C  C46  1  0.35942100  0.47325400  0.83932900  1
  C  C47  1  0.85942100  0.02674600  0.16067100  1
  C  C48  1  0.46175300  0.43257100  0.21993100  1
  C  C49  1  0.96175300  0.06742900  0.78006900  1
  C  C50  1  0.53824700  0.56742900  0.78006900  1
  C  C51  1  0.03824700  0.93257100  0.21993100  1
  N  N52  1  0.55326900  0.39682100  0.16308500  1
  N  N53  1  0.05326900  0.10317900  0.83691500  1
  N  N54  1  0.44673100  0.60317900  0.83691500  1
  N  N55  1  0.94673100  0.89682100  0.16308500  1
  Cl  Cl56  1  0.16958000  0.66426700  0.51002700  1
  Cl  Cl57  1  0.66958000  0.83573300  0.48997300  1
  Cl  Cl58  1  0.83042000  0.33573300  0.48997300  1
  Cl  Cl59  1  0.33042000  0.16426700  0.51002700  1
  Cl  Cl60  1  0.20973600  0.49010500  0.21116200  1
  Cl  Cl61  1  0.70973600  0.00989500  0.78883800  1
  Cl  Cl62  1  0.79026400  0.50989500  0.78883800  1
  Cl  Cl63  1  0.29026400  0.99010500  0.21116200  1
  O  O64  1  0.44264400  0.58405200  0.27143300  1
  O  O65  1  0.94264400  0.91594800  0.72856700  1
  O  O66  1  0.55735600  0.41594800  0.72856700  1
  O  O67  1  0.05735600  0.08405200  0.27143300  1
  O  O68  1  0.40177600  0.75216500  0.49750200  1
  O  O69  1  0.90177600  0.74783500  0.50249800  1
  O  O70  1  0.59822400  0.24783500  0.50249800  1
  O  O71  1  0.09822400  0.25216500  0.49750200  1
