# generated using pymatgen
data_CrB6P2(H17C3)2
_symmetry_space_group_name_H-M   'P 1'
_cell_length_a   14.60560709
_cell_length_b   17.14419249
_cell_length_c   17.44504702
_cell_angle_alpha   90.00000000
_cell_angle_beta   90.00000000
_cell_angle_gamma   90.00000000
_symmetry_Int_Tables_number   1
_chemical_formula_structural   CrB6P2(H17C3)2
_chemical_formula_sum   'Cr8 B48 P16 H272 C48'
_cell_volume   4368.26313943
_cell_formula_units_Z   8
loop_
 _symmetry_equiv_pos_site_id
 _symmetry_equiv_pos_as_xyz
  1  'x, y, z'
loop_
 _atom_site_type_symbol
 _atom_site_label
 _atom_site_symmetry_multiplicity
 _atom_site_fract_x
 _atom_site_fract_y
 _atom_site_fract_z
 _atom_site_occupancy
  Cr  Cr0  1  0.66491844  0.32646800  0.89394916  1
  Cr  Cr1  1  0.83508156  0.82646800  0.10605084  1
  Cr  Cr2  1  0.16491844  0.67353200  0.60605084  1
  Cr  Cr3  1  0.33508156  0.17353200  0.39394916  1
  Cr  Cr4  1  0.33508156  0.67353200  0.10605084  1
  Cr  Cr5  1  0.16491844  0.17353200  0.89394916  1
  Cr  Cr6  1  0.83508156  0.32646800  0.39394916  1
  Cr  Cr7  1  0.66491844  0.82646800  0.60605084  1
  B  B8  1  0.62669847  0.36127759  0.75590820  1
  B  B9  1  0.87330153  0.86127759  0.24409180  1
  B  B10  1  0.12669847  0.63872241  0.74409180  1
  B  B11  1  0.37330153  0.13872241  0.25590820  1
  B  B12  1  0.37330153  0.63872241  0.24409180  1
  B  B13  1  0.12669847  0.13872241  0.75590820  1
  B  B14  1  0.87330153  0.36127759  0.25590820  1
  B  B15  1  0.62669847  0.86127759  0.74409180  1
  B  B16  1  0.54105220  0.40829414  0.81152903  1
  B  B17  1  0.95894780  0.90829414  0.18847097  1
  B  B18  1  0.04105220  0.59170586  0.68847097  1
  B  B19  1  0.45894780  0.09170586  0.31152903  1
  B  B20  1  0.45894780  0.59170586  0.18847097  1
  B  B21  1  0.04105220  0.09170586  0.81152903  1
  B  B22  1  0.95894780  0.40829414  0.31152903  1
  B  B23  1  0.54105220  0.90829414  0.68847097  1
  B  B24  1  0.50771792  0.34332894  0.73607448  1
  B  B25  1  0.99228208  0.84332894  0.26392552  1
  B  B26  1  0.00771792  0.65667106  0.76392552  1
  B  B27  1  0.49228208  0.15667106  0.23607448  1
  B  B28  1  0.49228208  0.65667106  0.26392552  1
  B  B29  1  0.00771792  0.15667106  0.73607448  1
  B  B30  1  0.99228208  0.34332894  0.23607448  1
  B  B31  1  0.50771792  0.84332894  0.76392552  1
  B  B32  1  0.62986193  0.18394469  0.90312590  1
  B  B33  1  0.87013807  0.68394469  0.09687410  1
  B  B34  1  0.12986193  0.81605531  0.59687410  1
  B  B35  1  0.37013807  0.31605531  0.40312590  1
  B  B36  1  0.37013807  0.81605531  0.09687410  1
  B  B37  1  0.12986193  0.31605531  0.90312590  1
  B  B38  1  0.87013807  0.18394469  0.40312590  1
  B  B39  1  0.62986193  0.68394469  0.59687410  1
  B  B40  1  0.75103019  0.18981024  0.90048523  1
  B  B41  1  0.74896981  0.68981024  0.09951477  1
  B  B42  1  0.25103019  0.81018976  0.59951477  1
  B  B43  1  0.24896981  0.31018976  0.40048523  1
  B  B44  1  0.24896981  0.81018976  0.09951477  1
  B  B45  1  0.25103019  0.31018976  0.90048523  1
  B  B46  1  0.74896981  0.18981024  0.40048523  1
  B  B47  1  0.75103019  0.68981024  0.59951477  1
  B  B48  1  0.69252269  0.13096189  0.83101724  1
  B  B49  1  0.80747731  0.63096189  0.16898276  1
  B  B50  1  0.19252269  0.86903811  0.66898276  1
  B  B51  1  0.30747731  0.36903811  0.33101724  1
  B  B52  1  0.30747731  0.86903811  0.16898276  1
  B  B53  1  0.19252269  0.36903811  0.83101724  1
  B  B54  1  0.80747731  0.13096189  0.33101724  1
  B  B55  1  0.69252269  0.63096189  0.66898276  1
  P  P56  1  0.78546919  0.42868507  0.89605728  1
  P  P57  1  0.71453081  0.92868507  0.10394272  1
  P  P58  1  0.28546919  0.57131493  0.60394272  1
  P  P59  1  0.21453081  0.07131493  0.39605728  1
  P  P60  1  0.21453081  0.57131493  0.10394272  1
  P  P61  1  0.28546919  0.07131493  0.89605728  1
  P  P62  1  0.71453081  0.42868507  0.39605728  1
  P  P63  1  0.78546919  0.92868507  0.60394272  1
  P  P64  1  0.62041197  0.33886042  0.02931850  1
  P  P65  1  0.87958803  0.83886042  0.97068150  1
  P  P66  1  0.12041197  0.66113958  0.47068150  1
  P  P67  1  0.37958803  0.16113958  0.52931850  1
  P  P68  1  0.37958803  0.66113958  0.97068150  1
  P  P69  1  0.12041197  0.16113958  0.02931850  1
  P  P70  1  0.87958803  0.33886042  0.52931850  1
  P  P71  1  0.62041197  0.83886042  0.47068150  1
  H  H72  1  0.67478720  0.31090123  0.78885490  1
  H  H73  1  0.82521280  0.81090123  0.21114510  1
  H  H74  1  0.17478720  0.68909877  0.71114510  1
  H  H75  1  0.32521280  0.18909877  0.28885490  1
  H  H76  1  0.32521280  0.68909877  0.21114510  1
  H  H77  1  0.17478720  0.18909877  0.78885490  1
  H  H78  1  0.82521280  0.31090123  0.28885490  1
  H  H79  1  0.67478720  0.81090123  0.71114510  1
  H  H80  1  0.67330470  0.40686961  0.72091122  1
  H  H81  1  0.82669530  0.90686961  0.27908878  1
  H  H82  1  0.17330470  0.59313039  0.77908878  1
  H  H83  1  0.32669530  0.09313039  0.22091122  1
  H  H84  1  0.32669530  0.59313039  0.27908878  1
  H  H85  1  0.17330470  0.09313039  0.72091122  1
  H  H86  1  0.82669530  0.40686961  0.22091122  1
  H  H87  1  0.67330470  0.90686961  0.77908878  1
  H  H88  1  0.59600596  0.31472504  0.70579973  1
  H  H89  1  0.90399404  0.81472504  0.29420027  1
  H  H90  1  0.09600596  0.68527496  0.79420027  1
  H  H91  1  0.40399404  0.18527496  0.20579973  1
  H  H92  1  0.40399404  0.68527496  0.29420027  1
  H  H93  1  0.09600596  0.18527496  0.70579973  1
  H  H94  1  0.90399404  0.31472504  0.20579973  1
  H  H95  1  0.59600596  0.81472504  0.79420027  1
  H  H96  1  0.53795677  0.38595611  0.87869700  1
  H  H97  1  0.96204323  0.88595611  0.12130300  1
  H  H98  1  0.03795677  0.61404389  0.62130300  1
  H  H99  1  0.46204323  0.11404389  0.37869700  1
  H  H100  1  0.46204323  0.61404389  0.12130300  1
  H  H101  1  0.03795677  0.11404389  0.87869700  1
  H  H102  1  0.96204323  0.38595611  0.37869700  1
  H  H103  1  0.53795677  0.88595611  0.62130300  1
  H  H104  1  0.54338608  0.47806962  0.80334056  1
  H  H105  1  0.95661392  0.97806962  0.19665944  1
  H  H106  1  0.04338608  0.52193038  0.69665944  1
  H  H107  1  0.45661392  0.02193038  0.30334056  1
  H  H108  1  0.45661392  0.52193038  0.19665944  1
  H  H109  1  0.04338608  0.02193038  0.80334056  1
  H  H110  1  0.95661392  0.47806962  0.30334056  1
  H  H111  1  0.54338608  0.97806962  0.69665944  1
  H  H112  1  0.46001599  0.38960879  0.79142721  1
  H  H113  1  0.03998401  0.88960879  0.20857279  1
  H  H114  1  0.96001599  0.61039121  0.70857279  1
  H  H115  1  0.53998401  0.11039121  0.29142721  1
  H  H116  1  0.53998401  0.61039121  0.20857279  1
  H  H117  1  0.96001599  0.11039121  0.79142721  1
  H  H118  1  0.03998401  0.38960879  0.29142721  1
  H  H119  1  0.46001599  0.88960879  0.70857279  1
  H  H120  1  0.47617188  0.28057389  0.75277229  1
  H  H121  1  0.02382812  0.78057389  0.24722771  1
  H  H122  1  0.97617188  0.71942611  0.74722771  1
  H  H123  1  0.52382812  0.21942611  0.25277229  1
  H  H124  1  0.52382812  0.71942611  0.24722771  1
  H  H125  1  0.97617188  0.21942611  0.75277229  1
  H  H126  1  0.02382812  0.28057389  0.25277229  1
  H  H127  1  0.47617188  0.78057389  0.74722771  1
  H  H128  1  0.47868639  0.37202514  0.67767662  1
  H  H129  1  0.02131361  0.87202514  0.32232338  1
  H  H130  1  0.97868639  0.62797486  0.82232338  1
  H  H131  1  0.52131361  0.12797486  0.17767662  1
  H  H132  1  0.52131361  0.62797486  0.32232338  1
  H  H133  1  0.97868639  0.12797486  0.67767662  1
  H  H134  1  0.02131361  0.37202514  0.17767662  1
  H  H135  1  0.47868639  0.87202514  0.82232338  1
  H  H136  1  0.58490568  0.24338612  0.88414284  1
  H  H137  1  0.91509432  0.74338612  0.11585716  1
  H  H138  1  0.08490568  0.75661388  0.61585716  1
  H  H139  1  0.41509432  0.25661388  0.38414284  1
  H  H140  1  0.41509432  0.75661388  0.11585716  1
  H  H141  1  0.08490568  0.25661388  0.88414284  1
  H  H142  1  0.91509432  0.24338612  0.38414284  1
  H  H143  1  0.58490568  0.74338612  0.61585716  1
  H  H144  1  0.60204614  0.15668797  0.96235180  1
  H  H145  1  0.89795386  0.65668797  0.03764820  1
  H  H146  1  0.10204614  0.84331203  0.53764820  1
  H  H147  1  0.39795386  0.34331203  0.46235180  1
  H  H148  1  0.39795386  0.84331203  0.03764820  1
  H  H149  1  0.10204614  0.34331203  0.96235180  1
  H  H150  1  0.89795386  0.15668797  0.46235180  1
  H  H151  1  0.60204614  0.65668797  0.53764820  1
  H  H152  1  0.59550481  0.14102089  0.85176729  1
  H  H153  1  0.90449519  0.64102089  0.14823271  1
  H  H154  1  0.09550481  0.85897911  0.64823271  1
  H  H155  1  0.40449519  0.35897911  0.35176729  1
  H  H156  1  0.40449519  0.85897911  0.14823271  1
  H  H157  1  0.09550481  0.35897911  0.85176729  1
  H  H158  1  0.90449519  0.14102089  0.35176729  1
  H  H159  1  0.59550481  0.64102089  0.64823271  1
  H  H160  1  0.78128899  0.25431560  0.88210341  1
  H  H161  1  0.71871101  0.75431560  0.11789659  1
  H  H162  1  0.28128899  0.74568440  0.61789659  1
  H  H163  1  0.21871101  0.24568440  0.38210341  1
  H  H164  1  0.21871101  0.74568440  0.11789659  1
  H  H165  1  0.28128899  0.24568440  0.88210341  1
  H  H166  1  0.71871101  0.25431560  0.38210341  1
  H  H167  1  0.78128899  0.75431560  0.61789659  1
  H  H168  1  0.78579478  0.16287639  0.95730457  1
  H  H169  1  0.71420522  0.66287639  0.04269543  1
  H  H170  1  0.28579478  0.83712361  0.54269543  1
  H  H171  1  0.21420522  0.33712361  0.45730457  1
  H  H172  1  0.21420522  0.83712361  0.04269543  1
  H  H173  1  0.28579478  0.33712361  0.95730457  1
  H  H174  1  0.71420522  0.16287639  0.45730457  1
  H  H175  1  0.78579478  0.66287639  0.54269543  1
  H  H176  1  0.78565319  0.14956558  0.84618716  1
  H  H177  1  0.71434681  0.64956558  0.15381284  1
  H  H178  1  0.28565319  0.85043442  0.65381284  1
  H  H179  1  0.21434681  0.35043442  0.34618716  1
  H  H180  1  0.21434681  0.85043442  0.15381284  1
  H  H181  1  0.28565319  0.35043442  0.84618716  1
  H  H182  1  0.71434681  0.14956558  0.34618716  1
  H  H183  1  0.78565319  0.64956558  0.65381284  1
  H  H184  1  0.69534060  0.06104988  0.83861689  1
  H  H185  1  0.80465940  0.56104988  0.16138311  1
  H  H186  1  0.19534060  0.93895012  0.66138311  1
  H  H187  1  0.30465940  0.43895012  0.33861689  1
  H  H188  1  0.30465940  0.93895012  0.16138311  1
  H  H189  1  0.19534060  0.43895012  0.83861689  1
  H  H190  1  0.80465940  0.06104988  0.33861689  1
  H  H191  1  0.69534060  0.56104988  0.66138311  1
  H  H192  1  0.68730875  0.15465859  0.76618171  1
  H  H193  1  0.81269125  0.65465859  0.23381829  1
  H  H194  1  0.18730875  0.84534141  0.73381829  1
  H  H195  1  0.31269125  0.34534141  0.26618171  1
  H  H196  1  0.31269125  0.84534141  0.23381829  1
  H  H197  1  0.18730875  0.34534141  0.76618171  1
  H  H198  1  0.81269125  0.15465859  0.26618171  1
  H  H199  1  0.68730875  0.65465859  0.73381829  1
  H  H200  1  0.91908588  0.46483324  0.82287853  1
  H  H201  1  0.58091412  0.96483324  0.17712147  1
  H  H202  1  0.41908588  0.53516676  0.67712147  1
  H  H203  1  0.08091412  0.03516676  0.32287853  1
  H  H204  1  0.08091412  0.53516676  0.17712147  1
  H  H205  1  0.41908588  0.03516676  0.82287853  1
  H  H206  1  0.58091412  0.46483324  0.32287853  1
  H  H207  1  0.91908588  0.96483324  0.67712147  1
  H  H208  1  0.89668655  0.36242785  0.81458599  1
  H  H209  1  0.60331345  0.86242785  0.18541401  1
  H  H210  1  0.39668655  0.63757215  0.68541401  1
  H  H211  1  0.10331345  0.13757215  0.31458599  1
  H  H212  1  0.10331345  0.63757215  0.18541401  1
  H  H213  1  0.39668655  0.13757215  0.81458599  1
  H  H214  1  0.60331345  0.36242785  0.31458599  1
  H  H215  1  0.89668655  0.86242785  0.68541401  1
  H  H216  1  0.82913696  0.43103244  0.76166749  1
  H  H217  1  0.67086304  0.93103244  0.23833251  1
  H  H218  1  0.32913696  0.56896756  0.73833251  1
  H  H219  1  0.17086304  0.06896756  0.26166749  1
  H  H220  1  0.17086304  0.56896756  0.23833251  1
  H  H221  1  0.32913696  0.06896756  0.76166749  1
  H  H222  1  0.67086304  0.43103244  0.26166749  1
  H  H223  1  0.82913696  0.93103244  0.73833251  1
  H  H224  1  0.81322780  0.56691785  0.88669942  1
  H  H225  1  0.68677220  0.06691785  0.11330058  1
  H  H226  1  0.31322780  0.43308215  0.61330058  1
  H  H227  1  0.18677220  0.93308215  0.38669942  1
  H  H228  1  0.18677220  0.43308215  0.11330058  1
  H  H229  1  0.31322780  0.93308215  0.88669942  1
  H  H230  1  0.68677220  0.56691785  0.38669942  1
  H  H231  1  0.81322780  0.06691785  0.61330058  1
  H  H232  1  0.70899695  0.54063183  0.83921922  1
  H  H233  1  0.79100305  0.04063183  0.16078078  1
  H  H234  1  0.20899695  0.45936817  0.66078078  1
  H  H235  1  0.29100305  0.95936817  0.33921922  1
  H  H236  1  0.29100305  0.45936817  0.16078078  1
  H  H237  1  0.20899695  0.95936817  0.83921922  1
  H  H238  1  0.79100305  0.54063183  0.33921922  1
  H  H239  1  0.70899695  0.04063183  0.66078078  1
  H  H240  1  0.71262256  0.54775798  0.94169693  1
  H  H241  1  0.78737744  0.04775798  0.05830307  1
  H  H242  1  0.21262256  0.45224202  0.55830307  1
  H  H243  1  0.28737744  0.95224202  0.44169693  1
  H  H244  1  0.28737744  0.45224202  0.05830307  1
  H  H245  1  0.21262256  0.95224202  0.94169693  1
  H  H246  1  0.78737744  0.54775798  0.44169693  1
  H  H247  1  0.71262256  0.04775798  0.55830307  1
  H  H248  1  0.92077505  0.47132622  0.96310884  1
  H  H249  1  0.57922495  0.97132622  0.03689116  1
  H  H250  1  0.42077505  0.52867378  0.53689116  1
  H  H251  1  0.07922495  0.02867378  0.46310884  1
  H  H252  1  0.07922495  0.52867378  0.03689116  1
  H  H253  1  0.42077505  0.02867378  0.96310884  1
  H  H254  1  0.57922495  0.47132622  0.46310884  1
  H  H255  1  0.92077505  0.97132622  0.53689116  1
  H  H256  1  0.83196504  0.44946264  0.02971207  1
  H  H257  1  0.66803496  0.94946264  0.97028793  1
  H  H258  1  0.33196504  0.55053736  0.47028793  1
  H  H259  1  0.16803496  0.05053736  0.52971207  1
  H  H260  1  0.16803496  0.55053736  0.97028793  1
  H  H261  1  0.33196504  0.05053736  0.02971207  1
  H  H262  1  0.66803496  0.44946264  0.52971207  1
  H  H263  1  0.83196504  0.94946264  0.47028793  1
  H  H264  1  0.89520464  0.37203660  0.98580372  1
  H  H265  1  0.60479536  0.87203660  0.01419628  1
  H  H266  1  0.39520464  0.62796340  0.51419628  1
  H  H267  1  0.10479536  0.12796340  0.48580372  1
  H  H268  1  0.10479536  0.62796340  0.01419628  1
  H  H269  1  0.39520464  0.12796340  0.98580372  1
  H  H270  1  0.60479536  0.37203660  0.48580372  1
  H  H271  1  0.89520464  0.87203660  0.51419628  1
  H  H272  1  0.58385898  0.43494993  0.12608468  1
  H  H273  1  0.91614102  0.93494993  0.87391532  1
  H  H274  1  0.08385898  0.56505007  0.37391532  1
  H  H275  1  0.41614102  0.06505007  0.62608468  1
  H  H276  1  0.41614102  0.56505007  0.87391532  1
  H  H277  1  0.08385898  0.06505007  0.12608468  1
  H  H278  1  0.91614102  0.43494993  0.62608468  1
  H  H279  1  0.58385898  0.93494993  0.37391532  1
  H  H280  1  0.68749530  0.45962754  0.07793320  1
  H  H281  1  0.81250470  0.95962754  0.92206680  1
  H  H282  1  0.18749530  0.54037246  0.42206680  1
  H  H283  1  0.31250470  0.04037246  0.57793320  1
  H  H284  1  0.31250470  0.54037246  0.92206680  1
  H  H285  1  0.18749530  0.04037246  0.07793320  1
  H  H286  1  0.81250470  0.45962754  0.57793320  1
  H  H287  1  0.68749530  0.95962754  0.42206680  1
  H  H288  1  0.57997740  0.47685233  0.03245295  1
  H  H289  1  0.92002260  0.97685233  0.96754705  1
  H  H290  1  0.07997740  0.52314767  0.46754705  1
  H  H291  1  0.42002260  0.02314767  0.53245295  1
  H  H292  1  0.42002260  0.52314767  0.96754705  1
  H  H293  1  0.07997740  0.02314767  0.03245295  1
  H  H294  1  0.92002260  0.47685233  0.53245295  1
  H  H295  1  0.57997740  0.97685233  0.46754705  1
  H  H296  1  0.48802975  0.31978229  0.10960722  1
  H  H297  1  0.01197025  0.81978229  0.89039278  1
  H  H298  1  0.98802975  0.68021771  0.39039278  1
  H  H299  1  0.51197025  0.18021771  0.60960722  1
  H  H300  1  0.51197025  0.68021771  0.89039278  1
  H  H301  1  0.98802975  0.18021771  0.10960722  1
  H  H302  1  0.01197025  0.31978229  0.60960722  1
  H  H303  1  0.48802975  0.81978229  0.39039278  1
  H  H304  1  0.45431856  0.33487934  0.01176747  1
  H  H305  1  0.04568144  0.83487934  0.98823253  1
  H  H306  1  0.95431856  0.66512066  0.48823253  1
  H  H307  1  0.54568144  0.16512066  0.51176747  1
  H  H308  1  0.54568144  0.66512066  0.98823253  1
  H  H309  1  0.95431856  0.16512066  0.01176747  1
  H  H310  1  0.04568144  0.33487934  0.51176747  1
  H  H311  1  0.45431856  0.83487934  0.48823253  1
  H  H312  1  0.49885083  0.24267529  0.04114217  1
  H  H313  1  0.00114917  0.74267529  0.95885783  1
  H  H314  1  0.99885083  0.75732471  0.45885783  1
  H  H315  1  0.50114917  0.25732471  0.54114217  1
  H  H316  1  0.50114917  0.75732471  0.95885783  1
  H  H317  1  0.99885083  0.25732471  0.04114217  1
  H  H318  1  0.00114917  0.24267529  0.54114217  1
  H  H319  1  0.49885083  0.74267529  0.45885783  1
  H  H320  1  0.65751540  0.29280748  0.15687077  1
  H  H321  1  0.84248460  0.79280748  0.84312923  1
  H  H322  1  0.15751540  0.70719252  0.34312923  1
  H  H323  1  0.34248460  0.20719252  0.65687077  1
  H  H324  1  0.34248460  0.70719252  0.84312923  1
  H  H325  1  0.15751540  0.20719252  0.15687077  1
  H  H326  1  0.84248460  0.29280748  0.65687077  1
  H  H327  1  0.65751540  0.79280748  0.34312923  1
  H  H328  1  0.68839725  0.22302452  0.08481221  1
  H  H329  1  0.81160275  0.72302452  0.91518779  1
  H  H330  1  0.18839725  0.77697548  0.41518779  1
  H  H331  1  0.31160275  0.27697548  0.58481221  1
  H  H332  1  0.31160275  0.77697548  0.91518779  1
  H  H333  1  0.18839725  0.27697548  0.08481221  1
  H  H334  1  0.81160275  0.22302452  0.58481221  1
  H  H335  1  0.68839725  0.72302452  0.41518779  1
  H  H336  1  0.75826684  0.30684051  0.10049178  1
  H  H337  1  0.74173316  0.80684051  0.89950822  1
  H  H338  1  0.25826684  0.69315949  0.39950822  1
  H  H339  1  0.24173316  0.19315949  0.60049178  1
  H  H340  1  0.24173316  0.69315949  0.89950822  1
  H  H341  1  0.25826684  0.19315949  0.10049178  1
  H  H342  1  0.74173316  0.30684051  0.60049178  1
  H  H343  1  0.75826684  0.80684051  0.39950822  1
  C  C344  1  0.86555291  0.42063351  0.81571466  1
  C  C345  1  0.63444709  0.92063351  0.18428534  1
  C  C346  1  0.36555291  0.57936649  0.68428534  1
  C  C347  1  0.13444709  0.07936649  0.31571466  1
  C  C348  1  0.13444709  0.57936649  0.18428534  1
  C  C349  1  0.36555291  0.07936649  0.81571466  1
  C  C350  1  0.63444709  0.42063351  0.31571466  1
  C  C351  1  0.86555291  0.92063351  0.68428534  1
  C  C352  1  0.75130849  0.53102923  0.89031644  1
  C  C353  1  0.74869151  0.03102923  0.10968356  1
  C  C354  1  0.25130849  0.46897077  0.60968356  1
  C  C355  1  0.24869151  0.96897077  0.39031644  1
  C  C356  1  0.24869151  0.46897077  0.10968356  1
  C  C357  1  0.25130849  0.96897077  0.89031644  1
  C  C358  1  0.74869151  0.53102923  0.39031644  1
  C  C359  1  0.75130849  0.03102923  0.60968356  1
  C  C360  1  0.86563437  0.43010147  0.97696428  1
  C  C361  1  0.63436563  0.93010147  0.02303572  1
  C  C362  1  0.36563437  0.56989853  0.52303572  1
  C  C363  1  0.13436563  0.06989853  0.47696428  1
  C  C364  1  0.13436563  0.56989853  0.02303572  1
  C  C365  1  0.36563437  0.06989853  0.97696428  1
  C  C366  1  0.63436563  0.43010147  0.47696428  1
  C  C367  1  0.86563437  0.93010147  0.52303572  1
  C  C368  1  0.61795276  0.43709138  0.07015490  1
  C  C369  1  0.88204724  0.93709138  0.92984510  1
  C  C370  1  0.11795276  0.56290862  0.42984510  1
  C  C371  1  0.38204724  0.06290862  0.57015490  1
  C  C372  1  0.38204724  0.56290862  0.92984510  1
  C  C373  1  0.11795276  0.06290862  0.07015490  1
  C  C374  1  0.88204724  0.43709138  0.57015490  1
  C  C375  1  0.61795276  0.93709138  0.42984510  1
  C  C376  1  0.50364824  0.30578974  0.04955680  1
  C  C377  1  0.99635176  0.80578974  0.95044320  1
  C  C378  1  0.00364824  0.69421026  0.45044320  1
  C  C379  1  0.49635176  0.19421026  0.54955680  1
  C  C380  1  0.49635176  0.69421026  0.95044320  1
  C  C381  1  0.00364824  0.19421026  0.04955680  1
  C  C382  1  0.99635176  0.30578974  0.54955680  1
  C  C383  1  0.50364824  0.80578974  0.45044320  1
  C  C384  1  0.68786495  0.28498432  0.09971727  1
  C  C385  1  0.81213505  0.78498432  0.90028273  1
  C  C386  1  0.18786495  0.71501568  0.40028273  1
  C  C387  1  0.31213505  0.21501568  0.59971727  1
  C  C388  1  0.31213505  0.71501568  0.90028273  1
  C  C389  1  0.18786495  0.21501568  0.09971727  1
  C  C390  1  0.81213505  0.28498432  0.59971727  1
  C  C391  1  0.68786495  0.78498432  0.40028273  1
