# generated using pymatgen
data_H20RhC3N9Cl6O
_symmetry_space_group_name_H-M   'P 1'
_cell_length_a   7.94121600
_cell_length_b   8.80539053
_cell_length_c   16.56588969
_cell_angle_alpha   77.01077547
_cell_angle_beta   76.58160766
_cell_angle_gamma   64.63849754
_symmetry_Int_Tables_number   1
_chemical_formula_structural   H20RhC3N9Cl6O
_chemical_formula_sum   'H40 Rh2 C6 N18 Cl12 O2'
_cell_volume   1007.75277352
_cell_formula_units_Z   2
loop_
 _symmetry_equiv_pos_site_id
 _symmetry_equiv_pos_as_xyz
  1  'x, y, z'
loop_
 _atom_site_type_symbol
 _atom_site_label
 _atom_site_symmetry_multiplicity
 _atom_site_fract_x
 _atom_site_fract_y
 _atom_site_fract_z
 _atom_site_occupancy
  H  H0  1  0.87098900  0.67157800  0.41696100  1
  H  H1  1  0.12901100  0.32842200  0.58303900  1
  H  H2  1  0.08223200  0.68163000  0.41873100  1
  H  H3  1  0.91776800  0.31837000  0.58126900  1
  H  H4  1  0.89768700  0.12832000  0.40855400  1
  H  H5  1  0.10231300  0.87168000  0.59144600  1
  H  H6  1  0.10300700  0.93941000  0.40476800  1
  H  H7  1  0.89699300  0.06059000  0.59523200  1
  H  H8  1  0.59769200  0.91891400  0.41115000  1
  H  H9  1  0.40230800  0.08108600  0.58885000  1
  H  H10  1  0.60414200  0.11661800  0.40940300  1
  H  H11  1  0.39585800  0.88338200  0.59059700  1
  H  H12  1  0.79674100  0.31734700  0.28000000  1
  H  H13  1  0.20325900  0.68265300  0.72000000  1
  H  H14  1  0.81990300  0.21846900  0.19433700  1
  H  H15  1  0.18009700  0.78153100  0.80566300  1
  H  H16  1  0.69124500  0.39317300  0.07404900  1
  H  H17  1  0.30875500  0.60682700  0.92595100  1
  H  H18  1  0.55410600  0.60879900  0.07683600  1
  H  H19  1  0.44589400  0.39120100  0.92316400  1
  H  H20  1  0.62103200  0.60254500  0.28243100  1
  H  H21  1  0.37896800  0.39745500  0.71756900  1
  H  H22  1  0.55417400  0.73829200  0.19065300  1
  H  H23  1  0.44582600  0.26170800  0.80934700  1
  H  H24  1  0.18097700  0.33456200  0.09638000  1
  H  H25  1  0.81902300  0.66543800  0.90362000  1
  H  H26  1  0.09190400  0.55468800  0.08707800  1
  H  H27  1  0.90809600  0.44531200  0.91292200  1
  H  H28  1  0.11458600  0.68676200  0.19189200  1
  H  H29  1  0.88541400  0.31323800  0.80810800  1
  H  H30  1  0.22128000  0.55673600  0.27833700  1
  H  H31  1  0.77872000  0.44326400  0.72166300  1
  H  H32  1  0.35344300  0.16487700  0.20939900  1
  H  H33  1  0.64655700  0.83512300  0.79060100  1
  H  H34  1  0.35410700  0.27084400  0.28720400  1
  H  H35  1  0.64589300  0.72915600  0.71279600  1
  H  H36  1  0.31104800  0.98718800  0.14335800  1
  H  H37  1  0.68895200  0.01281200  0.85664200  1
  H  H38  1  0.50328800  0.00514300  0.10537900  1
  H  H39  1  0.49671200  0.99485700  0.89462100  1
  Rh  Rh40  1  0.00000000  0.00000000  0.00000000  1
  Rh  Rh41  1  0.50000000  0.50000000  0.50000000  1
  C  C42  1  0.86089700  0.91243800  0.40442800  1
  C  C43  1  0.13910300  0.08756200  0.59557200  1
  C  C44  1  0.67535700  0.48055100  0.18176500  1
  C  C45  1  0.32464300  0.51944900  0.81823500  1
  C  C46  1  0.21659200  0.42658000  0.19226800  1
  C  C47  1  0.78340800  0.57342000  0.80773200  1
  N  N48  1  0.94837900  0.74342600  0.40520600  1
  N  N49  1  0.05162100  0.25657400  0.59479400  1
  N  N50  1  0.96245900  0.00278100  0.40045200  1
  N  N51  1  0.03754100  0.99721900  0.59954800  1
  N  N52  1  0.67486900  0.99010400  0.40413900  1
  N  N53  1  0.32513100  0.00989600  0.59586100  1
  N  N54  1  0.76822000  0.32601900  0.22208200  1
  N  N55  1  0.23178000  0.67398100  0.77791800  1
  N  N56  1  0.64807000  0.49767300  0.10323700  1
  N  N57  1  0.35193000  0.50232700  0.89676300  1
  N  N58  1  0.61012700  0.61679600  0.22101400  1
  N  N59  1  0.38987300  0.38320400  0.77898600  1
  N  N60  1  0.16632400  0.43871000  0.11884400  1
  N  N61  1  0.83367600  0.56129000  0.88115600  1
  N  N62  1  0.18169500  0.56741400  0.22273900  1
  N  N63  1  0.81830500  0.43258600  0.77726100  1
  N  N64  1  0.30026900  0.27421900  0.23666600  1
  N  N65  1  0.69973100  0.72578100  0.76333400  1
  Cl  Cl66  1  0.97196400  0.96015700  0.14867800  1
  Cl  Cl67  1  0.02803600  0.03984300  0.85132200  1
  Cl  Cl68  1  0.90332600  0.77654300  0.00622900  1
  Cl  Cl69  1  0.09667400  0.22345700  0.99377100  1
  Cl  Cl70  1  0.67827900  0.19405500  0.00871900  1
  Cl  Cl71  1  0.32172100  0.80594500  0.99128100  1
  Cl  Cl72  1  0.79742800  0.40718600  0.41214800  1
  Cl  Cl73  1  0.20257200  0.59281400  0.58785200  1
  Cl  Cl74  1  0.37721800  0.39629200  0.41589900  1
  Cl  Cl75  1  0.62278200  0.60370800  0.58410100  1
  Cl  Cl76  1  0.58640600  0.23181300  0.58751200  1
  Cl  Cl77  1  0.41359400  0.76818700  0.41248800  1
  O  O78  1  0.42635200  0.98158100  0.15831900  1
  O  O79  1  0.57364800  0.01841900  0.84168100  1
