# generated using pymatgen
data_YbH12C8NO8
_symmetry_space_group_name_H-M   'P 1'
_cell_length_a   8.81374900
_cell_length_b   8.81374900
_cell_length_c   10.98762086
_cell_angle_alpha   113.64548432
_cell_angle_beta   113.64548432
_cell_angle_gamma   90.00000000
_symmetry_Int_Tables_number   1
_chemical_formula_structural   YbH12C8NO8
_chemical_formula_sum   'Yb2 H24 C16 N2 O16'
_cell_volume   702.95591263
_cell_formula_units_Z   2
loop_
 _symmetry_equiv_pos_site_id
 _symmetry_equiv_pos_as_xyz
  1  'x, y, z'
loop_
 _atom_site_type_symbol
 _atom_site_label
 _atom_site_symmetry_multiplicity
 _atom_site_fract_x
 _atom_site_fract_y
 _atom_site_fract_z
 _atom_site_occupancy
  Yb  Yb0  1  0.25000000  0.75000000  0.50000000  1
  Yb  Yb1  1  0.00000000  0.00000000  0.00000000  1
  H  H2  1  0.73909200  0.32497100  0.33832400  1
  H  H3  1  0.59923200  0.01335300  0.33832400  1
  H  H4  1  0.57497100  0.34923200  0.83832400  1
  H  H5  1  0.26335300  0.48909200  0.83832400  1
  H  H6  1  0.51090800  0.42502900  0.16167600  1
  H  H7  1  0.65076800  0.73664700  0.16167600  1
  H  H8  1  0.67502900  0.40076800  0.66167600  1
  H  H9  1  0.98664700  0.26090800  0.66167600  1
  H  H10  1  0.53797200  0.27695200  0.33587900  1
  H  H11  1  0.79790600  0.05892600  0.33587900  1
  H  H12  1  0.52695200  0.54790600  0.83587900  1
  H  H13  1  0.30892600  0.28797200  0.83587900  1
  H  H14  1  0.71202800  0.47304800  0.16412100  1
  H  H15  1  0.45209400  0.69107400  0.16412100  1
  H  H16  1  0.72304800  0.20209400  0.66412100  1
  H  H17  1  0.94107400  0.46202800  0.66412100  1
  H  H18  1  0.68252900  0.46984200  0.47789500  1
  H  H19  1  0.79536600  0.00805400  0.47789500  1
  H  H20  1  0.71984200  0.54536600  0.97789500  1
  H  H21  1  0.25805400  0.43252900  0.97789500  1
  H  H22  1  0.56747100  0.28015800  0.02210500  1
  H  H23  1  0.45463400  0.74194600  0.02210500  1
  H  H24  1  0.53015800  0.20463400  0.52210500  1
  H  H25  1  0.99194600  0.31747100  0.52210500  1
  C  C26  1  0.67112000  0.33746800  0.40512800  1
  C  C27  1  0.73400800  0.06766000  0.40512800  1
  C  C28  1  0.58746800  0.48400800  0.90512800  1
  C  C29  1  0.31766000  0.42112000  0.90512800  1
  C  C30  1  0.57888000  0.41253200  0.09487200  1
  C  C31  1  0.51599200  0.68234000  0.09487200  1
  C  C32  1  0.66253200  0.26599200  0.59487200  1
  C  C33  1  0.93234000  0.32888000  0.59487200  1
  C  C34  1  0.60798300  0.97357800  0.78620900  1
  C  C35  1  0.17822500  0.81263100  0.78620900  1
  C  C36  1  0.22357800  0.92822500  0.28620900  1
  C  C37  1  0.06263100  0.35798300  0.28620900  1
  C  C38  1  0.64201700  0.77642200  0.71379100  1
  C  C39  1  0.07177500  0.93736900  0.71379100  1
  C  C40  1  0.02642200  0.82177500  0.21379100  1
  C  C41  1  0.18736900  0.39201700  0.21379100  1
  N  N42  1  0.75000000  0.25000000  0.50000000  1
  N  N43  1  0.50000000  0.50000000  0.00000000  1
  O  O44  1  0.46432000  0.99340100  0.71569600  1
  O  O45  1  0.25137500  0.72229400  0.71569600  1
  O  O46  1  0.24340100  0.00137500  0.21569600  1
  O  O47  1  0.97229400  0.21432000  0.21569600  1
  O  O48  1  0.78568000  0.75659900  0.78430400  1
  O  O49  1  0.99862500  0.02770600  0.78430400  1
  O  O50  1  0.00659900  0.74862500  0.28430400  1
  O  O51  1  0.27770600  0.53568000  0.28430400  1
  O  O52  1  0.73163100  0.07443700  0.90148800  1
  O  O53  1  0.16985800  0.82705100  0.90148800  1
  O  O54  1  0.32443700  0.91985800  0.40148800  1
  O  O55  1  0.07705100  0.48163100  0.40148800  1
  O  O56  1  0.51836900  0.67556300  0.59851200  1
  O  O57  1  0.08014200  0.92294900  0.59851200  1
  O  O58  1  0.92556300  0.83014200  0.09851200  1
  O  O59  1  0.17294900  0.26836900  0.09851200  1
