# generated using pymatgen
data_Y5RuBr9
_symmetry_space_group_name_H-M   'P 1'
_cell_length_a   13.00849590
_cell_length_b   13.00849590
_cell_length_c   24.82164210
_cell_angle_alpha   105.19110680
_cell_angle_beta   105.19110680
_cell_angle_gamma   90.00000000
_symmetry_Int_Tables_number   1
_chemical_formula_structural   Y5RuBr9
_chemical_formula_sum   'Y40 Ru8 Br72'
_cell_volume   3901.28076221
_cell_formula_units_Z   8
loop_
 _symmetry_equiv_pos_site_id
 _symmetry_equiv_pos_as_xyz
  1  'x, y, z'
loop_
 _atom_site_type_symbol
 _atom_site_label
 _atom_site_symmetry_multiplicity
 _atom_site_fract_x
 _atom_site_fract_y
 _atom_site_fract_z
 _atom_site_occupancy
  Y  Y0  1  0.83395659  0.44739267  0.31107397  1
  Y  Y1  1  0.47711738  0.36368130  0.31107397  1
  Y  Y2  1  0.94739267  0.97711738  0.81107397  1
  Y  Y3  1  0.86368130  0.33395659  0.81107397  1
  Y  Y4  1  0.16604341  0.55260733  0.68892603  1
  Y  Y5  1  0.52288262  0.63631870  0.68892603  1
  Y  Y6  1  0.05260733  0.02288262  0.18892603  1
  Y  Y7  1  0.13631870  0.66604341  0.18892603  1
  Y  Y8  1  0.20961153  0.24564150  0.31675974  1
  Y  Y9  1  0.10714822  0.57111825  0.31675974  1
  Y  Y10  1  0.74564150  0.60714822  0.81675974  1
  Y  Y11  1  0.07111825  0.70961153  0.81675974  1
  Y  Y12  1  0.79038847  0.75435850  0.68324026  1
  Y  Y13  1  0.89285178  0.42888175  0.68324026  1
  Y  Y14  1  0.25435850  0.39285178  0.18324026  1
  Y  Y15  1  0.92888175  0.29038847  0.18324026  1
  Y  Y16  1  0.08518732  0.81933945  0.69174248  1
  Y  Y17  1  0.60655516  0.37240303  0.69174248  1
  Y  Y18  1  0.31933945  0.10655516  0.19174248  1
  Y  Y19  1  0.87240303  0.58518732  0.19174248  1
  Y  Y20  1  0.91481268  0.18066055  0.30825752  1
  Y  Y21  1  0.39344484  0.62759697  0.30825752  1
  Y  Y22  1  0.68066055  0.89344484  0.80825752  1
  Y  Y23  1  0.12759697  0.41481268  0.80825752  1
  Y  Y24  1  0.06861089  0.41452992  0.42058239  1
  Y  Y25  1  0.35197150  0.50605247  0.42058239  1
  Y  Y26  1  0.91452992  0.85197150  0.92058239  1
  Y  Y27  1  0.00605247  0.56861089  0.92058239  1
  Y  Y28  1  0.93138911  0.58547008  0.57941761  1
  Y  Y29  1  0.64802850  0.49394753  0.57941761  1
  Y  Y30  1  0.08547008  0.14802850  0.07941761  1
  Y  Y31  1  0.99394753  0.43138911  0.07941761  1
  Y  Y32  1  0.86819131  0.01594807  0.43298135  1
  Y  Y33  1  0.56479004  0.91703329  0.43298135  1
  Y  Y34  1  0.51594807  0.06479004  0.93298135  1
  Y  Y35  1  0.41703329  0.36819131  0.93298135  1
  Y  Y36  1  0.13180869  0.98405193  0.56701865  1
  Y  Y37  1  0.43520996  0.08296671  0.56701865  1
  Y  Y38  1  0.48405193  0.93520996  0.06701865  1
  Y  Y39  1  0.58296671  0.63180869  0.06701865  1
  Ru  Ru40  1  0.02453540  0.36064570  0.30314904  1
  Ru  Ru41  1  0.27861365  0.44250334  0.30314904  1
  Ru  Ru42  1  0.86064570  0.77861365  0.80314904  1
  Ru  Ru43  1  0.94250334  0.52453540  0.80314904  1
  Ru  Ru44  1  0.97546460  0.63935430  0.69685096  1
  Ru  Ru45  1  0.72138635  0.55749666  0.69685096  1
  Ru  Ru46  1  0.13935430  0.22138635  0.19685096  1
  Ru  Ru47  1  0.05749666  0.47546460  0.19685096  1
  Br  Br48  1  0.02968437  0.78111504  0.56573352  1
  Br  Br49  1  0.53604915  0.28461849  0.56573352  1
  Br  Br50  1  0.28111504  0.03604915  0.06573352  1
  Br  Br51  1  0.78461849  0.52968437  0.06573352  1
  Br  Br52  1  0.97031563  0.21888496  0.43426648  1
  Br  Br53  1  0.46395085  0.71538151  0.43426648  1
  Br  Br54  1  0.71888496  0.96395085  0.93426648  1
  Br  Br55  1  0.21538151  0.47031563  0.93426648  1
  Br  Br56  1  0.71156362  0.26950245  0.31532392  1
  Br  Br57  1  0.60376031  0.54582148  0.31532392  1
  Br  Br58  1  0.76950245  0.10376031  0.81532392  1
  Br  Br59  1  0.04582148  0.21156362  0.81532392  1
  Br  Br60  1  0.28843638  0.73049755  0.68467608  1
  Br  Br61  1  0.39623969  0.45417852  0.68467608  1
  Br  Br62  1  0.23049755  0.89623969  0.18467608  1
  Br  Br63  1  0.95417852  0.78843638  0.18467608  1
  Br  Br64  1  0.88302388  0.52170989  0.43750526  1
  Br  Br65  1  0.55448138  0.41579537  0.43750526  1
  Br  Br66  1  0.02170989  0.05448138  0.93750526  1
  Br  Br67  1  0.91579537  0.38302388  0.93750526  1
  Br  Br68  1  0.11697612  0.47829011  0.56249474  1
  Br  Br69  1  0.44551862  0.58420463  0.56249474  1
  Br  Br70  1  0.97829011  0.94551862  0.06249474  1
  Br  Br71  1  0.08420463  0.61697612  0.06249474  1
  Br  Br72  1  0.09418360  0.04318698  0.31209447  1
  Br  Br73  1  0.21791088  0.76890749  0.31209447  1
  Br  Br74  1  0.54318698  0.71791088  0.81209447  1
  Br  Br75  1  0.26890749  0.59418360  0.81209447  1
  Br  Br76  1  0.90581640  0.95681302  0.68790553  1
  Br  Br77  1  0.78208912  0.23109251  0.68790553  1
  Br  Br78  1  0.45681302  0.28208912  0.18790553  1
  Br  Br79  1  0.73109251  0.40581640  0.18790553  1
  Br  Br80  1  0.82216960  0.37434312  0.55041735  1
  Br  Br81  1  0.72824775  0.67607422  0.55041735  1
  Br  Br82  1  0.87434312  0.22824775  0.05041735  1
  Br  Br83  1  0.17607422  0.32216960  0.05041735  1
  Br  Br84  1  0.17783040  0.62565688  0.44958265  1
  Br  Br85  1  0.27175225  0.32392578  0.44958265  1
  Br  Br86  1  0.12565688  0.77175225  0.94958265  1
  Br  Br87  1  0.82392578  0.67783040  0.94958265  1
  Br  Br88  1  0.89334048  0.66559272  0.31454069  1
  Br  Br89  1  0.42120021  0.14894797  0.31454069  1
  Br  Br90  1  0.16559272  0.92120021  0.81454069  1
  Br  Br91  1  0.64894797  0.39334048  0.81454069  1
  Br  Br92  1  0.10665952  0.33440728  0.68545931  1
  Br  Br93  1  0.57879979  0.85105203  0.68545931  1
  Br  Br94  1  0.83440728  0.07879979  0.18545931  1
  Br  Br95  1  0.35105203  0.60665952  0.18545931  1
  Br  Br96  1  0.50425291  0.83693436  0.31543863  1
  Br  Br97  1  0.81118572  0.97850427  0.31543863  1
  Br  Br98  1  0.33693436  0.31118572  0.81543863  1
  Br  Br99  1  0.47850427  0.00425291  0.81543863  1
  Br  Br100  1  0.49574709  0.16306564  0.68456137  1
  Br  Br101  1  0.18881428  0.02149573  0.68456137  1
  Br  Br102  1  0.66306564  0.68881428  0.18456137  1
  Br  Br103  1  0.52149573  0.99574709  0.18456137  1
  Br  Br104  1  0.06121247  0.91587970  0.44293365  1
  Br  Br105  1  0.38172118  0.02705395  0.44293365  1
  Br  Br106  1  0.41587970  0.88172118  0.94293365  1
  Br  Br107  1  0.52705395  0.56121247  0.94293365  1
  Br  Br108  1  0.93878753  0.08412030  0.55706635  1
  Br  Br109  1  0.61827882  0.97294605  0.55706635  1
  Br  Br110  1  0.58412030  0.11827882  0.05706635  1
  Br  Br111  1  0.47294605  0.43878753  0.05706635  1
  Br  Br112  1  0.76539863  0.83032622  0.43869539  1
  Br  Br113  1  0.67329676  0.10836917  0.43869539  1
  Br  Br114  1  0.33032622  0.17329676  0.93869539  1
  Br  Br115  1  0.60836917  0.26539863  0.93869539  1
  Br  Br116  1  0.23460137  0.16967378  0.56130461  1
  Br  Br117  1  0.32670324  0.89163083  0.56130461  1
  Br  Br118  1  0.66967378  0.82670324  0.06130461  1
  Br  Br119  1  0.39163083  0.73460137  0.06130461  1
