# generated using pymatgen
data_Cd3(BO2)7
_symmetry_space_group_name_H-M   'P 1'
_cell_length_a   8.86746468
_cell_length_b   8.86746468
_cell_length_c   8.86746418
_cell_angle_alpha   60.41885849
_cell_angle_beta   60.41885849
_cell_angle_gamma   60.41886126
_symmetry_Int_Tables_number   1
_chemical_formula_structural   Cd3(BO2)7
_chemical_formula_sum   'Cd6 B14 O28'
_cell_volume   497.71107551
_cell_formula_units_Z   2
loop_
 _symmetry_equiv_pos_site_id
 _symmetry_equiv_pos_as_xyz
  1  'x, y, z'
loop_
 _atom_site_type_symbol
 _atom_site_label
 _atom_site_symmetry_multiplicity
 _atom_site_fract_x
 _atom_site_fract_y
 _atom_site_fract_z
 _atom_site_occupancy
  Cd  Cd0  1  0.95149500  0.95561700  0.54605800  1
  Cd  Cd1  1  0.54605800  0.95149500  0.95561700  1
  Cd  Cd2  1  0.95561700  0.54605800  0.95149500  1
  Cd  Cd3  1  0.04605800  0.45561700  0.45149500  1
  Cd  Cd4  1  0.45149500  0.04605800  0.45561700  1
  Cd  Cd5  1  0.45561700  0.45149500  0.04605800  1
  B  B6  1  0.74608700  0.25446900  0.75021400  1
  B  B7  1  0.75021400  0.74608700  0.25446900  1
  B  B8  1  0.25446900  0.75021400  0.74608700  1
  B  B9  1  0.25021400  0.75446900  0.24608700  1
  B  B10  1  0.24608700  0.25021400  0.75446900  1
  B  B11  1  0.75446900  0.24608700  0.25021400  1
  B  B12  1  0.57107800  0.27068400  0.57129000  1
  B  B13  1  0.57129000  0.57107800  0.27068400  1
  B  B14  1  0.27068400  0.57129000  0.57107800  1
  B  B15  1  0.07129000  0.77068400  0.07107800  1
  B  B16  1  0.07107800  0.07129000  0.77068400  1
  B  B17  1  0.77068400  0.07107800  0.07129000  1
  B  B18  1  0.60323200  0.60323200  0.60323200  1
  B  B19  1  0.10323200  0.10323200  0.10323200  1
  O  O20  1  0.78320300  0.78320300  0.78320300  1
  O  O21  1  0.28320300  0.28320300  0.28320300  1
  O  O22  1  0.48563400  0.48563400  0.48563400  1
  O  O23  1  0.98563400  0.98563400  0.98563400  1
  O  O24  1  0.44589000  0.75451800  0.61829900  1
  O  O25  1  0.61829900  0.44589000  0.75451800  1
  O  O26  1  0.75451800  0.61829900  0.44589000  1
  O  O27  1  0.11829900  0.25451800  0.94589000  1
  O  O28  1  0.94589000  0.11829900  0.25451800  1
  O  O29  1  0.25451800  0.94589000  0.11829900  1
  O  O30  1  0.74066600  0.43353600  0.20625900  1
  O  O31  1  0.20625900  0.74066600  0.43353600  1
  O  O32  1  0.43353600  0.20625900  0.74066600  1
  O  O33  1  0.70625900  0.93353600  0.24066600  1
  O  O34  1  0.24066600  0.70625900  0.93353600  1
  O  O35  1  0.93353600  0.24066600  0.70625900  1
  O  O36  1  0.62416000  0.18728100  0.43586300  1
  O  O37  1  0.43586300  0.62416000  0.18728100  1
  O  O38  1  0.18728100  0.43586300  0.62416000  1
  O  O39  1  0.93586300  0.68728100  0.12416000  1
  O  O40  1  0.12416000  0.93586300  0.68728100  1
  O  O41  1  0.68728100  0.12416000  0.93586300  1
  O  O42  1  0.22073100  0.60885200  0.73628300  1
  O  O43  1  0.73628300  0.22073100  0.60885200  1
  O  O44  1  0.60885200  0.73628300  0.22073100  1
  O  O45  1  0.23628300  0.10885200  0.72073100  1
  O  O46  1  0.72073100  0.23628300  0.10885200  1
  O  O47  1  0.10885200  0.72073100  0.23628300  1
