# generated using pymatgen
data_Dy2(Ni5B3)3
_symmetry_space_group_name_H-M   'P 1'
_cell_length_a   9.81594800
_cell_length_b   9.81594800
_cell_length_c   11.25123200
_cell_angle_alpha   90.00000000
_cell_angle_beta   90.00000000
_cell_angle_gamma   107.78096771
_symmetry_Int_Tables_number   1
_chemical_formula_structural   Dy2(Ni5B3)3
_chemical_formula_sum   'Dy8 Ni60 B36'
_cell_volume   1032.30217223
_cell_formula_units_Z   4
loop_
 _symmetry_equiv_pos_site_id
 _symmetry_equiv_pos_as_xyz
  1  'x, y, z'
loop_
 _atom_site_type_symbol
 _atom_site_label
 _atom_site_symmetry_multiplicity
 _atom_site_fract_x
 _atom_site_fract_y
 _atom_site_fract_z
 _atom_site_occupancy
  Dy  Dy0  1  0.26115600  0.26115600  0.95876800  1
  Dy  Dy1  1  0.73884400  0.73884400  0.04123200  1
  Dy  Dy2  1  0.23884400  0.23884400  0.45876800  1
  Dy  Dy3  1  0.76115600  0.76115600  0.54123200  1
  Dy  Dy4  1  0.19166900  0.69166900  0.75000000  1
  Dy  Dy5  1  0.30833100  0.80833100  0.25000000  1
  Dy  Dy6  1  0.80833100  0.30833100  0.25000000  1
  Dy  Dy7  1  0.69166900  0.19166900  0.75000000  1
  Ni  Ni8  1  0.50000000  0.50000000  0.00000000  1
  Ni  Ni9  1  0.00000000  0.00000000  0.50000000  1
  Ni  Ni10  1  0.50000000  0.50000000  0.50000000  1
  Ni  Ni11  1  0.00000000  0.00000000  0.00000000  1
  Ni  Ni12  1  0.23433400  0.23433400  0.71180200  1
  Ni  Ni13  1  0.76566600  0.76566600  0.28819800  1
  Ni  Ni14  1  0.26566600  0.26566600  0.21180200  1
  Ni  Ni15  1  0.73433400  0.73433400  0.78819800  1
  Ni  Ni16  1  0.93116200  0.43116200  0.75000000  1
  Ni  Ni17  1  0.56883800  0.06883800  0.25000000  1
  Ni  Ni18  1  0.06883800  0.56883800  0.25000000  1
  Ni  Ni19  1  0.43116200  0.93116200  0.75000000  1
  Ni  Ni20  1  0.99012900  0.18290500  0.84015800  1
  Ni  Ni21  1  0.81709500  0.00987100  0.15984200  1
  Ni  Ni22  1  0.31709500  0.50987100  0.34015800  1
  Ni  Ni23  1  0.49012900  0.68290500  0.65984200  1
  Ni  Ni24  1  0.00987100  0.81709500  0.15984200  1
  Ni  Ni25  1  0.18290500  0.99012900  0.84015800  1
  Ni  Ni26  1  0.68290500  0.49012900  0.65984200  1
  Ni  Ni27  1  0.50987100  0.31709500  0.34015800  1
  Ni  Ni28  1  0.25709200  0.47134300  0.59673100  1
  Ni  Ni29  1  0.52865700  0.74290800  0.40326900  1
  Ni  Ni30  1  0.02865700  0.24290800  0.09673100  1
  Ni  Ni31  1  0.75709200  0.97134300  0.90326900  1
  Ni  Ni32  1  0.74290800  0.52865700  0.40326900  1
  Ni  Ni33  1  0.47134300  0.25709200  0.59673100  1
  Ni  Ni34  1  0.97134300  0.75709200  0.90326900  1
  Ni  Ni35  1  0.24290800  0.02865700  0.09673100  1
  Ni  Ni36  1  0.99499500  0.22668900  0.61866400  1
  Ni  Ni37  1  0.77331100  0.00500500  0.38133600  1
  Ni  Ni38  1  0.27331100  0.50500500  0.11866400  1
  Ni  Ni39  1  0.49499500  0.72668900  0.88133600  1
  Ni  Ni40  1  0.00500500  0.77331100  0.38133600  1
  Ni  Ni41  1  0.22668900  0.99499500  0.61866400  1
  Ni  Ni42  1  0.72668900  0.49499500  0.88133600  1
  Ni  Ni43  1  0.50500500  0.27331100  0.11866400  1
  Ni  Ni44  1  0.10703200  0.44664800  0.91455100  1
  Ni  Ni45  1  0.55335200  0.89296800  0.08544900  1
  Ni  Ni46  1  0.05335200  0.39296800  0.41455100  1
  Ni  Ni47  1  0.60703200  0.94664800  0.58544900  1
  Ni  Ni48  1  0.89296800  0.55335200  0.08544900  1
  Ni  Ni49  1  0.44664800  0.10703200  0.91455100  1
  Ni  Ni50  1  0.94664800  0.60703200  0.58544900  1
  Ni  Ni51  1  0.39296800  0.05335200  0.41455100  1
  Ni  Ni52  1  0.33110300  0.48946200  0.80566700  1
  Ni  Ni53  1  0.51053800  0.66889700  0.19433300  1
  Ni  Ni54  1  0.01053800  0.16889700  0.30566700  1
  Ni  Ni55  1  0.83110300  0.98946200  0.69433300  1
  Ni  Ni56  1  0.66889700  0.51053800  0.19433300  1
  Ni  Ni57  1  0.48946200  0.33110300  0.80566700  1
  Ni  Ni58  1  0.98946200  0.83110300  0.69433300  1
  Ni  Ni59  1  0.16889700  0.01053800  0.30566700  1
  Ni  Ni60  1  0.83846200  0.36320900  0.52958700  1
  Ni  Ni61  1  0.63679100  0.16153800  0.47041300  1
  Ni  Ni62  1  0.13679100  0.66153800  0.02958700  1
  Ni  Ni63  1  0.33846200  0.86320900  0.97041300  1
  Ni  Ni64  1  0.16153800  0.63679100  0.47041300  1
  Ni  Ni65  1  0.36320900  0.83846200  0.52958700  1
  Ni  Ni66  1  0.86320900  0.33846200  0.97041300  1
  Ni  Ni67  1  0.66153800  0.13679100  0.02958700  1
  B  B68  1  0.36436700  0.63563300  0.50000000  1
  B  B69  1  0.86436700  0.13563300  0.00000000  1
  B  B70  1  0.63563300  0.36436700  0.50000000  1
  B  B71  1  0.13563300  0.86436700  0.00000000  1
  B  B72  1  0.45238600  0.45238600  0.67136300  1
  B  B73  1  0.54761400  0.54761400  0.32863700  1
  B  B74  1  0.04761400  0.04761400  0.17136300  1
  B  B75  1  0.95238600  0.95238600  0.82863700  1
  B  B76  1  0.05697100  0.05697100  0.70182300  1
  B  B77  1  0.94302900  0.94302900  0.29817700  1
  B  B78  1  0.44302900  0.44302900  0.20182300  1
  B  B79  1  0.55697100  0.55697100  0.79817700  1
  B  B80  1  0.12005000  0.37836600  0.74404900  1
  B  B81  1  0.62163400  0.87995000  0.25595100  1
  B  B82  1  0.12163400  0.37995000  0.24404900  1
  B  B83  1  0.62005000  0.87836600  0.75595100  1
  B  B84  1  0.87995000  0.62163400  0.25595100  1
  B  B85  1  0.37836600  0.12005000  0.74404900  1
  B  B86  1  0.87836600  0.62005000  0.75595100  1
  B  B87  1  0.37995000  0.12163400  0.24404900  1
  B  B88  1  0.29843200  0.59165900  0.94944900  1
  B  B89  1  0.40834100  0.70156800  0.05055100  1
  B  B90  1  0.90834100  0.20156800  0.44944900  1
  B  B91  1  0.79843200  0.09165900  0.55055100  1
  B  B92  1  0.70156800  0.40834100  0.05055100  1
  B  B93  1  0.59165900  0.29843200  0.94944900  1
  B  B94  1  0.09165900  0.79843200  0.55055100  1
  B  B95  1  0.20156800  0.90834100  0.44944900  1
  B  B96  1  0.04850600  0.44925400  0.59983200  1
  B  B97  1  0.55074600  0.95149400  0.40016800  1
  B  B98  1  0.05074600  0.45149400  0.09983200  1
  B  B99  1  0.54850600  0.94925400  0.90016800  1
  B  B100  1  0.95149400  0.55074600  0.40016800  1
  B  B101  1  0.44925400  0.04850600  0.59983200  1
  B  B102  1  0.94925400  0.54850600  0.90016800  1
  B  B103  1  0.45149400  0.05074600  0.09983200  1
