# generated using pymatgen
data_RbYb(PO3)4
_symmetry_space_group_name_H-M   'P 1'
_cell_length_a   9.03223700
_cell_length_b   10.49405900
_cell_length_c   12.98070101
_cell_angle_alpha   55.74623258
_cell_angle_beta   90.00000000
_cell_angle_gamma   90.00000000
_symmetry_Int_Tables_number   1
_chemical_formula_structural   RbYb(PO3)4
_chemical_formula_sum   'Rb4 Yb4 P16 O48'
_cell_volume   1016.96859905
_cell_formula_units_Z   4
loop_
 _symmetry_equiv_pos_site_id
 _symmetry_equiv_pos_as_xyz
  1  'x, y, z'
loop_
 _atom_site_type_symbol
 _atom_site_label
 _atom_site_symmetry_multiplicity
 _atom_site_fract_x
 _atom_site_fract_y
 _atom_site_fract_z
 _atom_site_occupancy
  Rb  Rb0  1  0.43579100  0.26849800  0.54161700  1
  Rb  Rb1  1  0.06420900  0.26849800  0.04161700  1
  Rb  Rb2  1  0.56420900  0.73150200  0.45838300  1
  Rb  Rb3  1  0.93579100  0.73150200  0.95838300  1
  Yb  Yb4  1  0.72874800  0.18430700  0.81743600  1
  Yb  Yb5  1  0.77125200  0.18430700  0.31743600  1
  Yb  Yb6  1  0.27125200  0.81569300  0.18256400  1
  Yb  Yb7  1  0.22874800  0.81569300  0.68256400  1
  P  P8  1  0.32708200  0.17601100  0.86656100  1
  P  P9  1  0.17291800  0.17601100  0.36656100  1
  P  P10  1  0.67291800  0.82398900  0.13343900  1
  P  P11  1  0.82708200  0.82398900  0.63343900  1
  P  P12  1  0.59222300  0.88882900  0.75789200  1
  P  P13  1  0.90777700  0.88882900  0.25789200  1
  P  P14  1  0.40777700  0.11117100  0.24210800  1
  P  P15  1  0.09222300  0.11117100  0.74210800  1
  P  P16  1  0.52560500  0.52689200  0.22047700  1
  P  P17  1  0.97439500  0.52689200  0.72047700  1
  P  P18  1  0.47439500  0.47310800  0.77952300  1
  P  P19  1  0.02560500  0.47310800  0.27952300  1
  P  P20  1  0.89134300  0.30270000  0.52377100  1
  P  P21  1  0.60865700  0.30270000  0.02377100  1
  P  P22  1  0.10865700  0.69730000  0.47622900  1
  P  P23  1  0.39134300  0.69730000  0.97622900  1
  O  O24  1  0.25697900  0.07258100  0.99131700  1
  O  O25  1  0.24302100  0.07258100  0.49131700  1
  O  O26  1  0.74302100  0.92741900  0.00868300  1
  O  O27  1  0.75697900  0.92741900  0.50868300  1
  O  O28  1  0.20915600  0.21993800  0.75517900  1
  O  O29  1  0.29084400  0.21993800  0.25517900  1
  O  O30  1  0.79084400  0.78006200  0.24482100  1
  O  O31  1  0.70915600  0.78006200  0.74482100  1
  O  O32  1  0.46946600  0.13123000  0.83520500  1
  O  O33  1  0.03053400  0.13123000  0.33520500  1
  O  O34  1  0.53053400  0.86877000  0.16479500  1
  O  O35  1  0.96946600  0.86877000  0.66479500  1
  O  O36  1  0.46093000  0.92521900  0.67530400  1
  O  O37  1  0.03907000  0.92521900  0.17530400  1
  O  O38  1  0.53907000  0.07478100  0.32469600  1
  O  O39  1  0.96093000  0.07478100  0.82469600  1
  O  O40  1  0.67586600  0.01985700  0.74533600  1
  O  O41  1  0.82413400  0.01985700  0.24533600  1
  O  O42  1  0.32413400  0.98014300  0.25466400  1
  O  O43  1  0.17586600  0.98014300  0.75466400  1
  O  O44  1  0.41626200  0.57175100  0.28193600  1
  O  O45  1  0.08373800  0.57175100  0.78193600  1
  O  O46  1  0.58373800  0.42824900  0.71806400  1
  O  O47  1  0.91626200  0.42824900  0.21806400  1
  O  O48  1  0.65771400  0.65513000  0.15684600  1
  O  O49  1  0.84228600  0.65513000  0.65684600  1
  O  O50  1  0.34228600  0.34487000  0.84315400  1
  O  O51  1  0.15771400  0.34487000  0.34315400  1
  O  O52  1  0.83049600  0.20248200  0.48525600  1
  O  O53  1  0.66950400  0.20248200  0.98525600  1
  O  O54  1  0.16950400  0.79751800  0.51474400  1
  O  O55  1  0.33049600  0.79751800  0.01474400  1
  O  O56  1  0.78734300  0.33973000  0.59365300  1
  O  O57  1  0.71265700  0.33973000  0.09365300  1
  O  O58  1  0.21265700  0.66027000  0.40634700  1
  O  O59  1  0.28734300  0.66027000  0.90634700  1
  O  O60  1  0.95370100  0.45946700  0.40107200  1
  O  O61  1  0.54629900  0.45946700  0.90107200  1
  O  O62  1  0.04629900  0.54053300  0.59892800  1
  O  O63  1  0.45370100  0.54053300  0.09892800  1
  O  O64  1  0.90744900  0.36935700  0.79890200  1
  O  O65  1  0.59255100  0.36935700  0.29890200  1
  O  O66  1  0.09255100  0.63064300  0.20109800  1
  O  O67  1  0.40744900  0.63064300  0.70109800  1
  O  O68  1  0.04685300  0.23358300  0.59772100  1
  O  O69  1  0.45314700  0.23358300  0.09772100  1
  O  O70  1  0.95314700  0.76641700  0.40227900  1
  O  O71  1  0.54685300  0.76641700  0.90227900  1
