# generated using pymatgen
data_UH10Cl2O15
_symmetry_space_group_name_H-M   'P 1'
_cell_length_a   15.80306700
_cell_length_b   5.49977000
_cell_length_c   15.25480022
_cell_angle_alpha   77.05184972
_cell_angle_beta   90.00000000
_cell_angle_gamma   90.00000000
_symmetry_Int_Tables_number   1
_chemical_formula_structural   UH10Cl2O15
_chemical_formula_sum   'U4 H40 Cl8 O60'
_cell_volume   1292.13209377
_cell_formula_units_Z   4
loop_
 _symmetry_equiv_pos_site_id
 _symmetry_equiv_pos_as_xyz
  1  'x, y, z'
loop_
 _atom_site_type_symbol
 _atom_site_label
 _atom_site_symmetry_multiplicity
 _atom_site_fract_x
 _atom_site_fract_y
 _atom_site_fract_z
 _atom_site_occupancy
  U  U0  1  0.60871900  0.52755600  0.20314500  1
  U  U1  1  0.89128100  0.52755600  0.70314500  1
  U  U2  1  0.39128100  0.47244400  0.79685500  1
  U  U3  1  0.10871900  0.47244400  0.29685500  1
  H  H4  1  0.44543100  0.29194200  0.28493600  1
  H  H5  1  0.05456900  0.29194200  0.78493600  1
  H  H6  1  0.55456900  0.70805800  0.71506400  1
  H  H7  1  0.94543100  0.70805800  0.21506400  1
  H  H8  1  0.41724700  0.57397200  0.23010300  1
  H  H9  1  0.08275300  0.57397200  0.73010300  1
  H  H10  1  0.58275300  0.42602800  0.76989700  1
  H  H11  1  0.91724700  0.42602800  0.26989700  1
  H  H12  1  0.71759200  0.64113800  0.02890400  1
  H  H13  1  0.78240800  0.64113800  0.52890400  1
  H  H14  1  0.28240800  0.35886200  0.97109600  1
  H  H15  1  0.21759200  0.35886200  0.47109600  1
  H  H16  1  0.74998500  0.37856700  0.08873200  1
  H  H17  1  0.75001500  0.37856700  0.58873200  1
  H  H18  1  0.25001500  0.62143300  0.91126800  1
  H  H19  1  0.24998500  0.62143300  0.41126800  1
  H  H20  1  0.59219300  0.50972500  0.40896400  1
  H  H21  1  0.90780700  0.50972500  0.90896400  1
  H  H22  1  0.40780700  0.49027500  0.59103600  1
  H  H23  1  0.09219300  0.49027500  0.09103600  1
  H  H24  1  0.55642600  0.77149000  0.35649100  1
  H  H25  1  0.94357400  0.77149000  0.85649100  1
  H  H26  1  0.44357400  0.22851000  0.64350900  1
  H  H27  1  0.05642600  0.22851000  0.14350900  1
  H  H28  1  0.76501200  0.84856700  0.20504100  1
  H  H29  1  0.73498800  0.84856700  0.70504100  1
  H  H30  1  0.23498800  0.15143300  0.79495900  1
  H  H31  1  0.26501200  0.15143300  0.29495900  1
  H  H32  1  0.74681800  0.73411500  0.30881000  1
  H  H33  1  0.75318200  0.73411500  0.80881000  1
  H  H34  1  0.25318200  0.26588500  0.69119000  1
  H  H35  1  0.24681800  0.26588500  0.19119000  1
  H  H36  1  0.48564000  0.36693000  0.06150800  1
  H  H37  1  0.01436000  0.36693000  0.56150800  1
  H  H38  1  0.51436000  0.63307000  0.93849200  1
  H  H39  1  0.98564000  0.63307000  0.43849200  1
  H  H40  1  0.56316100  0.18648400  0.07367500  1
  H  H41  1  0.93683900  0.18648400  0.57367500  1
  H  H42  1  0.43683900  0.81351600  0.92632500  1
  H  H43  1  0.06316100  0.81351600  0.42632500  1
  Cl  Cl44  1  0.82917600  0.08780700  0.39862400  1
  Cl  Cl45  1  0.67082400  0.08780700  0.89862400  1
  Cl  Cl46  1  0.17082400  0.91219300  0.60137600  1
  Cl  Cl47  1  0.32917600  0.91219300  0.10137600  1
  Cl  Cl48  1  0.88995100  0.08676800  0.06952800  1
  Cl  Cl49  1  0.61004900  0.08676800  0.56952800  1
  Cl  Cl50  1  0.11004900  0.91323200  0.93047200  1
  Cl  Cl51  1  0.38995100  0.91323200  0.43047200  1
  O  O52  1  0.63831300  0.21524000  0.25717600  1
  O  O53  1  0.86168700  0.21524000  0.75717600  1
  O  O54  1  0.36168700  0.78476000  0.74282400  1
  O  O55  1  0.13831300  0.78476000  0.24282400  1
  O  O56  1  0.57486600  0.83472400  0.14785200  1
  O  O57  1  0.92513400  0.83472400  0.64785200  1
  O  O58  1  0.42513400  0.16527600  0.85214800  1
  O  O59  1  0.07486600  0.16527600  0.35214800  1
  O  O60  1  0.46251600  0.44461100  0.24025300  1
  O  O61  1  0.03748400  0.44461100  0.74025300  1
  O  O62  1  0.53748400  0.55538900  0.75974700  1
  O  O63  1  0.96251600  0.55538900  0.25974700  1
  O  O64  1  0.71432400  0.52689600  0.08905200  1
  O  O65  1  0.78567600  0.52689600  0.58905200  1
  O  O66  1  0.28567600  0.47310400  0.91094800  1
  O  O67  1  0.21432400  0.47310400  0.41094800  1
  O  O68  1  0.58995300  0.62665500  0.34940200  1
  O  O69  1  0.91004700  0.62665500  0.84940200  1
  O  O70  1  0.41004700  0.37334500  0.65059800  1
  O  O71  1  0.08995300  0.37334500  0.15059800  1
  O  O72  1  0.74031700  0.70403500  0.24771600  1
  O  O73  1  0.75968300  0.70403500  0.74771600  1
  O  O74  1  0.25968300  0.29596500  0.75228400  1
  O  O75  1  0.24031700  0.29596500  0.25228400  1
  O  O76  1  0.54536300  0.35501900  0.07831300  1
  O  O77  1  0.95463700  0.35501900  0.57831300  1
  O  O78  1  0.45463700  0.64498100  0.92168700  1
  O  O79  1  0.04536300  0.64498100  0.42168700  1
  O  O80  1  0.78177700  0.84938900  0.41231800  1
  O  O81  1  0.71822300  0.84938900  0.91231800  1
  O  O82  1  0.21822300  0.15061100  0.58768200  1
  O  O83  1  0.28177700  0.15061100  0.08768200  1
  O  O84  1  0.90348600  0.04752700  0.45674500  1
  O  O85  1  0.59651400  0.04752700  0.95674500  1
  O  O86  1  0.09651400  0.95247300  0.54325500  1
  O  O87  1  0.40348600  0.95247300  0.04325500  1
  O  O88  1  0.85595100  0.15443400  0.30382000  1
  O  O89  1  0.64404900  0.15443400  0.80382000  1
  O  O90  1  0.14404900  0.84556600  0.69618000  1
  O  O91  1  0.35595100  0.84556600  0.19618000  1
  O  O92  1  0.77613300  0.28194200  0.41915200  1
  O  O93  1  0.72386700  0.28194200  0.91915200  1
  O  O94  1  0.22386700  0.71805800  0.58084800  1
  O  O95  1  0.27613300  0.71805800  0.08084800  1
  O  O96  1  0.95132400  0.00472500  0.14360300  1
  O  O97  1  0.54867600  0.00472500  0.64360300  1
  O  O98  1  0.04867600  0.99527500  0.85639700  1
  O  O99  1  0.45132400  0.99527500  0.35639700  1
  O  O100  1  0.80427900  0.08461000  0.10997900  1
  O  O101  1  0.69572100  0.08461000  0.60997900  1
  O  O102  1  0.19572100  0.91539000  0.89002100  1
  O  O103  1  0.30427900  0.91539000  0.39002100  1
  O  O104  1  0.91043900  0.34328100  0.02527700  1
  O  O105  1  0.58956100  0.34328100  0.52527700  1
  O  O106  1  0.08956100  0.65671900  0.97472300  1
  O  O107  1  0.41043900  0.65671900  0.47472300  1
  O  O108  1  0.89214600  0.92209900  0.00871900  1
  O  O109  1  0.60785400  0.92209900  0.50871900  1
  O  O110  1  0.10785400  0.07790100  0.99128100  1
  O  O111  1  0.39214600  0.07790100  0.49128100  1
