# generated using pymatgen
data_CoTe6O13
_symmetry_space_group_name_H-M   'P 1'
_cell_length_a   8.77768898
_cell_length_b   8.77768898
_cell_length_c   8.77768865
_cell_angle_alpha   71.95658503
_cell_angle_beta   71.95658503
_cell_angle_gamma   71.95657998
_symmetry_Int_Tables_number   1
_chemical_formula_structural   CoTe6O13
_chemical_formula_sum   'Co2 Te12 O26'
_cell_volume   594.07588517
_cell_formula_units_Z   2
loop_
 _symmetry_equiv_pos_site_id
 _symmetry_equiv_pos_as_xyz
  1  'x, y, z'
loop_
 _atom_site_type_symbol
 _atom_site_label
 _atom_site_symmetry_multiplicity
 _atom_site_fract_x
 _atom_site_fract_y
 _atom_site_fract_z
 _atom_site_occupancy
  Co  Co0  1  0.75682800  0.75682800  0.75682800  1
  Co  Co1  1  0.24317200  0.24317200  0.24317200  1
  Te  Te2  1  0.83342200  0.51200300  0.44119800  1
  Te  Te3  1  0.44119800  0.83342200  0.51200300  1
  Te  Te4  1  0.51200300  0.44119800  0.83342200  1
  Te  Te5  1  0.16657800  0.48799700  0.55880200  1
  Te  Te6  1  0.55880200  0.16657800  0.48799700  1
  Te  Te7  1  0.48799700  0.55880200  0.16657800  1
  Te  Te8  1  0.96983500  0.07858100  0.67637100  1
  Te  Te9  1  0.67637100  0.96983600  0.07858100  1
  Te  Te10  1  0.07858100  0.67637100  0.96983500  1
  Te  Te11  1  0.03016500  0.92141900  0.32362900  1
  Te  Te12  1  0.32362900  0.03016500  0.92141900  1
  Te  Te13  1  0.92141900  0.32362900  0.03016500  1
  O  O14  1  0.89668200  0.57923600  0.60327600  1
  O  O15  1  0.60327600  0.89668200  0.57923600  1
  O  O16  1  0.57923600  0.60327600  0.89668200  1
  O  O17  1  0.10331800  0.42076400  0.39672400  1
  O  O18  1  0.39672400  0.10331800  0.42076400  1
  O  O19  1  0.42076400  0.39672400  0.10331800  1
  O  O20  1  0.86371900  0.95350000  0.61915700  1
  O  O21  1  0.61915700  0.86371900  0.95350000  1
  O  O22  1  0.95350000  0.61915700  0.86371900  1
  O  O23  1  0.13628100  0.04650000  0.38084300  1
  O  O24  1  0.38084300  0.13628100  0.04650000  1
  O  O25  1  0.04650000  0.38084300  0.13628100  1
  O  O26  1  0.58652200  0.58652200  0.58652200  1
  O  O27  1  0.41347800  0.41347800  0.41347800  1
  O  O28  1  0.80353700  0.29850000  0.55312500  1
  O  O29  1  0.55312500  0.80353700  0.29850000  1
  O  O30  1  0.29850000  0.55312500  0.80353700  1
  O  O31  1  0.19646300  0.70150000  0.44687500  1
  O  O32  1  0.44687500  0.19646300  0.70150000  1
  O  O33  1  0.70150000  0.44687500  0.19646300  1
  O  O34  1  0.11518300  0.87623300  0.80074000  1
  O  O35  1  0.80074000  0.11518300  0.87623300  1
  O  O36  1  0.87623300  0.80074000  0.11518300  1
  O  O37  1  0.88481700  0.12376700  0.19926000  1
  O  O38  1  0.19926000  0.88481700  0.12376700  1
  O  O39  1  0.12376700  0.19926000  0.88481700  1
