# generated using pymatgen
data_HoSbMo2O9
_symmetry_space_group_name_H-M   'P 1'
_cell_length_a   9.67303360
_cell_length_b   9.67303360
_cell_length_c   10.82040515
_cell_angle_alpha   68.04775064
_cell_angle_beta   68.04775064
_cell_angle_gamma   95.19925647
_symmetry_Int_Tables_number   1
_chemical_formula_structural   HoSbMo2O9
_chemical_formula_sum   'Ho4 Sb4 Mo8 O36'
_cell_volume   839.13812635
_cell_formula_units_Z   4
loop_
 _symmetry_equiv_pos_site_id
 _symmetry_equiv_pos_as_xyz
  1  'x, y, z'
loop_
 _atom_site_type_symbol
 _atom_site_label
 _atom_site_symmetry_multiplicity
 _atom_site_fract_x
 _atom_site_fract_y
 _atom_site_fract_z
 _atom_site_occupancy
  Ho  Ho0  1  0.67098900  0.32901100  0.75000000  1
  Ho  Ho1  1  0.32901100  0.67098900  0.25000000  1
  Ho  Ho2  1  0.12572200  0.87427800  0.75000000  1
  Ho  Ho3  1  0.87427800  0.12572200  0.25000000  1
  Sb  Sb4  1  0.65203300  0.61783100  0.96531300  1
  Sb  Sb5  1  0.38216900  0.34796700  0.53468700  1
  Sb  Sb6  1  0.34796700  0.38216900  0.03468700  1
  Sb  Sb7  1  0.61783100  0.65203300  0.46531300  1
  Mo  Mo8  1  0.04616700  0.25980900  0.47407200  1
  Mo  Mo9  1  0.74019100  0.95383300  0.02592800  1
  Mo  Mo10  1  0.95383300  0.74019100  0.52592800  1
  Mo  Mo11  1  0.25980900  0.04616700  0.97407200  1
  Mo  Mo12  1  0.05779300  0.43411500  0.80627600  1
  Mo  Mo13  1  0.56588500  0.94220700  0.69372400  1
  Mo  Mo14  1  0.94220700  0.56588500  0.19372400  1
  Mo  Mo15  1  0.43411500  0.05779300  0.30627600  1
  O  O16  1  0.06662900  0.09515200  0.60243900  1
  O  O17  1  0.90484800  0.93337100  0.89756100  1
  O  O18  1  0.93337100  0.90484800  0.39756100  1
  O  O19  1  0.09515200  0.06662900  0.10243900  1
  O  O20  1  0.86899600  0.29847900  0.56797500  1
  O  O21  1  0.70152100  0.13100400  0.93202500  1
  O  O22  1  0.13100400  0.70152100  0.43202500  1
  O  O23  1  0.29847900  0.86899600  0.06797500  1
  O  O24  1  0.04306000  0.22041500  0.32499000  1
  O  O25  1  0.77958500  0.95694000  0.17501000  1
  O  O26  1  0.95694000  0.77958500  0.67501000  1
  O  O27  1  0.22041500  0.04306000  0.82499000  1
  O  O28  1  0.77761700  0.59457900  0.57946600  1
  O  O29  1  0.40542100  0.22238300  0.92053400  1
  O  O30  1  0.22238300  0.40542100  0.42053400  1
  O  O31  1  0.59457900  0.77761700  0.07946600  1
  O  O32  1  0.97739200  0.30384200  0.99830400  1
  O  O33  1  0.69615800  0.02260800  0.50169600  1
  O  O34  1  0.02260800  0.69615800  0.00169600  1
  O  O35  1  0.30384200  0.97739200  0.49830400  1
  O  O36  1  0.14529300  0.62099500  0.77352800  1
  O  O37  1  0.37900500  0.85470700  0.72647200  1
  O  O38  1  0.85470700  0.37900500  0.22647200  1
  O  O39  1  0.62099500  0.14529300  0.27352800  1
  O  O40  1  0.90689800  0.44557300  0.74883400  1
  O  O41  1  0.55442700  0.09310200  0.75116600  1
  O  O42  1  0.09310200  0.55442700  0.25116600  1
  O  O43  1  0.44557300  0.90689800  0.24883400  1
  O  O44  1  0.20866400  0.36370700  0.70131000  1
  O  O45  1  0.63629300  0.79133600  0.79869000  1
  O  O46  1  0.79133600  0.63629300  0.29869000  1
  O  O47  1  0.36370700  0.20866400  0.20131000  1
  O  O48  1  0.57660700  0.45969200  0.89788600  1
  O  O49  1  0.54030800  0.42339300  0.60211400  1
  O  O50  1  0.42339300  0.54030800  0.10211400  1
  O  O51  1  0.45969200  0.57660700  0.39788600  1
