# generated using pymatgen
data_AuCN3Cl4
_symmetry_space_group_name_H-M   'P 1'
_cell_length_a   4.20579400
_cell_length_b   15.11781400
_cell_length_c   15.60613531
_cell_angle_alpha   85.45540192
_cell_angle_beta   90.00000000
_cell_angle_gamma   90.00000000
_symmetry_Int_Tables_number   1
_chemical_formula_structural   AuCN3Cl4
_chemical_formula_sum   'Au4 C4 N12 Cl16'
_cell_volume   989.15596156
_cell_formula_units_Z   4
loop_
 _symmetry_equiv_pos_site_id
 _symmetry_equiv_pos_as_xyz
  1  'x, y, z'
loop_
 _atom_site_type_symbol
 _atom_site_label
 _atom_site_symmetry_multiplicity
 _atom_site_fract_x
 _atom_site_fract_y
 _atom_site_fract_z
 _atom_site_occupancy
  Au  Au0  1  0.50000000  0.50000000  0.00000000  1
  Au  Au1  1  0.00000000  0.00000000  0.00000000  1
  Au  Au2  1  0.50000000  0.00000000  0.50000000  1
  Au  Au3  1  0.00000000  0.50000000  0.50000000  1
  C  C4  1  0.73317400  0.26026200  0.75033300  1
  C  C5  1  0.23317400  0.23973800  0.24966700  1
  C  C6  1  0.26682600  0.73973800  0.24966700  1
  C  C7  1  0.76682600  0.76026200  0.75033300  1
  N  N8  1  0.82346500  0.34599100  0.75583300  1
  N  N9  1  0.32346500  0.15400900  0.24416700  1
  N  N10  1  0.17653500  0.65400900  0.24416700  1
  N  N11  1  0.67653500  0.84599100  0.75583300  1
  N  N12  1  0.79651800  0.21924400  0.67795100  1
  N  N13  1  0.29651800  0.28075600  0.32204900  1
  N  N14  1  0.20348200  0.78075600  0.32204900  1
  N  N15  1  0.70348200  0.71924400  0.67795100  1
  N  N16  1  0.58073500  0.21572500  0.81703800  1
  N  N17  1  0.08073500  0.28427500  0.18296200  1
  N  N18  1  0.41926500  0.78427500  0.18296200  1
  N  N19  1  0.91926500  0.71572500  0.81703800  1
  Cl  Cl20  1  0.60379500  0.48683600  0.14483700  1
  Cl  Cl21  1  0.10379500  0.01316400  0.85516300  1
  Cl  Cl22  1  0.39620500  0.51316400  0.85516300  1
  Cl  Cl23  1  0.89620500  0.98683600  0.14483700  1
  Cl  Cl24  1  0.28930000  0.63923500  0.01109300  1
  Cl  Cl25  1  0.78930000  0.86076500  0.98890700  1
  Cl  Cl26  1  0.71070000  0.36076500  0.98890700  1
  Cl  Cl27  1  0.21070000  0.13923500  0.01109300  1
  Cl  Cl28  1  0.65386800  0.97226600  0.36331300  1
  Cl  Cl29  1  0.15386800  0.52773400  0.63668700  1
  Cl  Cl30  1  0.34613200  0.02773400  0.63668700  1
  Cl  Cl31  1  0.84613200  0.47226600  0.36331300  1
  Cl  Cl32  1  0.28918200  0.85982300  0.52398800  1
  Cl  Cl33  1  0.78918200  0.64017700  0.47601200  1
  Cl  Cl34  1  0.71081800  0.14017700  0.47601200  1
  Cl  Cl35  1  0.21081800  0.35982300  0.52398800  1
