# generated using pymatgen
data_P2H24PtC12(IN3)2
_symmetry_space_group_name_H-M   'P 1'
_cell_length_a   12.30620100
_cell_length_b   7.62612000
_cell_length_c   12.60634791
_cell_angle_alpha   58.31714849
_cell_angle_beta   90.00000000
_cell_angle_gamma   90.00000000
_symmetry_Int_Tables_number   1
_chemical_formula_structural   P2H24PtC12(IN3)2
_chemical_formula_sum   'P4 H48 Pt2 C24 I4 N12'
_cell_volume   1006.77015356
_cell_formula_units_Z   2
loop_
 _symmetry_equiv_pos_site_id
 _symmetry_equiv_pos_as_xyz
  1  'x, y, z'
loop_
 _atom_site_type_symbol
 _atom_site_label
 _atom_site_symmetry_multiplicity
 _atom_site_fract_x
 _atom_site_fract_y
 _atom_site_fract_z
 _atom_site_occupancy
  P  P0  1  0.67018900  0.92770800  0.44903000  1
  P  P1  1  0.82981100  0.92770800  0.94903000  1
  P  P2  1  0.32981100  0.07229200  0.55097000  1
  P  P3  1  0.17018900  0.07229200  0.05097000  1
  H  H4  1  0.65433900  0.10733400  0.22139300  1
  H  H5  1  0.84566100  0.10733400  0.72139300  1
  H  H6  1  0.34566100  0.89266600  0.77860700  1
  H  H7  1  0.15433900  0.89266600  0.27860700  1
  H  H8  1  0.61525900  0.84222000  0.29434000  1
  H  H9  1  0.88474100  0.84222000  0.79434000  1
  H  H10  1  0.38474100  0.15778000  0.70566000  1
  H  H11  1  0.11525900  0.15778000  0.20566000  1
  H  H12  1  0.81373000  0.06780700  0.51893600  1
  H  H13  1  0.68627000  0.06780700  0.01893600  1
  H  H14  1  0.18627000  0.93219300  0.48106400  1
  H  H15  1  0.31373000  0.93219300  0.98106400  1
  H  H16  1  0.77669300  0.24782900  0.36064300  1
  H  H17  1  0.72330700  0.24782900  0.86064300  1
  H  H18  1  0.22330700  0.75217100  0.63935700  1
  H  H19  1  0.27669300  0.75217100  0.13935700  1
  H  H20  1  0.67696800  0.55167100  0.55213600  1
  H  H21  1  0.82303200  0.55167100  0.05213600  1
  H  H22  1  0.32303200  0.44832900  0.44786400  1
  H  H23  1  0.17696800  0.44832900  0.94786400  1
  H  H24  1  0.75161200  0.63713900  0.63815200  1
  H  H25  1  0.74838800  0.63713900  0.13815200  1
  H  H26  1  0.24838800  0.36286100  0.36184800  1
  H  H27  1  0.25161200  0.36286100  0.86184800  1
  H  H28  1  0.94124000  0.01684100  0.22645300  1
  H  H29  1  0.55876000  0.01684100  0.72645300  1
  H  H30  1  0.05876000  0.98315900  0.77354700  1
  H  H31  1  0.44124000  0.98315900  0.27354700  1
  H  H32  1  0.83858500  0.20070400  0.19779400  1
  H  H33  1  0.66141500  0.20070400  0.69779400  1
  H  H34  1  0.16141500  0.79929600  0.80220600  1
  H  H35  1  0.33858500  0.79929600  0.30220600  1
  H  H36  1  0.99466700  0.76823900  0.44700800  1
  H  H37  1  0.50533300  0.76823900  0.94700800  1
  H  H38  1  0.00533300  0.23176100  0.55299200  1
  H  H39  1  0.49466700  0.23176100  0.05299200  1
  H  H40  1  0.92997700  0.78459900  0.56783900  1
  H  H41  1  0.57002300  0.78459900  0.06783900  1
  H  H42  1  0.07002300  0.21540100  0.43216100  1
  H  H43  1  0.42997700  0.21540100  0.93216100  1
  H  H44  1  0.75198900  0.57865600  0.37089300  1
  H  H45  1  0.74801100  0.57865600  0.87089300  1
  H  H46  1  0.24801100  0.42134400  0.62910700  1
  H  H47  1  0.25198900  0.42134400  0.12910700  1
  H  H48  1  0.89125800  0.64885200  0.33047600  1
  H  H49  1  0.60874200  0.64885200  0.83047600  1
  H  H50  1  0.10874200  0.35114800  0.66952400  1
  H  H51  1  0.39125800  0.35114800  0.16952400  1
  Pt  Pt52  1  0.50000000  0.00000000  0.50000000  1
  Pt  Pt53  1  0.00000000  0.00000000  0.00000000  1
  C  C54  1  0.67591600  0.94827700  0.29427800  1
  C  C55  1  0.82408400  0.94827700  0.79427800  1
  C  C56  1  0.32408400  0.05172300  0.70572200  1
  C  C57  1  0.17591600  0.05172300  0.20572200  1
  C  C58  1  0.79480900  0.08502700  0.42861100  1
  C  C59  1  0.70519100  0.08502700  0.92861100  1
  C  C60  1  0.20519100  0.91497300  0.57138900  1
  C  C61  1  0.29480900  0.91497300  0.07138900  1
  C  C62  1  0.73516900  0.66737500  0.54409600  1
  C  C63  1  0.76483100  0.66737500  0.04409600  1
  C  C64  1  0.26483100  0.33262500  0.45590400  1
  C  C65  1  0.23516900  0.33262500  0.95590400  1
  C  C66  1  0.86572800  0.04202700  0.26356200  1
  C  C67  1  0.63427200  0.04202700  0.76356200  1
  C  C68  1  0.13427200  0.95797300  0.73643800  1
  C  C69  1  0.36572800  0.95797300  0.23643800  1
  C  C70  1  0.91724600  0.80288200  0.47623800  1
  C  C71  1  0.58275400  0.80288200  0.97623800  1
  C  C72  1  0.08275400  0.19711800  0.52376200  1
  C  C73  1  0.41724600  0.19711800  0.02376200  1
  C  C74  1  0.81626900  0.68534700  0.36299200  1
  C  C75  1  0.68373100  0.68534700  0.86299200  1
  C  C76  1  0.18373100  0.31465300  0.63700800  1
  C  C77  1  0.31626900  0.31465300  0.13700800  1
  I  I78  1  0.45977100  0.60348100  0.64879100  1
  I  I79  1  0.04022900  0.60348100  0.14879100  1
  I  I80  1  0.54022900  0.39651900  0.35120900  1
  I  I81  1  0.95977100  0.39651900  0.85120900  1
  N  N82  1  0.78377600  0.89776500  0.26828100  1
  N  N83  1  0.71622400  0.89776500  0.76828100  1
  N  N84  1  0.21622400  0.10223500  0.73171900  1
  N  N85  1  0.28377600  0.10223500  0.23171900  1
  N  N86  1  0.88771000  0.01824200  0.38522600  1
  N  N87  1  0.61229000  0.01824200  0.88522600  1
  N  N88  1  0.11229000  0.98175800  0.61477400  1
  N  N89  1  0.38771000  0.98175800  0.11477400  1
  N  N90  1  0.83616300  0.65320500  0.48701000  1
  N  N91  1  0.66383700  0.65320500  0.98701000  1
  N  N92  1  0.16383700  0.34679500  0.51299000  1
  N  N93  1  0.33616300  0.34679500  0.01299000  1
