# generated using pymatgen
data_CsMg14MnO16
_symmetry_space_group_name_H-M   'P 1'
_cell_length_a   4.37406200
_cell_length_b   8.83520200
_cell_length_c   8.93457500
_cell_angle_alpha   90.00000000
_cell_angle_beta   90.00000000
_cell_angle_gamma   90.00000000
_symmetry_Int_Tables_number   1
_chemical_formula_structural   CsMg14MnO16
_chemical_formula_sum   'Cs1 Mg14 Mn1 O16'
_cell_volume   345.28309566
_cell_formula_units_Z   1
loop_
 _symmetry_equiv_pos_site_id
 _symmetry_equiv_pos_as_xyz
  1  'x, y, z'
loop_
 _atom_site_type_symbol
 _atom_site_label
 _atom_site_symmetry_multiplicity
 _atom_site_fract_x
 _atom_site_fract_y
 _atom_site_fract_z
 _atom_site_occupancy
  Cs  Cs0  1  0.00000000  0.00000000  0.50000000  1
  Mg  Mg1  1  0.00000000  0.50000000  0.00000000  1
  Mg  Mg2  1  0.00000000  0.00000000  0.00000000  1
  Mg  Mg3  1  0.50000000  0.26456200  0.50000000  1
  Mg  Mg4  1  0.50000000  0.73543800  0.50000000  1
  Mg  Mg5  1  0.50000000  0.25258400  0.00000000  1
  Mg  Mg6  1  0.50000000  0.74741600  0.00000000  1
  Mg  Mg7  1  0.50000000  0.50000000  0.24332300  1
  Mg  Mg8  1  0.50000000  0.00000000  0.23072900  1
  Mg  Mg9  1  0.50000000  0.50000000  0.75667700  1
  Mg  Mg10  1  0.50000000  0.00000000  0.76927100  1
  Mg  Mg11  1  0.00000000  0.25445400  0.23900400  1
  Mg  Mg12  1  0.00000000  0.74554600  0.23900400  1
  Mg  Mg13  1  0.00000000  0.25445400  0.76099600  1
  Mg  Mg14  1  0.00000000  0.74554600  0.76099600  1
  Mn  Mn15  1  0.00000000  0.50000000  0.50000000  1
  O  O16  1  0.00000000  0.50000000  0.23509800  1
  O  O17  1  0.00000000  0.00000000  0.21390500  1
  O  O18  1  0.00000000  0.50000000  0.76490200  1
  O  O19  1  0.00000000  0.00000000  0.78609500  1
  O  O20  1  0.50000000  0.25005300  0.25063800  1
  O  O21  1  0.50000000  0.74994700  0.25063800  1
  O  O22  1  0.50000000  0.25005300  0.74936200  1
  O  O23  1  0.50000000  0.74994700  0.74936200  1
  O  O24  1  0.50000000  0.50000000  0.50000000  1
  O  O25  1  0.50000000  0.00000000  0.50000000  1
  O  O26  1  0.50000000  0.50000000  0.00000000  1
  O  O27  1  0.50000000  0.00000000  0.00000000  1
  O  O28  1  0.00000000  0.28344000  0.50000000  1
  O  O29  1  0.00000000  0.71656000  0.50000000  1
  O  O30  1  0.00000000  0.25701500  0.00000000  1
  O  O31  1  0.00000000  0.74298500  0.00000000  1
