# generated using pymatgen
data_Ba4CrGa2(S3F2)2
_symmetry_space_group_name_H-M   'P 1'
_cell_length_a   6.24266000
_cell_length_b   13.26556200
_cell_length_c   18.71770600
_cell_angle_alpha   90.00000000
_cell_angle_beta   90.00000000
_cell_angle_gamma   90.00000000
_symmetry_Int_Tables_number   1
_chemical_formula_structural   Ba4CrGa2(S3F2)2
_chemical_formula_sum   'Ba16 Cr4 Ga8 S24 F16'
_cell_volume   1550.05803048
_cell_formula_units_Z   4
loop_
 _symmetry_equiv_pos_site_id
 _symmetry_equiv_pos_as_xyz
  1  'x, y, z'
loop_
 _atom_site_type_symbol
 _atom_site_label
 _atom_site_symmetry_multiplicity
 _atom_site_fract_x
 _atom_site_fract_y
 _atom_site_fract_z
 _atom_site_occupancy
  Ba  Ba0  1  0.26866000  0.74880400  0.07824600  1
  Ba  Ba1  1  0.23134000  0.24880400  0.42175400  1
  Ba  Ba2  1  0.73134000  0.25119600  0.57824600  1
  Ba  Ba3  1  0.76866000  0.75119600  0.92175400  1
  Ba  Ba4  1  0.73134000  0.25119600  0.92175400  1
  Ba  Ba5  1  0.76866000  0.75119600  0.57824600  1
  Ba  Ba6  1  0.26866000  0.74880400  0.42175400  1
  Ba  Ba7  1  0.23134000  0.24880400  0.07824600  1
  Ba  Ba8  1  0.75644500  0.00000800  0.07786500  1
  Ba  Ba9  1  0.74355500  0.50000800  0.42213500  1
  Ba  Ba10  1  0.24355500  0.99999200  0.57786500  1
  Ba  Ba11  1  0.25644500  0.49999200  0.92213500  1
  Ba  Ba12  1  0.24355500  0.99999200  0.92213500  1
  Ba  Ba13  1  0.25644500  0.49999200  0.57786500  1
  Ba  Ba14  1  0.75644500  0.00000800  0.42213500  1
  Ba  Ba15  1  0.74355500  0.50000800  0.07786500  1
  Cr  Cr16  1  0.49733700  0.12496800  0.25000000  1
  Cr  Cr17  1  0.00266300  0.62496800  0.25000000  1
  Cr  Cr18  1  0.50266300  0.87503200  0.75000000  1
  Cr  Cr19  1  0.99733700  0.37503200  0.75000000  1
  Ga  Ga20  1  0.65469000  0.79903500  0.25000000  1
  Ga  Ga21  1  0.84531000  0.29903500  0.25000000  1
  Ga  Ga22  1  0.34531000  0.20096500  0.75000000  1
  Ga  Ga23  1  0.15469000  0.70096500  0.75000000  1
  Ga  Ga24  1  0.15169500  0.94991400  0.25000000  1
  Ga  Ga25  1  0.34830500  0.44991400  0.25000000  1
  Ga  Ga26  1  0.84830500  0.05008600  0.75000000  1
  Ga  Ga27  1  0.65169500  0.55008600  0.75000000  1
  S  S28  1  0.28350700  0.02810800  0.34822700  1
  S  S29  1  0.21649300  0.52810800  0.15177300  1
  S  S30  1  0.71649300  0.97189200  0.84822700  1
  S  S31  1  0.78350700  0.47189200  0.65177300  1
  S  S32  1  0.71649300  0.97189200  0.65177300  1
  S  S33  1  0.78350700  0.47189200  0.84822700  1
  S  S34  1  0.28350700  0.02810800  0.15177300  1
  S  S35  1  0.21649300  0.52810800  0.34822700  1
  S  S36  1  0.78868700  0.72168000  0.15171600  1
  S  S37  1  0.71131300  0.22168000  0.34828400  1
  S  S38  1  0.21131300  0.27832000  0.65171600  1
  S  S39  1  0.28868700  0.77832000  0.84828400  1
  S  S40  1  0.21131300  0.27832000  0.84828400  1
  S  S41  1  0.28868700  0.77832000  0.65171600  1
  S  S42  1  0.78868700  0.72168000  0.34828400  1
  S  S43  1  0.71131300  0.22168000  0.15171600  1
  S  S44  1  0.28405100  0.78688400  0.25000000  1
  S  S45  1  0.21594900  0.28688400  0.25000000  1
  S  S46  1  0.71594900  0.21311600  0.75000000  1
  S  S47  1  0.78405100  0.71311600  0.75000000  1
  S  S48  1  0.78138700  0.96266400  0.25000000  1
  S  S49  1  0.71861300  0.46266400  0.25000000  1
  S  S50  1  0.21861300  0.03733600  0.75000000  1
  S  S51  1  0.28138700  0.53733600  0.75000000  1
  F  F52  1  0.01331300  0.87470400  0.00359900  1
  F  F53  1  0.48668700  0.37470400  0.49640100  1
  F  F54  1  0.98668700  0.12529600  0.50359900  1
  F  F55  1  0.51331300  0.62529600  0.99640100  1
  F  F56  1  0.98668700  0.12529600  0.99640100  1
  F  F57  1  0.51331300  0.62529600  0.50359900  1
  F  F58  1  0.01331300  0.87470400  0.49640100  1
  F  F59  1  0.48668700  0.37470400  0.00359900  1
  F  F60  1  0.01077100  0.62535100  0.99831900  1
  F  F61  1  0.48922900  0.12535100  0.50168100  1
  F  F62  1  0.98922900  0.37464900  0.49831900  1
  F  F63  1  0.51077100  0.87464900  0.00168100  1
  F  F64  1  0.98922900  0.37464900  0.00168100  1
  F  F65  1  0.51077100  0.87464900  0.49831900  1
  F  F66  1  0.01077100  0.62535100  0.50168100  1
  F  F67  1  0.48922900  0.12535100  0.99831900  1
