# generated using pymatgen
data_BH6C2N5F4
_symmetry_space_group_name_H-M   'P 1'
_cell_length_a   5.47931688
_cell_length_b   7.67823652
_cell_length_c   9.87639251
_cell_angle_alpha   72.89670543
_cell_angle_beta   90.05690314
_cell_angle_gamma   86.95460144
_symmetry_Int_Tables_number   1
_chemical_formula_structural   BH6C2N5F4
_chemical_formula_sum   'B2 H12 C4 N10 F8'
_cell_volume   396.51791283
_cell_formula_units_Z   2
loop_
 _symmetry_equiv_pos_site_id
 _symmetry_equiv_pos_as_xyz
  1  'x, y, z'
loop_
 _atom_site_type_symbol
 _atom_site_label
 _atom_site_symmetry_multiplicity
 _atom_site_fract_x
 _atom_site_fract_y
 _atom_site_fract_z
 _atom_site_occupancy
  B  B0  1  0.13658000  0.13165300  0.68239200  1
  B  B1  1  0.86342000  0.86834700  0.31760800  1
  H  H2  1  0.92724500  0.30502300  0.05552800  1
  H  H3  1  0.07275500  0.69497700  0.94447200  1
  H  H4  1  0.71539700  0.16835000  0.01029200  1
  H  H5  1  0.28460300  0.83165000  0.98970800  1
  H  H6  1  0.33215900  0.78505000  0.52431600  1
  H  H7  1  0.66784100  0.21495000  0.47568400  1
  H  H8  1  0.21488100  0.56902100  0.57047300  1
  H  H9  1  0.78511900  0.43097900  0.42952700  1
  H  H10  1  0.42369800  0.32203800  0.79194700  1
  H  H11  1  0.57630200  0.67796200  0.20805300  1
  H  H12  1  0.70577800  0.82991400  0.68200100  1
  H  H13  1  0.29422200  0.17008600  0.31799900  1
  C  C14  1  0.70966400  0.43576600  0.88452500  1
  C  C15  1  0.29033600  0.56423400  0.11547500  1
  C  C16  1  0.50041500  0.60024100  0.69353100  1
  C  C17  1  0.49958500  0.39975900  0.30646900  1
  N  N18  1  0.80296300  0.59844600  0.85000800  1
  N  N19  1  0.19703700  0.40155400  0.14999200  1
  N  N20  1  0.77547500  0.29446200  0.99800000  1
  N  N21  1  0.22452500  0.70553800  0.00200000  1
  N  N22  1  0.34487800  0.65251400  0.58368800  1
  N  N23  1  0.65512200  0.34748600  0.41631200  1
  N  N24  1  0.52362200  0.43192200  0.79037200  1
  N  N25  1  0.47637800  0.56807800  0.20962800  1
  N  N26  1  0.66869600  0.69821100  0.73057300  1
  N  N27  1  0.33130400  0.30178900  0.26942700  1
  F  F28  1  0.08109200  0.32157900  0.61760600  1
  F  F29  1  0.91890800  0.67842100  0.38239400  1
  F  F30  1  0.91799400  0.04063600  0.71590800  1
  F  F31  1  0.08200600  0.95936400  0.28409200  1
  F  F32  1  0.27784300  0.05891600  0.59006300  1
  F  F33  1  0.72215700  0.94108400  0.40993700  1
  F  F34  1  0.27692700  0.11296900  0.80926700  1
  F  F35  1  0.72307300  0.88703100  0.19073300  1
