# generated using pymatgen
data_Rb3YbN6
_symmetry_space_group_name_H-M   'P 1'
_cell_length_a   11.23216600
_cell_length_b   8.15101400
_cell_length_c   13.96282455
_cell_angle_alpha   58.80567142
_cell_angle_beta   90.00000000
_cell_angle_gamma   90.00000000
_symmetry_Int_Tables_number   1
_chemical_formula_structural   Rb3YbN6
_chemical_formula_sum   'Rb12 Yb4 N24'
_cell_volume   1093.51706584
_cell_formula_units_Z   4
loop_
 _symmetry_equiv_pos_site_id
 _symmetry_equiv_pos_as_xyz
  1  'x, y, z'
loop_
 _atom_site_type_symbol
 _atom_site_label
 _atom_site_symmetry_multiplicity
 _atom_site_fract_x
 _atom_site_fract_y
 _atom_site_fract_z
 _atom_site_occupancy
  Rb  Rb0  1  0.58920500  0.08401000  0.33547500  1
  Rb  Rb1  1  0.91079500  0.08401000  0.83547500  1
  Rb  Rb2  1  0.41079500  0.91599000  0.66452500  1
  Rb  Rb3  1  0.08920500  0.91599000  0.16452500  1
  Rb  Rb4  1  0.08553600  0.25771100  0.49626100  1
  Rb  Rb5  1  0.41446400  0.25771100  0.99626100  1
  Rb  Rb6  1  0.91446400  0.74228900  0.50373900  1
  Rb  Rb7  1  0.58553600  0.74228900  0.00373900  1
  Rb  Rb8  1  0.93041400  0.42078700  0.16749500  1
  Rb  Rb9  1  0.56958600  0.42078700  0.66749500  1
  Rb  Rb10  1  0.06958600  0.57921300  0.83250500  1
  Rb  Rb11  1  0.43041400  0.57921300  0.33250500  1
  Yb  Yb12  1  0.75269100  0.76667900  0.24466200  1
  Yb  Yb13  1  0.74730900  0.76667900  0.74466200  1
  Yb  Yb14  1  0.24730900  0.23332100  0.75533800  1
  Yb  Yb15  1  0.25269100  0.23332100  0.25533800  1
  N  N16  1  0.34351700  0.19014700  0.41881600  1
  N  N17  1  0.15648300  0.19014700  0.91881600  1
  N  N18  1  0.65648300  0.80985300  0.58118400  1
  N  N19  1  0.84351700  0.80985300  0.08118400  1
  N  N20  1  0.92742300  0.60397900  0.33657100  1
  N  N21  1  0.57257700  0.60397900  0.83657100  1
  N  N22  1  0.07257700  0.39602100  0.66342900  1
  N  N23  1  0.42742300  0.39602100  0.16342900  1
  N  N24  1  0.19147000  0.50257500  0.26491500  1
  N  N25  1  0.30853000  0.50257500  0.76491500  1
  N  N26  1  0.80853000  0.49742500  0.73508500  1
  N  N27  1  0.69147000  0.49742500  0.23508500  1
  N  N28  1  0.66190200  0.66391300  0.42625800  1
  N  N29  1  0.83809800  0.66391300  0.92625800  1
  N  N30  1  0.33809800  0.33608700  0.57374200  1
  N  N31  1  0.16190200  0.33608700  0.07374200  1
  N  N32  1  0.06739600  0.07039200  0.33338300  1
  N  N33  1  0.43260400  0.07039200  0.83338300  1
  N  N34  1  0.93260400  0.92960800  0.66661700  1
  N  N35  1  0.56739600  0.92960800  0.16661700  1
  N  N36  1  0.86192000  0.00580400  0.25887000  1
  N  N37  1  0.63808000  0.00580400  0.75887000  1
  N  N38  1  0.13808000  0.99419600  0.74113000  1
  N  N39  1  0.36192000  0.99419600  0.24113000  1
