# generated using pymatgen
data_Ba4NaB10Cl(O9F)2
_symmetry_space_group_name_H-M   'P 1'
_cell_length_a   11.57749600
_cell_length_b   6.82359400
_cell_length_c   13.24535197
_cell_angle_alpha   60.94472072
_cell_angle_beta   90.00000000
_cell_angle_gamma   90.00000000
_symmetry_Int_Tables_number   1
_chemical_formula_structural   Ba4NaB10Cl(O9F)2
_chemical_formula_sum   'Ba8 Na2 B20 Cl2 O36 F4'
_cell_volume   914.69868614
_cell_formula_units_Z   2
loop_
 _symmetry_equiv_pos_site_id
 _symmetry_equiv_pos_as_xyz
  1  'x, y, z'
loop_
 _atom_site_type_symbol
 _atom_site_label
 _atom_site_symmetry_multiplicity
 _atom_site_fract_x
 _atom_site_fract_y
 _atom_site_fract_z
 _atom_site_occupancy
  Ba  Ba0  1  0.29575500  0.64433100  0.03170200  1
  Ba  Ba1  1  0.20424500  0.64433100  0.53170200  1
  Ba  Ba2  1  0.70424500  0.35566900  0.96829800  1
  Ba  Ba3  1  0.79575500  0.35566900  0.46829800  1
  Ba  Ba4  1  0.03031000  0.69771400  0.80382200  1
  Ba  Ba5  1  0.46969000  0.69771400  0.30382200  1
  Ba  Ba6  1  0.96969000  0.30228600  0.19617800  1
  Ba  Ba7  1  0.53031000  0.30228600  0.69617800  1
  Na  Na8  1  0.00000000  0.00000000  0.00000000  1
  Na  Na9  1  0.50000000  0.00000000  0.50000000  1
  B  B10  1  0.21819700  0.16371500  0.80249800  1
  B  B11  1  0.28180300  0.16371500  0.30249800  1
  B  B12  1  0.78180300  0.83628500  0.19750200  1
  B  B13  1  0.71819700  0.83628500  0.69750200  1
  B  B14  1  0.77281300  0.78161800  0.02411400  1
  B  B15  1  0.72718700  0.78161800  0.52411400  1
  B  B16  1  0.22718700  0.21838200  0.97588600  1
  B  B17  1  0.27281300  0.21838200  0.47588600  1
  B  B18  1  0.29866600  0.94828100  0.69730500  1
  B  B19  1  0.20133400  0.94828100  0.19730500  1
  B  B20  1  0.70133400  0.05171900  0.30269500  1
  B  B21  1  0.79866600  0.05171900  0.80269500  1
  B  B22  1  0.99071600  0.25645500  0.74282300  1
  B  B23  1  0.50928400  0.25645500  0.24282300  1
  B  B24  1  0.00928400  0.74354500  0.25717700  1
  B  B25  1  0.49071600  0.74354500  0.75717700  1
  B  B26  1  0.19179000  0.51954300  0.28954900  1
  B  B27  1  0.30821000  0.51954300  0.78954900  1
  B  B28  1  0.80821000  0.48045700  0.71045100  1
  B  B29  1  0.69179000  0.48045700  0.21045100  1
  Cl  Cl30  1  0.50000000  0.00000000  0.00000000  1
  Cl  Cl31  1  0.00000000  0.00000000  0.50000000  1
  O  O32  1  0.24116100  0.73778800  0.20176500  1
  O  O33  1  0.25883900  0.73778800  0.70176500  1
  O  O34  1  0.75883900  0.26221200  0.79823500  1
  O  O35  1  0.74116100  0.26221200  0.29823500  1
  O  O36  1  0.80329200  0.65287700  0.74636400  1
  O  O37  1  0.69670800  0.65287700  0.24636400  1
  O  O38  1  0.19670800  0.34712300  0.25363600  1
  O  O39  1  0.30329200  0.34712300  0.75363600  1
  O  O40  1  0.79987400  0.92003600  0.06903300  1
  O  O41  1  0.70012600  0.92003600  0.56903300  1
  O  O42  1  0.20012600  0.07996400  0.93096700  1
  O  O43  1  0.29987400  0.07996400  0.43096700  1
  O  O44  1  0.24383100  0.44602200  0.90032700  1
  O  O45  1  0.25616900  0.44602200  0.40032700  1
  O  O46  1  0.75616900  0.55397800  0.09967300  1
  O  O47  1  0.74383100  0.55397800  0.59967300  1
  O  O48  1  0.93174300  0.05636200  0.80032200  1
  O  O49  1  0.56825700  0.05636200  0.30032200  1
  O  O50  1  0.06825700  0.94363800  0.19967800  1
  O  O51  1  0.43174300  0.94363800  0.69967800  1
  O  O52  1  0.25070900  0.96346300  0.79587400  1
  O  O53  1  0.24929100  0.96346300  0.29587400  1
  O  O54  1  0.74929100  0.03653700  0.20412600  1
  O  O55  1  0.75070900  0.03653700  0.70412600  1
  O  O56  1  0.39184700  0.27245200  0.23868100  1
  O  O57  1  0.10815300  0.27245200  0.73868100  1
  O  O58  1  0.60815300  0.72754800  0.76131900  1
  O  O59  1  0.89184700  0.72754800  0.26131900  1
  O  O60  1  0.93201800  0.45680100  0.68787900  1
  O  O61  1  0.56798200  0.45680100  0.18787900  1
  O  O62  1  0.06798200  0.54319900  0.31212100  1
  O  O63  1  0.43201800  0.54319900  0.81212100  1
  O  O64  1  0.23080500  0.15435300  0.09045000  1
  O  O65  1  0.26919500  0.15435300  0.59045000  1
  O  O66  1  0.76919500  0.84564700  0.90955000  1
  O  O67  1  0.73080500  0.84564700  0.40955000  1
  F  F68  1  0.93986800  0.33815500  0.97823700  1
  F  F69  1  0.56013200  0.33815500  0.47823700  1
  F  F70  1  0.06013200  0.66184500  0.02176300  1
  F  F71  1  0.43986800  0.66184500  0.52176300  1
