# generated using pymatgen
data_Gd(ReO5)3
_symmetry_space_group_name_H-M   'P 1'
_cell_length_a   8.83074200
_cell_length_b   11.56631700
_cell_length_c   14.81126100
_cell_angle_alpha   90.00000000
_cell_angle_beta   90.00000000
_cell_angle_gamma   90.00000000
_symmetry_Int_Tables_number   1
_chemical_formula_structural   Gd(ReO5)3
_chemical_formula_sum   'Gd4 Re12 O60'
_cell_volume   1512.80977659
_cell_formula_units_Z   4
loop_
 _symmetry_equiv_pos_site_id
 _symmetry_equiv_pos_as_xyz
  1  'x, y, z'
loop_
 _atom_site_type_symbol
 _atom_site_label
 _atom_site_symmetry_multiplicity
 _atom_site_fract_x
 _atom_site_fract_y
 _atom_site_fract_z
 _atom_site_occupancy
  Gd  Gd0  1  0.22945500  0.35411200  0.17566900  1
  Gd  Gd1  1  0.77054500  0.85411200  0.82433100  1
  Gd  Gd2  1  0.72945500  0.85411200  0.32433100  1
  Gd  Gd3  1  0.27054500  0.35411200  0.67566900  1
  Re  Re4  1  0.39840000  0.68117600  0.18356100  1
  Re  Re5  1  0.60160000  0.18117600  0.81643900  1
  Re  Re6  1  0.89840000  0.18117600  0.31643900  1
  Re  Re7  1  0.10160000  0.68117600  0.68356100  1
  Re  Re8  1  0.89732100  0.59918000  0.16910200  1
  Re  Re9  1  0.10267900  0.09918000  0.83089800  1
  Re  Re10  1  0.39732100  0.09918000  0.33089800  1
  Re  Re11  1  0.60267900  0.59918000  0.66910200  1
  Re  Re12  1  0.30368300  0.48921900  0.91870300  1
  Re  Re13  1  0.69631700  0.98921900  0.08129700  1
  Re  Re14  1  0.80368300  0.98921900  0.58129700  1
  Re  Re15  1  0.19631700  0.48921900  0.41870300  1
  O  O16  1  0.36892000  0.52874000  0.19027800  1
  O  O17  1  0.63108000  0.02874000  0.80972200  1
  O  O18  1  0.86892000  0.02874000  0.30972200  1
  O  O19  1  0.13108000  0.52874000  0.69027800  1
  O  O20  1  0.02929800  0.48809600  0.19870800  1
  O  O21  1  0.97070200  0.98809600  0.80129200  1
  O  O22  1  0.52929800  0.98809600  0.30129200  1
  O  O23  1  0.47070200  0.48809600  0.69870800  1
  O  O24  1  0.24198300  0.43645900  0.02641400  1
  O  O25  1  0.75801700  0.93645900  0.97358600  1
  O  O26  1  0.74198300  0.93645900  0.47358600  1
  O  O27  1  0.25801700  0.43645900  0.52641400  1
  O  O28  1  0.24904700  0.18832500  0.07025200  1
  O  O29  1  0.75095300  0.68832500  0.92974800  1
  O  O30  1  0.74904700  0.68832500  0.42974800  1
  O  O31  1  0.25095300  0.18832500  0.57025200  1
  O  O32  1  0.00152800  0.32976600  0.08226400  1
  O  O33  1  0.99847200  0.82976600  0.91773600  1
  O  O34  1  0.50152800  0.82976600  0.41773600  1
  O  O35  1  0.49847200  0.32976600  0.58226400  1
  O  O36  1  0.49880200  0.34378200  0.12621700  1
  O  O37  1  0.50119800  0.84378200  0.87378300  1
  O  O38  1  0.99880200  0.84378200  0.37378300  1
  O  O39  1  0.00119800  0.34378200  0.62621700  1
  O  O40  1  0.45394500  0.71648500  0.07486900  1
  O  O41  1  0.54605500  0.21648500  0.92513100  1
  O  O42  1  0.95394500  0.21648500  0.42513100  1
  O  O43  1  0.04605500  0.71648500  0.57486900  1
  O  O44  1  0.53846700  0.72990800  0.26123000  1
  O  O45  1  0.46153300  0.22990800  0.73877000  1
  O  O46  1  0.03846700  0.22990800  0.23877000  1
  O  O47  1  0.96153300  0.72990800  0.76123000  1
  O  O48  1  0.22775600  0.75024600  0.20422800  1
  O  O49  1  0.77224400  0.25024600  0.79577200  1
  O  O50  1  0.72775600  0.25024600  0.29577200  1
  O  O51  1  0.27224400  0.75024600  0.70422800  1
  O  O52  1  0.96081300  0.67088700  0.07372600  1
  O  O53  1  0.03918700  0.17088700  0.92627400  1
  O  O54  1  0.46081300  0.17088700  0.42627400  1
  O  O55  1  0.53918700  0.67088700  0.57372600  1
  O  O56  1  0.72436900  0.53702400  0.14400600  1
  O  O57  1  0.27563100  0.03702400  0.85599400  1
  O  O58  1  0.22436900  0.03702400  0.35599400  1
  O  O59  1  0.77563100  0.53702400  0.64400600  1
  O  O60  1  0.87144900  0.69742500  0.26023900  1
  O  O61  1  0.12855100  0.19742500  0.73976100  1
  O  O62  1  0.37144900  0.19742500  0.23976100  1
  O  O63  1  0.62855100  0.69742500  0.76023900  1
  O  O64  1  0.49833400  0.50622800  0.91691800  1
  O  O65  1  0.50166600  0.00622800  0.08308200  1
  O  O66  1  0.99833400  0.00622800  0.58308200  1
  O  O67  1  0.00166600  0.50622800  0.41691800  1
  O  O68  1  0.22070200  0.62135800  0.89358300  1
  O  O69  1  0.77929800  0.12135800  0.10641700  1
  O  O70  1  0.72070200  0.12135800  0.60641700  1
  O  O71  1  0.27929800  0.62135800  0.39358300  1
  O  O72  1  0.25191300  0.38998400  0.83318300  1
  O  O73  1  0.74808700  0.88998400  0.16681700  1
  O  O74  1  0.75191300  0.88998400  0.66681700  1
  O  O75  1  0.24808700  0.38998400  0.33318300  1
