# generated using pymatgen
data_KCuB7O13
_symmetry_space_group_name_H-M   'P 1'
_cell_length_a   4.79674000
_cell_length_b   12.93303900
_cell_length_c   15.57146700
_cell_angle_alpha   90.00000000
_cell_angle_beta   90.00000000
_cell_angle_gamma   90.00000000
_symmetry_Int_Tables_number   1
_chemical_formula_structural   KCuB7O13
_chemical_formula_sum   'K4 Cu4 B28 O52'
_cell_volume   965.99815236
_cell_formula_units_Z   4
loop_
 _symmetry_equiv_pos_site_id
 _symmetry_equiv_pos_as_xyz
  1  'x, y, z'
loop_
 _atom_site_type_symbol
 _atom_site_label
 _atom_site_symmetry_multiplicity
 _atom_site_fract_x
 _atom_site_fract_y
 _atom_site_fract_z
 _atom_site_occupancy
  K  K0  1  0.36000300  0.19514900  0.00000000  1
  K  K1  1  0.63999700  0.80485100  0.00000000  1
  K  K2  1  0.13999700  0.69514900  0.50000000  1
  K  K3  1  0.86000300  0.30485100  0.50000000  1
  Cu  Cu4  1  0.00000000  0.00000000  0.39851600  1
  Cu  Cu5  1  0.50000000  0.50000000  0.10148400  1
  Cu  Cu6  1  0.00000000  0.00000000  0.60148400  1
  Cu  Cu7  1  0.50000000  0.50000000  0.89851600  1
  B  B8  1  0.40874300  0.17332600  0.34654500  1
  B  B9  1  0.59125700  0.82667400  0.34654500  1
  B  B10  1  0.09125700  0.67332600  0.15345500  1
  B  B11  1  0.90874300  0.32667400  0.15345500  1
  B  B12  1  0.59125700  0.82667400  0.65345500  1
  B  B13  1  0.40874300  0.17332600  0.65345500  1
  B  B14  1  0.90874300  0.32667400  0.84654500  1
  B  B15  1  0.09125700  0.67332600  0.84654500  1
  B  B16  1  0.19991000  0.06452800  0.22571800  1
  B  B17  1  0.80009000  0.93547200  0.22571800  1
  B  B18  1  0.30009000  0.56452800  0.27428200  1
  B  B19  1  0.69991000  0.43547200  0.27428200  1
  B  B20  1  0.80009000  0.93547200  0.77428200  1
  B  B21  1  0.19991000  0.06452800  0.77428200  1
  B  B22  1  0.69991000  0.43547200  0.72571800  1
  B  B23  1  0.30009000  0.56452800  0.72571800  1
  B  B24  1  0.57009300  0.18684900  0.19595400  1
  B  B25  1  0.42990700  0.81315100  0.19595400  1
  B  B26  1  0.92990700  0.68684900  0.30404600  1
  B  B27  1  0.07009300  0.31315100  0.30404600  1
  B  B28  1  0.42990700  0.81315100  0.80404600  1
  B  B29  1  0.57009300  0.18684900  0.80404600  1
  B  B30  1  0.07009300  0.31315100  0.69595400  1
  B  B31  1  0.92990700  0.68684900  0.69595400  1
  B  B32  1  0.42291500  0.11766300  0.50000000  1
  B  B33  1  0.57708500  0.88233700  0.50000000  1
  B  B34  1  0.07708500  0.61766300  0.00000000  1
  B  B35  1  0.92291500  0.38233700  0.00000000  1
  O  O36  1  0.11438600  0.97807100  0.00000000  1
  O  O37  1  0.88561400  0.02192900  0.00000000  1
  O  O38  1  0.38561400  0.47807100  0.50000000  1
  O  O39  1  0.61438600  0.52192900  0.50000000  1
  O  O40  1  0.00000000  0.00000000  0.19208400  1
  O  O41  1  0.50000000  0.50000000  0.30791600  1
  O  O42  1  0.00000000  0.00000000  0.80791600  1
  O  O43  1  0.50000000  0.50000000  0.69208400  1
  O  O44  1  0.17070300  0.06631600  0.50000000  1
  O  O45  1  0.82929700  0.93368400  0.50000000  1
  O  O46  1  0.32929700  0.56631600  0.00000000  1
  O  O47  1  0.67070300  0.43368400  0.00000000  1
  O  O48  1  0.37581400  0.11218400  0.16761800  1
  O  O49  1  0.62418600  0.88781600  0.16761800  1
  O  O50  1  0.12418600  0.61218400  0.33238200  1
  O  O51  1  0.87581400  0.38781600  0.33238200  1
  O  O52  1  0.62418600  0.88781600  0.83238200  1
  O  O53  1  0.37581400  0.11218400  0.83238200  1
  O  O54  1  0.87581400  0.38781600  0.66761800  1
  O  O55  1  0.12418600  0.61218400  0.66761800  1
  O  O56  1  0.55234400  0.14389000  0.42439100  1
  O  O57  1  0.44765600  0.85611000  0.42439100  1
  O  O58  1  0.94765600  0.64389000  0.07560900  1
  O  O59  1  0.05234400  0.35611000  0.07560900  1
  O  O60  1  0.44765600  0.85611000  0.57560900  1
  O  O61  1  0.55234400  0.14389000  0.57560900  1
  O  O62  1  0.05234400  0.35611000  0.92439100  1
  O  O63  1  0.94765600  0.64389000  0.92439100  1
  O  O64  1  0.21728900  0.26040500  0.36502700  1
  O  O65  1  0.78271100  0.73959500  0.36502700  1
  O  O66  1  0.28271100  0.76040500  0.13497300  1
  O  O67  1  0.71728900  0.23959500  0.13497300  1
  O  O68  1  0.78271100  0.73959500  0.63497300  1
  O  O69  1  0.21728900  0.26040500  0.63497300  1
  O  O70  1  0.71728900  0.23959500  0.86502700  1
  O  O71  1  0.28271100  0.76040500  0.86502700  1
  O  O72  1  0.22545600  0.08073200  0.31346900  1
  O  O73  1  0.77454400  0.91926800  0.31346900  1
  O  O74  1  0.27454400  0.58073200  0.18653100  1
  O  O75  1  0.72545600  0.41926800  0.18653100  1
  O  O76  1  0.77454400  0.91926800  0.68653100  1
  O  O77  1  0.22545600  0.08073200  0.68653100  1
  O  O78  1  0.72545600  0.41926800  0.81346900  1
  O  O79  1  0.27454400  0.58073200  0.81346900  1
  O  O80  1  0.61388500  0.19868700  0.28178000  1
  O  O81  1  0.38611500  0.80131300  0.28178000  1
  O  O82  1  0.88611500  0.69868700  0.21822000  1
  O  O83  1  0.11388500  0.30131300  0.21822000  1
  O  O84  1  0.38611500  0.80131300  0.71822000  1
  O  O85  1  0.61388500  0.19868700  0.71822000  1
  O  O86  1  0.11388500  0.30131300  0.78178000  1
  O  O87  1  0.88611500  0.69868700  0.78178000  1
