# generated using pymatgen
data_NaEuP2H4CO7
_symmetry_space_group_name_H-M   'P 1'
_cell_length_a   15.44919900
_cell_length_b   6.84638000
_cell_length_c   6.87802125
_cell_angle_alpha   88.72487183
_cell_angle_beta   90.00000000
_cell_angle_gamma   90.00000000
_symmetry_Int_Tables_number   1
_chemical_formula_structural   NaEuP2H4CO7
_chemical_formula_sum   'Na4 Eu4 P8 H16 C4 O28'
_cell_volume   727.31562976
_cell_formula_units_Z   4
loop_
 _symmetry_equiv_pos_site_id
 _symmetry_equiv_pos_as_xyz
  1  'x, y, z'
loop_
 _atom_site_type_symbol
 _atom_site_label
 _atom_site_symmetry_multiplicity
 _atom_site_fract_x
 _atom_site_fract_y
 _atom_site_fract_z
 _atom_site_occupancy
  Na  Na0  1  0.02672100  0.13540400  0.30531700  1
  Na  Na1  1  0.52672100  0.36459600  0.69468300  1
  Na  Na2  1  0.97327900  0.86459600  0.69468300  1
  Na  Na3  1  0.47327900  0.63540400  0.30531700  1
  Eu  Eu4  1  0.09984400  0.39922700  0.82726200  1
  Eu  Eu5  1  0.59984400  0.10077300  0.17273800  1
  Eu  Eu6  1  0.90015600  0.60077300  0.17273800  1
  Eu  Eu7  1  0.40015600  0.89922700  0.82726200  1
  P  P8  1  0.90431400  0.36654900  0.67943400  1
  P  P9  1  0.40431400  0.13345100  0.32056600  1
  P  P10  1  0.09568600  0.63345100  0.32056600  1
  P  P11  1  0.59568600  0.86654900  0.67943400  1
  P  P12  1  0.16026000  0.89340200  0.97209300  1
  P  P13  1  0.66026000  0.60659800  0.02790700  1
  P  P14  1  0.83974000  0.10659800  0.02790700  1
  P  P15  1  0.33974000  0.39340200  0.97209300  1
  H  H16  1  0.18391700  0.25623400  0.49302300  1
  H  H17  1  0.68391700  0.24376600  0.50697700  1
  H  H18  1  0.81608300  0.74376600  0.50697700  1
  H  H19  1  0.31608300  0.75623400  0.49302300  1
  H  H20  1  0.21068900  0.07501900  0.62735900  1
  H  H21  1  0.71068900  0.42498100  0.37264100  1
  H  H22  1  0.78931100  0.92498100  0.37264100  1
  H  H23  1  0.28931100  0.57501900  0.62735900  1
  H  H24  1  0.76162000  0.32102700  0.81371700  1
  H  H25  1  0.26162000  0.17897300  0.18628300  1
  H  H26  1  0.23838000  0.67897300  0.18628300  1
  H  H27  1  0.73838000  0.82102700  0.81371700  1
  H  H28  1  0.79843000  0.11173100  0.68927100  1
  H  H29  1  0.29843000  0.38826900  0.31072900  1
  H  H30  1  0.20157000  0.88826900  0.31072900  1
  H  H31  1  0.70157000  0.61173100  0.68927100  1
  C  C32  1  0.81750800  0.22458400  0.79253900  1
  C  C33  1  0.31750800  0.27541600  0.20746100  1
  C  C34  1  0.18249200  0.77541600  0.20746100  1
  C  C35  1  0.68249200  0.72458400  0.79253900  1
  O  O36  1  0.10226300  0.75573700  0.85596600  1
  O  O37  1  0.60226300  0.74426300  0.14403400  1
  O  O38  1  0.89773700  0.24426300  0.14403400  1
  O  O39  1  0.39773700  0.25573700  0.85596600  1
  O  O40  1  0.98067500  0.22734600  0.63780800  1
  O  O41  1  0.48067500  0.27265400  0.36219200  1
  O  O42  1  0.01932500  0.77265400  0.36219200  1
  O  O43  1  0.51932500  0.72734600  0.63780800  1
  O  O44  1  0.93858400  0.52109300  0.82485900  1
  O  O45  1  0.43858400  0.97890700  0.17514100  1
  O  O46  1  0.06141600  0.47890700  0.17514100  1
  O  O47  1  0.56141600  0.02109300  0.82485900  1
  O  O48  1  0.11404800  0.08947800  0.00952400  1
  O  O49  1  0.61404800  0.41052200  0.99047600  1
  O  O50  1  0.88595200  0.91052200  0.99047600  1
  O  O51  1  0.38595200  0.58947800  0.00952400  1
  O  O52  1  0.86564800  0.46801300  0.49816200  1
  O  O53  1  0.36564800  0.03198700  0.50183800  1
  O  O54  1  0.13435200  0.53198700  0.50183800  1
  O  O55  1  0.63435200  0.96801300  0.49816200  1
  O  O56  1  0.24901500  0.92894500  0.87291400  1
  O  O57  1  0.74901500  0.57105500  0.12708600  1
  O  O58  1  0.75098500  0.07105500  0.12708600  1
  O  O59  1  0.25098500  0.42894500  0.87291400  1
  O  O60  1  0.16097700  0.14495700  0.56887400  1
  O  O61  1  0.66097700  0.35504300  0.43112600  1
  O  O62  1  0.83902300  0.85504300  0.43112600  1
  O  O63  1  0.33902300  0.64495700  0.56887400  1
