# generated using pymatgen
data_NdH16N7O19
_symmetry_space_group_name_H-M   'P 1'
_cell_length_a   7.22948045
_cell_length_b   7.22948045
_cell_length_c   18.13094349
_cell_angle_alpha   80.92022441
_cell_angle_beta   80.92022441
_cell_angle_gamma   77.96381287
_symmetry_Int_Tables_number   1
_chemical_formula_structural   NdH16N7O19
_chemical_formula_sum   'Nd2 H32 N14 O38'
_cell_volume   907.48936138
_cell_formula_units_Z   2
loop_
 _symmetry_equiv_pos_site_id
 _symmetry_equiv_pos_as_xyz
  1  'x, y, z'
loop_
 _atom_site_type_symbol
 _atom_site_label
 _atom_site_symmetry_multiplicity
 _atom_site_fract_x
 _atom_site_fract_y
 _atom_site_fract_z
 _atom_site_occupancy
  Nd  Nd0  1  0.97902200  0.86269800  0.42490100  1
  Nd  Nd1  1  0.86269800  0.97902200  0.92490100  1
  H  H2  1  0.28324000  0.12777200  0.41448600  1
  H  H3  1  0.12777200  0.28324000  0.91448600  1
  H  H4  1  0.12516600  0.25375000  0.37144800  1
  H  H5  1  0.25375000  0.12516600  0.87144800  1
  H  H6  1  0.76094900  0.50817900  0.45204200  1
  H  H7  1  0.50817900  0.76094900  0.95204200  1
  H  H8  1  0.60289600  0.68760300  0.46850900  1
  H  H9  1  0.68760300  0.60289600  0.96850900  1
  H  H10  1  0.83300900  0.37663700  0.26293700  1
  H  H11  1  0.37663700  0.83300900  0.76293700  1
  H  H12  1  0.84128900  0.59631300  0.25882500  1
  H  H13  1  0.59631300  0.84128900  0.75882500  1
  H  H14  1  0.47157600  0.14778900  0.20582500  1
  H  H15  1  0.14778900  0.47157600  0.70582500  1
  H  H16  1  0.31574000  0.08746100  0.27050500  1
  H  H17  1  0.08746100  0.31574000  0.77050500  1
  H  H18  1  0.84423000  0.44927800  0.68495300  1
  H  H19  1  0.44927800  0.84423000  0.18495300  1
  H  H20  1  0.63703300  0.61806600  0.68840700  1
  H  H21  1  0.61806600  0.63703300  0.18840700  1
  H  H22  1  0.68634200  0.46451400  0.62354100  1
  H  H23  1  0.46451400  0.68634200  0.12354100  1
  H  H24  1  0.81516900  0.63395600  0.61659300  1
  H  H25  1  0.63395600  0.81516900  0.11659300  1
  H  H26  1  0.42504800  0.01321200  0.64550000  1
  H  H27  1  0.01321200  0.42504800  0.14550000  1
  H  H28  1  0.23583400  0.05239500  0.59503200  1
  H  H29  1  0.05239500  0.23583400  0.09503200  1
  H  H30  1  0.24160100  0.20099100  0.65758800  1
  H  H31  1  0.20099100  0.24160100  0.15758800  1
  H  H32  1  0.39142500  0.20051100  0.57575900  1
  H  H33  1  0.20051100  0.39142500  0.07575900  1
  N  N34  1  0.74499900  0.54069600  0.65373100  1
  N  N35  1  0.54069600  0.74499900  0.15373100  1
  N  N36  1  0.32563900  0.11506900  0.61823300  1
  N  N37  1  0.11506900  0.32563900  0.11823300  1
  N  N38  1  0.23794700  0.58703800  0.32534100  1
  N  N39  1  0.58703800  0.23794700  0.82534100  1
  N  N40  1  0.26165700  0.63234900  0.53494100  1
  N  N41  1  0.63234900  0.26165700  0.03494100  1
  N  N42  1  0.86429100  0.03605600  0.57617300  1
  N  N43  1  0.03605600  0.86429100  0.07617300  1
  N  N44  1  0.61949300  0.20111800  0.43500500  1
  N  N45  1  0.20111800  0.61949300  0.93500500  1
  N  N46  1  0.84617700  0.98450000  0.26622500  1
  N  N47  1  0.98450000  0.84617700  0.76622500  1
  O  O48  1  0.18590900  0.11948500  0.38362500  1
  O  O49  1  0.11948500  0.18590900  0.88362500  1
  O  O50  1  0.74233600  0.64028100  0.46335800  1
  O  O51  1  0.64028100  0.74233600  0.96335800  1
  O  O52  1  0.25650400  0.76050700  0.32114600  1
  O  O53  1  0.76050700  0.25650400  0.82114600  1
  O  O54  1  0.10726600  0.53304000  0.37679300  1
  O  O55  1  0.53304000  0.10726600  0.87679300  1
  O  O56  1  0.33697900  0.47669300  0.28285700  1
  O  O57  1  0.47669300  0.33697900  0.78285700  1
  O  O58  1  0.32810500  0.74180500  0.47881300  1
  O  O59  1  0.74180500  0.32810500  0.97881300  1
  O  O60  1  0.08886500  0.61269900  0.53676100  1
  O  O61  1  0.61269900  0.08886500  0.03676100  1
  O  O62  1  0.35928900  0.54932400  0.58535000  1
  O  O63  1  0.54932400  0.35928900  0.08535000  1
  O  O64  1  0.03444100  0.02639500  0.54151400  1
  O  O65  1  0.02639500  0.03444100  0.04151400  1
  O  O66  1  0.76013800  0.93733500  0.55419800  1
  O  O67  1  0.93733500  0.76013800  0.05419800  1
  O  O68  1  0.80256300  0.13688100  0.62733100  1
  O  O69  1  0.13688100  0.80256300  0.12733100  1
  O  O70  1  0.77747900  0.25365300  0.43467100  1
  O  O71  1  0.25365300  0.77747900  0.93467100  1
  O  O72  1  0.62583000  0.03573700  0.41691600  1
  O  O73  1  0.03573700  0.62583000  0.91691600  1
  O  O74  1  0.46258100  0.30451700  0.45351400  1
  O  O75  1  0.30451700  0.46258100  0.95351400  1
  O  O76  1  0.91637900  0.10168100  0.29450900  1
  O  O77  1  0.10168100  0.91637900  0.79450900  1
  O  O78  1  0.84846200  0.81869600  0.30436000  1
  O  O79  1  0.81869600  0.84846200  0.80436000  1
  O  O80  1  0.77837700  0.02843300  0.20571600  1
  O  O81  1  0.02843300  0.77837700  0.70571600  1
  O  O82  1  0.82557400  0.49822900  0.22946000  1
  O  O83  1  0.49822900  0.82557400  0.72946000  1
  O  O84  1  0.35539400  0.09355100  0.21592800  1
  O  O85  1  0.09355100  0.35539400  0.71592800  1
