# generated using pymatgen
data_PrH16N7O19
_symmetry_space_group_name_H-M   'P 1'
_cell_length_a   7.08718451
_cell_length_b   7.08718451
_cell_length_c   18.42871213
_cell_angle_alpha   80.05669622
_cell_angle_beta   80.05669622
_cell_angle_gamma   77.92959684
_symmetry_Int_Tables_number   1
_chemical_formula_structural   PrH16N7O19
_chemical_formula_sum   'Pr2 H32 N14 O38'
_cell_volume   882.57268100
_cell_formula_units_Z   2
loop_
 _symmetry_equiv_pos_site_id
 _symmetry_equiv_pos_as_xyz
  1  'x, y, z'
loop_
 _atom_site_type_symbol
 _atom_site_label
 _atom_site_symmetry_multiplicity
 _atom_site_fract_x
 _atom_site_fract_y
 _atom_site_fract_z
 _atom_site_occupancy
  Pr  Pr0  1  0.98588400  0.86888100  0.42500600  1
  Pr  Pr1  1  0.86888100  0.98588400  0.92500600  1
  H  H2  1  0.35435300  0.07777500  0.39715200  1
  H  H3  1  0.07777500  0.35435300  0.89715200  1
  H  H4  1  0.18090700  0.25142800  0.38310600  1
  H  H5  1  0.25142800  0.18090700  0.88310600  1
  H  H6  1  0.76916900  0.50451700  0.45233100  1
  H  H7  1  0.50451700  0.76916900  0.95233100  1
  H  H8  1  0.60051800  0.68273700  0.46856500  1
  H  H9  1  0.68273700  0.60051800  0.96856500  1
  H  H10  1  0.82572900  0.37039100  0.26137400  1
  H  H11  1  0.37039100  0.82572900  0.76137400  1
  H  H12  1  0.83417400  0.59276000  0.26197200  1
  H  H13  1  0.59276000  0.83417400  0.76197200  1
  H  H14  1  0.47712800  0.15843900  0.21005700  1
  H  H15  1  0.15843900  0.47712800  0.71005700  1
  H  H16  1  0.30553700  0.07804600  0.26372000  1
  H  H17  1  0.07804600  0.30553700  0.76372000  1
  H  H18  1  0.88019300  0.48644200  0.66577100  1
  H  H19  1  0.48644200  0.88019300  0.16577100  1
  H  H20  1  0.64222100  0.59327200  0.68878400  1
  H  H21  1  0.59327200  0.64222100  0.18878400  1
  H  H22  1  0.70523600  0.40567000  0.63719100  1
  H  H23  1  0.40567000  0.70523600  0.13719100  1
  H  H24  1  0.75077500  0.62717900  0.59990000  1
  H  H25  1  0.62717900  0.75077500  0.09990000  1
  H  H26  1  0.43627300  0.02362800  0.64430300  1
  H  H27  1  0.02362800  0.43627300  0.14430300  1
  H  H28  1  0.23160500  0.04155100  0.60452400  1
  H  H29  1  0.04155100  0.23160500  0.10452400  1
  H  H30  1  0.24684200  0.21541800  0.65478800  1
  H  H31  1  0.21541800  0.24684200  0.15478800  1
  H  H32  1  0.38404600  0.19562500  0.57014300  1
  H  H33  1  0.19562500  0.38404600  0.07014300  1
  N  N34  1  0.74416000  0.52888500  0.64796800  1
  N  N35  1  0.52888500  0.74416000  0.14796800  1
  N  N36  1  0.32702500  0.11756400  0.61814500  1
  N  N37  1  0.11756400  0.32702500  0.11814500  1
  N  N38  1  0.24925900  0.58090800  0.32692400  1
  N  N39  1  0.58090800  0.24925900  0.82692400  1
  N  N40  1  0.26852500  0.63410300  0.53446100  1
  N  N41  1  0.63410300  0.26852500  0.03446100  1
  N  N42  1  0.84980700  0.03253400  0.57810400  1
  N  N43  1  0.03253400  0.84980700  0.07810400  1
  N  N44  1  0.62688200  0.21031400  0.43236100  1
  N  N45  1  0.21031400  0.62688200  0.93236100  1
  N  N46  1  0.84664000  0.97840300  0.26773500  1
  N  N47  1  0.97840300  0.84664000  0.76773500  1
  O  O48  1  0.22235200  0.10880500  0.38270400  1
  O  O49  1  0.10880500  0.22235200  0.88270400  1
  O  O50  1  0.74356600  0.63799500  0.46505000  1
  O  O51  1  0.63799500  0.74356600  0.96505000  1
  O  O52  1  0.25898800  0.76116300  0.32104800  1
  O  O53  1  0.76116300  0.25898800  0.82104800  1
  O  O54  1  0.12625000  0.51688300  0.38108700  1
  O  O55  1  0.51688300  0.12625000  0.88108700  1
  O  O56  1  0.35097200  0.47369500  0.28326400  1
  O  O57  1  0.47369500  0.35097200  0.78326400  1
  O  O58  1  0.33413700  0.74774400  0.47770100  1
  O  O59  1  0.74774400  0.33413700  0.97770100  1
  O  O60  1  0.09348600  0.61026100  0.53797400  1
  O  O61  1  0.61026100  0.09348600  0.03797400  1
  O  O62  1  0.37137500  0.55242800  0.58320600  1
  O  O63  1  0.55242800  0.37137500  0.08320600  1
  O  O64  1  0.02466600  0.03080700  0.54569000  1
  O  O65  1  0.03080700  0.02466600  0.04569000  1
  O  O66  1  0.74672300  0.93841300  0.55188600  1
  O  O67  1  0.93841300  0.74672300  0.05188600  1
  O  O68  1  0.78033400  0.12216500  0.63179800  1
  O  O69  1  0.12216500  0.78033400  0.13179800  1
  O  O70  1  0.79737600  0.24497600  0.43207300  1
  O  O71  1  0.24497600  0.79737600  0.93207300  1
  O  O72  1  0.61705900  0.04829500  0.41241300  1
  O  O73  1  0.04829500  0.61705900  0.91241300  1
  O  O74  1  0.47730300  0.32623400  0.45238500  1
  O  O75  1  0.32623400  0.47730300  0.95238500  1
  O  O76  1  0.91884500  0.10023800  0.29343300  1
  O  O77  1  0.10023800  0.91884500  0.79343300  1
  O  O78  1  0.85376900  0.80844400  0.30569800  1
  O  O79  1  0.80844400  0.85376900  0.80569800  1
  O  O80  1  0.77233900  0.02414300  0.20921700  1
  O  O81  1  0.02414300  0.77233900  0.70921700  1
  O  O82  1  0.81191200  0.50037800  0.23140600  1
  O  O83  1  0.50037800  0.81191200  0.73140600  1
  O  O84  1  0.36164700  0.10255300  0.21103400  1
  O  O85  1  0.10255300  0.36164700  0.71103400  1
