# generated using pymatgen
data_RbAsOF5
_symmetry_space_group_name_H-M   'P 1'
_cell_length_a   9.64446400
_cell_length_b   9.90950100
_cell_length_c   11.75139100
_cell_angle_alpha   90.00000000
_cell_angle_beta   90.00000000
_cell_angle_gamma   90.00000000
_symmetry_Int_Tables_number   1
_chemical_formula_structural   RbAsOF5
_chemical_formula_sum   'Rb8 As8 O8 F40'
_cell_volume   1123.10189183
_cell_formula_units_Z   8
loop_
 _symmetry_equiv_pos_site_id
 _symmetry_equiv_pos_as_xyz
  1  'x, y, z'
loop_
 _atom_site_type_symbol
 _atom_site_label
 _atom_site_symmetry_multiplicity
 _atom_site_fract_x
 _atom_site_fract_y
 _atom_site_fract_z
 _atom_site_occupancy
  Rb  Rb0  1  0.73128400  0.49858100  0.16535800  1
  Rb  Rb1  1  0.76871600  0.00141900  0.66535800  1
  Rb  Rb2  1  0.26871600  0.99858100  0.83464200  1
  Rb  Rb3  1  0.23128400  0.50141900  0.33464200  1
  Rb  Rb4  1  0.26871600  0.50141900  0.83464200  1
  Rb  Rb5  1  0.23128400  0.99858100  0.33464200  1
  Rb  Rb6  1  0.73128400  0.00141900  0.16535800  1
  Rb  Rb7  1  0.76871600  0.49858100  0.66535800  1
  As  As8  1  0.56364000  0.75000000  0.40242100  1
  As  As9  1  0.93636000  0.75000000  0.90242100  1
  As  As10  1  0.43636000  0.25000000  0.59757900  1
  As  As11  1  0.06364000  0.25000000  0.09757900  1
  As  As12  1  0.90663100  0.75000000  0.39903700  1
  As  As13  1  0.59336900  0.75000000  0.89903700  1
  As  As14  1  0.09336900  0.25000000  0.60096300  1
  As  As15  1  0.40663100  0.25000000  0.10096300  1
  O  O16  1  0.73411000  0.75000000  0.33852700  1
  O  O17  1  0.76589000  0.75000000  0.83852700  1
  O  O18  1  0.26589000  0.25000000  0.66147300  1
  O  O19  1  0.23411000  0.25000000  0.16147300  1
  O  O20  1  0.25000300  0.75000000  0.15423800  1
  O  O21  1  0.24999700  0.75000000  0.65423800  1
  O  O22  1  0.74999700  0.25000000  0.84576200  1
  O  O23  1  0.75000300  0.25000000  0.34576200  1
  F  F24  1  0.38670500  0.75000000  0.44972700  1
  F  F25  1  0.11329500  0.75000000  0.94972700  1
  F  F26  1  0.61329500  0.25000000  0.55027300  1
  F  F27  1  0.88670500  0.25000000  0.05027300  1
  F  F28  1  0.85714300  0.75000000  0.54558600  1
  F  F29  1  0.64285700  0.75000000  0.04558600  1
  F  F30  1  0.14285700  0.25000000  0.45441400  1
  F  F31  1  0.35714300  0.25000000  0.95441400  1
  F  F32  1  0.51342500  0.62201200  0.30188200  1
  F  F33  1  0.98657500  0.87798800  0.80188200  1
  F  F34  1  0.48657500  0.12201200  0.69811800  1
  F  F35  1  0.01342500  0.37798800  0.19811800  1
  F  F36  1  0.48657500  0.37798800  0.69811800  1
  F  F37  1  0.01342500  0.12201200  0.19811800  1
  F  F38  1  0.51342500  0.87798800  0.30188200  1
  F  F39  1  0.98657500  0.62201200  0.80188200  1
  F  F40  1  0.60081100  0.62189900  0.50342200  1
  F  F41  1  0.89918900  0.87810100  0.00342200  1
  F  F42  1  0.39918900  0.12189900  0.49657800  1
  F  F43  1  0.10081100  0.37810100  0.99657800  1
  F  F44  1  0.39918900  0.37810100  0.49657800  1
  F  F45  1  0.10081100  0.12189900  0.99657800  1
  F  F46  1  0.60081100  0.87810100  0.50342200  1
  F  F47  1  0.89918900  0.62189900  0.00342200  1
  F  F48  1  0.91107400  0.56938900  0.40124300  1
  F  F49  1  0.58892600  0.93061100  0.90124300  1
  F  F50  1  0.08892600  0.06938900  0.59875700  1
  F  F51  1  0.41107400  0.43061100  0.09875700  1
  F  F52  1  0.08892600  0.43061100  0.59875700  1
  F  F53  1  0.41107400  0.06938900  0.09875700  1
  F  F54  1  0.91107400  0.93061100  0.40124300  1
  F  F55  1  0.58892600  0.56938900  0.90124300  1
  F  F56  1  0.96981900  0.75000000  0.25582100  1
  F  F57  1  0.53018100  0.75000000  0.75582100  1
  F  F58  1  0.03018100  0.25000000  0.74417900  1
  F  F59  1  0.46981900  0.25000000  0.24417900  1
  F  F60  1  0.08526200  0.75000000  0.44270900  1
  F  F61  1  0.41473800  0.75000000  0.94270900  1
  F  F62  1  0.91473800  0.25000000  0.55729100  1
  F  F63  1  0.58526200  0.25000000  0.05729100  1
