# generated using pymatgen
data_Er5B2(O2F3)3
_symmetry_space_group_name_H-M   'P 1'
_cell_length_a   10.67922802
_cell_length_b   10.67922802
_cell_length_c   8.26824874
_cell_angle_alpha   80.31176975
_cell_angle_beta   80.31176975
_cell_angle_gamma   33.10334613
_symmetry_Int_Tables_number   1
_chemical_formula_structural   Er5B2(O2F3)3
_chemical_formula_sum   'Er10 B4 O12 F18'
_cell_volume   506.99969099
_cell_formula_units_Z   2
loop_
 _symmetry_equiv_pos_site_id
 _symmetry_equiv_pos_as_xyz
  1  'x, y, z'
loop_
 _atom_site_type_symbol
 _atom_site_label
 _atom_site_symmetry_multiplicity
 _atom_site_fract_x
 _atom_site_fract_y
 _atom_site_fract_z
 _atom_site_occupancy
  Er  Er0  1  0.81419900  0.57363900  0.18022400  1
  Er  Er1  1  0.42636100  0.18580100  0.31977600  1
  Er  Er2  1  0.18580100  0.42636100  0.81977600  1
  Er  Er3  1  0.57363900  0.81419900  0.68022400  1
  Er  Er4  1  0.99909300  0.22009900  0.59374100  1
  Er  Er5  1  0.77990100  0.00090700  0.90625900  1
  Er  Er6  1  0.00090700  0.77990100  0.40625900  1
  Er  Er7  1  0.22009900  0.99909300  0.09374100  1
  Er  Er8  1  0.61185500  0.38814500  0.25000000  1
  Er  Er9  1  0.38814500  0.61185500  0.75000000  1
  B  B10  1  0.51578800  0.70682300  0.43699400  1
  B  B11  1  0.29317700  0.48421200  0.06300600  1
  B  B12  1  0.48421200  0.29317700  0.56300600  1
  B  B13  1  0.70682300  0.51578800  0.93699400  1
  O  O14  1  0.35219900  0.83046500  0.56510200  1
  O  O15  1  0.16953500  0.64780100  0.93489800  1
  O  O16  1  0.64780100  0.16953500  0.43489800  1
  O  O17  1  0.83046500  0.35219900  0.06510200  1
  O  O18  1  0.72020700  0.59760800  0.46072300  1
  O  O19  1  0.40239200  0.27979300  0.03927700  1
  O  O20  1  0.27979300  0.40239200  0.53927700  1
  O  O21  1  0.59760800  0.72020700  0.96072300  1
  O  O22  1  0.69600300  0.48936200  0.78372600  1
  O  O23  1  0.51063800  0.30399700  0.71627400  1
  O  O24  1  0.30399700  0.51063800  0.21627400  1
  O  O25  1  0.48936200  0.69600300  0.28372600  1
  F  F26  1  0.13555900  0.28593900  0.01970200  1
  F  F27  1  0.71406100  0.86444100  0.48029800  1
  F  F28  1  0.86444100  0.71406100  0.98029800  1
  F  F29  1  0.28593900  0.13555900  0.51970200  1
  F  F30  1  0.20626000  0.05696700  0.81437000  1
  F  F31  1  0.94303300  0.79374000  0.68563000  1
  F  F32  1  0.79374000  0.94303300  0.18563000  1
  F  F33  1  0.05696700  0.20626000  0.31437000  1
  F  F34  1  0.98572100  0.01427900  0.25000000  1
  F  F35  1  0.01427900  0.98572100  0.75000000  1
  F  F36  1  0.50453200  0.94569900  0.21469300  1
  F  F37  1  0.05430100  0.49546800  0.28530700  1
  F  F38  1  0.49546800  0.05430100  0.78530700  1
  F  F39  1  0.94569900  0.50453200  0.71469300  1
  F  F40  1  0.71579400  0.34682600  0.51320300  1
  F  F41  1  0.65317400  0.28420600  0.98679700  1
  F  F42  1  0.28420600  0.65317400  0.48679700  1
  F  F43  1  0.34682600  0.71579400  0.01320300  1
