# generated using pymatgen
data_K9CuS8(NO9)2
_symmetry_space_group_name_H-M   'P 1'
_cell_length_a   12.22574550
_cell_length_b   12.22574550
_cell_length_c   12.22574550
_cell_angle_alpha   114.30144123
_cell_angle_beta   114.30144123
_cell_angle_gamma   100.19072585
_symmetry_Int_Tables_number   1
_chemical_formula_structural   K9CuS8(NO9)2
_chemical_formula_sum   'K18 Cu2 S16 N4 O36'
_cell_volume   1379.68389316
_cell_formula_units_Z   2
loop_
 _symmetry_equiv_pos_site_id
 _symmetry_equiv_pos_as_xyz
  1  'x, y, z'
loop_
 _atom_site_type_symbol
 _atom_site_label
 _atom_site_symmetry_multiplicity
 _atom_site_fract_x
 _atom_site_fract_y
 _atom_site_fract_z
 _atom_site_occupancy
  K  K0  1  0.25000000  0.75000000  0.50000000  1
  K  K1  1  0.50000000  0.50000000  0.00000000  1
  K  K2  1  0.00699900  0.50699900  0.50000000  1
  K  K3  1  0.74300100  0.74300100  0.00000000  1
  K  K4  1  0.49300100  0.99300100  0.50000000  1
  K  K5  1  0.25699900  0.25699900  0.00000000  1
  K  K6  1  0.91264800  0.62500000  0.78764800  1
  K  K7  1  0.83735200  0.12500000  0.21235200  1
  K  K8  1  0.87500000  0.08735200  0.71235200  1
  K  K9  1  0.37500000  0.16264800  0.28764800  1
  K  K10  1  0.00351700  0.94628300  0.45045400  1
  K  K11  1  0.25417100  0.30371700  0.55723400  1
  K  K12  1  0.49582900  0.55306300  0.54954600  1
  K  K13  1  0.74648300  0.69693700  0.44276600  1
  K  K14  1  0.44693700  0.99648300  0.94276600  1
  K  K15  1  0.69628300  0.25351700  0.95045400  1
  K  K16  1  0.05371700  0.50417100  0.05723400  1
  K  K17  1  0.30306300  0.74582900  0.04954600  1
  Cu  Cu18  1  0.75000000  0.25000000  0.50000000  1
  Cu  Cu19  1  0.00000000  0.00000000  0.00000000  1
  S  S20  1  0.96050800  0.25480000  0.55544000  1
  S  S21  1  0.05064000  0.99520000  0.20570800  1
  S  S22  1  0.69936000  0.40506800  0.44456000  1
  S  S23  1  0.78949200  0.84493200  0.79429200  1
  S  S24  1  0.59493200  0.03949200  0.29429200  1
  S  S25  1  0.00480000  0.21050800  0.05544000  1
  S  S26  1  0.74520000  0.30064000  0.70570800  1
  S  S27  1  0.15506800  0.94936000  0.94456000  1
  S  S28  1  0.10093100  0.38721500  0.76960500  1
  S  S29  1  0.13239000  0.86278500  0.21371600  1
  S  S30  1  0.61761000  0.33132600  0.23039500  1
  S  S31  1  0.64906900  0.91867400  0.78628400  1
  S  S32  1  0.66867400  0.89906900  0.28628400  1
  S  S33  1  0.13721500  0.35093100  0.26960500  1
  S  S34  1  0.61278500  0.38239000  0.71371600  1
  S  S35  1  0.08132600  0.86761000  0.73039500  1
  N  N36  1  0.36135600  0.12500000  0.73635600  1
  N  N37  1  0.38864400  0.62500000  0.26364400  1
  N  N38  1  0.37500000  0.63864400  0.76364400  1
  N  N39  1  0.87500000  0.61135600  0.23635600  1
  O  O40  1  0.40474400  0.20132700  0.86786300  1
  O  O41  1  0.41653600  0.04867300  0.70341700  1
  O  O42  1  0.33346400  0.53688000  0.13213700  1
  O  O43  1  0.34525600  0.71312000  0.29658300  1
  O  O44  1  0.46312000  0.59525600  0.79658300  1
  O  O45  1  0.95132700  0.65474400  0.36786300  1
  O  O46  1  0.79867300  0.66653600  0.20341700  1
  O  O47  1  0.28688000  0.58346400  0.63213700  1
  O  O48  1  0.26682100  0.12500000  0.64182100  1
  O  O49  1  0.48317900  0.62500000  0.35817900  1
  O  O50  1  0.37500000  0.73317900  0.85817900  1
  O  O51  1  0.87500000  0.51682100  0.14182100  1
  O  O52  1  0.08183100  0.51142800  0.81531000  1
  O  O53  1  0.05388200  0.73857200  0.07040300  1
  O  O54  1  0.69611800  0.26652100  0.18469000  1
  O  O55  1  0.66816900  0.98347900  0.92959700  1
  O  O56  1  0.73347900  0.91816900  0.42959700  1
  O  O57  1  0.26142800  0.33183100  0.31531000  1
  O  O58  1  0.48857200  0.30388200  0.57040300  1
  O  O59  1  0.01652100  0.94611800  0.68469000  1
  O  O60  1  0.23327500  0.41131000  0.79095700  1
  O  O61  1  0.12964700  0.83869000  0.32196500  1
  O  O62  1  0.62035300  0.44231700  0.20904300  1
  O  O63  1  0.51672500  0.80768300  0.67803500  1
  O  O64  1  0.55768300  0.76672500  0.17803500  1
  O  O65  1  0.16131000  0.48327500  0.29095700  1
  O  O66  1  0.58869000  0.37964700  0.82196500  1
  O  O67  1  0.19231700  0.87035300  0.70904300  1
  O  O68  1  0.07916400  0.32505100  0.84520700  1
  O  O69  1  0.27015600  0.92494900  0.25411300  1
  O  O70  1  0.47984400  0.23395800  0.15479300  1
  O  O71  1  0.67083600  0.01604200  0.74588700  1
  O  O72  1  0.76604200  0.92083600  0.24588700  1
  O  O73  1  0.07505100  0.32916400  0.34520700  1
  O  O74  1  0.67494900  0.52015600  0.75411300  1
  O  O75  1  0.98395800  0.72984400  0.65479300  1
