# generated using pymatgen
data_Mg14AlSiO16
_symmetry_space_group_name_H-M   'P 1'
_cell_length_a   4.21541200
_cell_length_b   8.46354700
_cell_length_c   8.90968300
_cell_angle_alpha   90.00000000
_cell_angle_beta   90.00000000
_cell_angle_gamma   90.00000000
_symmetry_Int_Tables_number   1
_chemical_formula_structural   Mg14AlSiO16
_chemical_formula_sum   'Mg14 Al1 Si1 O16'
_cell_volume   317.87376818
_cell_formula_units_Z   1
loop_
 _symmetry_equiv_pos_site_id
 _symmetry_equiv_pos_as_xyz
  1  'x, y, z'
loop_
 _atom_site_type_symbol
 _atom_site_label
 _atom_site_symmetry_multiplicity
 _atom_site_fract_x
 _atom_site_fract_y
 _atom_site_fract_z
 _atom_site_occupancy
  Mg  Mg0  1  0.00000000  0.50000000  0.00000000  1
  Mg  Mg1  1  0.00000000  0.50000000  0.50000000  1
  Mg  Mg2  1  0.50000000  0.00000000  0.24929900  1
  Mg  Mg3  1  0.50000000  0.00000000  0.75070100  1
  Mg  Mg4  1  0.50000000  0.50000000  0.25038400  1
  Mg  Mg5  1  0.50000000  0.50000000  0.74961600  1
  Mg  Mg6  1  0.50000000  0.25035000  0.00000000  1
  Mg  Mg7  1  0.50000000  0.25212800  0.50000000  1
  Mg  Mg8  1  0.50000000  0.74965000  0.00000000  1
  Mg  Mg9  1  0.50000000  0.74787200  0.50000000  1
  Mg  Mg10  1  0.00000000  0.24661200  0.25104800  1
  Mg  Mg11  1  0.00000000  0.24661200  0.74895200  1
  Mg  Mg12  1  0.00000000  0.75338800  0.25104800  1
  Mg  Mg13  1  0.00000000  0.75338800  0.74895200  1
  Al  Al14  1  0.00000000  0.00000000  0.00000000  1
  Si  Si15  1  0.00000000  0.00000000  0.50000000  1
  O  O16  1  0.00000000  0.24380800  0.00000000  1
  O  O17  1  0.00000000  0.26268700  0.50000000  1
  O  O18  1  0.00000000  0.75619200  0.00000000  1
  O  O19  1  0.00000000  0.73731300  0.50000000  1
  O  O20  1  0.50000000  0.24890800  0.25106800  1
  O  O21  1  0.50000000  0.24890800  0.74893200  1
  O  O22  1  0.50000000  0.75109200  0.25106800  1
  O  O23  1  0.50000000  0.75109200  0.74893200  1
  O  O24  1  0.50000000  0.00000000  0.00000000  1
  O  O25  1  0.50000000  0.00000000  0.50000000  1
  O  O26  1  0.50000000  0.50000000  0.00000000  1
  O  O27  1  0.50000000  0.50000000  0.50000000  1
  O  O28  1  0.00000000  0.00000000  0.19895200  1
  O  O29  1  0.00000000  0.00000000  0.80104800  1
  O  O30  1  0.00000000  0.50000000  0.24465300  1
  O  O31  1  0.00000000  0.50000000  0.75534700  1
