# generated using pymatgen
data_CoH4S(NO2)2
_symmetry_space_group_name_H-M   'P 1'
_cell_length_a   6.57037100
_cell_length_b   7.71393700
_cell_length_c   8.96912400
_cell_angle_alpha   90.00000000
_cell_angle_beta   90.00000000
_cell_angle_gamma   90.00000000
_symmetry_Int_Tables_number   1
_chemical_formula_structural   CoH4S(NO2)2
_chemical_formula_sum   'Co4 H16 S4 N8 O16'
_cell_volume   454.58595012
_cell_formula_units_Z   4
loop_
 _symmetry_equiv_pos_site_id
 _symmetry_equiv_pos_as_xyz
  1  'x, y, z'
loop_
 _atom_site_type_symbol
 _atom_site_label
 _atom_site_symmetry_multiplicity
 _atom_site_fract_x
 _atom_site_fract_y
 _atom_site_fract_z
 _atom_site_occupancy
  Co  Co0  1  0.00000000  0.50000000  0.50000000  1
  Co  Co1  1  0.50000000  0.00000000  0.50000000  1
  Co  Co2  1  0.50000000  0.50000000  0.00000000  1
  Co  Co3  1  0.00000000  0.00000000  0.00000000  1
  H  H4  1  0.30325300  0.38065500  0.67395400  1
  H  H5  1  0.19674700  0.11934500  0.67395400  1
  H  H6  1  0.80325300  0.61934500  0.82604600  1
  H  H7  1  0.69674700  0.88065500  0.82604600  1
  H  H8  1  0.69674700  0.61934500  0.32604600  1
  H  H9  1  0.80325300  0.88065500  0.32604600  1
  H  H10  1  0.19674700  0.38065500  0.17395400  1
  H  H11  1  0.30325300  0.11934500  0.17395400  1
  H  H12  1  0.37294300  0.37448700  0.49788800  1
  H  H13  1  0.12705700  0.12551300  0.49788800  1
  H  H14  1  0.87294300  0.62551300  0.00211200  1
  H  H15  1  0.62705700  0.87448700  0.00211200  1
  H  H16  1  0.62705700  0.62551300  0.50211200  1
  H  H17  1  0.87294300  0.87448700  0.50211200  1
  H  H18  1  0.12705700  0.37448700  0.99788800  1
  H  H19  1  0.37294300  0.12551300  0.99788800  1
  S  S20  1  0.75000000  0.25000000  0.75768000  1
  S  S21  1  0.25000000  0.75000000  0.74232000  1
  S  S22  1  0.25000000  0.75000000  0.24232000  1
  S  S23  1  0.75000000  0.25000000  0.25768000  1
  N  N24  1  0.25586000  0.34458700  0.56933800  1
  N  N25  1  0.24414000  0.15541300  0.56933800  1
  N  N26  1  0.75586000  0.65541300  0.93066200  1
  N  N27  1  0.74414000  0.84458700  0.93066200  1
  N  N28  1  0.74414000  0.65541300  0.43066200  1
  N  N29  1  0.75586000  0.84458700  0.43066200  1
  N  N30  1  0.24414000  0.34458700  0.06933800  1
  N  N31  1  0.25586000  0.15541300  0.06933800  1
  O  O32  1  0.93085700  0.20835100  0.85242400  1
  O  O33  1  0.56914300  0.29164900  0.85242400  1
  O  O34  1  0.43085700  0.79164900  0.64757600  1
  O  O35  1  0.06914300  0.70835100  0.64757600  1
  O  O36  1  0.06914300  0.79164900  0.14757600  1
  O  O37  1  0.43085700  0.70835100  0.14757600  1
  O  O38  1  0.56914300  0.20835100  0.35242400  1
  O  O39  1  0.93085700  0.29164900  0.35242400  1
  O  O40  1  0.79743100  0.40425200  0.66430000  1
  O  O41  1  0.70256900  0.09574800  0.66430000  1
  O  O42  1  0.29743100  0.59574800  0.83570000  1
  O  O43  1  0.20256900  0.90425200  0.83570000  1
  O  O44  1  0.20256900  0.59574800  0.33570000  1
  O  O45  1  0.29743100  0.90425200  0.33570000  1
  O  O46  1  0.70256900  0.40425200  0.16430000  1
  O  O47  1  0.79743100  0.09574800  0.16430000  1
