# generated using pymatgen
data_MgH11C2NO10
_symmetry_space_group_name_H-M   'P 1'
_cell_length_a   5.78334893
_cell_length_b   7.45135100
_cell_length_c   23.29289616
_cell_angle_alpha   90.00000000
_cell_angle_beta   93.05045945
_cell_angle_gamma   90.00000000
_symmetry_Int_Tables_number   1
_chemical_formula_structural   MgH11C2NO10
_chemical_formula_sum   'Mg4 H44 C8 N4 O40'
_cell_volume   1002.35624482
_cell_formula_units_Z   4
loop_
 _symmetry_equiv_pos_site_id
 _symmetry_equiv_pos_as_xyz
  1  'x, y, z'
loop_
 _atom_site_type_symbol
 _atom_site_label
 _atom_site_symmetry_multiplicity
 _atom_site_fract_x
 _atom_site_fract_y
 _atom_site_fract_z
 _atom_site_occupancy
  Mg  Mg0  1  0.46890800  0.66306400  0.37347100  1
  Mg  Mg1  1  0.96890800  0.83693600  0.87347100  1
  Mg  Mg2  1  0.53109200  0.33693600  0.62652900  1
  Mg  Mg3  1  0.03109200  0.16306400  0.12652900  1
  H  H4  1  0.00380200  0.67060600  0.37557000  1
  H  H5  1  0.50380200  0.82939400  0.87557000  1
  H  H6  1  0.99619800  0.32939400  0.62443000  1
  H  H7  1  0.49619800  0.17060600  0.12443000  1
  H  H8  1  0.10337500  0.69396800  0.44087400  1
  H  H9  1  0.60337500  0.80603200  0.94087400  1
  H  H10  1  0.89662500  0.30603200  0.55912600  1
  H  H11  1  0.39662500  0.19396800  0.05912600  1
  H  H12  1  0.69296100  0.66587600  0.48266000  1
  H  H13  1  0.19296100  0.83412400  0.98266000  1
  H  H14  1  0.30703900  0.33412400  0.51734000  1
  H  H15  1  0.80703900  0.16587600  0.01734000  1
  H  H16  1  0.69953300  0.46876800  0.45662400  1
  H  H17  1  0.19953300  0.03123200  0.95662400  1
  H  H18  1  0.30046700  0.53123200  0.54337600  1
  H  H19  1  0.80046700  0.96876800  0.04337600  1
  H  H20  1  0.51338000  0.32267900  0.32277800  1
  H  H21  1  0.01338000  0.17732100  0.82277800  1
  H  H22  1  0.48662000  0.67732100  0.67722200  1
  H  H23  1  0.98662000  0.82267900  0.17722200  1
  H  H24  1  0.36285200  0.30624200  0.37883400  1
  H  H25  1  0.86285200  0.19375800  0.87883400  1
  H  H26  1  0.63714800  0.69375800  0.62116600  1
  H  H27  1  0.13714800  0.80624200  0.12116600  1
  H  H28  1  0.39599400  0.00235200  0.41953600  1
  H  H29  1  0.89599400  0.49764800  0.91953600  1
  H  H30  1  0.60400600  0.99764800  0.58046400  1
  H  H31  1  0.10400600  0.50235200  0.08046400  1
  H  H32  1  0.65733800  0.99607700  0.40231300  1
  H  H33  1  0.15733800  0.50392300  0.90231300  1
  H  H34  1  0.34266200  0.00392300  0.59768700  1
  H  H35  1  0.84266200  0.49607700  0.09768700  1
  H  H36  1  0.18268600  0.72696400  0.27244100  1
  H  H37  1  0.68268600  0.77303600  0.77244100  1
  H  H38  1  0.81731400  0.27303600  0.72755900  1
  H  H39  1  0.31731400  0.22696400  0.22755900  1
  H  H40  1  0.50069500  0.86978800  0.22553200  1
  H  H41  1  0.00069500  0.63021200  0.72553200  1
  H  H42  1  0.49930500  0.13021200  0.77446800  1
  H  H43  1  0.99930500  0.36978800  0.27446800  1
  H  H44  1  0.49252200  0.63356000  0.21374900  1
  H  H45  1  0.99252200  0.86644000  0.71374900  1
  H  H46  1  0.50747800  0.36644000  0.78625100  1
  H  H47  1  0.00747800  0.13356000  0.28625100  1
  C  C48  1  0.51390300  0.73831800  0.24715400  1
  C  C49  1  0.01390300  0.76168200  0.74715400  1
  C  C50  1  0.48609700  0.26168200  0.75284600  1
  C  C51  1  0.98609700  0.23831800  0.25284600  1
  C  C52  1  0.75592800  0.71998600  0.27540300  1
  C  C53  1  0.25592800  0.78001400  0.77540300  1
  C  C54  1  0.24407200  0.28001400  0.72459700  1
  C  C55  1  0.74407200  0.21998600  0.22459700  1
  N  N56  1  0.00858000  0.18146700  0.44667200  1
  N  N57  1  0.50858000  0.31853300  0.94667200  1
  N  N58  1  0.99142000  0.81853300  0.55332800  1
  N  N59  1  0.49142000  0.68146700  0.05332800  1
  O  O60  1  0.77247100  0.68186500  0.32901000  1
  O  O61  1  0.27247100  0.81813500  0.82901000  1
  O  O62  1  0.22752900  0.31813500  0.67099000  1
  O  O63  1  0.72752900  0.18186500  0.17099000  1
  O  O64  1  0.14290500  0.65502700  0.40242300  1
  O  O65  1  0.64290500  0.84497300  0.90242300  1
  O  O66  1  0.85709500  0.34497300  0.59757700  1
  O  O67  1  0.35709500  0.15502700  0.09757700  1
  O  O68  1  0.34758500  0.72087500  0.28966100  1
  O  O69  1  0.84758500  0.77912500  0.78966100  1
  O  O70  1  0.65241500  0.27912500  0.71033900  1
  O  O71  1  0.15241500  0.22087500  0.21033900  1
  O  O72  1  0.64023500  0.59040100  0.44946000  1
  O  O73  1  0.14023500  0.90959900  0.94946000  1
  O  O74  1  0.35976500  0.40959900  0.55054000  1
  O  O75  1  0.85976500  0.09040100  0.05054000  1
  O  O76  1  0.45219600  0.38792200  0.35594900  1
  O  O77  1  0.95219600  0.11207800  0.85594900  1
  O  O78  1  0.54780400  0.61207800  0.64405100  1
  O  O79  1  0.04780400  0.88792200  0.14405100  1
  O  O80  1  0.50818400  0.93019900  0.39940900  1
  O  O81  1  0.00818400  0.56980100  0.89940900  1
  O  O82  1  0.49181600  0.06980100  0.60059100  1
  O  O83  1  0.99181600  0.43019900  0.10059100  1
  O  O84  1  0.22803700  0.19901400  0.45657400  1
  O  O85  1  0.72803700  0.30098600  0.95657400  1
  O  O86  1  0.77196300  0.80098600  0.54342600  1
  O  O87  1  0.27196300  0.69901400  0.04342600  1
  O  O88  1  0.86962700  0.25254000  0.48033200  1
  O  O89  1  0.36962700  0.24746000  0.98033200  1
  O  O90  1  0.13037300  0.74746000  0.51966800  1
  O  O91  1  0.63037300  0.75254000  0.01966800  1
  O  O92  1  0.93557800  0.09308600  0.40331300  1
  O  O93  1  0.43557800  0.40691400  0.90331300  1
  O  O94  1  0.06442200  0.90691400  0.59668700  1
  O  O95  1  0.56442200  0.59308600  0.09668700  1
  O  O96  1  0.92750300  0.74147500  0.24432700  1
  O  O97  1  0.42750300  0.75852500  0.74432700  1
  O  O98  1  0.07249700  0.25852500  0.75567300  1
  O  O99  1  0.57249700  0.24147500  0.25567300  1
