# generated using pymatgen
data_KB5(H2O5)2
_symmetry_space_group_name_H-M   'P 1'
_cell_length_a   7.64535900
_cell_length_b   9.50434000
_cell_length_c   11.56756597
_cell_angle_alpha   82.81783512
_cell_angle_beta   90.00000000
_cell_angle_gamma   90.00000000
_symmetry_Int_Tables_number   1
_chemical_formula_structural   KB5(H2O5)2
_chemical_formula_sum   'K4 B20 H16 O40'
_cell_volume   833.95146169
_cell_formula_units_Z   4
loop_
 _symmetry_equiv_pos_site_id
 _symmetry_equiv_pos_as_xyz
  1  'x, y, z'
loop_
 _atom_site_type_symbol
 _atom_site_label
 _atom_site_symmetry_multiplicity
 _atom_site_fract_x
 _atom_site_fract_y
 _atom_site_fract_z
 _atom_site_occupancy
  K  K0  1  0.57148300  0.82591400  0.23092200  1
  K  K1  1  0.07148300  0.17408600  0.26907800  1
  K  K2  1  0.42851700  0.17408600  0.76907800  1
  K  K3  1  0.92851700  0.82591400  0.73092200  1
  B  B4  1  0.38719800  0.67397400  0.94455500  1
  B  B5  1  0.88719800  0.32602600  0.55544500  1
  B  B6  1  0.61280200  0.32602600  0.05544500  1
  B  B7  1  0.11280200  0.67397400  0.44455500  1
  B  B8  1  0.59233800  0.86803700  0.92340400  1
  B  B9  1  0.09233800  0.13196300  0.57659600  1
  B  B10  1  0.40766200  0.13196300  0.07659600  1
  B  B11  1  0.90766200  0.86803700  0.42340400  1
  B  B12  1  0.45004900  0.79825900  0.74364700  1
  B  B13  1  0.95004900  0.20174100  0.75635300  1
  B  B14  1  0.54995100  0.20174100  0.25635300  1
  B  B15  1  0.04995100  0.79825900  0.24364700  1
  B  B16  1  0.30869800  0.93407800  0.56915100  1
  B  B17  1  0.80869800  0.06592200  0.93084900  1
  B  B18  1  0.69130200  0.06592200  0.43084900  1
  B  B19  1  0.19130200  0.93407800  0.06915100  1
  B  B20  1  0.51867000  0.75365900  0.53925800  1
  B  B21  1  0.01867000  0.24634100  0.96074200  1
  B  B22  1  0.48133000  0.24634100  0.46074200  1
  B  B23  1  0.98133000  0.75365900  0.03925800  1
  H  H24  1  0.34017600  0.56204900  0.09856100  1
  H  H25  1  0.84017600  0.43795100  0.40143900  1
  H  H26  1  0.65982400  0.43795100  0.90143900  1
  H  H27  1  0.15982400  0.56204900  0.59856100  1
  H  H28  1  0.67076700  0.59839100  0.48777300  1
  H  H29  1  0.17076700  0.40160900  0.01222700  1
  H  H30  1  0.32923300  0.40160900  0.51222700  1
  H  H31  1  0.82923300  0.59839100  0.98777300  1
  H  H32  1  0.80354800  0.40272400  0.22497900  1
  H  H33  1  0.30354800  0.59727600  0.27502100  1
  H  H34  1  0.19645200  0.59727600  0.77502100  1
  H  H35  1  0.69645200  0.40272400  0.72497900  1
  H  H36  1  0.93262000  0.53324600  0.22891300  1
  H  H37  1  0.43262000  0.46675400  0.27108700  1
  H  H38  1  0.06738000  0.46675400  0.77108700  1
  H  H39  1  0.56738000  0.53324600  0.72891300  1
  O  O40  1  0.36096500  0.69030800  0.82669400  1
  O  O41  1  0.86096500  0.30969200  0.67330600  1
  O  O42  1  0.63903500  0.30969200  0.17330600  1
  O  O43  1  0.13903500  0.69030800  0.32669400  1
  O  O44  1  0.30353400  0.56716500  0.01361800  1
  O  O45  1  0.80353400  0.43283500  0.48638200  1
  O  O46  1  0.69646600  0.43283500  0.98638200  1
  O  O47  1  0.19646600  0.56716500  0.51361800  1
  O  O48  1  0.49980400  0.76563700  0.99560700  1
  O  O49  1  0.99980400  0.23436300  0.50439300  1
  O  O50  1  0.50019600  0.23436300  0.00439300  1
  O  O51  1  0.00019600  0.76563700  0.49560700  1
  O  O52  1  0.57651100  0.88027700  0.80561300  1
  O  O53  1  0.07651100  0.11972300  0.69438700  1
  O  O54  1  0.42348900  0.11972300  0.19438700  1
  O  O55  1  0.92348900  0.88027700  0.30561300  1
  O  O56  1  0.31929600  0.89793800  0.68634800  1
  O  O57  1  0.81929600  0.10206200  0.81365200  1
  O  O58  1  0.68070400  0.10206200  0.31365200  1
  O  O59  1  0.18070400  0.89793800  0.18634800  1
  O  O60  1  0.19793100  0.04217400  0.52012000  1
  O  O61  1  0.69793100  0.95782600  0.97988000  1
  O  O62  1  0.80206900  0.95782600  0.47988000  1
  O  O63  1  0.30206900  0.04217400  0.02012000  1
  O  O64  1  0.40559000  0.86279900  0.49275800  1
  O  O65  1  0.90559000  0.13720100  0.00724200  1
  O  O66  1  0.59441000  0.13720100  0.50724200  1
  O  O67  1  0.09441000  0.86279900  0.99275800  1
  O  O68  1  0.60134300  0.68325000  0.45837000  1
  O  O69  1  0.10134300  0.31675000  0.04163000  1
  O  O70  1  0.39865700  0.31675000  0.54163000  1
  O  O71  1  0.89865700  0.68325000  0.95837000  1
  O  O72  1  0.54491900  0.72352700  0.65701000  1
  O  O73  1  0.04491900  0.27647300  0.84299000  1
  O  O74  1  0.45508100  0.27647300  0.34299000  1
  O  O75  1  0.95508100  0.72352700  0.15701000  1
  O  O76  1  0.90222500  0.43874700  0.26942100  1
  O  O77  1  0.40222500  0.56125300  0.23057900  1
  O  O78  1  0.09777500  0.56125300  0.73057900  1
  O  O79  1  0.59777500  0.43874700  0.76942100  1
