# generated using pymatgen
data_InTe14(IrBr8)2
_symmetry_space_group_name_H-M   'P 1'
_cell_length_a   11.49612400
_cell_length_b   13.26466033
_cell_length_c   17.86194699
_cell_angle_alpha   78.68473964
_cell_angle_beta   85.40046641
_cell_angle_gamma   66.02109748
_symmetry_Int_Tables_number   1
_chemical_formula_structural   InTe14(IrBr8)2
_chemical_formula_sum   'In2 Te28 Ir4 Br32'
_cell_volume   2440.35434650
_cell_formula_units_Z   2
loop_
 _symmetry_equiv_pos_site_id
 _symmetry_equiv_pos_as_xyz
  1  'x, y, z'
loop_
 _atom_site_type_symbol
 _atom_site_label
 _atom_site_symmetry_multiplicity
 _atom_site_fract_x
 _atom_site_fract_y
 _atom_site_fract_z
 _atom_site_occupancy
  In  In0  1  0.95367900  0.07407900  0.79004800  1
  In  In1  1  0.04632100  0.92592100  0.20995200  1
  Te  Te2  1  0.08630200  0.27165500  0.91810500  1
  Te  Te3  1  0.91369800  0.72834500  0.08189500  1
  Te  Te4  1  0.02099100  0.76697000  0.93792800  1
  Te  Te5  1  0.97900900  0.23303000  0.06207200  1
  Te  Te6  1  0.16880100  0.56920500  0.13032200  1
  Te  Te7  1  0.83119900  0.43079500  0.86967800  1
  Te  Te8  1  0.25605200  0.56732100  0.97942300  1
  Te  Te9  1  0.74394800  0.43267900  0.02057700  1
  Te  Te10  1  0.93514600  0.59129800  0.90910700  1
  Te  Te11  1  0.06485400  0.40870200  0.09089300  1
  Te  Te12  1  0.39721800  0.25550300  0.98528400  1
  Te  Te13  1  0.60278200  0.74449700  0.01471600  1
  Te  Te14  1  0.26829600  0.43396900  0.80834200  1
  Te  Te15  1  0.73170400  0.56603100  0.19165800  1
  Te  Te16  1  0.57899800  0.16224100  0.35255600  1
  Te  Te17  1  0.42100200  0.83775900  0.64744400  1
  Te  Te18  1  0.51028200  0.97631800  0.70442500  1
  Te  Te19  1  0.48971800  0.02368200  0.29557500  1
  Te  Te20  1  0.79987000  0.95791800  0.40666100  1
  Te  Te21  1  0.20013000  0.04208200  0.59333900  1
  Te  Te22  1  0.32421900  0.17758000  0.61757000  1
  Te  Te23  1  0.67578100  0.82242000  0.38243000  1
  Te  Te24  1  0.64538800  0.97210100  0.55063400  1
  Te  Te25  1  0.35461200  0.02789900  0.44936600  1
  Te  Te26  1  0.26688000  0.35879300  0.42267700  1
  Te  Te27  1  0.73312000  0.64120700  0.57732300  1
  Te  Te28  1  0.55307000  0.30179500  0.51950700  1
  Te  Te29  1  0.44693000  0.69820500  0.48049300  1
  Ir  Ir30  1  0.17094100  0.42010500  0.94824900  1
  Ir  Ir31  1  0.82905900  0.57989500  0.05175100  1
  Ir  Ir32  1  0.45259600  0.16957300  0.48524400  1
  Ir  Ir33  1  0.54740400  0.83042700  0.51475600  1
  Br  Br34  1  0.44665400  0.31705100  0.10890500  1
  Br  Br35  1  0.55334600  0.68294900  0.89109500  1
  Br  Br36  1  0.38325700  0.18376500  0.84262100  1
  Br  Br37  1  0.61674300  0.81623500  0.15737900  1
  Br  Br38  1  0.31871800  0.10470900  0.06500900  1
  Br  Br39  1  0.68128200  0.89529100  0.93499100  1
  Br  Br40  1  0.50541100  0.39959700  0.87990500  1
  Br  Br41  1  0.49458900  0.60040300  0.12009500  1
  Br  Br42  1  0.19429100  0.65424100  0.77480500  1
  Br  Br43  1  0.80570900  0.34575900  0.22519500  1
  Br  Br44  1  0.07623800  0.42873400  0.73642000  1
  Br  Br45  1  0.92376200  0.57126600  0.26358000  1
  Br  Br46  1  0.07103500  0.31990100  0.49239600  1
  Br  Br47  1  0.92896500  0.68009900  0.50760400  1
  Br  Br48  1  0.29578400  0.45647800  0.55043800  1
  Br  Br49  1  0.70421600  0.54352200  0.44956200  1
  Br  Br50  1  0.46868400  0.43386900  0.36083100  1
  Br  Br51  1  0.53131600  0.56613100  0.63916900  1
  Br  Br52  1  0.24211600  0.29497000  0.29424400  1
  Br  Br53  1  0.75788400  0.70503000  0.70575600  1
  Br  Br54  1  0.58247500  0.22430100  0.66746600  1
  Br  Br55  1  0.41752500  0.77569900  0.33253400  1
  Br  Br56  1  0.79593100  0.18333700  0.48138800  1
  Br  Br57  1  0.20406900  0.81666300  0.51861200  1
  Br  Br58  1  0.84032200  0.10851900  0.91733100  1
  Br  Br59  1  0.15967800  0.89148100  0.08266900  1
  Br  Br60  1  0.19236700  0.97731300  0.82172600  1
  Br  Br61  1  0.80763300  0.02268700  0.17827400  1
  Br  Br62  1  0.90018400  0.93694300  0.73275500  1
  Br  Br63  1  0.09981600  0.06305700  0.26724500  1
  Br  Br64  1  0.90830300  0.25730800  0.69688100  1
  Br  Br65  1  0.09169700  0.74269200  0.30311900  1
