# generated using pymatgen
data_Mg14AlCoO16
_symmetry_space_group_name_H-M   'P 1'
_cell_length_a   4.24192200
_cell_length_b   8.49829900
_cell_length_c   8.52449600
_cell_angle_alpha   90.00000000
_cell_angle_beta   90.00000000
_cell_angle_gamma   90.00000000
_symmetry_Int_Tables_number   1
_chemical_formula_structural   Mg14AlCoO16
_chemical_formula_sum   'Mg14 Al1 Co1 O16'
_cell_volume   307.30059195
_cell_formula_units_Z   1
loop_
 _symmetry_equiv_pos_site_id
 _symmetry_equiv_pos_as_xyz
  1  'x, y, z'
loop_
 _atom_site_type_symbol
 _atom_site_label
 _atom_site_symmetry_multiplicity
 _atom_site_fract_x
 _atom_site_fract_y
 _atom_site_fract_z
 _atom_site_occupancy
  Mg  Mg0  1  0.00000000  0.50000000  0.00000000  1
  Mg  Mg1  1  0.00000000  0.50000000  0.50000000  1
  Mg  Mg2  1  0.50000000  0.00000000  0.25648000  1
  Mg  Mg3  1  0.50000000  0.00000000  0.74352000  1
  Mg  Mg4  1  0.50000000  0.50000000  0.25227100  1
  Mg  Mg5  1  0.50000000  0.50000000  0.74772900  1
  Mg  Mg6  1  0.50000000  0.24941200  0.00000000  1
  Mg  Mg7  1  0.50000000  0.24591900  0.50000000  1
  Mg  Mg8  1  0.50000000  0.75058800  0.00000000  1
  Mg  Mg9  1  0.50000000  0.75408100  0.50000000  1
  Mg  Mg10  1  0.00000000  0.24740700  0.25542900  1
  Mg  Mg11  1  0.00000000  0.24740700  0.74457100  1
  Mg  Mg12  1  0.00000000  0.75259300  0.25542900  1
  Mg  Mg13  1  0.00000000  0.75259300  0.74457100  1
  Al  Al14  1  0.00000000  0.00000000  0.00000000  1
  Co  Co15  1  0.00000000  0.00000000  0.50000000  1
  O  O16  1  0.00000000  0.23545400  0.00000000  1
  O  O17  1  0.00000000  0.26071400  0.50000000  1
  O  O18  1  0.00000000  0.76454600  0.00000000  1
  O  O19  1  0.00000000  0.73928600  0.50000000  1
  O  O20  1  0.50000000  0.24888800  0.24915600  1
  O  O21  1  0.50000000  0.24888800  0.75084400  1
  O  O22  1  0.50000000  0.75111200  0.24915600  1
  O  O23  1  0.50000000  0.75111200  0.75084400  1
  O  O24  1  0.50000000  0.00000000  0.00000000  1
  O  O25  1  0.50000000  0.00000000  0.50000000  1
  O  O26  1  0.50000000  0.50000000  0.00000000  1
  O  O27  1  0.50000000  0.50000000  0.50000000  1
  O  O28  1  0.00000000  0.00000000  0.21822700  1
  O  O29  1  0.00000000  0.00000000  0.78177300  1
  O  O30  1  0.00000000  0.50000000  0.24432100  1
  O  O31  1  0.00000000  0.50000000  0.75567900  1
