# generated using pymatgen
data_Na2Cr2H4O9
_symmetry_space_group_name_H-M   'P 1'
_cell_length_a   10.94193700
_cell_length_b   6.20704400
_cell_length_c   12.96664634
_cell_angle_alpha   85.03942979
_cell_angle_beta   90.00000000
_cell_angle_gamma   90.00000000
_symmetry_Int_Tables_number   1
_chemical_formula_structural   Na2Cr2H4O9
_chemical_formula_sum   'Na8 Cr8 H16 O36'
_cell_volume   877.35826178
_cell_formula_units_Z   4
loop_
 _symmetry_equiv_pos_site_id
 _symmetry_equiv_pos_as_xyz
  1  'x, y, z'
loop_
 _atom_site_type_symbol
 _atom_site_label
 _atom_site_symmetry_multiplicity
 _atom_site_fract_x
 _atom_site_fract_y
 _atom_site_fract_z
 _atom_site_occupancy
  Na  Na0  1  0.80199600  0.32074800  0.22774100  1
  Na  Na1  1  0.30199600  0.67925200  0.77225900  1
  Na  Na2  1  0.76665700  0.88075200  0.46935000  1
  Na  Na3  1  0.26665700  0.11924800  0.53065000  1
  Na  Na4  1  0.31215300  0.34151100  0.01603500  1
  Na  Na5  1  0.81215300  0.65848900  0.98396500  1
  Na  Na6  1  0.80067400  0.03958300  0.75531000  1
  Na  Na7  1  0.30067400  0.96041700  0.24469000  1
  Cr  Cr8  1  0.61895100  0.16165100  0.98792200  1
  Cr  Cr9  1  0.11895100  0.83834900  0.01207800  1
  Cr  Cr10  1  0.61817000  0.84994300  0.19509800  1
  Cr  Cr11  1  0.11817000  0.15005700  0.80490200  1
  Cr  Cr12  1  0.61119200  0.55727100  0.66648600  1
  Cr  Cr13  1  0.11119200  0.44272900  0.33351400  1
  Cr  Cr14  1  0.56475200  0.35460200  0.45288200  1
  Cr  Cr15  1  0.06475200  0.64539800  0.54711800  1
  H  H16  1  0.96117500  0.11869600  0.56407300  1
  H  H17  1  0.46117500  0.88130400  0.43592700  1
  H  H18  1  0.85570700  0.28307600  0.57069500  1
  H  H19  1  0.35570700  0.71692400  0.42930500  1
  H  H20  1  0.92379600  0.21034800  0.03980900  1
  H  H21  1  0.42379600  0.78965200  0.96019100  1
  H  H22  1  0.00160800  0.40419800  0.07104800  1
  H  H23  1  0.50160800  0.59580200  0.92895200  1
  H  H24  1  0.98025400  0.01373100  0.32896700  1
  H  H25  1  0.48025400  0.98626900  0.67103300  1
  H  H26  1  0.89653900  0.84694800  0.28233900  1
  H  H27  1  0.39653900  0.15305200  0.71766100  1
  H  H28  1  0.47972400  0.31103900  0.20706200  1
  H  H29  1  0.97972400  0.68896100  0.79293800  1
  H  H30  1  0.35519900  0.41995900  0.22631600  1
  H  H31  1  0.85519900  0.58004100  0.77368400  1
  O  O32  1  0.64644700  0.11221100  0.12495400  1
  O  O33  1  0.14644700  0.88778900  0.87504600  1
  O  O34  1  0.64602800  0.41711600  0.95306000  1
  O  O35  1  0.14602800  0.58288400  0.04694000  1
  O  O36  1  0.70778800  0.00264200  0.92713900  1
  O  O37  1  0.20778800  0.99735800  0.07286100  1
  O  O38  1  0.47602300  0.10619100  0.96538000  1
  O  O39  1  0.97602300  0.89380900  0.03462000  1
  O  O40  1  0.71862300  0.67791300  0.15675900  1
  O  O41  1  0.21862300  0.32208700  0.84324100  1
  O  O42  1  0.63120200  0.87866000  0.31832900  1
  O  O43  1  0.13120200  0.12134000  0.68167100  1
  O  O44  1  0.47925700  0.77852100  0.16882400  1
  O  O45  1  0.97925700  0.22147900  0.83117600  1
  O  O46  1  0.62462700  0.56422600  0.52753900  1
  O  O47  1  0.12462700  0.43577400  0.47246100  1
  O  O48  1  0.71416600  0.39131500  0.71945700  1
  O  O49  1  0.21416600  0.60868500  0.28054300  1
  O  O50  1  0.47316800  0.48058900  0.70133600  1
  O  O51  1  0.97316800  0.51941100  0.29866400  1
  O  O52  1  0.63734900  0.80286500  0.69699900  1
  O  O53  1  0.13734900  0.19713500  0.30300100  1
  O  O54  1  0.59726000  0.11932600  0.51241300  1
  O  O55  1  0.09726000  0.88067400  0.48758700  1
  O  O56  1  0.62722800  0.37548000  0.33822700  1
  O  O57  1  0.12722800  0.62452000  0.66177300  1
  O  O58  1  0.41600100  0.38260200  0.44425700  1
  O  O59  1  0.91600100  0.61739800  0.55574300  1
  O  O60  1  0.87266100  0.12763600  0.57376800  1
  O  O61  1  0.37266100  0.87236400  0.42623200  1
  O  O62  1  0.91706900  0.34998400  0.06957300  1
  O  O63  1  0.41706900  0.65001600  0.93042700  1
  O  O64  1  0.89389300  0.98343900  0.31507600  1
  O  O65  1  0.39389300  0.01656100  0.68492400  1
  O  O66  1  0.39258200  0.30152200  0.19180300  1
  O  O67  1  0.89258200  0.69847800  0.80819700  1
