# generated using pymatgen
data_B9H25C4NCl
_symmetry_space_group_name_H-M   'P 1'
_cell_length_a   10.51802800
_cell_length_b   11.38422300
_cell_length_c   15.06221247
_cell_angle_alpha   90.00000000
_cell_angle_beta   95.44708138
_cell_angle_gamma   90.00000000
_symmetry_Int_Tables_number   1
_chemical_formula_structural   B9H25C4NCl
_chemical_formula_sum   'B36 H100 C16 N4 Cl4'
_cell_volume   1795.39867558
_cell_formula_units_Z   4
loop_
 _symmetry_equiv_pos_site_id
 _symmetry_equiv_pos_as_xyz
  1  'x, y, z'
loop_
 _atom_site_type_symbol
 _atom_site_label
 _atom_site_symmetry_multiplicity
 _atom_site_fract_x
 _atom_site_fract_y
 _atom_site_fract_z
 _atom_site_occupancy
  B  B0  1  0.37098700  0.28264400  0.50423400  1
  B  B1  1  0.62901300  0.78264400  0.99576600  1
  B  B2  1  0.62901300  0.71735600  0.49576600  1
  B  B3  1  0.37098700  0.21735600  0.00423400  1
  B  B4  1  0.27532700  0.28446700  0.59553000  1
  B  B5  1  0.72467300  0.78446700  0.90447000  1
  B  B6  1  0.72467300  0.71553300  0.40447000  1
  B  B7  1  0.27532700  0.21553300  0.09553000  1
  B  B8  1  0.31612000  0.14801900  0.54940300  1
  B  B9  1  0.68388000  0.64801900  0.95059700  1
  B  B10  1  0.68388000  0.85198100  0.45059700  1
  B  B11  1  0.31612000  0.35198100  0.04940300  1
  B  B12  1  0.28017100  0.32082400  0.40866600  1
  B  B13  1  0.71982900  0.82082400  0.09133400  1
  B  B14  1  0.71982900  0.67917600  0.59133400  1
  B  B15  1  0.28017100  0.17917600  0.90866600  1
  B  B16  1  0.30570400  0.16879700  0.43399200  1
  B  B17  1  0.69429600  0.66879700  0.06600800  1
  B  B18  1  0.69429600  0.83120300  0.56600800  1
  B  B19  1  0.30570400  0.33120300  0.93399200  1
  B  B20  1  0.18240800  0.07570100  0.49495100  1
  B  B21  1  0.81759200  0.57570100  0.00504900  1
  B  B22  1  0.81759200  0.92429900  0.50504900  1
  B  B23  1  0.18240800  0.42429900  0.99495100  1
  B  B24  1  0.16816900  0.16825800  0.59694600  1
  B  B25  1  0.83183100  0.66825800  0.90305400  1
  B  B26  1  0.83183100  0.83174200  0.40305400  1
  B  B27  1  0.16816900  0.33174200  0.09694600  1
  B  B28  1  0.11680500  0.32300400  0.57662900  1
  B  B29  1  0.88319500  0.82300400  0.92337100  1
  B  B30  1  0.88319500  0.67699600  0.42337100  1
  B  B31  1  0.11680500  0.17699600  0.07662900  1
  B  B32  1  0.24659000  0.38933400  0.51187700  1
  B  B33  1  0.75341000  0.88933400  0.98812300  1
  B  B34  1  0.75341000  0.61066600  0.48812300  1
  B  B35  1  0.24659000  0.11066600  0.01187700  1
  H  H36  1  0.80189600  0.09537600  0.69477800  1
  H  H37  1  0.19810400  0.59537600  0.80522200  1
  H  H38  1  0.19810400  0.90462400  0.30522200  1
  H  H39  1  0.80189600  0.40462400  0.19477800  1
  H  H40  1  0.68427700  0.17923200  0.62760300  1
  H  H41  1  0.31572300  0.67923200  0.87239700  1
  H  H42  1  0.31572300  0.82076800  0.37239700  1
  H  H43  1  0.68427700  0.32076800  0.12760300  1
  H  H44  1  0.84162000  0.23930200  0.65563500  1
  H  H45  1  0.15838000  0.73930200  0.84436500  1
  H  H46  1  0.15838000  0.76069800  0.34436500  1
  H  H47  1  0.84162000  0.26069800  0.15563500  1
  H  H48  1  0.63850300  0.39800200  0.79876900  1
  H  H49  1  0.36149700  0.89800200  0.70123100  1
  H  H50  1  0.36149700  0.60199800  0.20123100  1
  H  H51  1  0.63850300  0.10199800  0.29876900  1
  H  H52  1  0.75352200  0.41162000  0.71849700  1
  H  H53  1  0.24647800  0.91162000  0.78150300  1
  H  H54  1  0.24647800  0.58838000  0.28150300  1
  H  H55  1  0.75352200  0.08838000  0.21849700  1
  H  H56  1  0.59707900  0.35401000  0.68474100  1
  H  H57  1  0.40292100  0.85401000  0.81525900  1
  H  H58  1  0.40292100  0.64599000  0.31525900  1
  H  H59  1  0.59707900  0.14599000  0.18474100  1
  H  H60  1  0.86362100  0.15239000  0.84654300  1
  H  H61  1  0.13637900  0.65239000  0.65345700  1
  H  H62  1  0.13637900  0.84761000  0.15345700  1
  H  H63  1  0.86362100  0.34761000  0.34654300  1
  H  H64  1  0.90513000  0.29694700  0.80956300  1
  H  H65  1  0.09487000  0.79694700  0.69043700  1
  H  H66  1  0.09487000  0.70305300  0.19043700  1
  H  H67  1  0.90513000  0.20305300  0.30956300  1
  H  H68  1  0.79447900  0.28100200  0.89264100  1
  H  H69  1  0.20552100  0.78100200  0.60735900  1
  H  H70  1  0.20552100  0.71899800  0.10735900  1
  H  H71  1  0.79447900  0.21899800  0.39264100  1
  H  H72  1  0.65157800  0.07589000  0.80532600  1
  H  H73  1  0.34842200  0.57589000  0.69467400  1
  H  H74  1  0.34842200  0.92411000  0.19467400  1
  H  H75  1  0.65157800  0.42411000  0.30532600  1
  H  H76  1  0.58079800  0.20401800  0.85028300  1
  H  H77  1  0.41920200  0.70401800  0.64971700  1
  H  H78  1  0.41920200  0.79598200  0.14971700  1
  H  H79  1  0.58079800  0.29598200  0.35028300  1
  H  H80  1  0.53736800  0.16231400  0.73644200  1
  H  H81  1  0.46263200  0.66231400  0.76355800  1
  H  H82  1  0.46263200  0.83768600  0.26355800  1
  H  H83  1  0.53736800  0.33768600  0.23644200  1
  H  H84  1  0.48253100  0.30524200  0.51607800  1
  H  H85  1  0.51746900  0.80524200  0.98392200  1
  H  H86  1  0.51746900  0.69475800  0.48392200  1
  H  H87  1  0.48253100  0.19475800  0.01607800  1
  H  H88  1  0.32292200  0.31610700  0.66694300  1
  H  H89  1  0.67707800  0.81610700  0.83305700  1
  H  H90  1  0.67707800  0.68389300  0.33305700  1
  H  H91  1  0.32292200  0.18389300  0.16694300  1
  H  H92  1  0.39785800  0.08540900  0.58419800  1
  H  H93  1  0.60214200  0.58540900  0.91580200  1
  H  H94  1  0.60214200  0.91459100  0.41580200  1
  H  H95  1  0.39785800  0.41459100  0.08419800  1
  H  H96  1  0.31511200  0.37059300  0.34560600  1
  H  H97  1  0.68488800  0.87059300  0.15439400  1
  H  H98  1  0.68488800  0.62940700  0.65439400  1
  H  H99  1  0.31511200  0.12940700  0.84560600  1
  H  H100  1  0.36108600  0.11286700  0.38264200  1
  H  H101  1  0.63891400  0.61286700  0.11735800  1
  H  H102  1  0.63891400  0.88713300  0.61735800  1
  H  H103  1  0.36108600  0.38713300  0.88264200  1
  H  H104  1  0.21464200  0.22916900  0.37983900  1
  H  H105  1  0.78535800  0.72916900  0.12016100  1
  H  H106  1  0.78535800  0.77083100  0.62016100  1
  H  H107  1  0.21464200  0.27083100  0.87983900  1
  H  H108  1  0.17620900  0.37437300  0.43411600  1
  H  H109  1  0.82379100  0.87437300  0.06588400  1
  H  H110  1  0.82379100  0.62562700  0.56588400  1
  H  H111  1  0.17620900  0.12562700  0.93411600  1
  H  H112  1  0.19206000  0.97236500  0.51151000  1
  H  H113  1  0.80794000  0.47236500  0.98849000  1
  H  H114  1  0.80794000  0.02763500  0.48849000  1
  H  H115  1  0.19206000  0.52763500  0.01151000  1
  H  H116  1  0.11814500  0.09071000  0.42445500  1
  H  H117  1  0.88185500  0.59071000  0.07554500  1
  H  H118  1  0.88185500  0.90929000  0.57554500  1
  H  H119  1  0.11814500  0.40929000  0.92445500  1
  H  H120  1  0.15562200  0.11846900  0.66560000  1
  H  H121  1  0.84437800  0.61846900  0.83440000  1
  H  H122  1  0.84437800  0.88153100  0.33440000  1
  H  H123  1  0.15562200  0.38153100  0.16560000  1
  H  H124  1  0.08451800  0.12883100  0.53466600  1
  H  H125  1  0.91548200  0.62883100  0.96533400  1
  H  H126  1  0.91548200  0.87116900  0.46533400  1
  H  H127  1  0.08451800  0.37116900  0.03466600  1
  H  H128  1  0.03235500  0.31694400  0.51740600  1
  H  H129  1  0.96764500  0.81694400  0.98259400  1
  H  H130  1  0.96764500  0.68305600  0.48259400  1
  H  H131  1  0.03235500  0.18305600  0.01740600  1
  H  H132  1  0.27173100  0.49170200  0.51827000  1
  H  H133  1  0.72826900  0.99170200  0.98173000  1
  H  H134  1  0.72826900  0.50829800  0.48173000  1
  H  H135  1  0.27173100  0.00829800  0.01827000  1
  C  C136  1  0.76589300  0.18380200  0.67820900  1
  C  C137  1  0.23410700  0.68380200  0.82179100  1
  C  C138  1  0.23410700  0.81619800  0.32179100  1
  C  C139  1  0.76589300  0.31619800  0.17820900  1
  C  C140  1  0.67388700  0.35978400  0.73935200  1
  C  C141  1  0.32611300  0.85978400  0.76064800  1
  C  C142  1  0.32611300  0.64021600  0.26064800  1
  C  C143  1  0.67388700  0.14021600  0.23935200  1
  C  C144  1  0.82934500  0.24235700  0.83305800  1
  C  C145  1  0.17065500  0.74235700  0.66694200  1
  C  C146  1  0.17065500  0.75764300  0.16694200  1
  C  C147  1  0.82934500  0.25764300  0.33305800  1
  C  C148  1  0.61462000  0.16449000  0.79066400  1
  C  C149  1  0.38538000  0.66449000  0.70933600  1
  C  C150  1  0.38538000  0.83551000  0.20933600  1
  C  C151  1  0.61462000  0.33551000  0.29066400  1
  N  N152  1  0.72103500  0.23768100  0.76064100  1
  N  N153  1  0.27896500  0.73768100  0.73935900  1
  N  N154  1  0.27896500  0.76231900  0.23935900  1
  N  N155  1  0.72103500  0.26231900  0.26064100  1
  Cl  Cl156  1  0.06074300  0.41034400  0.67130200  1
  Cl  Cl157  1  0.93925700  0.91034400  0.82869800  1
  Cl  Cl158  1  0.93925700  0.58965600  0.32869800  1
  Cl  Cl159  1  0.06074300  0.08965600  0.17130200  1
