# generated using pymatgen
data_VTeH11(NO4)2
_symmetry_space_group_name_H-M   'P 1'
_cell_length_a   7.48318600
_cell_length_b   17.11763400
_cell_length_c   7.62104483
_cell_angle_alpha   90.00000000
_cell_angle_beta   120.20517100
_cell_angle_gamma   90.00000000
_symmetry_Int_Tables_number   1
_chemical_formula_structural   VTeH11(NO4)2
_chemical_formula_sum   'V4 Te4 H44 N8 O32'
_cell_volume   843.67237518
_cell_formula_units_Z   4
loop_
 _symmetry_equiv_pos_site_id
 _symmetry_equiv_pos_as_xyz
  1  'x, y, z'
loop_
 _atom_site_type_symbol
 _atom_site_label
 _atom_site_symmetry_multiplicity
 _atom_site_fract_x
 _atom_site_fract_y
 _atom_site_fract_z
 _atom_site_occupancy
  V  V0  1  0.05084600  0.10343800  0.10236300  1
  V  V1  1  0.05084600  0.39656200  0.60236300  1
  V  V2  1  0.94915400  0.89656200  0.89763700  1
  V  V3  1  0.94915400  0.60343800  0.39763700  1
  Te  Te4  1  0.62759000  0.01781600  0.89572600  1
  Te  Te5  1  0.62759000  0.48218400  0.39572600  1
  Te  Te6  1  0.37241000  0.98218400  0.10427400  1
  Te  Te7  1  0.37241000  0.51781600  0.60427400  1
  H  H8  1  0.38083700  0.05043400  0.52778500  1
  H  H9  1  0.38083700  0.44956600  0.02778500  1
  H  H10  1  0.61916300  0.94956600  0.47221500  1
  H  H11  1  0.61916300  0.55043400  0.97221500  1
  H  H12  1  0.72445900  0.19163700  0.71901500  1
  H  H13  1  0.72445900  0.30836300  0.21901500  1
  H  H14  1  0.27554100  0.80836300  0.28098500  1
  H  H15  1  0.27554100  0.69163700  0.78098500  1
  H  H16  1  0.82338400  0.26574100  0.67565200  1
  H  H17  1  0.82338400  0.23425900  0.17565200  1
  H  H18  1  0.17661600  0.73425900  0.32434800  1
  H  H19  1  0.17661600  0.76574100  0.82434800  1
  H  H20  1  0.47287800  0.23363000  0.89242600  1
  H  H21  1  0.47287800  0.26637000  0.39242600  1
  H  H22  1  0.52712200  0.76637000  0.10757400  1
  H  H23  1  0.52712200  0.73363000  0.60757400  1
  H  H24  1  0.25133300  0.25513100  0.66719400  1
  H  H25  1  0.25133300  0.24486900  0.16719400  1
  H  H26  1  0.74866700  0.74486900  0.33280600  1
  H  H27  1  0.74866700  0.75513100  0.83280600  1
  H  H28  1  0.24565900  0.19725400  0.85047200  1
  H  H29  1  0.24565900  0.30274600  0.35047200  1
  H  H30  1  0.75434100  0.80274600  0.14952800  1
  H  H31  1  0.75434100  0.69725400  0.64952800  1
  H  H32  1  0.35064000  0.16208000  0.71631500  1
  H  H33  1  0.35064000  0.33792000  0.21631500  1
  H  H34  1  0.64936000  0.83792000  0.28368500  1
  H  H35  1  0.64936000  0.66208000  0.78368500  1
  H  H36  1  0.82166300  0.13615000  0.54701900  1
  H  H37  1  0.82166300  0.36385000  0.04701900  1
  H  H38  1  0.17833700  0.86385000  0.45298100  1
  H  H39  1  0.17833700  0.63615000  0.95298100  1
  H  H40  1  0.78515500  0.04710500  0.43434700  1
  H  H41  1  0.78515500  0.45289500  0.93434700  1
  H  H42  1  0.21484500  0.95289500  0.56565300  1
  H  H43  1  0.21484500  0.54710500  0.06565300  1
  H  H44  1  0.99034700  0.06079600  0.66940200  1
  H  H45  1  0.99034700  0.43920400  0.16940200  1
  H  H46  1  0.00965300  0.93920400  0.33059800  1
  H  H47  1  0.00965300  0.56079600  0.83059800  1
  H  H48  1  0.97442500  0.10613000  0.45576500  1
  H  H49  1  0.97442500  0.39387000  0.95576500  1
  H  H50  1  0.02557500  0.89387000  0.54423500  1
  H  H51  1  0.02557500  0.60613000  0.04423500  1
  N  N52  1  0.32984300  0.21230000  0.77981900  1
  N  N53  1  0.32984300  0.28770000  0.27981900  1
  N  N54  1  0.67015700  0.78770000  0.22018100  1
  N  N55  1  0.67015700  0.71230000  0.72018100  1
  N  N56  1  0.89415600  0.08766300  0.52739800  1
  N  N57  1  0.89415600  0.41233700  0.02739800  1
  N  N58  1  0.10584400  0.91233700  0.47260200  1
  N  N59  1  0.10584400  0.58766300  0.97260200  1
  O  O60  1  0.90304400  0.99416800  0.11249000  1
  O  O61  1  0.90304400  0.50583200  0.61249000  1
  O  O62  1  0.09695600  0.00583200  0.88751000  1
  O  O63  1  0.09695600  0.49416800  0.38751000  1
  O  O64  1  0.68808200  0.95231100  0.72455200  1
  O  O65  1  0.68808200  0.54768900  0.22455200  1
  O  O66  1  0.31191800  0.04768900  0.27544800  1
  O  O67  1  0.31191800  0.45231100  0.77544800  1
  O  O68  1  0.52440200  0.06976000  0.06267700  1
  O  O69  1  0.52440200  0.43024000  0.56267700  1
  O  O70  1  0.47559800  0.93024000  0.93732300  1
  O  O71  1  0.47559800  0.56976000  0.43732300  1
  O  O72  1  0.36805600  0.05123000  0.65279700  1
  O  O73  1  0.36805600  0.44877000  0.15279700  1
  O  O74  1  0.63194400  0.94877000  0.34720300  1
  O  O75  1  0.63194400  0.55123000  0.84720300  1
  O  O76  1  0.13388500  0.17116500  0.99761900  1
  O  O77  1  0.13388500  0.32883500  0.49761900  1
  O  O78  1  0.86611500  0.82883500  0.00238100  1
  O  O79  1  0.86611500  0.67116500  0.50238100  1
  O  O80  1  0.76141200  0.11187500  0.87900500  1
  O  O81  1  0.76141200  0.38812500  0.37900500  1
  O  O82  1  0.23858800  0.88812500  0.12099500  1
  O  O83  1  0.23858800  0.61187500  0.62099500  1
  O  O84  1  0.04247400  0.15160200  0.28997300  1
  O  O85  1  0.04247400  0.34839800  0.78997300  1
  O  O86  1  0.95752600  0.84839800  0.71002700  1
  O  O87  1  0.95752600  0.65160200  0.21002700  1
  O  O88  1  0.71612300  0.22516000  0.60833600  1
  O  O89  1  0.71612300  0.27484000  0.10833600  1
  O  O90  1  0.28387700  0.77484000  0.39166400  1
  O  O91  1  0.28387700  0.72516000  0.89166400  1
