# generated using pymatgen
data_K3ZrC3O13
_symmetry_space_group_name_H-M   'P 1'
_cell_length_a   11.51929700
_cell_length_b   6.89332500
_cell_length_c   17.51653751
_cell_angle_alpha   71.51728620
_cell_angle_beta   90.00000000
_cell_angle_gamma   90.00000000
_symmetry_Int_Tables_number   1
_chemical_formula_structural   K3ZrC3O13
_chemical_formula_sum   'K12 Zr4 C12 O52'
_cell_volume   1319.17799037
_cell_formula_units_Z   4
loop_
 _symmetry_equiv_pos_site_id
 _symmetry_equiv_pos_as_xyz
  1  'x, y, z'
loop_
 _atom_site_type_symbol
 _atom_site_label
 _atom_site_symmetry_multiplicity
 _atom_site_fract_x
 _atom_site_fract_y
 _atom_site_fract_z
 _atom_site_occupancy
  K  K0  1  0.36964200  0.36815000  0.89467800  1
  K  K1  1  0.86964200  0.63185000  0.60532200  1
  K  K2  1  0.63035800  0.63185000  0.10532200  1
  K  K3  1  0.13035800  0.36815000  0.39467800  1
  K  K4  1  0.15955000  0.94752000  0.62645000  1
  K  K5  1  0.65955000  0.05248000  0.87355000  1
  K  K6  1  0.84045000  0.05248000  0.37355000  1
  K  K7  1  0.34045000  0.94752000  0.12645000  1
  K  K8  1  0.01808100  0.11982200  0.81901600  1
  K  K9  1  0.51808100  0.88017800  0.68098400  1
  K  K10  1  0.98191900  0.88017800  0.18098400  1
  K  K11  1  0.48191900  0.11982200  0.31901600  1
  Zr  Zr12  1  0.36145900  0.53849100  0.56518700  1
  Zr  Zr13  1  0.86145900  0.46150900  0.93481300  1
  Zr  Zr14  1  0.63854100  0.46150900  0.43481300  1
  Zr  Zr15  1  0.13854100  0.53849100  0.06518700  1
  C  C16  1  0.42838800  0.31227700  0.71187700  1
  C  C17  1  0.92838800  0.68772300  0.78812300  1
  C  C18  1  0.57161200  0.68772300  0.28812300  1
  C  C19  1  0.07161200  0.31227700  0.21187700  1
  C  C20  1  0.14060000  0.42036400  0.59917900  1
  C  C21  1  0.64060000  0.57963600  0.90082100  1
  C  C22  1  0.85940000  0.57963600  0.40082100  1
  C  C23  1  0.35940000  0.42036400  0.09917900  1
  C  C24  1  0.16972200  0.92690900  0.98115700  1
  C  C25  1  0.66972200  0.07309100  0.51884300  1
  C  C26  1  0.83027800  0.07309100  0.01884300  1
  C  C27  1  0.33027800  0.92690900  0.48115700  1
  O  O28  1  0.03516700  0.42796600  0.98340700  1
  O  O29  1  0.53516700  0.57203400  0.51659300  1
  O  O30  1  0.96483300  0.57203400  0.01659300  1
  O  O31  1  0.46483300  0.42796600  0.48340700  1
  O  O32  1  0.46367200  0.20537100  0.77993200  1
  O  O33  1  0.96367200  0.79462900  0.72006800  1
  O  O34  1  0.53632800  0.79462900  0.22006800  1
  O  O35  1  0.03632800  0.20537100  0.27993200  1
  O  O36  1  0.42822400  0.51590400  0.68629400  1
  O  O37  1  0.92822400  0.48409600  0.81370600  1
  O  O38  1  0.57177600  0.48409600  0.31370600  1
  O  O39  1  0.07177600  0.51590400  0.18629400  1
  O  O40  1  0.38790900  0.23349300  0.65714800  1
  O  O41  1  0.88790900  0.76650700  0.84285200  1
  O  O42  1  0.61209100  0.76650700  0.34285200  1
  O  O43  1  0.11209100  0.23349300  0.15714800  1
  O  O44  1  0.18952600  0.55642600  0.62624600  1
  O  O45  1  0.68952600  0.44357400  0.87375400  1
  O  O46  1  0.81047400  0.44357400  0.37375400  1
  O  O47  1  0.31047400  0.55642600  0.12624600  1
  O  O48  1  0.20051300  0.36970400  0.54442400  1
  O  O49  1  0.70051300  0.63029600  0.95557600  1
  O  O50  1  0.79948700  0.63029600  0.45557600  1
  O  O51  1  0.29948700  0.36970400  0.04442400  1
  O  O52  1  0.04466100  0.33465100  0.62761700  1
  O  O53  1  0.54466100  0.66534900  0.87238300  1
  O  O54  1  0.95533900  0.66534900  0.37238300  1
  O  O55  1  0.45533900  0.33465100  0.12761700  1
  O  O56  1  0.17985300  0.11006400  0.93919200  1
  O  O57  1  0.67985300  0.88993600  0.56080800  1
  O  O58  1  0.82014700  0.88993600  0.06080800  1
  O  O59  1  0.32014700  0.11006400  0.43919200  1
  O  O60  1  0.36578100  0.86391700  0.55803200  1
  O  O61  1  0.86578100  0.13608300  0.94196800  1
  O  O62  1  0.63421900  0.13608300  0.44196800  1
  O  O63  1  0.13421900  0.86391700  0.05803200  1
  O  O64  1  0.19330000  0.77100800  0.95479300  1
  O  O65  1  0.69330000  0.22899200  0.54520700  1
  O  O66  1  0.80670000  0.22899200  0.04520700  1
  O  O67  1  0.30670000  0.77100800  0.45479300  1
  O  O68  1  0.22880800  0.77162300  0.79428200  1
  O  O69  1  0.72880800  0.22837700  0.70571800  1
  O  O70  1  0.77119200  0.22837700  0.20571800  1
  O  O71  1  0.27119200  0.77162300  0.29428200  1
  O  O72  1  0.18412300  0.60469200  0.79759900  1
  O  O73  1  0.68412300  0.39530800  0.70240100  1
  O  O74  1  0.81587700  0.39530800  0.20240100  1
  O  O75  1  0.31587700  0.60469200  0.29759900  1
  O  O76  1  0.50398500  0.80878500  0.97099000  1
  O  O77  1  0.00398500  0.19121500  0.52901000  1
  O  O78  1  0.49601500  0.19121500  0.02901000  1
  O  O79  1  0.99601500  0.80878500  0.47099000  1
