# generated using pymatgen
data_K5In3P6Se19
_symmetry_space_group_name_H-M   'P 1'
_cell_length_a   7.89838700
_cell_length_b   13.54156551
_cell_length_c   18.84881278
_cell_angle_alpha   86.73318689
_cell_angle_beta   88.42486484
_cell_angle_gamma   81.78960374
_symmetry_Int_Tables_number   1
_chemical_formula_structural   K5In3P6Se19
_chemical_formula_sum   'K10 In6 P12 Se38'
_cell_volume   1991.71573419
_cell_formula_units_Z   2
loop_
 _symmetry_equiv_pos_site_id
 _symmetry_equiv_pos_as_xyz
  1  'x, y, z'
loop_
 _atom_site_type_symbol
 _atom_site_label
 _atom_site_symmetry_multiplicity
 _atom_site_fract_x
 _atom_site_fract_y
 _atom_site_fract_z
 _atom_site_occupancy
  K  K0  1  0.73227300  0.40667500  0.07547500  1
  K  K1  1  0.26772700  0.59332500  0.92452500  1
  K  K2  1  0.94990200  0.15503500  0.44165800  1
  K  K3  1  0.05009800  0.84496500  0.55834200  1
  K  K4  1  0.75040600  0.78414100  0.20482900  1
  K  K5  1  0.24959400  0.21585900  0.79517100  1
  K  K6  1  0.57258600  0.64704300  0.39131000  1
  K  K7  1  0.42741400  0.35295700  0.60869000  1
  K  K8  1  0.23768500  0.88503600  0.08967900  1
  K  K9  1  0.76231500  0.11496400  0.91032100  1
  In  In10  1  0.50594100  0.09855700  0.32951600  1
  In  In11  1  0.49405900  0.90144300  0.67048400  1
  In  In12  1  0.24421900  0.26397700  0.15858100  1
  In  In13  1  0.75578100  0.73602300  0.84141900  1
  In  In14  1  0.18259700  0.43516500  0.32199000  1
  In  In15  1  0.81740300  0.56483500  0.67801000  1
  P  P16  1  0.63989800  0.05905200  0.13181700  1
  P  P17  1  0.36010200  0.94094800  0.86818300  1
  P  P18  1  0.86162300  0.09942300  0.19625600  1
  P  P19  1  0.13837700  0.90057700  0.80374400  1
  P  P20  1  0.12365300  0.56979800  0.14204600  1
  P  P21  1  0.87634700  0.43020200  0.85795400  1
  P  P22  1  0.37463800  0.60748200  0.18678300  1
  P  P23  1  0.62536200  0.39251800  0.81321700  1
  P  P24  1  0.91189800  0.43918300  0.50637800  1
  P  P25  1  0.08810200  0.56081700  0.49362200  1
  P  P26  1  0.50292700  0.93485200  0.46433400  1
  P  P27  1  0.49707300  0.06514800  0.53566600  1
  Se  Se28  1  0.21328500  0.23984700  0.29552000  1
  Se  Se29  1  0.78671500  0.76015300  0.70448000  1
  Se  Se30  1  0.45903800  0.99956500  0.21013000  1
  Se  Se31  1  0.54096200  0.00043500  0.78987000  1
  Se  Se32  1  0.51560300  0.20380900  0.07813800  1
  Se  Se33  1  0.48439700  0.79619100  0.92186200  1
  Se  Se34  1  0.73803000  0.95153100  0.05595900  1
  Se  Se35  1  0.26197000  0.04846900  0.94404100  1
  Se  Se36  1  0.73928800  0.21228100  0.27076000  1
  Se  Se37  1  0.26071200  0.78771900  0.72924000  1
  Se  Se38  1  0.99951100  0.17127100  0.10476400  1
  Se  Se39  1  0.00048900  0.82872900  0.89523600  1
  Se  Se40  1  0.00050200  0.96615100  0.24565800  1
  Se  Se41  1  0.99949800  0.03384900  0.75434200  1
  Se  Se42  1  0.17899300  0.43396200  0.07612200  1
  Se  Se43  1  0.82100700  0.56603800  0.92387800  1
  Se  Se44  1  0.95023200  0.53489600  0.23449300  1
  Se  Se45  1  0.04976800  0.46510400  0.76550700  1
  Se  Se46  1  0.01013900  0.69218100  0.07261600  1
  Se  Se47  1  0.98986100  0.30781900  0.92738400  1
  Se  Se48  1  0.47583800  0.46125200  0.24224400  1
  Se  Se49  1  0.52416200  0.53874800  0.75775600  1
  Se  Se50  1  0.30663900  0.73011500  0.25617600  1
  Se  Se51  1  0.69336100  0.26988500  0.74382400  1
  Se  Se52  1  0.53216100  0.64065100  0.09481200  1
  Se  Se53  1  0.46783900  0.35934900  0.90518800  1
  Se  Se54  1  0.84321200  0.41305700  0.39646000  1
  Se  Se55  1  0.15678800  0.58694300  0.60354000  1
  Se  Se56  1  0.02150100  0.30983800  0.56916300  1
  Se  Se57  1  0.97849900  0.69016200  0.43083700  1
  Se  Se58  1  0.67746000  0.52543900  0.55781200  1
  Se  Se59  1  0.32254000  0.47456100  0.44218800  1
  Se  Se60  1  0.27729100  0.96583800  0.39509000  1
  Se  Se61  1  0.72270900  0.03416200  0.60491000  1
  Se  Se62  1  0.73292700  0.93947300  0.39273900  1
  Se  Se63  1  0.26707300  0.06052700  0.60726100  1
  Se  Se64  1  0.50811200  0.80268400  0.53861400  1
  Se  Se65  1  0.49188800  0.19731600  0.46138600  1
