# generated using pymatgen
data_HoAgS2
_symmetry_space_group_name_H-M   'P 1'
_cell_length_a   7.63895300
_cell_length_b   7.63309400
_cell_length_c   12.49629796
_cell_angle_alpha   89.92765753
_cell_angle_beta   90.00000000
_cell_angle_gamma   90.00000000
_symmetry_Int_Tables_number   1
_chemical_formula_structural   HoAgS2
_chemical_formula_sum   'Ho8 Ag8 S16'
_cell_volume   728.64413644
_cell_formula_units_Z   8
loop_
 _symmetry_equiv_pos_site_id
 _symmetry_equiv_pos_as_xyz
  1  'x, y, z'
loop_
 _atom_site_type_symbol
 _atom_site_label
 _atom_site_symmetry_multiplicity
 _atom_site_fract_x
 _atom_site_fract_y
 _atom_site_fract_z
 _atom_site_occupancy
  Ho  Ho0  1  0.49830300  0.25464200  0.00375700  1
  Ho  Ho1  1  0.99830300  0.74535800  0.99624300  1
  Ho  Ho2  1  0.74560600  0.99807300  0.75366200  1
  Ho  Ho3  1  0.24560600  0.00192700  0.24633800  1
  Ho  Ho4  1  0.25353300  0.49806600  0.74662600  1
  Ho  Ho5  1  0.75353300  0.50193400  0.25337400  1
  Ho  Ho6  1  0.00082500  0.24575600  0.50417100  1
  Ho  Ho7  1  0.50082500  0.75424400  0.49582900  1
  Ag  Ag8  1  0.73695400  0.50819700  0.76146800  1
  Ag  Ag9  1  0.23695400  0.49180300  0.23853200  1
  Ag  Ag10  1  0.24391700  0.99985900  0.73043100  1
  Ag  Ag11  1  0.74391700  0.00014100  0.26956900  1
  Ag  Ag12  1  0.99673400  0.24837700  0.02109800  1
  Ag  Ag13  1  0.49673400  0.75162300  0.97890200  1
  Ag  Ag14  1  0.49003900  0.24356500  0.52281600  1
  Ag  Ag15  1  0.99003900  0.75643500  0.47718400  1
  S  S16  1  0.22889000  0.97925100  0.46460300  1
  S  S17  1  0.72889000  0.02074900  0.53539700  1
  S  S18  1  0.76757100  0.51727600  0.47474400  1
  S  S19  1  0.26757100  0.48272400  0.52525600  1
  S  S20  1  0.47672300  0.27340900  0.22424800  1
  S  S21  1  0.97672300  0.72659100  0.77575200  1
  S  S22  1  0.51992100  0.27001400  0.78487600  1
  S  S23  1  0.01992100  0.72998600  0.21512400  1
  S  S24  1  0.01715200  0.23054500  0.72413500  1
  S  S25  1  0.51715200  0.76945500  0.27586500  1
  S  S26  1  0.47421500  0.77296200  0.71467000  1
  S  S27  1  0.97421500  0.22703800  0.28533000  1
  S  S28  1  0.72904300  0.98080900  0.97401700  1
  S  S29  1  0.22904300  0.01919100  0.02598300  1
  S  S30  1  0.26817400  0.51995300  0.96485400  1
  S  S31  1  0.76817400  0.48004700  0.03514600  1
