# generated using pymatgen
data_Ni3(SeO4)2
_symmetry_space_group_name_H-M   'P 1'
_cell_length_a   12.97695578
_cell_length_b   12.97695578
_cell_length_c   4.82946600
_cell_angle_alpha   90.00000000
_cell_angle_beta   90.00000000
_cell_angle_gamma   119.82578731
_symmetry_Int_Tables_number   1
_chemical_formula_structural   Ni3(SeO4)2
_chemical_formula_sum   'Ni12 Se8 O32'
_cell_volume   705.56189315
_cell_formula_units_Z   4
loop_
 _symmetry_equiv_pos_site_id
 _symmetry_equiv_pos_as_xyz
  1  'x, y, z'
loop_
 _atom_site_type_symbol
 _atom_site_label
 _atom_site_symmetry_multiplicity
 _atom_site_fract_x
 _atom_site_fract_y
 _atom_site_fract_z
 _atom_site_occupancy
  Ni  Ni0  1  0.64262600  0.56776300  0.96972100  1
  Ni  Ni1  1  0.43229700  0.07764000  0.97023300  1
  Ni  Ni2  1  0.92262700  0.35534300  0.97006700  1
  Ni  Ni3  1  0.64465700  0.07737300  0.97006700  1
  Ni  Ni4  1  0.43223700  0.35737400  0.96972100  1
  Ni  Ni5  1  0.92236000  0.56770300  0.97023300  1
  Ni  Ni6  1  0.35737400  0.43223700  0.46972100  1
  Ni  Ni7  1  0.56770300  0.92236000  0.47023300  1
  Ni  Ni8  1  0.07737300  0.64465700  0.47006700  1
  Ni  Ni9  1  0.35534300  0.92262700  0.47006700  1
  Ni  Ni10  1  0.56776300  0.64262600  0.46972100  1
  Ni  Ni11  1  0.07764000  0.43229700  0.47023300  1
  Se  Se12  1  0.14649100  0.85350900  0.01677000  1
  Se  Se13  1  0.14717900  0.29322300  0.01698500  1
  Se  Se14  1  0.70677700  0.85282100  0.01698500  1
  Se  Se15  1  0.85350900  0.14649100  0.51677000  1
  Se  Se16  1  0.85282100  0.70677700  0.51698500  1
  Se  Se17  1  0.29322300  0.14717900  0.51698500  1
  Se  Se18  1  0.66559600  0.33440400  0.91673900  1
  Se  Se19  1  0.33440400  0.66559600  0.41673900  1
  O  O20  1  0.20451900  0.79548100  0.26062900  1
  O  O21  1  0.20494600  0.40868900  0.26230800  1
  O  O22  1  0.59131100  0.79505400  0.26230800  1
  O  O23  1  0.79548100  0.20451900  0.76062900  1
  O  O24  1  0.79505400  0.59131100  0.76230800  1
  O  O25  1  0.40868900  0.20494600  0.76230800  1
  O  O26  1  0.93821400  0.66848900  0.30887100  1
  O  O27  1  0.33171600  0.27001100  0.30752300  1
  O  O28  1  0.73057600  0.06165100  0.30825100  1
  O  O29  1  0.93834900  0.26942400  0.30825100  1
  O  O30  1  0.33151100  0.06178600  0.30887100  1
  O  O31  1  0.72998900  0.66828400  0.30752300  1
  O  O32  1  0.06178600  0.33151100  0.80887100  1
  O  O33  1  0.66828400  0.72998900  0.80752300  1
  O  O34  1  0.26942400  0.93834900  0.80825100  1
  O  O35  1  0.06165100  0.73057600  0.80825100  1
  O  O36  1  0.66848900  0.93821400  0.80887100  1
  O  O37  1  0.27001100  0.33171600  0.80752300  1
  O  O38  1  0.40114100  0.59885900  0.59991000  1
  O  O39  1  0.40041200  0.79954700  0.59627700  1
  O  O40  1  0.20045300  0.59958800  0.59627700  1
  O  O41  1  0.59885900  0.40114100  0.09991000  1
  O  O42  1  0.59958800  0.20045300  0.09627700  1
  O  O43  1  0.79954700  0.40041200  0.09627700  1
  O  O44  1  0.48012900  0.51987100  0.16307000  1
  O  O45  1  0.48571000  0.97115000  0.17477800  1
  O  O46  1  0.02885000  0.51429000  0.17477800  1
  O  O47  1  0.51987100  0.48012900  0.66307000  1
  O  O48  1  0.51429000  0.02885000  0.67477800  1
  O  O49  1  0.97115000  0.48571000  0.67477800  1
  O  O50  1  0.99997800  0.00002200  0.11145500  1
  O  O51  1  0.00002200  0.99997800  0.61145500  1
