# generated using pymatgen
data_Zn3P4H28C8(NO6)2
_symmetry_space_group_name_H-M   'P 1'
_cell_length_a   18.35088419
_cell_length_b   17.10378836
_cell_length_c   9.40520836
_cell_angle_alpha   82.09593301
_cell_angle_beta   67.39653541
_cell_angle_gamma   30.50753158
_symmetry_Int_Tables_number   1
_chemical_formula_structural   Zn3P4H28C8(NO6)2
_chemical_formula_sum   'Zn6 P8 H56 C16 N4 O24'
_cell_volume   1259.88237549
_cell_formula_units_Z   2
loop_
 _symmetry_equiv_pos_site_id
 _symmetry_equiv_pos_as_xyz
  1  'x, y, z'
loop_
 _atom_site_type_symbol
 _atom_site_label
 _atom_site_symmetry_multiplicity
 _atom_site_fract_x
 _atom_site_fract_y
 _atom_site_fract_z
 _atom_site_occupancy
  Zn  Zn0  1  0.61407800  0.61407800  0.88592200  1
  Zn  Zn1  1  0.88592200  0.88592200  0.61407800  1
  Zn  Zn2  1  0.63592200  0.63592200  0.36407800  1
  Zn  Zn3  1  0.36407800  0.36407800  0.63592200  1
  Zn  Zn4  1  0.50000000  0.50000000  0.50000000  1
  Zn  Zn5  1  0.75000000  0.75000000  0.75000000  1
  P  P6  1  0.41601100  0.71899800  0.72568500  1
  P  P7  1  0.13930600  0.72568500  0.71899800  1
  P  P8  1  0.72568500  0.13930600  0.41601100  1
  P  P9  1  0.71899800  0.41601100  0.13930600  1
  P  P10  1  0.83398900  0.53100200  0.52431500  1
  P  P11  1  0.11069400  0.52431500  0.53100200  1
  P  P12  1  0.52431500  0.11069400  0.83398900  1
  P  P13  1  0.53100200  0.83398900  0.11069400  1
  H  H14  1  0.23806900  0.86646400  0.81565800  1
  H  H15  1  0.07980800  0.81565800  0.86646400  1
  H  H16  1  0.81565800  0.07980800  0.23806900  1
  H  H17  1  0.86646400  0.23806900  0.07980800  1
  H  H18  1  0.01193100  0.38353600  0.43434200  1
  H  H19  1  0.17019200  0.43434200  0.38353600  1
  H  H20  1  0.43434200  0.17019200  0.01193100  1
  H  H21  1  0.38353600  0.01193100  0.17019200  1
  H  H22  1  0.63964700  0.34199700  0.97108200  1
  H  H23  1  0.04727400  0.97108200  0.34199700  1
  H  H24  1  0.97108200  0.04727400  0.63964700  1
  H  H25  1  0.34199700  0.63964700  0.04727400  1
  H  H26  1  0.61035300  0.90800300  0.27891800  1
  H  H27  1  0.20272600  0.27891800  0.90800300  1
  H  H28  1  0.27891800  0.20272600  0.61035300  1
  H  H29  1  0.90800300  0.61035300  0.20272600  1
  H  H30  1  0.70257200  0.19211800  0.88860300  1
  H  H31  1  0.21670800  0.88860300  0.19211800  1
  H  H32  1  0.88860300  0.21670800  0.70257200  1
  H  H33  1  0.19211800  0.70257200  0.21670800  1
  H  H34  1  0.54742800  0.05788200  0.36139700  1
  H  H35  1  0.03329200  0.36139700  0.05788200  1
  H  H36  1  0.36139700  0.03329200  0.54742800  1
  H  H37  1  0.05788200  0.54742800  0.03329200  1
  H  H38  1  0.59946300  0.35489000  0.81404100  1
  H  H39  1  0.23160600  0.81404100  0.35489000  1
  H  H40  1  0.81404100  0.23160600  0.59946300  1
  H  H41  1  0.35489000  0.59946300  0.23160600  1
  H  H42  1  0.65053700  0.89511000  0.43595900  1
  H  H43  1  0.01839400  0.43595900  0.89511000  1
  H  H44  1  0.43595900  0.01839400  0.65053700  1
  H  H45  1  0.89511000  0.65053700  0.01839400  1
  H  H46  1  0.35091100  0.46793900  0.31537800  1
  H  H47  1  0.86577200  0.31537800  0.46793900  1
  H  H48  1  0.31537800  0.86577200  0.35091100  1
  H  H49  1  0.46793900  0.35091100  0.86577200  1
  H  H50  1  0.89908900  0.78206100  0.93462200  1
  H  H51  1  0.38422800  0.93462200  0.78206100  1
  H  H52  1  0.93462200  0.38422800  0.89908900  1
  H  H53  1  0.78206100  0.89908900  0.38422800  1
  H  H54  1  0.47114600  0.29564400  0.15975900  1
  H  H55  1  0.07345100  0.15975900  0.29564400  1
  H  H56  1  0.15975900  0.07345100  0.47114600  1
  H  H57  1  0.29564400  0.47114600  0.07345100  1
  H  H58  1  0.77885400  0.95435600  0.09024100  1
  H  H59  1  0.17654900  0.09024100  0.95435600  1
  H  H60  1  0.09024100  0.17654900  0.77885400  1
  H  H61  1  0.95435600  0.77885400  0.17654900  1
  H  H62  1  0.57532800  0.28048500  0.18177600  1
  H  H63  1  0.96241100  0.18177600  0.28048500  1
  H  H64  1  0.18177600  0.96241100  0.57532800  1
  H  H65  1  0.28048500  0.57532800  0.96241100  1
  H  H66  1  0.67467200  0.96951500  0.06822400  1
  H  H67  1  0.28758900  0.06822400  0.96951500  1
  H  H68  1  0.06822400  0.28758900  0.67467200  1
  H  H69  1  0.96951500  0.67467200  0.28758900  1
  C  C70  1  0.60860900  0.32258500  0.92300300  1
  C  C71  1  0.14580400  0.92300300  0.32258500  1
  C  C72  1  0.92300300  0.14580400  0.60860900  1
  C  C73  1  0.32258500  0.60860900  0.14580400  1
  C  C74  1  0.64139100  0.92741500  0.32699700  1
  C  C75  1  0.10419600  0.32699700  0.92741500  1
  C  C76  1  0.32699700  0.10419600  0.64139100  1
  C  C77  1  0.92741500  0.64139100  0.10419600  1
  C  C78  1  0.46058500  0.36552900  0.18894300  1
  C  C79  1  0.98494300  0.18894300  0.36552900  1
  C  C80  1  0.18894300  0.98494300  0.46058500  1
  C  C81  1  0.36552900  0.46058500  0.98494300  1
  C  C82  1  0.78941500  0.88447100  0.06105700  1
  C  C83  1  0.26505700  0.06105700  0.88447100  1
  C  C84  1  0.06105700  0.26505700  0.78941500  1
  C  C85  1  0.88447100  0.78941500  0.26505700  1
  N  N86  1  0.43912400  0.43912400  0.06087600  1
  N  N87  1  0.06087600  0.06087600  0.43912400  1
  N  N88  1  0.81087600  0.81087600  0.18912400  1
  N  N89  1  0.18912400  0.18912400  0.81087600  1
  O  O90  1  0.44936600  0.70748600  0.86102500  1
  O  O91  1  0.98212300  0.86102500  0.70748600  1
  O  O92  1  0.86102500  0.98212300  0.44936600  1
  O  O93  1  0.70748600  0.44936600  0.98212300  1
  O  O94  1  0.80063400  0.54251400  0.38897500  1
  O  O95  1  0.26787700  0.38897500  0.54251400  1
  O  O96  1  0.38897500  0.26787700  0.80063400  1
  O  O97  1  0.54251400  0.80063400  0.26787700  1
  O  O98  1  0.79987500  0.49164200  0.66122500  1
  O  O99  1  0.04725800  0.66122500  0.49164200  1
  O  O100  1  0.66122500  0.04725800  0.79987500  1
  O  O101  1  0.49164200  0.79987500  0.04725800  1
  O  O102  1  0.45012500  0.75835800  0.58877500  1
  O  O103  1  0.20274200  0.58877500  0.75835800  1
  O  O104  1  0.58877500  0.20274200  0.45012500  1
  O  O105  1  0.75835800  0.45012500  0.20274200  1
  O  O106  1  0.49697200  0.56886800  0.65733900  1
  O  O107  1  0.27682100  0.65733900  0.56886800  1
  O  O108  1  0.65733900  0.27682100  0.49697200  1
  O  O109  1  0.56886800  0.49697200  0.27682100  1
  O  O110  1  0.75302800  0.68113200  0.59266100  1
  O  O111  1  0.97317900  0.59266100  0.68113200  1
  O  O112  1  0.59266100  0.97317900  0.75302800  1
  O  O113  1  0.68113200  0.75302800  0.97317900  1
