# generated using pymatgen
data_Yb3Sb4S9
_symmetry_space_group_name_H-M   'P 1'
_cell_length_a   3.90253600
_cell_length_b   16.26667800
_cell_length_c   23.64929800
_cell_angle_alpha   90.00000000
_cell_angle_beta   90.00000000
_cell_angle_gamma   90.00000000
_symmetry_Int_Tables_number   1
_chemical_formula_structural   Yb3Sb4S9
_chemical_formula_sum   'Yb12 Sb16 S36'
_cell_volume   1501.28809825
_cell_formula_units_Z   4
loop_
 _symmetry_equiv_pos_site_id
 _symmetry_equiv_pos_as_xyz
  1  'x, y, z'
loop_
 _atom_site_type_symbol
 _atom_site_label
 _atom_site_symmetry_multiplicity
 _atom_site_fract_x
 _atom_site_fract_y
 _atom_site_fract_z
 _atom_site_occupancy
  Yb  Yb0  1  0.25000000  0.12422000  0.44228900  1
  Yb  Yb1  1  0.25000000  0.62422000  0.05771100  1
  Yb  Yb2  1  0.75000000  0.87578000  0.55771100  1
  Yb  Yb3  1  0.75000000  0.37578000  0.94228900  1
  Yb  Yb4  1  0.25000000  0.32601500  0.32628600  1
  Yb  Yb5  1  0.25000000  0.82601500  0.17371400  1
  Yb  Yb6  1  0.75000000  0.67398500  0.67371400  1
  Yb  Yb7  1  0.75000000  0.17398500  0.82628600  1
  Yb  Yb8  1  0.25000000  0.05804500  0.26378500  1
  Yb  Yb9  1  0.25000000  0.55804500  0.23621500  1
  Yb  Yb10  1  0.75000000  0.94195500  0.73621500  1
  Yb  Yb11  1  0.75000000  0.44195500  0.76378500  1
  Sb  Sb12  1  0.25000000  0.16811700  0.99416100  1
  Sb  Sb13  1  0.25000000  0.66811700  0.50583900  1
  Sb  Sb14  1  0.75000000  0.83188300  0.00583900  1
  Sb  Sb15  1  0.75000000  0.33188300  0.49416100  1
  Sb  Sb16  1  0.25000000  0.46994500  0.60700200  1
  Sb  Sb17  1  0.25000000  0.96994500  0.89299800  1
  Sb  Sb18  1  0.75000000  0.53005500  0.39299800  1
  Sb  Sb19  1  0.75000000  0.03005500  0.10700200  1
  Sb  Sb20  1  0.25000000  0.08698000  0.60532400  1
  Sb  Sb21  1  0.25000000  0.58698000  0.89467600  1
  Sb  Sb22  1  0.75000000  0.91302000  0.39467600  1
  Sb  Sb23  1  0.75000000  0.41302000  0.10532400  1
  Sb  Sb24  1  0.25000000  0.25066500  0.67958600  1
  Sb  Sb25  1  0.25000000  0.75066500  0.82041400  1
  Sb  Sb26  1  0.75000000  0.74933500  0.32041400  1
  Sb  Sb27  1  0.75000000  0.24933500  0.17958600  1
  S  S28  1  0.25000000  0.25132700  0.90744700  1
  S  S29  1  0.25000000  0.75132700  0.59255300  1
  S  S30  1  0.75000000  0.74867300  0.09255300  1
  S  S31  1  0.75000000  0.24867300  0.40744700  1
  S  S32  1  0.25000000  0.44503000  0.86039600  1
  S  S33  1  0.25000000  0.94503000  0.63960400  1
  S  S34  1  0.75000000  0.55497000  0.13960400  1
  S  S35  1  0.75000000  0.05497000  0.36039600  1
  S  S36  1  0.25000000  0.04158500  0.80126900  1
  S  S37  1  0.25000000  0.54158500  0.69873100  1
  S  S38  1  0.75000000  0.95841500  0.19873100  1
  S  S39  1  0.75000000  0.45841500  0.30126900  1
  S  S40  1  0.25000000  0.29663800  0.77762500  1
  S  S41  1  0.25000000  0.79663800  0.72237500  1
  S  S42  1  0.75000000  0.70336200  0.22237500  1
  S  S43  1  0.75000000  0.20336200  0.27762500  1
  S  S44  1  0.25000000  0.43295500  0.42930100  1
  S  S45  1  0.25000000  0.93295500  0.07069900  1
  S  S46  1  0.75000000  0.56704500  0.57069900  1
  S  S47  1  0.75000000  0.06704500  0.92930100  1
  S  S48  1  0.25000000  0.44407200  0.03428700  1
  S  S49  1  0.25000000  0.94407200  0.46571300  1
  S  S50  1  0.75000000  0.55592800  0.96571300  1
  S  S51  1  0.75000000  0.05592800  0.53428700  1
  S  S52  1  0.25000000  0.24664100  0.53375700  1
  S  S53  1  0.25000000  0.74664100  0.96624300  1
  S  S54  1  0.75000000  0.75335900  0.46624300  1
  S  S55  1  0.75000000  0.25335900  0.03375700  1
  S  S56  1  0.25000000  0.36512300  0.20048300  1
  S  S57  1  0.25000000  0.86512300  0.29951700  1
  S  S58  1  0.75000000  0.63487700  0.79951700  1
  S  S59  1  0.75000000  0.13487700  0.70048300  1
  S  S60  1  0.25000000  0.13475000  0.15419000  1
  S  S61  1  0.25000000  0.63475000  0.34581000  1
  S  S62  1  0.75000000  0.86525000  0.84581000  1
  S  S63  1  0.75000000  0.36525000  0.65419000  1
