# generated using pymatgen
data_NaY(C2O5)2
_symmetry_space_group_name_H-M   'P 1'
_cell_length_a   11.87957700
_cell_length_b   6.79751000
_cell_length_c   6.81830753
_cell_angle_alpha   78.31645153
_cell_angle_beta   90.00000000
_cell_angle_gamma   90.00000000
_symmetry_Int_Tables_number   1
_chemical_formula_structural   NaY(C2O5)2
_chemical_formula_sum   'Na2 Y2 C8 O20'
_cell_volume   539.18120495
_cell_formula_units_Z   2
loop_
 _symmetry_equiv_pos_site_id
 _symmetry_equiv_pos_as_xyz
  1  'x, y, z'
loop_
 _atom_site_type_symbol
 _atom_site_label
 _atom_site_symmetry_multiplicity
 _atom_site_fract_x
 _atom_site_fract_y
 _atom_site_fract_z
 _atom_site_occupancy
  Na  Na0  1  0.24659600  0.30878300  0.98692600  1
  Na  Na1  1  0.74659600  0.69121700  0.01307400  1
  Y  Y2  1  0.98473600  0.17050500  0.60674200  1
  Y  Y3  1  0.48473600  0.82949500  0.39325800  1
  C  C4  1  0.08449800  0.63277200  0.74464000  1
  C  C5  1  0.58449800  0.36722800  0.25536000  1
  C  C6  1  0.00773900  0.95839700  0.10306400  1
  C  C7  1  0.50773900  0.04160300  0.89693600  1
  C  C8  1  0.27520800  0.15541400  0.52526700  1
  C  C9  1  0.77520800  0.84458600  0.47473300  1
  C  C10  1  0.77826200  0.38480200  0.84135300  1
  C  C11  1  0.27826200  0.61519800  0.15864700  1
  O  O12  1  0.08185600  0.45570100  0.77263100  1
  O  O13  1  0.58185600  0.54429900  0.22736900  1
  O  O14  1  0.07376300  0.80722500  0.69199400  1
  O  O15  1  0.57376300  0.19277500  0.30800600  1
  O  O16  1  0.92437100  0.86200600  0.12928700  1
  O  O17  1  0.42437100  0.13799400  0.87071300  1
  O  O18  1  0.09545800  0.03412900  0.05621900  1
  O  O19  1  0.59545800  0.96587100  0.94378100  1
  O  O20  1  0.20314700  0.17854800  0.63810400  1
  O  O21  1  0.70314700  0.82145200  0.36189600  1
  O  O22  1  0.34869300  0.09706000  0.43765800  1
  O  O23  1  0.84869300  0.90294000  0.56234200  1
  O  O24  1  0.75947900  0.56210200  0.73346400  1
  O  O25  1  0.25947900  0.43789800  0.26653600  1
  O  O26  1  0.84014100  0.25559200  0.76631700  1
  O  O27  1  0.34014100  0.74440800  0.23368300  1
  O  O28  1  0.98147100  0.24610800  0.32455000  1
  O  O29  1  0.48147100  0.75389200  0.67545000  1
  O  O30  1  0.74148300  0.33470500  0.02204100  1
  O  O31  1  0.24148300  0.66529500  0.97795900  1
