# generated using pymatgen
data_Pr(Ga4Fe)2
_symmetry_space_group_name_H-M   'P 1'
_cell_length_a   4.05563500
_cell_length_b   12.63970700
_cell_length_c   14.30809500
_cell_angle_alpha   90.00000000
_cell_angle_beta   90.00000000
_cell_angle_gamma   90.00000000
_symmetry_Int_Tables_number   1
_chemical_formula_structural   Pr(Ga4Fe)2
_chemical_formula_sum   'Pr4 Ga32 Fe8'
_cell_volume   733.46211101
_cell_formula_units_Z   4
loop_
 _symmetry_equiv_pos_site_id
 _symmetry_equiv_pos_as_xyz
  1  'x, y, z'
loop_
 _atom_site_type_symbol
 _atom_site_label
 _atom_site_symmetry_multiplicity
 _atom_site_fract_x
 _atom_site_fract_y
 _atom_site_fract_z
 _atom_site_occupancy
  Pr  Pr0  1  0.00000000  0.84280800  0.18096000  1
  Pr  Pr1  1  0.00000000  0.15719200  0.81904000  1
  Pr  Pr2  1  0.00000000  0.65719200  0.68096000  1
  Pr  Pr3  1  0.00000000  0.34280800  0.31904000  1
  Ga  Ga4  1  0.00000000  0.50000000  0.50000000  1
  Ga  Ga5  1  0.00000000  0.00000000  0.00000000  1
  Ga  Ga6  1  0.50000000  0.00000000  0.50000000  1
  Ga  Ga7  1  0.50000000  0.50000000  0.00000000  1
  Ga  Ga8  1  0.50000000  0.73871100  0.32639000  1
  Ga  Ga9  1  0.50000000  0.26128900  0.67361000  1
  Ga  Ga10  1  0.50000000  0.76128900  0.82639000  1
  Ga  Ga11  1  0.50000000  0.23871100  0.17361000  1
  Ga  Ga12  1  0.50000000  0.95163500  0.31829200  1
  Ga  Ga13  1  0.50000000  0.04836500  0.68170800  1
  Ga  Ga14  1  0.50000000  0.54836500  0.81829200  1
  Ga  Ga15  1  0.50000000  0.45163500  0.18170800  1
  Ga  Ga16  1  0.50000000  0.66353000  0.12105800  1
  Ga  Ga17  1  0.50000000  0.33647000  0.87894200  1
  Ga  Ga18  1  0.50000000  0.83647000  0.62105800  1
  Ga  Ga19  1  0.50000000  0.16353000  0.37894200  1
  Ga  Ga20  1  0.00000000  0.83599700  0.45392100  1
  Ga  Ga21  1  0.00000000  0.16400300  0.54607900  1
  Ga  Ga22  1  0.00000000  0.66400300  0.95392100  1
  Ga  Ga23  1  0.00000000  0.33599700  0.04607900  1
  Ga  Ga24  1  0.00000000  0.59834000  0.24545400  1
  Ga  Ga25  1  0.00000000  0.40166000  0.75454600  1
  Ga  Ga26  1  0.00000000  0.90166000  0.74545400  1
  Ga  Ga27  1  0.00000000  0.09834000  0.25454600  1
  Ga  Ga28  1  0.50000000  0.83132700  0.00866300  1
  Ga  Ga29  1  0.50000000  0.16867300  0.99133700  1
  Ga  Ga30  1  0.50000000  0.66867300  0.50866300  1
  Ga  Ga31  1  0.50000000  0.33132700  0.49133700  1
  Ga  Ga32  1  0.50000000  0.52506000  0.36609100  1
  Ga  Ga33  1  0.50000000  0.47494000  0.63390900  1
  Ga  Ga34  1  0.50000000  0.97494000  0.86609100  1
  Ga  Ga35  1  0.50000000  0.02506000  0.13390900  1
  Fe  Fe36  1  0.00000000  0.65204800  0.40314200  1
  Fe  Fe37  1  0.00000000  0.34795200  0.59685800  1
  Fe  Fe38  1  0.00000000  0.84795200  0.90314200  1
  Fe  Fe39  1  0.00000000  0.15204800  0.09685800  1
  Fe  Fe40  1  0.00000000  0.53381100  0.09088200  1
  Fe  Fe41  1  0.00000000  0.46618900  0.90911800  1
  Fe  Fe42  1  0.00000000  0.96618900  0.59088200  1
  Fe  Fe43  1  0.00000000  0.03381100  0.40911800  1
