# generated using pymatgen
data_Ca2CoSi2O7
_symmetry_space_group_name_H-M   'P 1'
_cell_length_a   5.08158266
_cell_length_b   23.75756253
_cell_length_c   23.70800157
_cell_angle_alpha   90.00000000
_cell_angle_beta   90.00000000
_cell_angle_gamma   90.00000000
_symmetry_Int_Tables_number   1
_chemical_formula_structural   Ca2CoSi2O7
_chemical_formula_sum   'Ca36 Co18 Si36 O126'
_cell_volume   2862.17261945
_cell_formula_units_Z   18
loop_
 _symmetry_equiv_pos_site_id
 _symmetry_equiv_pos_as_xyz
  1  'x, y, z'
loop_
 _atom_site_type_symbol
 _atom_site_label
 _atom_site_symmetry_multiplicity
 _atom_site_fract_x
 _atom_site_fract_y
 _atom_site_fract_z
 _atom_site_occupancy
  Ca  Ca0  1  0.49926674  0.39241323  0.55323295  1
  Ca  Ca1  1  0.49926674  0.60758677  0.44676705  1
  Ca  Ca2  1  0.50073326  0.89241323  0.94676705  1
  Ca  Ca3  1  0.50073326  0.10758677  0.05323295  1
  Ca  Ca4  1  0.51193971  0.38519805  0.89246623  1
  Ca  Ca5  1  0.51193971  0.61480195  0.10753377  1
  Ca  Ca6  1  0.48806029  0.88519805  0.60753377  1
  Ca  Ca7  1  0.48806029  0.11480195  0.39246623  1
  Ca  Ca8  1  0.49947613  0.44479943  0.72557251  1
  Ca  Ca9  1  0.49947613  0.55520057  0.27442749  1
  Ca  Ca10  1  0.50052387  0.94479943  0.77442749  1
  Ca  Ca11  1  0.50052387  0.05520057  0.22557251  1
  Ca  Ca12  1  0.48663038  0.22515467  0.61096758  1
  Ca  Ca13  1  0.48663038  0.77484533  0.38903242  1
  Ca  Ca14  1  0.51336962  0.72515467  0.88903242  1
  Ca  Ca15  1  0.51336962  0.27484533  0.11096758  1
  Ca  Ca16  1  0.52550211  0.23184475  0.95032439  1
  Ca  Ca17  1  0.52550211  0.76815525  0.04967561  1
  Ca  Ca18  1  0.47449789  0.73184475  0.54967561  1
  Ca  Ca19  1  0.47449789  0.26815525  0.45032439  1
  Ca  Ca20  1  0.47666959  0.28456856  0.76482218  1
  Ca  Ca21  1  0.47666959  0.71543144  0.23517782  1
  Ca  Ca22  1  0.52333041  0.78456856  0.73517782  1
  Ca  Ca23  1  0.52333041  0.21543144  0.26482218  1
  Ca  Ca24  1  0.47802776  0.05895618  0.55259489  1
  Ca  Ca25  1  0.47802776  0.94104382  0.44740511  1
  Ca  Ca26  1  0.52197224  0.55895618  0.94740511  1
  Ca  Ca27  1  0.52197224  0.44104382  0.05259489  1
  Ca  Ca28  1  0.48492712  0.04916211  0.89841599  1
  Ca  Ca29  1  0.48492712  0.95083789  0.10158401  1
  Ca  Ca30  1  0.51507288  0.54916211  0.60158401  1
  Ca  Ca31  1  0.51507288  0.45083789  0.39841599  1
  Ca  Ca32  1  0.50624940  0.09775229  0.71220175  1
  Ca  Ca33  1  0.50624940  0.90224771  0.28779825  1
  Ca  Ca34  1  0.49375060  0.59775229  0.78779825  1
  Ca  Ca35  1  0.49375060  0.40224771  0.21220175  1
  Co  Co36  1  0.00537469  0.50000000  0.50000000  1
  Co  Co37  1  0.99462531  -0.00000000  -0.00000000  1
  Co  Co38  1  0.99262556  0.49343955  0.83632205  1
  Co  Co39  1  0.99262556  0.50656045  0.16367795  1
  Co  Co40  1  0.00737444  0.99343955  0.66367795  1
  Co  Co41  1  0.00737444  0.00656045  0.33632205  1
  Co  Co42  1  0.98931983  0.33667035  0.66126287  1
  Co  Co43  1  0.98931983  0.66332965  0.33873713  1
  Co  Co44  1  0.01068017  0.83667035  0.83873713  1
  Co  Co45  1  0.01068017  0.16332965  0.16126287  1
  Co  Co46  1  0.98921164  0.16633104  0.50214042  1
  Co  Co47  1  0.98921164  0.83366896  0.49785958  1
  Co  Co48  1  0.01078836  0.66633104  0.99785958  1
  Co  Co49  1  0.01078836  0.33366896  0.00214042  1
  Co  Co50  1  0.99469390  0.16520708  0.83029226  1
  Co  Co51  1  0.99469390  0.83479292  0.16970774  1
  Co  Co52  1  0.00530610  0.66520708  0.66970774  1
  Co  Co53  1  0.00530610  0.33479292  0.33029226  1
  Si  Si54  1  0.07011416  0.45805690  0.62072640  1
  Si  Si55  1  0.07011416  0.54194310  0.37927360  1
  Si  Si56  1  0.92988584  0.95805690  0.87927360  1
  Si  Si57  1  0.92988584  0.04194310  0.12072640  1
  Si  Si58  1  0.08355028  0.45087750  0.95590512  1
  Si  Si59  1  0.08355028  0.54912250  0.04409488  1
  Si  Si60  1  0.91644972  0.95087750  0.54409488  1
  Si  Si61  1  0.91644972  0.04912250  0.45590512  1
  Si  Si62  1  0.93095012  0.37398193  0.78543123  1
  Si  Si63  1  0.93095012  0.62601807  0.21456877  1
  Si  Si64  1  0.06904988  0.87398193  0.71456877  1
  Si  Si65  1  0.06904988  0.12601807  0.28543123  1
  Si  Si66  1  0.92544986  0.28793035  0.54122562  1
  Si  Si67  1  0.92544986  0.71206965  0.45877438  1
  Si  Si68  1  0.07455014  0.78793035  0.95877438  1
  Si  Si69  1  0.07455014  0.21206965  0.04122562  1
  Si  Si70  1  0.95607579  0.28528323  0.88198279  1
  Si  Si71  1  0.95607579  0.71471677  0.11801721  1
  Si  Si72  1  0.04392421  0.78528323  0.61801721  1
  Si  Si73  1  0.04392421  0.21471677  0.38198279  1
  Si  Si74  1  0.03896366  0.21690596  0.70995695  1
  Si  Si75  1  0.03896366  0.78309404  0.29004305  1
  Si  Si76  1  0.96103634  0.71690596  0.79004305  1
  Si  Si77  1  0.96103634  0.28309404  0.20995695  1
  Si  Si78  1  0.05312666  0.11865701  0.62272393  1
  Si  Si79  1  0.05312666  0.88134299  0.37727607  1
  Si  Si80  1  0.94687334  0.61865701  0.87727607  1
  Si  Si81  1  0.94687334  0.38134299  0.12272393  1
  Si  Si82  1  0.05038593  0.11738156  0.95152529  1
  Si  Si83  1  0.05038593  0.88261844  0.04847471  1
  Si  Si84  1  0.94961407  0.61738156  0.54847471  1
  Si  Si85  1  0.94961407  0.38261844  0.45152529  1
  Si  Si86  1  0.94137876  0.04442214  0.77965094  1
  Si  Si87  1  0.94137876  0.95557786  0.22034906  1
  Si  Si88  1  0.05862124  0.54442214  0.72034906  1
  Si  Si89  1  0.05862124  0.45557786  0.27965094  1
  O  O90  1  0.18173228  0.50836392  0.66493039  1
  O  O91  1  0.18173228  0.49163608  0.33506961  1
  O  O92  1  0.81826772  0.00836392  0.83506961  1
  O  O93  1  0.81826772  0.99163608  0.16493039  1
  O  O94  1  0.82460238  0.32616718  0.48543299  1
  O  O95  1  0.82460238  0.67383282  0.51456701  1
  O  O96  1  0.17539762  0.82616718  0.01456701  1
  O  O97  1  0.17539762  0.17383282  0.98543299  1
  O  O98  1  0.82799210  0.32037742  0.82637544  1
  O  O99  1  0.82799210  0.67962258  0.17362456  1
  O  O100  1  0.17200790  0.82037742  0.67362456  1
  O  O101  1  0.17200790  0.17962258  0.32637544  1
  O  O102  1  0.16073276  0.16021053  0.67547396  1
  O  O103  1  0.16073276  0.83978947  0.32452604  1
  O  O104  1  0.83926724  0.66021053  0.82452604  1
  O  O105  1  0.83926724  0.33978947  0.17547396  1
  O  O106  1  0.79555672  -0.00000000  0.50000000  1
  O  O107  1  0.20444328  0.50000000  -0.00000000  1
  O  O108  1  0.75272389  0.45790270  0.61766465  1
  O  O109  1  0.75272389  0.54209730  0.38233535  1
  O  O110  1  0.24727611  0.95790270  0.88233535  1
  O  O111  1  0.24727611  0.04209730  0.11766465  1
  O  O112  1  0.76586452  0.44930436  0.95805321  1
  O  O113  1  0.76586452  0.55069564  0.04194679  1
  O  O114  1  0.23413548  0.94930436  0.54194679  1
  O  O115  1  0.23413548  0.05069564  0.45805321  1
  O  O116  1  0.24780858  0.37537350  0.78088045  1
  O  O117  1  0.24780858  0.62462650  0.21911955  1
  O  O118  1  0.75219142  0.87537350  0.71911955  1
  O  O119  1  0.75219142  0.12462650  0.28088045  1
  O  O120  1  0.24295558  0.28416307  0.54317292  1
  O  O121  1  0.24295558  0.71583693  0.45682708  1
  O  O122  1  0.75704442  0.78416307  0.95682708  1
  O  O123  1  0.75704442  0.21583693  0.04317292  1
  O  O124  1  0.27218936  0.29162710  0.88555434  1
  O  O125  1  0.27218936  0.70837290  0.11444566  1
  O  O126  1  0.72781064  0.79162710  0.61444566  1
  O  O127  1  0.72781064  0.20837290  0.38555434  1
  O  O128  1  0.72317997  0.22129539  0.70312527  1
  O  O129  1  0.72317997  0.77870461  0.29687473  1
  O  O130  1  0.27682003  0.72129539  0.79687473  1
  O  O131  1  0.27682003  0.27870461  0.20312527  1
  O  O132  1  0.73584183  0.11509928  0.62105092  1
  O  O133  1  0.73584183  0.88490072  0.37894908  1
  O  O134  1  0.26415817  0.61509928  0.87894908  1
  O  O135  1  0.26415817  0.38490072  0.12105092  1
  O  O136  1  0.73432273  0.11380268  0.95854000  1
  O  O137  1  0.73432273  0.88619732  0.04146000  1
  O  O138  1  0.26567727  0.61380268  0.54146000  1
  O  O139  1  0.26567727  0.38619732  0.45854000  1
  O  O140  1  0.25674264  0.03776068  0.77456835  1
  O  O141  1  0.25674264  0.96223932  0.22543165  1
  O  O142  1  0.74325736  0.53776068  0.72543165  1
  O  O143  1  0.74325736  0.46223932  0.27456835  1
  O  O144  1  0.22939388  0.47553262  0.56273315  1
  O  O145  1  0.22939388  0.52446738  0.43726685  1
  O  O146  1  0.77060612  0.97553262  0.93726685  1
  O  O147  1  0.77060612  0.02446738  0.06273315  1
  O  O148  1  0.21960816  0.40063462  0.64226558  1
  O  O149  1  0.21960816  0.59936538  0.35773442  1
  O  O150  1  0.78039184  0.90063462  0.85773442  1
  O  O151  1  0.78039184  0.09936538  0.14226558  1
  O  O152  1  0.22652041  0.46645633  0.89612929  1
  O  O153  1  0.22652041  0.53354367  0.10387071  1
  O  O154  1  0.77347959  0.96645633  0.60387071  1
  O  O155  1  0.77347959  0.03354367  0.39612929  1
  O  O156  1  0.24374998  0.39514662  0.97908981  1
  O  O157  1  0.24374998  0.60485338  0.02091019  1
  O  O158  1  0.75625002  0.89514662  0.52091019  1
  O  O159  1  0.75625002  0.10485338  0.47908981  1
  O  O160  1  0.77209516  0.36106149  0.72616652  1
  O  O161  1  0.77209516  0.63893851  0.27383348  1
  O  O162  1  0.22790484  0.86106149  0.77383348  1
  O  O163  1  0.22790484  0.13893851  0.22616652  1
  O  O164  1  0.77788806  0.42855532  0.81288770  1
  O  O165  1  0.77788806  0.57144468  0.18711230  1
  O  O166  1  0.22211194  0.92855532  0.68711230  1
  O  O167  1  0.22211194  0.07144468  0.31288770  1
  O  O168  1  0.77350590  0.31730186  0.59489244  1
  O  O169  1  0.77350590  0.68269814  0.40510756  1
  O  O170  1  0.22649410  0.81730186  0.90510756  1
  O  O171  1  0.22649410  0.18269814  0.09489244  1
  O  O172  1  0.76718072  0.22849525  0.53002003  1
  O  O173  1  0.76718072  0.77150475  0.46997997  1
  O  O174  1  0.23281928  0.72849525  0.96997997  1
  O  O175  1  0.23281928  0.27150475  0.03002003  1
  O  O176  1  0.79595692  0.31442744  0.93576328  1
  O  O177  1  0.79595692  0.68557256  0.06423672  1
  O  O178  1  0.20404308  0.81442744  0.56423672  1
  O  O179  1  0.20404308  0.18557256  0.43576328  1
  O  O180  1  0.82894401  0.22234446  0.87837790  1
  O  O181  1  0.82894401  0.77765554  0.12162210  1
  O  O182  1  0.17105599  0.72234446  0.62162210  1
  O  O183  1  0.17105599  0.27765554  0.37837790  1
  O  O184  1  0.16302861  0.21330595  0.77327603  1
  O  O185  1  0.16302861  0.78669405  0.22672397  1
  O  O186  1  0.83697139  0.71330595  0.72672397  1
  O  O187  1  0.83697139  0.28669405  0.27327603  1
  O  O188  1  0.20250246  0.26956944  0.68014448  1
  O  O189  1  0.20250246  0.73043056  0.31985552  1
  O  O190  1  0.79749754  0.76956944  0.81985552  1
  O  O191  1  0.79749754  0.23043056  0.18014448  1
  O  O192  1  0.20698211  0.14413631  0.56721048  1
  O  O193  1  0.20698211  0.85586369  0.43278952  1
  O  O194  1  0.79301789  0.64413631  0.93278952  1
  O  O195  1  0.79301789  0.35586369  0.06721048  1
  O  O196  1  0.20956953  0.05928507  0.63612145  1
  O  O197  1  0.20956953  0.94071493  0.36387855  1
  O  O198  1  0.79043047  0.55928507  0.86387855  1
  O  O199  1  0.79043047  0.44071493  0.13612145  1
  O  O200  1  0.17102516  0.11916360  0.88779107  1
  O  O201  1  0.17102516  0.88083640  0.11220893  1
  O  O202  1  0.82897484  0.61916360  0.61220893  1
  O  O203  1  0.82897484  0.38083640  0.38779107  1
  O  O204  1  0.21606690  0.06525665  0.98186906  1
  O  O205  1  0.21606690  0.93474335  0.01813094  1
  O  O206  1  0.78393310  0.56525665  0.51813094  1
  O  O207  1  0.78393310  0.43474335  0.48186906  1
  O  O208  1  0.77660821  0.01549078  0.72671434  1
  O  O209  1  0.77660821  0.98450922  0.27328566  1
  O  O210  1  0.22339179  0.51549078  0.77328566  1
  O  O211  1  0.22339179  0.48450922  0.22671434  1
  O  O212  1  0.81674325  0.10762739  0.78440337  1
  O  O213  1  0.81674325  0.89237261  0.21559663  1
  O  O214  1  0.18325675  0.60762739  0.71559663  1
  O  O215  1  0.18325675  0.39237261  0.28440337  1
