# generated using pymatgen
data_CuH14C4(NO2)4
_symmetry_space_group_name_H-M   'P 1'
_cell_length_a   8.03530629
_cell_length_b   9.15918894
_cell_length_c   8.32937400
_cell_angle_alpha   90.00000000
_cell_angle_beta   90.00000000
_cell_angle_gamma   99.12322407
_symmetry_Int_Tables_number   1
_chemical_formula_structural   CuH14C4(NO2)4
_chemical_formula_sum   'Cu2 H28 C8 N8 O16'
_cell_volume   605.26112303
_cell_formula_units_Z   2
loop_
 _symmetry_equiv_pos_site_id
 _symmetry_equiv_pos_as_xyz
  1  'x, y, z'
loop_
 _atom_site_type_symbol
 _atom_site_label
 _atom_site_symmetry_multiplicity
 _atom_site_fract_x
 _atom_site_fract_y
 _atom_site_fract_z
 _atom_site_occupancy
  Cu  Cu0  1  0.50000000  0.00000000  0.50000000  1
  Cu  Cu1  1  0.00000000  0.00000000  0.00000000  1
  H  H2  1  0.96698500  0.71430800  0.24449000  1
  H  H3  1  0.53301500  0.28569200  0.74449000  1
  H  H4  1  0.03301500  0.28569200  0.75551000  1
  H  H5  1  0.46698500  0.71430800  0.25551000  1
  H  H6  1  0.80823400  0.56182900  0.21971900  1
  H  H7  1  0.69176600  0.43817100  0.71971900  1
  H  H8  1  0.19176600  0.43817100  0.78028100  1
  H  H9  1  0.30823400  0.56182900  0.28028100  1
  H  H10  1  0.05965900  0.79225800  0.49350300  1
  H  H11  1  0.44034100  0.20774100  0.99350300  1
  H  H12  1  0.94034100  0.20774100  0.50649700  1
  H  H13  1  0.55965900  0.79225800  0.00649700  1
  H  H14  1  0.95520300  0.71733800  0.66769000  1
  H  H15  1  0.54479700  0.28266200  0.16769000  1
  H  H16  1  0.04479700  0.28266200  0.33231000  1
  H  H17  1  0.45520300  0.71733800  0.83231000  1
  H  H18  1  0.61948000  0.36730200  0.43296400  1
  H  H19  1  0.88052000  0.63269800  0.93296400  1
  H  H20  1  0.38052000  0.63269800  0.56703600  1
  H  H21  1  0.11948000  0.36730200  0.06703600  1
  H  H22  1  0.42647400  0.33509900  0.42255700  1
  H  H23  1  0.07352600  0.66490100  0.92255700  1
  H  H24  1  0.57352600  0.66490100  0.57744300  1
  H  H25  1  0.92647400  0.33509900  0.07744300  1
  H  H26  1  0.82721300  0.06723500  0.29905600  1
  H  H27  1  0.67278700  0.93276500  0.79905600  1
  H  H28  1  0.17278700  0.93276500  0.70094400  1
  H  H29  1  0.32721300  0.06723500  0.20094400  1
  C  C30  1  0.73529700  0.98704200  0.23310200  1
  C  C31  1  0.76470300  0.01295800  0.73310200  1
  C  C32  1  0.26470300  0.01295800  0.76689800  1
  C  C33  1  0.23529700  0.98704200  0.26689800  1
  C  C34  1  0.85531300  0.63058400  0.45455000  1
  C  C35  1  0.64468700  0.36941600  0.95455000  1
  C  C36  1  0.14468700  0.36941600  0.54545000  1
  C  C37  1  0.35531300  0.63058400  0.04545000  1
  N  N38  1  0.88195600  0.63323600  0.29461100  1
  N  N39  1  0.61804400  0.36676400  0.79461100  1
  N  N40  1  0.11804400  0.36676400  0.70538900  1
  N  N41  1  0.38195600  0.63323600  0.20538900  1
  N  N42  1  0.95709700  0.73031200  0.54502100  1
  N  N43  1  0.54290300  0.26968800  0.04502100  1
  N  N44  1  0.04290300  0.26968800  0.45497900  1
  N  N45  1  0.45709700  0.73031200  0.95497900  1
  O  O46  1  0.59370400  0.93801800  0.29683200  1
  O  O47  1  0.90629600  0.06198200  0.79683200  1
  O  O48  1  0.40629600  0.06198200  0.70316800  1
  O  O49  1  0.09370400  0.93801800  0.20316800  1
  O  O50  1  0.77347200  0.94452700  0.09432100  1
  O  O51  1  0.72652800  0.05547300  0.59432100  1
  O  O52  1  0.22652800  0.05547300  0.90567900  1
  O  O53  1  0.27347200  0.94452700  0.40567900  1
  O  O54  1  0.73634500  0.54077300  0.51872100  1
  O  O55  1  0.76365500  0.45922700  0.01872100  1
  O  O56  1  0.26365500  0.45922700  0.48127900  1
  O  O57  1  0.23634500  0.54077300  0.98127900  1
  O  O58  1  0.52665800  0.28815100  0.39989400  1
  O  O59  1  0.97334200  0.71184900  0.89989400  1
  O  O60  1  0.47334200  0.71184900  0.60010600  1
  O  O61  1  0.02665800  0.28815100  0.10010600  1
