# generated using pymatgen
data_Mg14AlFeO16
_symmetry_space_group_name_H-M   'P 1'
_cell_length_a   4.24257100
_cell_length_b   8.50152400
_cell_length_c   8.54855600
_cell_angle_alpha   90.00000000
_cell_angle_beta   90.00000000
_cell_angle_gamma   90.00000000
_symmetry_Int_Tables_number   1
_chemical_formula_structural   Mg14AlFeO16
_chemical_formula_sum   'Mg14 Al1 Fe1 O16'
_cell_volume   308.33204632
_cell_formula_units_Z   1
loop_
 _symmetry_equiv_pos_site_id
 _symmetry_equiv_pos_as_xyz
  1  'x, y, z'
loop_
 _atom_site_type_symbol
 _atom_site_label
 _atom_site_symmetry_multiplicity
 _atom_site_fract_x
 _atom_site_fract_y
 _atom_site_fract_z
 _atom_site_occupancy
  Mg  Mg0  1  0.00000000  0.50000000  0.00000000  1
  Mg  Mg1  1  0.00000000  0.50000000  0.50000000  1
  Mg  Mg2  1  0.50000000  0.00000000  0.25565400  1
  Mg  Mg3  1  0.50000000  0.00000000  0.74434600  1
  Mg  Mg4  1  0.50000000  0.50000000  0.25145000  1
  Mg  Mg5  1  0.50000000  0.50000000  0.74855000  1
  Mg  Mg6  1  0.50000000  0.24958000  0.00000000  1
  Mg  Mg7  1  0.50000000  0.24863900  0.50000000  1
  Mg  Mg8  1  0.50000000  0.75042000  0.00000000  1
  Mg  Mg9  1  0.50000000  0.75136100  0.50000000  1
  Mg  Mg10  1  0.00000000  0.24739300  0.25465500  1
  Mg  Mg11  1  0.00000000  0.24739300  0.74534500  1
  Mg  Mg12  1  0.00000000  0.75260700  0.25465500  1
  Mg  Mg13  1  0.00000000  0.75260700  0.74534500  1
  Al  Al14  1  0.00000000  0.00000000  0.00000000  1
  Fe  Fe15  1  0.00000000  0.00000000  0.50000000  1
  O  O16  1  0.00000000  0.23660600  0.00000000  1
  O  O17  1  0.00000000  0.26196600  0.50000000  1
  O  O18  1  0.00000000  0.76339400  0.00000000  1
  O  O19  1  0.00000000  0.73803400  0.50000000  1
  O  O20  1  0.50000000  0.24903200  0.24932700  1
  O  O21  1  0.50000000  0.24903200  0.75067300  1
  O  O22  1  0.50000000  0.75096800  0.24932700  1
  O  O23  1  0.50000000  0.75096800  0.75067300  1
  O  O24  1  0.50000000  0.00000000  0.00000000  1
  O  O25  1  0.50000000  0.00000000  0.50000000  1
  O  O26  1  0.50000000  0.50000000  0.00000000  1
  O  O27  1  0.50000000  0.50000000  0.50000000  1
  O  O28  1  0.00000000  0.00000000  0.21546900  1
  O  O29  1  0.00000000  0.00000000  0.78453100  1
  O  O30  1  0.00000000  0.50000000  0.24411000  1
  O  O31  1  0.00000000  0.50000000  0.75589000  1
