# generated using pymatgen
data_Ho2ZrS5
_symmetry_space_group_name_H-M   'P 1'
_cell_length_a   7.25282100
_cell_length_b   7.73937700
_cell_length_c   11.58315700
_cell_angle_alpha   90.00000000
_cell_angle_beta   90.00000000
_cell_angle_gamma   90.00000000
_symmetry_Int_Tables_number   1
_chemical_formula_structural   Ho2ZrS5
_chemical_formula_sum   'Ho8 Zr4 S20'
_cell_volume   650.18942938
_cell_formula_units_Z   4
loop_
 _symmetry_equiv_pos_site_id
 _symmetry_equiv_pos_as_xyz
  1  'x, y, z'
loop_
 _atom_site_type_symbol
 _atom_site_label
 _atom_site_symmetry_multiplicity
 _atom_site_fract_x
 _atom_site_fract_y
 _atom_site_fract_z
 _atom_site_occupancy
  Ho  Ho0  1  0.52100300  0.49723400  0.32070000  1
  Ho  Ho1  1  0.97899700  0.00276600  0.82070000  1
  Ho  Ho2  1  0.47899700  0.99723400  0.67930000  1
  Ho  Ho3  1  0.02100300  0.50276600  0.17930000  1
  Ho  Ho4  1  0.47899700  0.50276600  0.67930000  1
  Ho  Ho5  1  0.02100300  0.99723400  0.17930000  1
  Ho  Ho6  1  0.52100300  0.00276600  0.32070000  1
  Ho  Ho7  1  0.97899700  0.49723400  0.82070000  1
  Zr  Zr8  1  0.07921000  0.75000000  0.49323200  1
  Zr  Zr9  1  0.42079000  0.75000000  0.99323200  1
  Zr  Zr10  1  0.92079000  0.25000000  0.50676800  1
  Zr  Zr11  1  0.57921000  0.25000000  0.00676800  1
  S  S12  1  0.83893600  0.96197700  0.59558400  1
  S  S13  1  0.66106400  0.53802300  0.09558400  1
  S  S14  1  0.16106400  0.46197700  0.40441600  1
  S  S15  1  0.33893600  0.03802300  0.90441600  1
  S  S16  1  0.16106400  0.03802300  0.40441600  1
  S  S17  1  0.33893600  0.46197700  0.90441600  1
  S  S18  1  0.83893600  0.53802300  0.59558400  1
  S  S19  1  0.66106400  0.96197700  0.09558400  1
  S  S20  1  0.83064500  0.75000000  0.31748600  1
  S  S21  1  0.66935500  0.75000000  0.81748600  1
  S  S22  1  0.16935500  0.25000000  0.68251400  1
  S  S23  1  0.33064500  0.25000000  0.18251400  1
  S  S24  1  0.45073500  0.75000000  0.49745600  1
  S  S25  1  0.04926500  0.75000000  0.99745600  1
  S  S26  1  0.54926500  0.25000000  0.50254400  1
  S  S27  1  0.95073500  0.25000000  0.00254400  1
  S  S28  1  0.19189900  0.75000000  0.70879900  1
  S  S29  1  0.30810100  0.75000000  0.20879900  1
  S  S30  1  0.80810100  0.25000000  0.29120100  1
  S  S31  1  0.69189900  0.25000000  0.79120100  1
