# generated using pymatgen
data_Mg2CClO6
_symmetry_space_group_name_H-M   'P 1'
_cell_length_a   13.47538101
_cell_length_b   13.47538101
_cell_length_c   13.47538079
_cell_angle_alpha   116.61363580
_cell_angle_beta   116.61363580
_cell_angle_gamma   116.61362963
_symmetry_Int_Tables_number   1
_chemical_formula_structural   Mg2CClO6
_chemical_formula_sum   'Mg12 C6 Cl6 O36'
_cell_volume   1142.92436499
_cell_formula_units_Z   6
loop_
 _symmetry_equiv_pos_site_id
 _symmetry_equiv_pos_as_xyz
  1  'x, y, z'
loop_
 _atom_site_type_symbol
 _atom_site_label
 _atom_site_symmetry_multiplicity
 _atom_site_fract_x
 _atom_site_fract_y
 _atom_site_fract_z
 _atom_site_occupancy
  Mg  Mg0  1  0.66764100  0.24652200  0.26854500  1
  Mg  Mg1  1  0.26854500  0.66764100  0.24652200  1
  Mg  Mg2  1  0.24652200  0.26854500  0.66764100  1
  Mg  Mg3  1  0.76854500  0.74652200  0.16764100  1
  Mg  Mg4  1  0.16764100  0.76854500  0.74652200  1
  Mg  Mg5  1  0.74652200  0.16764100  0.76854500  1
  Mg  Mg6  1  0.13961200  0.88563500  0.54215900  1
  Mg  Mg7  1  0.54215900  0.13961200  0.88563500  1
  Mg  Mg8  1  0.88563500  0.54215900  0.13961200  1
  Mg  Mg9  1  0.04215900  0.38563500  0.63961200  1
  Mg  Mg10  1  0.63961200  0.04215900  0.38563500  1
  Mg  Mg11  1  0.38563500  0.63961200  0.04215900  1
  C  C12  1  0.86648600  0.47938900  0.32092400  1
  C  C13  1  0.32092400  0.86648600  0.47938900  1
  C  C14  1  0.47938900  0.32092400  0.86648600  1
  C  C15  1  0.82092400  0.97938900  0.36648600  1
  C  C16  1  0.36648600  0.82092400  0.97938900  1
  C  C17  1  0.97938900  0.36648600  0.82092400  1
  Cl  Cl18  1  0.49505500  0.34073300  0.17311200  1
  Cl  Cl19  1  0.17311200  0.49505500  0.34073300  1
  Cl  Cl20  1  0.34073300  0.17311200  0.49505500  1
  Cl  Cl21  1  0.67311200  0.84073300  0.99505500  1
  Cl  Cl22  1  0.99505500  0.67311200  0.84073300  1
  Cl  Cl23  1  0.84073300  0.99505500  0.67311200  1
  O  O24  1  0.55426800  0.30814700  0.27551400  1
  O  O25  1  0.27551400  0.55426800  0.30814700  1
  O  O26  1  0.30814700  0.27551400  0.55426800  1
  O  O27  1  0.77551400  0.80814700  0.05426800  1
  O  O28  1  0.05426800  0.77551400  0.80814700  1
  O  O29  1  0.80814700  0.05426800  0.77551400  1
  O  O30  1  0.91813500  0.53394300  0.46042800  1
  O  O31  1  0.46042800  0.91813500  0.53394300  1
  O  O32  1  0.53394300  0.46042800  0.91813500  1
  O  O33  1  0.96042800  0.03394300  0.41813500  1
  O  O34  1  0.41813500  0.96042800  0.03394300  1
  O  O35  1  0.03394300  0.41813500  0.96042800  1
  O  O36  1  0.71230800  0.29592700  0.15571500  1
  O  O37  1  0.15571500  0.71230800  0.29592700  1
  O  O38  1  0.29592700  0.15571500  0.71230800  1
  O  O39  1  0.65571500  0.79592700  0.21230800  1
  O  O40  1  0.21230800  0.65571500  0.79592700  1
  O  O41  1  0.79592700  0.21230800  0.65571500  1
  O  O42  1  0.96024500  0.59792100  0.34383400  1
  O  O43  1  0.34383400  0.96024500  0.59792100  1
  O  O44  1  0.59792100  0.34383400  0.96024500  1
  O  O45  1  0.84383400  0.09792100  0.46024500  1
  O  O46  1  0.46024500  0.84383400  0.09792100  1
  O  O47  1  0.09792100  0.46024500  0.84383400  1
  O  O48  1  0.28360300  0.95529100  0.76661200  1
  O  O49  1  0.76661200  0.28360300  0.95529100  1
  O  O50  1  0.95529100  0.76661200  0.28360300  1
  O  O51  1  0.26661200  0.45529100  0.78360300  1
  O  O52  1  0.78360300  0.26661200  0.45529100  1
  O  O53  1  0.45529100  0.78360300  0.26661200  1
  O  O54  1  0.88646300  0.75759800  0.34383000  1
  O  O55  1  0.34383000  0.88646300  0.75759800  1
  O  O56  1  0.75759800  0.34383000  0.88646300  1
  O  O57  1  0.84383000  0.25759800  0.38646300  1
  O  O58  1  0.38646300  0.84383000  0.25759800  1
  O  O59  1  0.25759800  0.38646300  0.84383000  1
