# generated using pymatgen
data_Pd(IN)2
_symmetry_space_group_name_H-M   'P 1'
_cell_length_a   8.56583500
_cell_length_b   10.11621100
_cell_length_c   13.47801300
_cell_angle_alpha   90.00000000
_cell_angle_beta   90.00000000
_cell_angle_gamma   90.00000000
_symmetry_Int_Tables_number   1
_chemical_formula_structural   Pd(IN)2
_chemical_formula_sum   'Pd8 I16 N16'
_cell_volume   1167.92096542
_cell_formula_units_Z   8
loop_
 _symmetry_equiv_pos_site_id
 _symmetry_equiv_pos_as_xyz
  1  'x, y, z'
loop_
 _atom_site_type_symbol
 _atom_site_label
 _atom_site_symmetry_multiplicity
 _atom_site_fract_x
 _atom_site_fract_y
 _atom_site_fract_z
 _atom_site_occupancy
  Pd  Pd0  1  0.37022700  0.85848300  0.26806400  1
  Pd  Pd1  1  0.62977300  0.64151700  0.76806400  1
  Pd  Pd2  1  0.12977300  0.35848300  0.73193600  1
  Pd  Pd3  1  0.87022700  0.14151700  0.23193600  1
  Pd  Pd4  1  0.62977300  0.14151700  0.73193600  1
  Pd  Pd5  1  0.37022700  0.35848300  0.23193600  1
  Pd  Pd6  1  0.87022700  0.64151700  0.26806400  1
  Pd  Pd7  1  0.12977300  0.85848300  0.76806400  1
  I  I8  1  0.32900600  0.64620200  0.44281300  1
  I  I9  1  0.67099400  0.85379800  0.94281300  1
  I  I10  1  0.17099400  0.14620200  0.55718700  1
  I  I11  1  0.82900600  0.35379800  0.05718700  1
  I  I12  1  0.67099400  0.35379800  0.55718700  1
  I  I13  1  0.32900600  0.14620200  0.05718700  1
  I  I14  1  0.82900600  0.85379800  0.44281300  1
  I  I15  1  0.17099400  0.64620200  0.94281300  1
  I  I16  1  0.59594100  0.63662600  0.17779700  1
  I  I17  1  0.40405900  0.86337400  0.67779700  1
  I  I18  1  0.90405900  0.13662600  0.82220300  1
  I  I19  1  0.09594100  0.36337400  0.32220300  1
  I  I20  1  0.40405900  0.36337400  0.82220300  1
  I  I21  1  0.59594100  0.13662600  0.32220300  1
  I  I22  1  0.09594100  0.86337400  0.17779700  1
  I  I23  1  0.90405900  0.63662600  0.67779700  1
  N  N24  1  0.35828800  0.83992600  0.40559300  1
  N  N25  1  0.64171200  0.66007400  0.90559300  1
  N  N26  1  0.14171200  0.33992600  0.59440700  1
  N  N27  1  0.85828800  0.16007400  0.09440700  1
  N  N28  1  0.64171200  0.16007400  0.59440700  1
  N  N29  1  0.35828800  0.33992600  0.09440700  1
  N  N30  1  0.85828800  0.66007400  0.40559300  1
  N  N31  1  0.14171200  0.83992600  0.90559300  1
  N  N32  1  0.55422500  0.83582700  0.19227500  1
  N  N33  1  0.44577500  0.66417300  0.69227500  1
  N  N34  1  0.94577500  0.33582700  0.80772500  1
  N  N35  1  0.05422500  0.16417300  0.30772500  1
  N  N36  1  0.44577500  0.16417300  0.80772500  1
  N  N37  1  0.55422500  0.33582700  0.30772500  1
  N  N38  1  0.05422500  0.66417300  0.19227500  1
  N  N39  1  0.94577500  0.83582700  0.69227500  1
