# generated using pymatgen
data_ZnB2(NF2)4
_symmetry_space_group_name_H-M   'P 1'
_cell_length_a   5.62836100
_cell_length_b   11.89774600
_cell_length_c   16.00092800
_cell_angle_alpha   90.00000000
_cell_angle_beta   90.00000000
_cell_angle_gamma   90.00000000
_symmetry_Int_Tables_number   1
_chemical_formula_structural   ZnB2(NF2)4
_chemical_formula_sum   'Zn4 B8 N16 F32'
_cell_volume   1071.49909653
_cell_formula_units_Z   4
loop_
 _symmetry_equiv_pos_site_id
 _symmetry_equiv_pos_as_xyz
  1  'x, y, z'
loop_
 _atom_site_type_symbol
 _atom_site_label
 _atom_site_symmetry_multiplicity
 _atom_site_fract_x
 _atom_site_fract_y
 _atom_site_fract_z
 _atom_site_occupancy
  Zn  Zn0  1  0.75000000  0.64819900  0.87310500  1
  Zn  Zn1  1  0.75000000  0.14819900  0.62689500  1
  Zn  Zn2  1  0.25000000  0.35180100  0.12689500  1
  Zn  Zn3  1  0.25000000  0.85180100  0.37310500  1
  B  B4  1  0.75000000  0.22557900  0.89430400  1
  B  B5  1  0.75000000  0.72557900  0.60569600  1
  B  B6  1  0.25000000  0.77442100  0.10569600  1
  B  B7  1  0.25000000  0.27442100  0.39430400  1
  B  B8  1  0.75000000  0.00207400  0.31862200  1
  B  B9  1  0.75000000  0.50207400  0.18137800  1
  B  B10  1  0.25000000  0.99792600  0.68137800  1
  B  B11  1  0.25000000  0.49792600  0.81862200  1
  N  N12  1  0.75000000  0.95345600  0.00824600  1
  N  N13  1  0.75000000  0.45345600  0.49175400  1
  N  N14  1  0.25000000  0.04654400  0.99175400  1
  N  N15  1  0.25000000  0.54654400  0.50824600  1
  N  N16  1  0.75000000  0.65035300  0.00254900  1
  N  N17  1  0.75000000  0.15035300  0.49745100  1
  N  N18  1  0.25000000  0.34964700  0.99745100  1
  N  N19  1  0.25000000  0.84964700  0.50254900  1
  N  N20  1  0.00071900  0.76711500  0.83884800  1
  N  N21  1  0.49928100  0.26711500  0.66115200  1
  N  N22  1  0.50071900  0.23288500  0.16115200  1
  N  N23  1  0.99928100  0.73288500  0.33884800  1
  N  N24  1  0.99928100  0.23288500  0.16115200  1
  N  N25  1  0.50071900  0.73288500  0.33884800  1
  N  N26  1  0.49928100  0.76711500  0.83884800  1
  N  N27  1  0.00071900  0.26711500  0.66115200  1
  F  F28  1  0.75000000  0.05798300  0.03967500  1
  F  F29  1  0.75000000  0.55798300  0.46032500  1
  F  F30  1  0.25000000  0.94201700  0.96032500  1
  F  F31  1  0.25000000  0.44201700  0.53967500  1
  F  F32  1  0.75000000  0.30992500  0.94925800  1
  F  F33  1  0.75000000  0.80992500  0.55074200  1
  F  F34  1  0.25000000  0.69007500  0.05074200  1
  F  F35  1  0.25000000  0.19007500  0.44925800  1
  F  F36  1  0.95325000  0.18302000  0.86725400  1
  F  F37  1  0.54675000  0.68302000  0.63274600  1
  F  F38  1  0.45325000  0.81698000  0.13274600  1
  F  F39  1  0.04675000  0.31698000  0.36725400  1
  F  F40  1  0.04675000  0.81698000  0.13274600  1
  F  F41  1  0.45325000  0.31698000  0.36725400  1
  F  F42  1  0.54675000  0.18302000  0.86725400  1
  F  F43  1  0.95325000  0.68302000  0.63274600  1
  F  F44  1  0.75000000  0.11721200  0.31531700  1
  F  F45  1  0.75000000  0.61721200  0.18468300  1
  F  F46  1  0.25000000  0.88278800  0.68468300  1
  F  F47  1  0.25000000  0.38278800  0.81531700  1
  F  F48  1  0.75000000  0.94783000  0.24319600  1
  F  F49  1  0.75000000  0.44783000  0.25680400  1
  F  F50  1  0.25000000  0.05217000  0.75680400  1
  F  F51  1  0.25000000  0.55217000  0.74319600  1
  F  F52  1  0.53827400  0.96607600  0.36777500  1
  F  F53  1  0.96172600  0.46607600  0.13222500  1
  F  F54  1  0.03827400  0.03392400  0.63222500  1
  F  F55  1  0.46172600  0.53392400  0.86777500  1
  F  F56  1  0.46172600  0.03392400  0.63222500  1
  F  F57  1  0.03827400  0.53392400  0.86777500  1
  F  F58  1  0.96172600  0.96607600  0.36777500  1
  F  F59  1  0.53827400  0.46607600  0.13222500  1
