# generated using pymatgen
data_Co2BP4H2Pb4ClO18
_symmetry_space_group_name_H-M   'P 1'
_cell_length_a   9.83695099
_cell_length_b   9.83695431
_cell_length_c   31.28381172
_cell_angle_alpha   80.95421335
_cell_angle_beta   80.95427212
_cell_angle_gamma   59.99920880
_symmetry_Int_Tables_number   1
_chemical_formula_structural   Co2BP4H2Pb4ClO18
_chemical_formula_sum   'Co12 B6 P24 H12 Pb24 Cl6 O108'
_cell_volume   2578.04522703
_cell_formula_units_Z   6
loop_
 _symmetry_equiv_pos_site_id
 _symmetry_equiv_pos_as_xyz
  1  'x, y, z'
loop_
 _atom_site_type_symbol
 _atom_site_label
 _atom_site_symmetry_multiplicity
 _atom_site_fract_x
 _atom_site_fract_y
 _atom_site_fract_z
 _atom_site_occupancy
  Co  Co0  1  0.81330826  0.54969544  0.33982398  1
  Co  Co1  1  0.54967104  0.29719832  0.33982172  1
  Co  Co2  1  0.29724275  0.81329864  0.33983007  1
  Co  Co3  1  0.31330948  0.79717365  0.83982387  1
  Co  Co4  1  0.79724331  0.04963077  0.83982970  1
  Co  Co5  1  0.04967126  0.31331003  0.83982162  1
  Co  Co6  1  0.18669831  0.45034039  0.66017434  1
  Co  Co7  1  0.45034117  0.70278258  0.66017717  1
  Co  Co8  1  0.70276704  0.18669353  0.66017287  1
  Co  Co9  1  0.68669702  0.20278593  0.16017452  1
  Co  Co10  1  0.20276559  0.95036418  0.16017301  1
  Co  Co11  1  0.95034059  0.68669724  0.16017722  1
  B  B12  1  0.24999647  0.72954629  0.25000057  1
  B  B13  1  0.72953843  0.77046671  0.24999781  1
  B  B14  1  0.77046302  0.24999884  0.25000231  1
  B  B15  1  0.74999651  0.27045544  0.75000224  1
  B  B16  1  0.27046291  0.22953644  0.75000179  1
  B  B17  1  0.22953816  0.74999621  0.74999745  1
  P  P18  1  0.92704489  0.49437549  0.43934893  1
  P  P19  1  0.49437084  0.13923921  0.43934548  1
  P  P20  1  0.13920026  0.92705588  0.43934961  1
  P  P21  1  0.42704623  0.63922357  0.93935004  1
  P  P22  1  0.63920388  0.99439059  0.93934739  1
  P  P23  1  0.99436996  0.42704456  0.93934578  1
  P  P24  1  0.07294884  0.50561311  0.56065755  1
  P  P25  1  0.50562317  0.86076414  0.56065988  1
  P  P26  1  0.86079435  0.07294267  0.56065558  1
  P  P27  1  0.57294852  0.36078864  0.06065626  1
  P  P28  1  0.36079111  0.00561108  0.06065755  1
  P  P29  1  0.00562300  0.57295313  0.06065949  1
  P  P30  1  0.16764765  0.57626582  0.32394064  1
  P  P31  1  0.57626468  0.93215023  0.32393949  1
  P  P32  1  0.93216884  0.16764343  0.32393961  1
  P  P33  1  0.66764444  0.43214820  0.82394195  1
  P  P34  1  0.43216540  0.07625554  0.82393952  1
  P  P35  1  0.07625844  0.66765209  0.82393794  1
  P  P36  1  0.83234425  0.42375036  0.67606031  1
  P  P37  1  0.42373819  0.06784635  0.67605936  1
  P  P38  1  0.06782331  0.83236114  0.67605899  1
  P  P39  1  0.33234865  0.56784264  0.17605818  1
  P  P40  1  0.56782794  0.92374944  0.17605916  1
  P  P41  1  0.92374365  0.33235191  0.17606126  1
  H  H42  1  0.79504773  0.53438267  0.25994753  1
  H  H43  1  0.53438521  0.41064994  0.25994805  1
  H  H44  1  0.41071007  0.79494297  0.25994889  1
  H  H45  1  0.29504701  0.91062038  0.75994787  1
  H  H46  1  0.91071151  0.03439566  0.75994876  1
  H  H47  1  0.03438501  0.29501645  0.75994794  1
  H  H48  1  0.20501300  0.46559971  0.74005377  1
  H  H49  1  0.46560390  0.58933688  0.74005450  1
  H  H50  1  0.58931074  0.20502974  0.74005572  1
  H  H51  1  0.70501333  0.08933426  0.24005363  1
  H  H52  1  0.08930880  0.96560586  0.24005590  1
  H  H53  1  0.96560279  0.70500511  0.24005441  1
  Pb  Pb54  1  0.73880229  0.47067117  0.56295432  1
  Pb  Pb55  1  0.47075039  0.22755520  0.56291660  1
  Pb  Pb56  1  0.22763771  0.73869808  0.56296355  1
  Pb  Pb57  1  0.23877330  0.72760430  0.06296112  1
  Pb  Pb58  1  0.72762687  0.97071677  0.06295730  1
  Pb  Pb59  1  0.97074266  0.23880416  0.06291597  1
  Pb  Pb60  1  0.26120634  0.52932060  0.43705029  1
  Pb  Pb61  1  0.52926841  0.77242775  0.43708319  1
  Pb  Pb62  1  0.77235987  0.26130137  0.43703723  1
  Pb  Pb63  1  0.76123568  0.27238870  0.93704446  1
  Pb  Pb64  1  0.27237228  0.02928524  0.93704331  1
  Pb  Pb65  1  0.02927434  0.76119588  0.93708356  1
  Pb  Pb66  1  0.12597803  0.12589259  0.62225457  1
  Pb  Pb67  1  0.62597893  0.62588736  0.12225469  1
  Pb  Pb68  1  0.87401706  0.87414490  0.37775370  1
  Pb  Pb69  1  0.37401665  0.37407089  0.87775349  1
  Pb  Pb70  1  0.16751124  0.16757359  0.49734643  1
  Pb  Pb71  1  0.66750824  0.66757235  0.99734628  1
  Pb  Pb72  1  0.83247053  0.83244119  0.50265983  1
  Pb  Pb73  1  0.33247321  0.33242488  0.00266013  1
  Pb  Pb74  1  0.21309882  0.21312508  0.36068197  1
  Pb  Pb75  1  0.71309935  0.71311559  0.86068210  1
  Pb  Pb76  1  0.78686367  0.78688746  0.63932282  1
  Pb  Pb77  1  0.28686351  0.28690056  0.13932271  1
  Cl  Cl78  1  0.54613325  0.54613921  0.36163049  1
  Cl  Cl79  1  0.04613210  0.04609713  0.86163073  1
  Cl  Cl80  1  0.45386810  0.45387900  0.63837450  1
  Cl  Cl81  1  0.95386798  0.95388098  0.13837496  1
  Cl  Cl82  1  0.49999837  0.50000069  0.50000308  1
  Cl  Cl83  1  0.00000007  0.99999666  0.00000293  1
  O  O84  1  0.84464571  0.46628627  0.40531146  1
  O  O85  1  0.46629250  0.28375312  0.40530555  1
  O  O86  1  0.28373080  0.84465508  0.40531117  1
  O  O87  1  0.34465410  0.78374995  0.90531105  1
  O  O88  1  0.78373288  0.96630229  0.90531015  1
  O  O89  1  0.96629293  0.34464389  0.90530684  1
  O  O90  1  0.15536989  0.53368308  0.59469107  1
  O  O91  1  0.53369844  0.71625457  0.59469447  1
  O  O92  1  0.71626959  0.15534051  0.59469054  1
  O  O93  1  0.65536269  0.21626217  0.09469129  1
  O  O94  1  0.21626841  0.03369976  0.09469104  1
  O  O95  1  0.03369756  0.65536078  0.09469420  1
  O  O96  1  0.81889689  0.32849842  0.64250513  1
  O  O97  1  0.32849843  0.21010003  0.64250424  1
  O  O98  1  0.21008830  0.81889833  0.64250433  1
  O  O99  1  0.31889850  0.71009892  0.14250448  1
  O  O100  1  0.71008859  0.82851209  0.14250326  1
  O  O101  1  0.82849655  0.31889558  0.14250546  1
  O  O102  1  0.18109408  0.67150382  0.35749850  1
  O  O103  1  0.67147288  0.78990785  0.35749857  1
  O  O104  1  0.78991763  0.18111699  0.35749740  1
  O  O105  1  0.68109137  0.28990443  0.85749916  1
  O  O106  1  0.28991648  0.17146704  0.85749839  1
  O  O107  1  0.17147189  0.68112350  0.85749762  1
  O  O108  1  0.88987276  0.59407335  0.57209923  1
  O  O109  1  0.59408114  0.94394938  0.57209691  1
  O  O110  1  0.94397931  0.88985741  0.57209557  1
  O  O111  1  0.38987251  0.44395196  0.07209937  1
  O  O112  1  0.44397924  0.09406678  0.07209599  1
  O  O113  1  0.09407960  0.38987116  0.07209694  1
  O  O114  1  0.11013199  0.40593027  0.42790285  1
  O  O115  1  0.40593106  0.05603281  0.42790393  1
  O  O116  1  0.05601741  0.11013771  0.42790560  1
  O  O117  1  0.61013416  0.55603709  0.92790271  1
  O  O118  1  0.55601524  0.90593890  0.92790519  1
  O  O119  1  0.90593227  0.61013292  0.92790403  1
  O  O120  1  0.97749039  0.13563079  0.56099845  1
  O  O121  1  0.13562297  0.32589815  0.56099704  1
  O  O122  1  0.32590205  0.97747826  0.56099905  1
  O  O123  1  0.47748766  0.82588402  0.06099885  1
  O  O124  1  0.82590246  0.63562079  0.06099836  1
  O  O125  1  0.63562586  0.47748491  0.06099721  1
  O  O126  1  0.02250467  0.86437354  0.43900388  1
  O  O127  1  0.86435700  0.67410285  0.43900299  1
  O  O128  1  0.67409713  0.02253064  0.43900358  1
  O  O129  1  0.52250789  0.17411411  0.93900351  1
  O  O130  1  0.17409684  0.36436825  0.93900382  1
  O  O131  1  0.36435406  0.52253416  0.93900293  1
  O  O132  1  0.14418980  0.67919672  0.27848670  1
  O  O133  1  0.67919356  0.89813498  0.27848472  1
  O  O134  1  0.89812673  0.14418545  0.27848812  1
  O  O135  1  0.64419054  0.39812209  0.77848716  1
  O  O136  1  0.39812983  0.17920236  0.77848785  1
  O  O137  1  0.17918995  0.64419017  0.77848410  1
  O  O138  1  0.85579837  0.32080844  0.72151714  1
  O  O139  1  0.32080199  0.10186579  0.72151940  1
  O  O140  1  0.10187275  0.85581206  0.72151541  1
  O  O141  1  0.35579867  0.60188026  0.22151714  1
  O  O142  1  0.60186969  0.82079619  0.22151610  1
  O  O143  1  0.82080677  0.35581002  0.22151969  1
  O  O144  1  0.75498238  0.62452321  0.27720783  1
  O  O145  1  0.62452084  0.34330217  0.27721012  1
  O  O146  1  0.34330998  0.75495731  0.27720983  1
  O  O147  1  0.25497833  0.84328845  0.77720637  1
  O  O148  1  0.84331137  0.12451919  0.77721129  1
  O  O149  1  0.12452044  0.25497113  0.77721009  1
  O  O150  1  0.24502709  0.37547615  0.72279204  1
  O  O151  1  0.37547689  0.65669337  0.72279082  1
  O  O152  1  0.65669706  0.24502913  0.72279384  1
  O  O153  1  0.74503145  0.15670470  0.22279312  1
  O  O154  1  0.15669573  0.87548259  0.22279250  1
  O  O155  1  0.87547636  0.74503571  0.22279100  1
  O  O156  1  0.88859574  0.42117693  0.48407444  1
  O  O157  1  0.42118131  0.20617835  0.48406922  1
  O  O158  1  0.20615432  0.88857871  0.48407463  1
  O  O159  1  0.38859359  0.70615249  0.98407517  1
  O  O160  1  0.70615246  0.92119910  0.98407296  1
  O  O161  1  0.92117424  0.38857695  0.98406979  1
  O  O162  1  0.11141645  0.57882650  0.51592711  1
  O  O163  1  0.57882212  0.79381717  0.51592997  1
  O  O164  1  0.79383667  0.11141790  0.51592743  1
  O  O165  1  0.61141775  0.29383220  0.01592690  1
  O  O166  1  0.29383698  0.07881161  0.01592888  1
  O  O167  1  0.07882859  0.61142389  0.01592977  1
  O  O168  1  0.01815176  0.56311096  0.33639649  1
  O  O169  1  0.56312775  0.08233173  0.33639645  1
  O  O170  1  0.08235250  0.01813808  0.33639636  1
  O  O171  1  0.51814864  0.58234937  0.83639621  1
  O  O172  1  0.58234872  0.06311701  0.83639676  1
  O  O173  1  0.06312794  0.51814429  0.83639642  1
  O  O174  1  0.98183453  0.43689597  0.66360418  1
  O  O175  1  0.43686928  0.91767270  0.66360368  1
  O  O176  1  0.91765004  0.98185033  0.66360550  1
  O  O177  1  0.48183771  0.41765657  0.16360453  1
  O  O178  1  0.41765241  0.93688964  0.16360531  1
  O  O179  1  0.93686993  0.48185279  0.16360399  1
  O  O180  1  0.95234017  0.31410603  0.32275733  1
  O  O181  1  0.31410302  0.41081673  0.32276150  1
  O  O182  1  0.41080397  0.95233838  0.32275788  1
  O  O183  1  0.45234087  0.91079841  0.82275774  1
  O  O184  1  0.91080350  0.81410349  0.82275769  1
  O  O185  1  0.81410274  0.45231913  0.82276176  1
  O  O186  1  0.04767301  0.68589857  0.67724081  1
  O  O187  1  0.68589071  0.58918536  0.67723972  1
  O  O188  1  0.58917402  0.04767300  0.67723959  1
  O  O189  1  0.54767011  0.08918663  0.17724043  1
  O  O190  1  0.08917707  0.18590640  0.17724012  1
  O  O191  1  0.18589194  0.54768349  0.17724002  1
