# generated using pymatgen
data_Na3H4Au(SO2)4
_symmetry_space_group_name_H-M   'P 1'
_cell_length_a   11.60828700
_cell_length_b   5.51016600
_cell_length_c   18.42989338
_cell_angle_alpha   82.11719099
_cell_angle_beta   90.00000000
_cell_angle_gamma   90.00000000
_symmetry_Int_Tables_number   1
_chemical_formula_structural   Na3H4Au(SO2)4
_chemical_formula_sum   'Na12 H16 Au4 S16 O32'
_cell_volume   1167.70283020
_cell_formula_units_Z   4
loop_
 _symmetry_equiv_pos_site_id
 _symmetry_equiv_pos_as_xyz
  1  'x, y, z'
loop_
 _atom_site_type_symbol
 _atom_site_label
 _atom_site_symmetry_multiplicity
 _atom_site_fract_x
 _atom_site_fract_y
 _atom_site_fract_z
 _atom_site_occupancy
  Na  Na0  1  0.82432600  0.65473400  0.71631500  1
  Na  Na1  1  0.32432600  0.34526600  0.78368500  1
  Na  Na2  1  0.17567400  0.34526600  0.28368500  1
  Na  Na3  1  0.67567400  0.65473400  0.21631500  1
  Na  Na4  1  0.58748000  0.31739600  0.87506300  1
  Na  Na5  1  0.08748000  0.68260400  0.62493700  1
  Na  Na6  1  0.41252000  0.68260400  0.12493700  1
  Na  Na7  1  0.91252000  0.31739600  0.37506300  1
  Na  Na8  1  0.39813200  0.75997700  0.91259900  1
  Na  Na9  1  0.89813200  0.24002300  0.58740100  1
  Na  Na10  1  0.60186800  0.24002300  0.08740100  1
  Na  Na11  1  0.10186800  0.75997700  0.41259900  1
  H  H12  1  0.80593400  0.52738000  0.86948600  1
  H  H13  1  0.30593400  0.47262000  0.63051400  1
  H  H14  1  0.19406600  0.47262000  0.13051400  1
  H  H15  1  0.69406600  0.52738000  0.36948600  1
  H  H16  1  0.82828200  0.27783100  0.84139500  1
  H  H17  1  0.32828200  0.72216900  0.65860500  1
  H  H18  1  0.17171800  0.72216900  0.15860500  1
  H  H19  1  0.67171800  0.27783100  0.34139500  1
  H  H20  1  0.20514500  0.80836500  0.80243500  1
  H  H21  1  0.70514500  0.19163500  0.69756500  1
  H  H22  1  0.79485500  0.19163500  0.19756500  1
  H  H23  1  0.29485500  0.80836500  0.30243500  1
  H  H24  1  0.17916900  0.62626000  0.87353000  1
  H  H25  1  0.67916900  0.37374000  0.62647000  1
  H  H26  1  0.82083100  0.37374000  0.12647000  1
  H  H27  1  0.32083100  0.62626000  0.37353000  1
  Au  Au28  1  0.56500100  0.85150600  0.57142800  1
  Au  Au29  1  0.06500100  0.14849400  0.92857200  1
  Au  Au30  1  0.43499900  0.14849400  0.42857200  1
  Au  Au31  1  0.93499900  0.85150600  0.07142800  1
  S  S32  1  0.46045800  0.02551300  0.65759200  1
  S  S33  1  0.96045800  0.97448700  0.84240800  1
  S  S34  1  0.53954200  0.97448700  0.34240800  1
  S  S35  1  0.03954200  0.02551300  0.15759200  1
  S  S36  1  0.67296100  0.64748400  0.49399600  1
  S  S37  1  0.17296100  0.35251600  0.00600400  1
  S  S38  1  0.32703900  0.35251600  0.50600400  1
  S  S39  1  0.82703900  0.64748400  0.99399600  1
  S  S40  1  0.53453500  0.87909600  0.75805900  1
  S  S41  1  0.03453500  0.12090400  0.74194100  1
  S  S42  1  0.46546500  0.12090400  0.24194100  1
  S  S43  1  0.96546500  0.87909600  0.25805900  1
  S  S44  1  0.84031200  0.78185000  0.50026000  1
  S  S45  1  0.34031200  0.21815000  0.99974000  1
  S  S46  1  0.15968800  0.21815000  0.49974000  1
  S  S47  1  0.65968800  0.78185000  0.00026000  1
  O  O48  1  0.48158800  0.03290300  0.80997300  1
  O  O49  1  0.98158800  0.96709700  0.69002700  1
  O  O50  1  0.51841200  0.96709700  0.19002700  1
  O  O51  1  0.01841200  0.03290300  0.30997300  1
  O  O52  1  0.66078000  0.91476800  0.75289200  1
  O  O53  1  0.16078000  0.08523200  0.74710800  1
  O  O54  1  0.33922000  0.08523200  0.24710800  1
  O  O55  1  0.83922000  0.91476800  0.25289200  1
  O  O56  1  0.50232400  0.61968000  0.77787400  1
  O  O57  1  0.00232400  0.38032000  0.72212600  1
  O  O58  1  0.49767600  0.38032000  0.22212600  1
  O  O59  1  0.99767600  0.61968000  0.27787400  1
  O  O60  1  0.84269100  0.05080200  0.48192400  1
  O  O61  1  0.34269100  0.94919800  0.01807600  1
  O  O62  1  0.15730900  0.94919800  0.51807600  1
  O  O63  1  0.65730900  0.05080200  0.98192400  1
  O  O64  1  0.90493000  0.65715200  0.44687000  1
  O  O65  1  0.40493000  0.34284800  0.05313000  1
  O  O66  1  0.09507000  0.34284800  0.55313000  1
  O  O67  1  0.59507000  0.65715200  0.94687000  1
  O  O68  1  0.88292600  0.70606200  0.57619100  1
  O  O69  1  0.38292600  0.29393800  0.92380900  1
  O  O70  1  0.11707400  0.29393800  0.42380900  1
  O  O71  1  0.61707400  0.70606200  0.07619100  1
  O  O72  1  0.77716300  0.42324300  0.83433600  1
  O  O73  1  0.27716300  0.57675700  0.66566400  1
  O  O74  1  0.22283700  0.57675700  0.16566400  1
  O  O75  1  0.72283700  0.42324300  0.33433600  1
  O  O76  1  0.23949800  0.67544400  0.83737300  1
  O  O77  1  0.73949800  0.32455600  0.66262700  1
  O  O78  1  0.76050200  0.32455600  0.16262700  1
  O  O79  1  0.26050200  0.67544400  0.33737300  1
