# generated using pymatgen
data_MnH16C4S4(N4Cl)2
_symmetry_space_group_name_H-M   'P 1'
_cell_length_a   13.82257000
_cell_length_b   13.82257000
_cell_length_c   9.76592600
_cell_angle_alpha   90.00000000
_cell_angle_beta   90.00000000
_cell_angle_gamma   90.00000000
_symmetry_Int_Tables_number   1
_chemical_formula_structural   MnH16C4S4(N4Cl)2
_chemical_formula_sum   'Mn4 H64 C16 S16 N32 Cl8'
_cell_volume   1865.91143007
_cell_formula_units_Z   4
loop_
 _symmetry_equiv_pos_site_id
 _symmetry_equiv_pos_as_xyz
  1  'x, y, z'
loop_
 _atom_site_type_symbol
 _atom_site_label
 _atom_site_symmetry_multiplicity
 _atom_site_fract_x
 _atom_site_fract_y
 _atom_site_fract_z
 _atom_site_occupancy
  Mn  Mn0  1  0.75000000  0.25000000  0.25000000  1
  Mn  Mn1  1  0.25000000  0.75000000  0.25000000  1
  Mn  Mn2  1  0.25000000  0.25000000  0.75000000  1
  Mn  Mn3  1  0.75000000  0.75000000  0.75000000  1
  H  H4  1  0.75088300  0.95077800  0.48324000  1
  H  H5  1  0.24911700  0.04922200  0.48324000  1
  H  H6  1  0.54922200  0.25088300  0.98324000  1
  H  H7  1  0.45077800  0.74911700  0.98324000  1
  H  H8  1  0.74911700  0.54922200  0.01676000  1
  H  H9  1  0.25088300  0.45077800  0.01676000  1
  H  H10  1  0.95077800  0.24911700  0.51676000  1
  H  H11  1  0.04922200  0.75088300  0.51676000  1
  H  H12  1  0.75097900  0.07768000  0.46627800  1
  H  H13  1  0.24902100  0.92232000  0.46627800  1
  H  H14  1  0.42232000  0.25097900  0.96627800  1
  H  H15  1  0.57768000  0.74902100  0.96627800  1
  H  H16  1  0.74902100  0.42232000  0.03372200  1
  H  H17  1  0.25097900  0.57768000  0.03372200  1
  H  H18  1  0.07768000  0.24902100  0.53372200  1
  H  H19  1  0.92232000  0.75097900  0.53372200  1
  H  H20  1  0.66830800  0.85528100  0.32793600  1
  H  H21  1  0.33169200  0.14471900  0.32793600  1
  H  H22  1  0.64471900  0.16830800  0.82793600  1
  H  H23  1  0.35528100  0.83169200  0.82793600  1
  H  H24  1  0.83169200  0.64471900  0.17206400  1
  H  H25  1  0.16830800  0.35528100  0.17206400  1
  H  H26  1  0.85528100  0.33169200  0.67206400  1
  H  H27  1  0.14471900  0.66830800  0.67206400  1
  H  H28  1  0.60371600  0.91197200  0.19478900  1
  H  H29  1  0.39628400  0.08802800  0.19478900  1
  H  H30  1  0.58802800  0.10371600  0.69478900  1
  H  H31  1  0.41197200  0.89628400  0.69478900  1
  H  H32  1  0.89628400  0.58802800  0.30521100  1
  H  H33  1  0.10371600  0.41197200  0.30521100  1
  H  H34  1  0.91197200  0.39628400  0.80521100  1
  H  H35  1  0.08802800  0.60371600  0.80521100  1
  H  H36  1  0.13775100  0.12603200  0.10272600  1
  H  H37  1  0.86224900  0.87396800  0.10272600  1
  H  H38  1  0.37396800  0.63775100  0.60272600  1
  H  H39  1  0.62603200  0.36224900  0.60272600  1
  H  H40  1  0.36224900  0.37396800  0.39727400  1
  H  H41  1  0.63775100  0.62603200  0.39727400  1
  H  H42  1  0.12603200  0.86224900  0.89727400  1
  H  H43  1  0.87396800  0.13775100  0.89727400  1
  H  H44  1  0.08053500  0.04868100  0.22050700  1
  H  H45  1  0.91946500  0.95131900  0.22050700  1
  H  H46  1  0.45131900  0.58053500  0.72050700  1
  H  H47  1  0.54868100  0.41946500  0.72050700  1
  H  H48  1  0.41946500  0.45131900  0.27949300  1
  H  H49  1  0.58053500  0.54868100  0.27949300  1
  H  H50  1  0.04868100  0.91946500  0.77949300  1
  H  H51  1  0.95131900  0.08053500  0.77949300  1
  H  H52  1  0.05401800  0.25505900  0.00910000  1
  H  H53  1  0.94598200  0.74494100  0.00910000  1
  H  H54  1  0.24494100  0.55401800  0.50910000  1
  H  H55  1  0.75505900  0.44598200  0.50910000  1
  H  H56  1  0.44598200  0.24494100  0.49090000  1
  H  H57  1  0.55401800  0.75505900  0.49090000  1
  H  H58  1  0.25505900  0.94598200  0.99090000  1
  H  H59  1  0.74494100  0.05401800  0.99090000  1
  H  H60  1  0.94037400  0.28607600  0.07608200  1
  H  H61  1  0.05962600  0.71392400  0.07608200  1
  H  H62  1  0.21392400  0.44037400  0.57608200  1
  H  H63  1  0.78607600  0.55962600  0.57608200  1
  H  H64  1  0.55962600  0.21392400  0.42391800  1
  H  H65  1  0.44037400  0.78607600  0.42391800  1
  H  H66  1  0.28607600  0.05962600  0.92391800  1
  H  H67  1  0.71392400  0.94037400  0.92391800  1
  C  C68  1  0.99946400  0.16472900  0.15957300  1
  C  C69  1  0.00053600  0.83527100  0.15957300  1
  C  C70  1  0.33527100  0.49946400  0.65957300  1
  C  C71  1  0.66472900  0.50053600  0.65957300  1
  C  C72  1  0.50053600  0.33527100  0.34042700  1
  C  C73  1  0.49946400  0.66472900  0.34042700  1
  C  C74  1  0.16472900  0.00053600  0.84042700  1
  C  C75  1  0.83527100  0.99946400  0.84042700  1
  C  C76  1  0.67557400  0.00462100  0.31850300  1
  C  C77  1  0.32442600  0.99537900  0.31850300  1
  C  C78  1  0.49537900  0.17557400  0.81850300  1
  C  C79  1  0.50462100  0.82442600  0.81850300  1
  C  C80  1  0.82442600  0.49537900  0.18149700  1
  C  C81  1  0.17557400  0.50462100  0.18149700  1
  C  C82  1  0.00462100  0.32442600  0.68149700  1
  C  C83  1  0.99537900  0.67557400  0.68149700  1
  S  S84  1  0.90522500  0.13678500  0.26671200  1
  S  S85  1  0.09477500  0.86321500  0.26671200  1
  S  S86  1  0.36321500  0.40522500  0.76671200  1
  S  S87  1  0.63678500  0.59477500  0.76671200  1
  S  S88  1  0.59477500  0.36321500  0.23328800  1
  S  S89  1  0.40522500  0.63678500  0.23328800  1
  S  S90  1  0.13678500  0.09477500  0.73328800  1
  S  S91  1  0.86321500  0.90522500  0.73328800  1
  S  S92  1  0.63847900  0.10303100  0.22468400  1
  S  S93  1  0.36152100  0.89696900  0.22468400  1
  S  S94  1  0.39696900  0.13847900  0.72468400  1
  S  S95  1  0.60303100  0.86152100  0.72468400  1
  S  S96  1  0.86152100  0.39696900  0.27531600  1
  S  S97  1  0.13847900  0.60303100  0.27531600  1
  S  S98  1  0.10303100  0.36152100  0.77531600  1
  S  S99  1  0.89696900  0.63847900  0.77531600  1
  N  N100  1  0.72958000  0.01130800  0.43153000  1
  N  N101  1  0.27042000  0.98869200  0.43153000  1
  N  N102  1  0.48869200  0.22958000  0.93153000  1
  N  N103  1  0.51130800  0.77042000  0.93153000  1
  N  N104  1  0.77042000  0.48869200  0.06847000  1
  N  N105  1  0.22958000  0.51130800  0.06847000  1
  N  N106  1  0.01130800  0.27042000  0.56847000  1
  N  N107  1  0.98869200  0.72958000  0.56847000  1
  N  N108  1  0.64912300  0.91646100  0.27573800  1
  N  N109  1  0.35087700  0.08353900  0.27573800  1
  N  N110  1  0.58353900  0.14912300  0.77573800  1
  N  N111  1  0.41646100  0.85087700  0.77573800  1
  N  N112  1  0.85087700  0.58353900  0.22426200  1
  N  N113  1  0.14912300  0.41646100  0.22426200  1
  N  N114  1  0.91646100  0.35087700  0.72426200  1
  N  N115  1  0.08353900  0.64912300  0.72426200  1
  N  N116  1  0.07941100  0.10999800  0.16231800  1
  N  N117  1  0.92058900  0.89000200  0.16231800  1
  N  N118  1  0.39000200  0.57941100  0.66231800  1
  N  N119  1  0.60999800  0.42058900  0.66231800  1
  N  N120  1  0.42058900  0.39000200  0.33768200  1
  N  N121  1  0.57941100  0.60999800  0.33768200  1
  N  N122  1  0.10999800  0.92058900  0.83768200  1
  N  N123  1  0.89000200  0.07941100  0.83768200  1
  N  N124  1  0.99699900  0.23924400  0.07163300  1
  N  N125  1  0.00300100  0.76075600  0.07163300  1
  N  N126  1  0.26075600  0.49699900  0.57163300  1
  N  N127  1  0.73924400  0.50300100  0.57163300  1
  N  N128  1  0.50300100  0.26075600  0.42836700  1
  N  N129  1  0.49699900  0.73924400  0.42836700  1
  N  N130  1  0.23924400  0.00300100  0.92836700  1
  N  N131  1  0.76075600  0.99699900  0.92836700  1
  Cl  Cl132  1  0.74724600  0.25578400  0.98550800  1
  Cl  Cl133  1  0.25275400  0.74421600  0.98550800  1
  Cl  Cl134  1  0.24421600  0.24724600  0.48550800  1
  Cl  Cl135  1  0.75578400  0.75275400  0.48550800  1
  Cl  Cl136  1  0.75275400  0.24421600  0.51449200  1
  Cl  Cl137  1  0.24724600  0.75578400  0.51449200  1
  Cl  Cl138  1  0.25578400  0.25275400  0.01449200  1
  Cl  Cl139  1  0.74421600  0.74724600  0.01449200  1
