# generated using pymatgen
data_CsMo3I7
_symmetry_space_group_name_H-M   'P 1'
_cell_length_a   11.06858183
_cell_length_b   11.06858183
_cell_length_c   16.97473700
_cell_angle_alpha   90.00000000
_cell_angle_beta   90.00000000
_cell_angle_gamma   119.99999899
_symmetry_Int_Tables_number   1
_chemical_formula_structural   CsMo3I7
_chemical_formula_sum   'Cs4 Mo12 I28'
_cell_volume   1801.01633020
_cell_formula_units_Z   4
loop_
 _symmetry_equiv_pos_site_id
 _symmetry_equiv_pos_as_xyz
  1  'x, y, z'
loop_
 _atom_site_type_symbol
 _atom_site_label
 _atom_site_symmetry_multiplicity
 _atom_site_fract_x
 _atom_site_fract_y
 _atom_site_fract_z
 _atom_site_occupancy
  Cs  Cs0  1  0.00000000  0.00000000  0.00000000  1
  Cs  Cs1  1  0.00000000  0.00000000  0.50000000  1
  Cs  Cs2  1  0.33333300  0.66666700  0.25000000  1
  Cs  Cs3  1  0.66666700  0.33333300  0.75000000  1
  Mo  Mo4  1  0.33464800  0.52596400  0.81464300  1
  Mo  Mo5  1  0.19131500  0.66535200  0.81464300  1
  Mo  Mo6  1  0.47403600  0.80868500  0.81464300  1
  Mo  Mo7  1  0.80868500  0.47403600  0.31464300  1
  Mo  Mo8  1  0.66535200  0.19131500  0.31464300  1
  Mo  Mo9  1  0.52596400  0.33464800  0.31464300  1
  Mo  Mo10  1  0.66535200  0.47403600  0.18535700  1
  Mo  Mo11  1  0.80868500  0.33464800  0.18535700  1
  Mo  Mo12  1  0.52596400  0.19131500  0.18535700  1
  Mo  Mo13  1  0.19131500  0.52596400  0.68535700  1
  Mo  Mo14  1  0.33464800  0.80868500  0.68535700  1
  Mo  Mo15  1  0.47403600  0.66535200  0.68535700  1
  I  I16  1  0.33333300  0.66666700  0.95115500  1
  I  I17  1  0.66666700  0.33333300  0.45115500  1
  I  I18  1  0.66666700  0.33333300  0.04884500  1
  I  I19  1  0.33333300  0.66666700  0.54884500  1
  I  I20  1  0.34488200  0.31438000  0.90931100  1
  I  I21  1  0.96949800  0.65511800  0.90931100  1
  I  I22  1  0.68562000  0.03050200  0.90931100  1
  I  I23  1  0.03050200  0.68562000  0.40931100  1
  I  I24  1  0.65511800  0.96949800  0.40931100  1
  I  I25  1  0.31438000  0.34488200  0.40931100  1
  I  I26  1  0.65511800  0.68562000  0.09068900  1
  I  I27  1  0.03050200  0.34488200  0.09068900  1
  I  I28  1  0.31438000  0.96949800  0.09068900  1
  I  I29  1  0.96949800  0.31438000  0.59068900  1
  I  I30  1  0.34488200  0.03050200  0.59068900  1
  I  I31  1  0.68562000  0.65511800  0.59068900  1
  I  I32  1  0.04334500  0.37214100  0.81924600  1
  I  I33  1  0.32879500  0.95665500  0.81924600  1
  I  I34  1  0.62785900  0.67120500  0.81924600  1
  I  I35  1  0.67120500  0.62785900  0.31924600  1
  I  I36  1  0.95665500  0.32879500  0.31924600  1
  I  I37  1  0.37214100  0.04334500  0.31924600  1
  I  I38  1  0.95665500  0.62785900  0.18075400  1
  I  I39  1  0.67120500  0.04334500  0.18075400  1
  I  I40  1  0.37214100  0.32879500  0.18075400  1
  I  I41  1  0.32879500  0.37214100  0.68075400  1
  I  I42  1  0.04334500  0.67120500  0.68075400  1
  I  I43  1  0.62785900  0.95665500  0.68075400  1
