# generated using pymatgen
data_Na12MnCu2H16(SO4)8
_symmetry_space_group_name_H-M   'P 1'
_cell_length_a   13.06348300
_cell_length_b   9.79202400
_cell_length_c   16.35699203
_cell_angle_alpha   54.23702098
_cell_angle_beta   90.00000000
_cell_angle_gamma   90.00000000
_symmetry_Int_Tables_number   1
_chemical_formula_structural   Na12MnCu2H16(SO4)8
_chemical_formula_sum   'Na24 Mn2 Cu4 H32 S16 O64'
_cell_volume   1697.82205815
_cell_formula_units_Z   2
loop_
 _symmetry_equiv_pos_site_id
 _symmetry_equiv_pos_as_xyz
  1  'x, y, z'
loop_
 _atom_site_type_symbol
 _atom_site_label
 _atom_site_symmetry_multiplicity
 _atom_site_fract_x
 _atom_site_fract_y
 _atom_site_fract_z
 _atom_site_occupancy
  Na  Na0  1  0.04321400  0.74456600  0.42219600  1
  Na  Na1  1  0.45678600  0.74456600  0.92219600  1
  Na  Na2  1  0.95678600  0.25543400  0.57780400  1
  Na  Na3  1  0.54321400  0.25543400  0.07780400  1
  Na  Na4  1  0.27482300  0.57224800  0.44551500  1
  Na  Na5  1  0.22517700  0.57224800  0.94551500  1
  Na  Na6  1  0.72517700  0.42775200  0.55448500  1
  Na  Na7  1  0.77482300  0.42775200  0.05448500  1
  Na  Na8  1  0.15037400  0.17061000  0.26444000  1
  Na  Na9  1  0.34962600  0.17061000  0.76444000  1
  Na  Na10  1  0.84962600  0.82939000  0.73556000  1
  Na  Na11  1  0.65037400  0.82939000  0.23556000  1
  Na  Na12  1  0.90617100  0.01643800  0.20106800  1
  Na  Na13  1  0.59382900  0.01643800  0.70106800  1
  Na  Na14  1  0.09382900  0.98356200  0.79893200  1
  Na  Na15  1  0.40617100  0.98356200  0.29893200  1
  Na  Na16  1  0.38137600  0.26927000  0.38208500  1
  Na  Na17  1  0.11862400  0.26927000  0.88208500  1
  Na  Na18  1  0.61862400  0.73073000  0.61791500  1
  Na  Na19  1  0.88137600  0.73073000  0.11791500  1
  Na  Na20  1  0.05562800  0.44616700  0.33178300  1
  Na  Na21  1  0.44437200  0.44616700  0.83178300  1
  Na  Na22  1  0.94437200  0.55383300  0.66821700  1
  Na  Na23  1  0.55562800  0.55383300  0.16821700  1
  Mn  Mn24  1  0.00000000  0.00000000  0.50000000  1
  Mn  Mn25  1  0.50000000  0.00000000  0.00000000  1
  Cu  Cu26  1  0.25232800  0.90706200  0.12534300  1
  Cu  Cu27  1  0.24767200  0.90706200  0.62534300  1
  Cu  Cu28  1  0.74767200  0.09293800  0.87465700  1
  Cu  Cu29  1  0.75232800  0.09293800  0.37465700  1
  H  H30  1  0.85844100  0.45490200  0.38962400  1
  H  H31  1  0.64155900  0.45490200  0.88962400  1
  H  H32  1  0.14155900  0.54509800  0.61037600  1
  H  H33  1  0.35844100  0.54509800  0.11037600  1
  H  H34  1  0.87560300  0.60750700  0.39679600  1
  H  H35  1  0.62439700  0.60750700  0.89679600  1
  H  H36  1  0.12439700  0.39249300  0.60320400  1
  H  H37  1  0.37560300  0.39249300  0.10320400  1
  H  H38  1  0.02597400  0.37874600  0.10510200  1
  H  H39  1  0.47402600  0.37874600  0.60510200  1
  H  H40  1  0.97402600  0.62125400  0.89489800  1
  H  H41  1  0.52597400  0.62125400  0.39489800  1
  H  H42  1  0.09445200  0.30675100  0.06232600  1
  H  H43  1  0.40554800  0.30675100  0.56232600  1
  H  H44  1  0.90554800  0.69324900  0.93767400  1
  H  H45  1  0.59445200  0.69324900  0.43767400  1
  H  H46  1  0.24895500  0.50625600  0.22973100  1
  H  H47  1  0.25104500  0.50625600  0.72973100  1
  H  H48  1  0.75104500  0.49374400  0.77026900  1
  H  H49  1  0.74895500  0.49374400  0.27026900  1
  H  H50  1  0.17529800  0.52992400  0.14769400  1
  H  H51  1  0.32470200  0.52992400  0.64769400  1
  H  H52  1  0.82470200  0.47007600  0.85230600  1
  H  H53  1  0.67529800  0.47007600  0.35230600  1
  H  H54  1  0.50792900  0.94701300  0.43789200  1
  H  H55  1  0.99207100  0.94701300  0.93789200  1
  H  H56  1  0.49207100  0.05298700  0.56210800  1
  H  H57  1  0.00792900  0.05298700  0.06210800  1
  H  H58  1  0.43414700  0.78909600  0.49995800  1
  H  H59  1  0.06585300  0.78909600  0.99995800  1
  H  H60  1  0.56585300  0.21090400  0.50004200  1
  H  H61  1  0.93414700  0.21090400  0.00004200  1
  S  S62  1  0.24743600  0.90290200  0.48661500  1
  S  S63  1  0.25256400  0.90290200  0.98661500  1
  S  S64  1  0.75256400  0.09709800  0.51338500  1
  S  S65  1  0.74743600  0.09709800  0.01338500  1
  S  S66  1  0.11440100  0.83645600  0.22459600  1
  S  S67  1  0.38559900  0.83645600  0.72459600  1
  S  S68  1  0.88559900  0.16354400  0.77540400  1
  S  S69  1  0.61440100  0.16354400  0.27540400  1
  S  S70  1  0.88731700  0.26718800  0.27955700  1
  S  S71  1  0.61268300  0.26718800  0.77955700  1
  S  S72  1  0.11268300  0.73281200  0.72044300  1
  S  S73  1  0.38731700  0.73281200  0.22044300  1
  S  S74  1  0.18574800  0.16851100  0.55677100  1
  S  S75  1  0.31425200  0.16851100  0.05677100  1
  S  S76  1  0.81425200  0.83148900  0.44322900  1
  S  S77  1  0.68574800  0.83148900  0.94322900  1
  O  O78  1  0.29565500  0.74632800  0.50276300  1
  O  O79  1  0.20434500  0.74632800  0.00276300  1
  O  O80  1  0.70434500  0.25367200  0.49723700  1
  O  O81  1  0.79565500  0.25367200  0.99723700  1
  O  O82  1  0.29353600  0.05283200  0.38895900  1
  O  O83  1  0.20646400  0.05283200  0.88895900  1
  O  O84  1  0.70646400  0.94716800  0.61104100  1
  O  O85  1  0.79353600  0.94716800  0.11104100  1
  O  O86  1  0.01731500  0.81955000  0.17896800  1
  O  O87  1  0.48268500  0.81955000  0.67896800  1
  O  O88  1  0.98268500  0.18045000  0.82103200  1
  O  O89  1  0.51731500  0.18045000  0.32103200  1
  O  O90  1  0.13137100  0.66825700  0.32663000  1
  O  O91  1  0.36862900  0.66825700  0.82663000  1
  O  O92  1  0.86862900  0.33174300  0.67337000  1
  O  O93  1  0.63137100  0.33174300  0.17337000  1
  O  O94  1  0.87908900  0.44390800  0.25488100  1
  O  O95  1  0.62091100  0.44390800  0.75488100  1
  O  O96  1  0.12091100  0.55609200  0.74511900  1
  O  O97  1  0.37908900  0.55609200  0.24511900  1
  O  O98  1  0.25633900  0.30651900  0.48042500  1
  O  O99  1  0.24366100  0.30651900  0.98042500  1
  O  O100  1  0.74366100  0.69348100  0.51957500  1
  O  O101  1  0.75633900  0.69348100  0.01957500  1
  O  O102  1  0.08394900  0.19478100  0.50002000  1
  O  O103  1  0.41605100  0.19478100  0.00002000  1
  O  O104  1  0.91605100  0.80521900  0.49998000  1
  O  O105  1  0.58394900  0.80521900  0.99998000  1
  O  O106  1  0.89874100  0.49059600  0.42431200  1
  O  O107  1  0.60125900  0.49059600  0.92431200  1
  O  O108  1  0.10125900  0.50940400  0.57568800  1
  O  O109  1  0.39874100  0.50940400  0.07568800  1
  O  O110  1  0.13346300  0.90263900  0.46302400  1
  O  O111  1  0.36653700  0.90263900  0.96302400  1
  O  O112  1  0.86653700  0.09736100  0.53697600  1
  O  O113  1  0.63346300  0.09736100  0.03697600  1
  O  O114  1  0.99055700  0.19784800  0.33520100  1
  O  O115  1  0.50944300  0.19784800  0.83520100  1
  O  O116  1  0.00944300  0.80215200  0.66479900  1
  O  O117  1  0.49055700  0.80215200  0.16479900  1
  O  O118  1  0.90003200  0.28605300  0.18089900  1
  O  O119  1  0.59996800  0.28605300  0.68089900  1
  O  O120  1  0.09996800  0.71394700  0.81910100  1
  O  O121  1  0.40003200  0.71394700  0.31910100  1
  O  O122  1  0.09723800  0.38074500  0.08439900  1
  O  O123  1  0.40276200  0.38074500  0.58439900  1
  O  O124  1  0.90276200  0.61925500  0.91560100  1
  O  O125  1  0.59723800  0.61925500  0.41560100  1
  O  O126  1  0.18678800  0.45795500  0.22077100  1
  O  O127  1  0.31321200  0.45795500  0.72077100  1
  O  O128  1  0.81321200  0.54204500  0.77922900  1
  O  O129  1  0.68678800  0.54204500  0.27922900  1
  O  O130  1  0.08736100  0.96188000  0.24813400  1
  O  O131  1  0.41263900  0.96188000  0.74813400  1
  O  O132  1  0.91263900  0.03812000  0.75186600  1
  O  O133  1  0.58736100  0.03812000  0.25186600  1
  O  O134  1  0.15671200  0.19963600  0.63570600  1
  O  O135  1  0.34328800  0.19963600  0.13570600  1
  O  O136  1  0.84328800  0.80036400  0.36429400  1
  O  O137  1  0.65671200  0.80036400  0.86429400  1
  O  O138  1  0.50667700  0.82263800  0.48099000  1
  O  O139  1  0.99332300  0.82263800  0.98099000  1
  O  O140  1  0.49332300  0.17736200  0.51901000  1
  O  O141  1  0.00667700  0.17736200  0.01901000  1
