# generated using pymatgen
data_ErC3O8
_symmetry_space_group_name_H-M   'P 1'
_cell_length_a   7.24042600
_cell_length_b   8.39663100
_cell_length_c   12.70432800
_cell_angle_alpha   90.00000000
_cell_angle_beta   90.00000000
_cell_angle_gamma   90.00000000
_symmetry_Int_Tables_number   1
_chemical_formula_structural   ErC3O8
_chemical_formula_sum   'Er4 C12 O32'
_cell_volume   772.36197620
_cell_formula_units_Z   4
loop_
 _symmetry_equiv_pos_site_id
 _symmetry_equiv_pos_as_xyz
  1  'x, y, z'
loop_
 _atom_site_type_symbol
 _atom_site_label
 _atom_site_symmetry_multiplicity
 _atom_site_fract_x
 _atom_site_fract_y
 _atom_site_fract_z
 _atom_site_occupancy
  Er  Er0  1  0.73519800  0.47215200  0.79899100  1
  Er  Er1  1  0.26480200  0.97215200  0.70100900  1
  Er  Er2  1  0.76480200  0.52784800  0.29899100  1
  Er  Er3  1  0.23519800  0.02784800  0.20100900  1
  C  C4  1  0.41428800  0.21423300  0.95541000  1
  C  C5  1  0.58571200  0.71423300  0.54459000  1
  C  C6  1  0.08571200  0.78576700  0.45541000  1
  C  C7  1  0.91428800  0.28576700  0.04459000  1
  C  C8  1  0.95251900  0.72635600  0.09943000  1
  C  C9  1  0.04748100  0.22635600  0.40057000  1
  C  C10  1  0.54748100  0.27364400  0.59943000  1
  C  C11  1  0.45251900  0.77364400  0.90057000  1
  C  C12  1  0.02303500  0.64329800  0.74074200  1
  C  C13  1  0.97696500  0.14329800  0.75925800  1
  C  C14  1  0.47696500  0.35670200  0.24074200  1
  C  C15  1  0.52303500  0.85670200  0.25925800  1
  O  O16  1  0.83985700  0.37015800  0.98499000  1
  O  O17  1  0.16014300  0.87015800  0.51501000  1
  O  O18  1  0.66014300  0.62984200  0.48499000  1
  O  O19  1  0.33985700  0.12984200  0.01501000  1
  O  O20  1  0.49012700  0.29925300  0.89636200  1
  O  O21  1  0.50987300  0.79925300  0.60363800  1
  O  O22  1  0.00987300  0.70074700  0.39636200  1
  O  O23  1  0.99012700  0.20074700  0.10363800  1
  O  O24  1  0.88113100  0.72753200  0.00836300  1
  O  O25  1  0.11886900  0.22753200  0.49163700  1
  O  O26  1  0.61886900  0.27246800  0.50836300  1
  O  O27  1  0.38113100  0.77246800  0.99163700  1
  O  O28  1  0.54384900  0.65300300  0.86719200  1
  O  O29  1  0.45615100  0.15300300  0.63280800  1
  O  O30  1  0.95615100  0.34699700  0.36719200  1
  O  O31  1  0.04384900  0.84699700  0.13280800  1
  O  O32  1  0.83958100  0.23353800  0.78120600  1
  O  O33  1  0.16041900  0.73353800  0.71879400  1
  O  O34  1  0.66041900  0.76646200  0.28120600  1
  O  O35  1  0.33958100  0.26646200  0.21879400  1
  O  O36  1  0.03210100  0.53924300  0.81578100  1
  O  O37  1  0.96789900  0.03924300  0.68421900  1
  O  O38  1  0.46789900  0.46075700  0.31578100  1
  O  O39  1  0.53210100  0.96075700  0.18421900  1
  O  O40  1  0.56769300  0.39973600  0.65739300  1
  O  O41  1  0.43230700  0.89973600  0.84260700  1
  O  O42  1  0.93230700  0.60026400  0.15739300  1
  O  O43  1  0.06769300  0.10026400  0.34260700  1
  O  O44  1  0.86681600  0.65030000  0.68894000  1
  O  O45  1  0.13318400  0.15030000  0.81106000  1
  O  O46  1  0.63318400  0.34970000  0.18894000  1
  O  O47  1  0.36681600  0.84970000  0.31106000  1
