# generated using pymatgen
data_Zn4As3NO13
_symmetry_space_group_name_H-M   'P 1'
_cell_length_a   12.16221482
_cell_length_b   12.16221482
_cell_length_c   12.16221482
_cell_angle_alpha   109.47122063
_cell_angle_beta   109.47122063
_cell_angle_gamma   109.47122063
_symmetry_Int_Tables_number   1
_chemical_formula_structural   Zn4As3NO13
_chemical_formula_sum   'Zn16 As12 N4 O52'
_cell_volume   1384.89267863
_cell_formula_units_Z   4
loop_
 _symmetry_equiv_pos_site_id
 _symmetry_equiv_pos_as_xyz
  1  'x, y, z'
loop_
 _atom_site_type_symbol
 _atom_site_label
 _atom_site_symmetry_multiplicity
 _atom_site_fract_x
 _atom_site_fract_y
 _atom_site_fract_z
 _atom_site_occupancy
  Zn  Zn0  1  0.53901000  0.77180000  0.96101000  1
  Zn  Zn1  1  0.57800000  0.53899000  0.31078900  1
  Zn  Zn2  1  0.26721000  0.18921100  0.72820000  1
  Zn  Zn3  1  0.31078900  0.57800000  0.53899000  1
  Zn  Zn4  1  0.72820000  0.26721000  0.18921100  1
  Zn  Zn5  1  0.96101000  0.53901000  0.77180000  1
  Zn  Zn6  1  0.18921100  0.72820000  0.26721000  1
  Zn  Zn7  1  0.77180000  0.96101000  0.53901000  1
  Zn  Zn8  1  0.53899000  0.31078900  0.57800000  1
  Zn  Zn9  1  0.96099000  0.92200000  0.23279000  1
  Zn  Zn10  1  0.92200000  0.23279000  0.96099000  1
  Zn  Zn11  1  0.23279000  0.96099000  0.92200000  1
  Zn  Zn12  1  0.50000000  0.00000000  0.41392000  1
  Zn  Zn13  1  0.08608000  0.08608000  0.08608000  1
  Zn  Zn14  1  0.00000000  0.41392000  0.50000000  1
  Zn  Zn15  1  0.41392000  0.50000000  0.00000000  1
  As  As16  1  0.22579500  0.69724300  0.76801900  1
  As  As17  1  0.45777500  0.73198100  0.42922400  1
  As  As18  1  0.02855200  0.07077600  0.80275700  1
  As  As19  1  0.42922400  0.45777500  0.73198100  1
  As  As20  1  0.80275700  0.02855200  0.07077600  1
  As  As21  1  0.76801900  0.22579500  0.69724300  1
  As  As22  1  0.07077600  0.80275700  0.02855200  1
  As  As23  1  0.69724300  0.76801900  0.22579500  1
  As  As24  1  0.73198100  0.42922400  0.45777500  1
  As  As25  1  0.27420500  0.04222500  0.47144800  1
  As  As26  1  0.04222500  0.47144800  0.27420500  1
  As  As27  1  0.47144800  0.27420500  0.04222500  1
  N  N28  1  0.50000000  0.00000000  0.73702500  1
  N  N29  1  0.76297500  0.76297500  0.76297500  1
  N  N30  1  0.00000000  0.73702500  0.50000000  1
  N  N31  1  0.73702500  0.50000000  0.00000000  1
  O  O32  1  0.39619100  0.79379000  0.86167300  1
  O  O33  1  0.53451800  0.63832700  0.43211700  1
  O  O34  1  0.10240100  0.06788300  0.70621000  1
  O  O35  1  0.43211700  0.53451800  0.63832700  1
  O  O36  1  0.70621000  0.10240100  0.06788300  1
  O  O37  1  0.86167300  0.39619100  0.79379000  1
  O  O38  1  0.06788300  0.70621000  0.10240100  1
  O  O39  1  0.79379000  0.86167300  0.39619100  1
  O  O40  1  0.63832700  0.43211700  0.53451800  1
  O  O41  1  0.10380900  0.96548200  0.39759900  1
  O  O42  1  0.96548200  0.39759900  0.10380900  1
  O  O43  1  0.39759900  0.10380900  0.96548200  1
  O  O44  1  0.18017200  0.58047900  0.60578400  1
  O  O45  1  0.57438800  0.89421600  0.47469500  1
  O  O46  1  0.09969400  0.02530500  0.91952100  1
  O  O47  1  0.47469500  0.57438800  0.89421600  1
  O  O48  1  0.91952100  0.09969400  0.02530500  1
  O  O49  1  0.60578400  0.18017200  0.58047900  1
  O  O50  1  0.02530500  0.91952100  0.09969400  1
  O  O51  1  0.58047900  0.60578400  0.18017200  1
  O  O52  1  0.89421600  0.47469500  0.57438800  1
  O  O53  1  0.31982800  0.92561200  0.40030600  1
  O  O54  1  0.92561200  0.40030600  0.31982800  1
  O  O55  1  0.40030600  0.31982800  0.92561200  1
  O  O56  1  0.15291800  0.60225400  0.82851400  1
  O  O57  1  0.32440400  0.67148600  0.27374000  1
  O  O58  1  0.05066500  0.22626000  0.89774600  1
  O  O59  1  0.27374000  0.32440400  0.67148600  1
  O  O60  1  0.89774600  0.05066500  0.22626000  1
  O  O61  1  0.82851400  0.15291800  0.60225400  1
  O  O62  1  0.22626000  0.89774600  0.05066500  1
  O  O63  1  0.60225400  0.82851400  0.15291800  1
  O  O64  1  0.67148600  0.27374000  0.32440400  1
  O  O65  1  0.34708200  0.17559600  0.44933500  1
  O  O66  1  0.17559600  0.44933500  0.34708200  1
  O  O67  1  0.44933500  0.34708200  0.17559600  1
  O  O68  1  0.16271400  0.80159300  0.75040600  1
  O  O69  1  0.41230800  0.74959400  0.55118700  1
  O  O70  1  0.86112100  0.94881300  0.69840700  1
  O  O71  1  0.55118700  0.41230800  0.74959400  1
  O  O72  1  0.69840700  0.86112100  0.94881300  1
  O  O73  1  0.75040600  0.16271400  0.80159300  1
  O  O74  1  0.94881300  0.69840700  0.86112100  1
  O  O75  1  0.80159300  0.75040600  0.16271400  1
  O  O76  1  0.74959400  0.55118700  0.41230800  1
  O  O77  1  0.33728600  0.08769200  0.63887900  1
  O  O78  1  0.08769200  0.63887900  0.33728600  1
  O  O79  1  0.63887900  0.33728600  0.08769200  1
  O  O80  1  0.50000000  0.00000000  0.25530900  1
  O  O81  1  0.24469100  0.24469100  0.24469100  1
  O  O82  1  0.00000000  0.25530900  0.50000000  1
  O  O83  1  0.25530900  0.50000000  0.00000000  1
