# generated using pymatgen
data_CoH14SeN5O7
_symmetry_space_group_name_H-M   'P 1'
_cell_length_a   7.12781100
_cell_length_b   11.61020300
_cell_length_c   12.80266400
_cell_angle_alpha   90.00000000
_cell_angle_beta   90.00000000
_cell_angle_gamma   90.00000000
_symmetry_Int_Tables_number   1
_chemical_formula_structural   CoH14SeN5O7
_chemical_formula_sum   'Co4 H56 Se4 N20 O28'
_cell_volume   1059.48871820
_cell_formula_units_Z   4
loop_
 _symmetry_equiv_pos_site_id
 _symmetry_equiv_pos_as_xyz
  1  'x, y, z'
loop_
 _atom_site_type_symbol
 _atom_site_label
 _atom_site_symmetry_multiplicity
 _atom_site_fract_x
 _atom_site_fract_y
 _atom_site_fract_z
 _atom_site_occupancy
  Co  Co0  1  0.25000000  0.80317200  0.48926000  1
  Co  Co1  1  0.25000000  0.30317200  0.01074000  1
  Co  Co2  1  0.75000000  0.19682800  0.51074000  1
  Co  Co3  1  0.75000000  0.69682800  0.98926000  1
  H  H4  1  0.13298800  0.64439600  0.35240700  1
  H  H5  1  0.36701200  0.14439600  0.14759300  1
  H  H6  1  0.63298800  0.35560400  0.64759300  1
  H  H7  1  0.86701200  0.85560400  0.85240700  1
  H  H8  1  0.86701200  0.35560400  0.64759300  1
  H  H9  1  0.63298800  0.85560400  0.85240700  1
  H  H10  1  0.36701200  0.64439600  0.35240700  1
  H  H11  1  0.13298800  0.14439600  0.14759300  1
  H  H12  1  0.25000000  0.57658100  0.44378000  1
  H  H13  1  0.25000000  0.07658100  0.05622000  1
  H  H14  1  0.75000000  0.42341900  0.55622000  1
  H  H15  1  0.75000000  0.92341900  0.94378000  1
  H  H16  1  0.08684100  0.69912600  0.64673000  1
  H  H17  1  0.41315900  0.19912600  0.85327000  1
  H  H18  1  0.58684100  0.30087400  0.35327000  1
  H  H19  1  0.91315900  0.80087400  0.14673000  1
  H  H20  1  0.91315900  0.30087400  0.35327000  1
  H  H21  1  0.58684100  0.80087400  0.14673000  1
  H  H22  1  0.41315900  0.69912600  0.64673000  1
  H  H23  1  0.08684100  0.19912600  0.85327000  1
  H  H24  1  0.95376200  0.67058900  0.54206100  1
  H  H25  1  0.54623800  0.17058900  0.95793900  1
  H  H26  1  0.45376200  0.32941100  0.45793900  1
  H  H27  1  0.04623800  0.82941100  0.04206100  1
  H  H28  1  0.04623800  0.32941100  0.45793900  1
  H  H29  1  0.45376200  0.82941100  0.04206100  1
  H  H30  1  0.54623800  0.67058900  0.54206100  1
  H  H31  1  0.95376200  0.17058900  0.95793900  1
  H  H32  1  0.93633600  0.79738700  0.60250800  1
  H  H33  1  0.56366400  0.29738700  0.89749200  1
  H  H34  1  0.43633600  0.20261300  0.39749200  1
  H  H35  1  0.06366400  0.70261300  0.10250800  1
  H  H36  1  0.06366400  0.20261300  0.39749200  1
  H  H37  1  0.43633600  0.70261300  0.10250800  1
  H  H38  1  0.56366400  0.79738700  0.60250800  1
  H  H39  1  0.93633600  0.29738700  0.89749200  1
  H  H40  1  0.13399000  0.99456100  0.58203900  1
  H  H41  1  0.36601000  0.49456100  0.91796100  1
  H  H42  1  0.63399000  0.00543900  0.41796100  1
  H  H43  1  0.86601000  0.50543900  0.08203900  1
  H  H44  1  0.86601000  0.00543900  0.41796100  1
  H  H45  1  0.63399000  0.50543900  0.08203900  1
  H  H46  1  0.36601000  0.99456100  0.58203900  1
  H  H47  1  0.13399000  0.49456100  0.91796100  1
  H  H48  1  0.25000000  0.92249600  0.67224400  1
  H  H49  1  0.25000000  0.42249600  0.82775600  1
  H  H50  1  0.75000000  0.07750400  0.32775600  1
  H  H51  1  0.75000000  0.57750400  0.17224400  1
  H  H52  1  0.14043000  0.68030100  0.82674500  1
  H  H53  1  0.35957000  0.18030100  0.67325500  1
  H  H54  1  0.64043000  0.31969900  0.17325500  1
  H  H55  1  0.85957000  0.81969900  0.32674500  1
  H  H56  1  0.85957000  0.31969900  0.17325500  1
  H  H57  1  0.64043000  0.81969900  0.32674500  1
  H  H58  1  0.35957000  0.68030100  0.82674500  1
  H  H59  1  0.14043000  0.18030100  0.67325500  1
  Se  Se60  1  0.25000000  0.95308500  0.31527400  1
  Se  Se61  1  0.25000000  0.45308500  0.18472600  1
  Se  Se62  1  0.75000000  0.04691500  0.68472600  1
  Se  Se63  1  0.75000000  0.54691500  0.81527400  1
  N  N64  1  0.25000000  0.65043100  0.39880800  1
  N  N65  1  0.25000000  0.15043100  0.10119200  1
  N  N66  1  0.75000000  0.34956900  0.60119200  1
  N  N67  1  0.75000000  0.84956900  0.89880800  1
  N  N68  1  0.02922100  0.73349000  0.58019500  1
  N  N69  1  0.47077900  0.23349000  0.91980500  1
  N  N70  1  0.52922100  0.26651000  0.41980500  1
  N  N71  1  0.97077900  0.76651000  0.08019500  1
  N  N72  1  0.97077900  0.26651000  0.41980500  1
  N  N73  1  0.52922100  0.76651000  0.08019500  1
  N  N74  1  0.47077900  0.73349000  0.58019500  1
  N  N75  1  0.02922100  0.23349000  0.91980500  1
  N  N76  1  0.25000000  0.94352600  0.59418200  1
  N  N77  1  0.25000000  0.44352600  0.90581800  1
  N  N78  1  0.75000000  0.05647400  0.40581800  1
  N  N79  1  0.75000000  0.55647400  0.09418200  1
  N  N80  1  0.75000000  0.54554200  0.37562400  1
  N  N81  1  0.75000000  0.04554200  0.12437600  1
  N  N82  1  0.25000000  0.45445800  0.62437600  1
  N  N83  1  0.25000000  0.95445800  0.87562400  1
  O  O84  1  0.07306700  0.88257600  0.38981100  1
  O  O85  1  0.42693300  0.38257600  0.11018900  1
  O  O86  1  0.57306700  0.11742400  0.61018900  1
  O  O87  1  0.92693300  0.61742400  0.88981100  1
  O  O88  1  0.92693300  0.11742400  0.61018900  1
  O  O89  1  0.57306700  0.61742400  0.88981100  1
  O  O90  1  0.42693300  0.88257600  0.38981100  1
  O  O91  1  0.07306700  0.38257600  0.11018900  1
  O  O92  1  0.25000000  0.08937100  0.35834500  1
  O  O93  1  0.25000000  0.58937100  0.14165500  1
  O  O94  1  0.75000000  0.91062900  0.64165500  1
  O  O95  1  0.75000000  0.41062900  0.85834500  1
  O  O96  1  0.90369300  0.53172400  0.32841200  1
  O  O97  1  0.59630700  0.03172400  0.17158800  1
  O  O98  1  0.40369300  0.46827600  0.67158800  1
  O  O99  1  0.09630700  0.96827600  0.82841200  1
  O  O100  1  0.09630700  0.46827600  0.67158800  1
  O  O101  1  0.40369300  0.96827600  0.82841200  1
  O  O102  1  0.59630700  0.53172400  0.32841200  1
  O  O103  1  0.90369300  0.03172400  0.17158800  1
  O  O104  1  0.75000000  0.57245300  0.47308600  1
  O  O105  1  0.75000000  0.07245300  0.02691400  1
  O  O106  1  0.25000000  0.42754700  0.52691400  1
  O  O107  1  0.25000000  0.92754700  0.97308600  1
  O  O108  1  0.25000000  0.71731800  0.79398400  1
  O  O109  1  0.25000000  0.21731800  0.70601600  1
  O  O110  1  0.75000000  0.28268200  0.20601600  1
  O  O111  1  0.75000000  0.78268200  0.29398400  1
