# generated using pymatgen
data_BiH14C4S8N5O
_symmetry_space_group_name_H-M   'P 1'
_cell_length_a   13.85859300
_cell_length_b   8.53839300
_cell_length_c   17.06414943
_cell_angle_alpha   84.19508186
_cell_angle_beta   90.00000000
_cell_angle_gamma   90.00000000
_symmetry_Int_Tables_number   1
_chemical_formula_structural   BiH14C4S8N5O
_chemical_formula_sum   'Bi4 H56 C16 S32 N20 O4'
_cell_volume   2008.84832904
_cell_formula_units_Z   4
loop_
 _symmetry_equiv_pos_site_id
 _symmetry_equiv_pos_as_xyz
  1  'x, y, z'
loop_
 _atom_site_type_symbol
 _atom_site_label
 _atom_site_symmetry_multiplicity
 _atom_site_fract_x
 _atom_site_fract_y
 _atom_site_fract_z
 _atom_site_occupancy
  Bi  Bi0  1  0.74165000  0.68478900  0.35315200  1
  Bi  Bi1  1  0.24165000  0.31521100  0.14684800  1
  Bi  Bi2  1  0.25835000  0.31521100  0.64684800  1
  Bi  Bi3  1  0.75835000  0.68478900  0.85315200  1
  H  H4  1  0.45365800  0.04540300  0.42441500  1
  H  H5  1  0.95365800  0.95459700  0.07558500  1
  H  H6  1  0.54634200  0.95459700  0.57558500  1
  H  H7  1  0.04634200  0.04540300  0.92441500  1
  H  H8  1  0.43600500  0.03656200  0.32265200  1
  H  H9  1  0.93600500  0.96343800  0.17734800  1
  H  H10  1  0.56399500  0.96343800  0.67734800  1
  H  H11  1  0.06399500  0.03656200  0.82265200  1
  H  H12  1  0.96153700  0.14702000  0.44151500  1
  H  H13  1  0.46153700  0.85298000  0.05848500  1
  H  H14  1  0.03846300  0.85298000  0.55848500  1
  H  H15  1  0.53846300  0.14702000  0.94151500  1
  H  H16  1  0.90631600  0.23909000  0.35643600  1
  H  H17  1  0.40631600  0.76091000  0.14356400  1
  H  H18  1  0.09368400  0.76091000  0.64356400  1
  H  H19  1  0.59368400  0.23909000  0.85643600  1
  H  H20  1  0.96071400  0.44144800  0.14720300  1
  H  H21  1  0.46071400  0.55855200  0.35279700  1
  H  H22  1  0.03928600  0.55855200  0.85279700  1
  H  H23  1  0.53928600  0.44144800  0.64720300  1
  H  H24  1  0.85774100  0.49356200  0.08885000  1
  H  H25  1  0.35774100  0.50643800  0.41115000  1
  H  H26  1  0.14225900  0.50643800  0.91115000  1
  H  H27  1  0.64225900  0.49356200  0.58885000  1
  H  H28  1  0.72589400  0.13645900  0.52668400  1
  H  H29  1  0.22589400  0.86354100  0.97331600  1
  H  H30  1  0.27410600  0.86354100  0.47331600  1
  H  H31  1  0.77410600  0.13645900  0.02668400  1
  H  H32  1  0.64767800  0.10848800  0.44993300  1
  H  H33  1  0.14767800  0.89151200  0.05006700  1
  H  H34  1  0.35232200  0.89151200  0.55006700  1
  H  H35  1  0.85232200  0.10848800  0.94993300  1
  H  H36  1  0.65152800  0.32881200  0.14247700  1
  H  H37  1  0.15152800  0.67118800  0.35752300  1
  H  H38  1  0.34847200  0.67118800  0.85752300  1
  H  H39  1  0.84847200  0.32881200  0.64247700  1
  H  H40  1  0.63953400  0.13069300  0.15280300  1
  H  H41  1  0.13953400  0.86930700  0.34719700  1
  H  H42  1  0.36046600  0.86930700  0.84719700  1
  H  H43  1  0.86046600  0.13069300  0.65280300  1
  H  H44  1  0.66229400  0.23141700  0.23307900  1
  H  H45  1  0.16229400  0.76858300  0.26692100  1
  H  H46  1  0.33770600  0.76858300  0.76692100  1
  H  H47  1  0.83770600  0.23141700  0.73307900  1
  H  H48  1  0.55370800  0.25140400  0.18955400  1
  H  H49  1  0.05370800  0.74859600  0.31044600  1
  H  H50  1  0.44629200  0.74859600  0.81044600  1
  H  H51  1  0.94629200  0.25140400  0.68955400  1
  H  H52  1  0.72331500  0.90318800  0.12603500  1
  H  H53  1  0.22331500  0.09681200  0.37396500  1
  H  H54  1  0.27668500  0.09681200  0.87396500  1
  H  H55  1  0.77668500  0.90318800  0.62603500  1
  H  H56  1  0.65638100  0.94738600  0.05351500  1
  H  H57  1  0.15638100  0.05261400  0.44648500  1
  H  H58  1  0.34361900  0.05261400  0.94648500  1
  H  H59  1  0.84361900  0.94738600  0.55351500  1
  C  C60  1  0.54026800  0.88828900  0.37188800  1
  C  C61  1  0.04026800  0.11171100  0.12811200  1
  C  C62  1  0.45973200  0.11171100  0.62811200  1
  C  C63  1  0.95973200  0.88828900  0.87188800  1
  C  C64  1  0.88073000  0.00163200  0.37870900  1
  C  C65  1  0.38073000  0.99836800  0.12129100  1
  C  C66  1  0.11927000  0.99836800  0.62129100  1
  C  C67  1  0.61927000  0.00163200  0.87870900  1
  C  C68  1  0.85263700  0.55184800  0.20204800  1
  C  C69  1  0.35263700  0.44815200  0.29795200  1
  C  C70  1  0.14736300  0.44815200  0.79795200  1
  C  C71  1  0.64736300  0.55184800  0.70204800  1
  C  C72  1  0.70366000  0.33134500  0.44620900  1
  C  C73  1  0.20366000  0.66865500  0.05379100  1
  C  C74  1  0.29634000  0.66865500  0.55379100  1
  C  C75  1  0.79634000  0.33134500  0.94620900  1
  S  S76  1  0.59905400  0.81882700  0.45701300  1
  S  S77  1  0.09905400  0.18117300  0.04298700  1
  S  S78  1  0.40094600  0.18117300  0.54298700  1
  S  S79  1  0.90094600  0.81882700  0.95701300  1
  S  S80  1  0.56745500  0.81815100  0.28391400  1
  S  S81  1  0.06745500  0.18184900  0.21608600  1
  S  S82  1  0.43254500  0.18184900  0.71608600  1
  S  S83  1  0.93254500  0.81815100  0.78391400  1
  S  S84  1  0.90120400  0.83679500  0.44365800  1
  S  S85  1  0.40120400  0.16320500  0.05634200  1
  S  S86  1  0.09879600  0.16320500  0.55634200  1
  S  S87  1  0.59879600  0.83679500  0.94365800  1
  S  S88  1  0.81213500  0.99324300  0.29539600  1
  S  S89  1  0.31213500  0.00675700  0.20460400  1
  S  S90  1  0.18786500  0.00675700  0.70460400  1
  S  S91  1  0.68786500  0.99324300  0.79539600  1
  S  S92  1  0.91056400  0.54362300  0.29148800  1
  S  S93  1  0.41056400  0.45637700  0.20851200  1
  S  S94  1  0.08943600  0.45637700  0.70851200  1
  S  S95  1  0.58943600  0.54362300  0.79148800  1
  S  S96  1  0.73926800  0.63386200  0.18958200  1
  S  S97  1  0.23926800  0.36613800  0.31041800  1
  S  S98  1  0.26073200  0.36613800  0.81041800  1
  S  S99  1  0.76073200  0.63386200  0.68958200  1
  S  S100  1  0.64714900  0.39230800  0.35855700  1
  S  S101  1  0.14714900  0.60769200  0.14144300  1
  S  S102  1  0.35285100  0.60769200  0.64144300  1
  S  S103  1  0.85285100  0.39230800  0.85855700  1
  S  S104  1  0.77731900  0.45446700  0.49272300  1
  S  S105  1  0.27731900  0.54553300  0.00727700  1
  S  S106  1  0.22268100  0.54553300  0.50727700  1
  S  S107  1  0.72268100  0.45446700  0.99272300  1
  N  N108  1  0.47230900  0.99939300  0.37335100  1
  N  N109  1  0.97230900  0.00060700  0.12664900  1
  N  N110  1  0.52769100  0.00060700  0.62664900  1
  N  N111  1  0.02769100  0.99939300  0.87335100  1
  N  N112  1  0.91858400  0.13944200  0.39358800  1
  N  N113  1  0.41858400  0.86055800  0.10641200  1
  N  N114  1  0.08141600  0.86055800  0.60641200  1
  N  N115  1  0.58141600  0.13944200  0.89358800  1
  N  N116  1  0.89401600  0.49171700  0.14132200  1
  N  N117  1  0.39401600  0.50828300  0.35867800  1
  N  N118  1  0.10598400  0.50828300  0.85867800  1
  N  N119  1  0.60598400  0.49171700  0.64132200  1
  N  N120  1  0.68821300  0.18453700  0.47853600  1
  N  N121  1  0.18821300  0.81546300  0.02146400  1
  N  N122  1  0.31178700  0.81546300  0.52146400  1
  N  N123  1  0.81178700  0.18453700  0.97853600  1
  N  N124  1  0.62629500  0.23473100  0.17974400  1
  N  N125  1  0.12629500  0.76526900  0.32025600  1
  N  N126  1  0.37370500  0.76526900  0.82025600  1
  N  N127  1  0.87370500  0.23473100  0.67974400  1
  O  O128  1  0.69280500  0.99423300  0.09557500  1
  O  O129  1  0.19280500  0.00576700  0.40442500  1
  O  O130  1  0.30719500  0.00576700  0.90442500  1
  O  O131  1  0.80719500  0.99423300  0.59557500  1
