# generated using pymatgen
data_FeSiO3
_symmetry_space_group_name_H-M   'P 1'
_cell_length_a   9.22673700
_cell_length_b   5.31542400
_cell_length_c   9.58724085
_cell_angle_alpha   76.91569322
_cell_angle_beta   90.00000000
_cell_angle_gamma   90.00000000
_symmetry_Int_Tables_number   1
_chemical_formula_structural   FeSiO3
_chemical_formula_sum   'Fe8 Si8 O24'
_cell_volume   457.98957998
_cell_formula_units_Z   8
loop_
 _symmetry_equiv_pos_site_id
 _symmetry_equiv_pos_as_xyz
  1  'x, y, z'
loop_
 _atom_site_type_symbol
 _atom_site_label
 _atom_site_symmetry_multiplicity
 _atom_site_fract_x
 _atom_site_fract_y
 _atom_site_fract_z
 _atom_site_occupancy
  Fe  Fe0  1  0.84631900  0.52229700  0.74769200  1
  Fe  Fe1  1  0.34631900  0.97770300  0.25230800  1
  Fe  Fe2  1  0.15368100  0.47770300  0.25230800  1
  Fe  Fe3  1  0.65368100  0.02229700  0.74769200  1
  Fe  Fe4  1  0.48766300  0.52632800  0.74827100  1
  Fe  Fe5  1  0.98766300  0.97367200  0.25172900  1
  Fe  Fe6  1  0.51233700  0.47367200  0.25172900  1
  Fe  Fe7  1  0.01233700  0.02632800  0.74827100  1
  Si  Si8  1  0.16216800  0.25681600  0.95422800  1
  Si  Si9  1  0.66216800  0.24318400  0.04577200  1
  Si  Si10  1  0.83783200  0.74318400  0.04577200  1
  Si  Si11  1  0.33783200  0.75681600  0.95422800  1
  Si  Si12  1  0.66604800  0.80936200  0.44715700  1
  Si  Si13  1  0.16604800  0.69063800  0.55284300  1
  Si  Si14  1  0.33395200  0.19063800  0.55284300  1
  Si  Si15  1  0.83395200  0.30936200  0.44715700  1
  O  O16  1  0.16162000  0.19200100  0.12898100  1
  O  O17  1  0.66162000  0.30799900  0.87101900  1
  O  O18  1  0.83838000  0.80799900  0.87101900  1
  O  O19  1  0.33838000  0.69200100  0.12898100  1
  O  O20  1  0.66244800  0.73195200  0.62293300  1
  O  O21  1  0.16244800  0.76804800  0.37706700  1
  O  O22  1  0.33755200  0.26804800  0.37706700  1
  O  O23  1  0.83755200  0.23195200  0.62293300  1
  O  O24  1  0.00527600  0.28963200  0.87553600  1
  O  O25  1  0.50527600  0.21036800  0.12446400  1
  O  O26  1  0.99472400  0.71036800  0.12446400  1
  O  O27  1  0.49472400  0.78963200  0.87553600  1
  O  O28  1  0.52106700  0.75180500  0.36421300  1
  O  O29  1  0.02106700  0.74819500  0.63578700  1
  O  O30  1  0.47893300  0.24819500  0.63578700  1
  O  O31  1  0.97893300  0.25180500  0.36421300  1
  O  O32  1  0.23168800  0.01020200  0.89447500  1
  O  O33  1  0.73168800  0.48979800  0.10552500  1
  O  O34  1  0.76831200  0.98979800  0.10552500  1
  O  O35  1  0.26831200  0.51020200  0.89447500  1
  O  O36  1  0.79624100  0.62587800  0.39701900  1
  O  O37  1  0.29624100  0.87412200  0.60298100  1
  O  O38  1  0.20375900  0.37412200  0.60298100  1
  O  O39  1  0.70375900  0.12587800  0.39701900  1
