# generated using pymatgen
data_Er2Al3Fe14
_symmetry_space_group_name_H-M   'P 1'
_cell_length_a   8.17494400
_cell_length_b   8.51796129
_cell_length_c   8.51796129
_cell_angle_alpha   120.05986942
_cell_angle_beta   90.00000000
_cell_angle_gamma   90.00000000
_symmetry_Int_Tables_number   1
_chemical_formula_structural   Er2Al3Fe14
_chemical_formula_sum   'Er4 Al6 Fe28'
_cell_volume   513.36283273
_cell_formula_units_Z   2
loop_
 _symmetry_equiv_pos_site_id
 _symmetry_equiv_pos_as_xyz
  1  'x, y, z'
loop_
 _atom_site_type_symbol
 _atom_site_label
 _atom_site_symmetry_multiplicity
 _atom_site_fract_x
 _atom_site_fract_y
 _atom_site_fract_z
 _atom_site_occupancy
  Er  Er0  1  0.75000000  0.99991300  0.00008700  1
  Er  Er1  1  0.25000000  0.00008700  0.99991300  1
  Er  Er2  1  0.25000000  0.66671900  0.33328100  1
  Er  Er3  1  0.75000000  0.33328100  0.66671900  1
  Al  Al4  1  0.50000000  0.50000000  0.00000000  1
  Al  Al5  1  0.50000000  0.50000000  0.50000000  1
  Al  Al6  1  0.50000000  0.00000000  0.50000000  1
  Al  Al7  1  0.00000000  0.50000000  0.00000000  1
  Al  Al8  1  0.00000000  0.50000000  0.50000000  1
  Al  Al9  1  0.00000000  0.00000000  0.50000000  1
  Fe  Fe10  1  0.61086800  0.66666200  0.33333800  1
  Fe  Fe11  1  0.38913200  0.33333800  0.66666200  1
  Fe  Fe12  1  0.11086800  0.33333800  0.66666200  1
  Fe  Fe13  1  0.88913200  0.66666200  0.33333800  1
  Fe  Fe14  1  0.75000000  0.67930200  0.02785800  1
  Fe  Fe15  1  0.75000000  0.34852500  0.32050100  1
  Fe  Fe16  1  0.75000000  0.97242400  0.65169900  1
  Fe  Fe17  1  0.75000000  0.34830100  0.02757600  1
  Fe  Fe18  1  0.75000000  0.97214200  0.32069800  1
  Fe  Fe19  1  0.75000000  0.67949900  0.65147500  1
  Fe  Fe20  1  0.25000000  0.32069800  0.97214200  1
  Fe  Fe21  1  0.25000000  0.65147500  0.67949900  1
  Fe  Fe22  1  0.25000000  0.02757600  0.34830100  1
  Fe  Fe23  1  0.25000000  0.65169900  0.97242400  1
  Fe  Fe24  1  0.25000000  0.02785800  0.67930200  1
  Fe  Fe25  1  0.25000000  0.32050100  0.34852500  1
  Fe  Fe26  1  0.48603000  0.83455600  0.66879600  1
  Fe  Fe27  1  0.48593300  0.83442700  0.16557300  1
  Fe  Fe28  1  0.48603000  0.33120400  0.16544400  1
  Fe  Fe29  1  0.51397000  0.16544400  0.33120400  1
  Fe  Fe30  1  0.51406700  0.16557300  0.83442700  1
  Fe  Fe31  1  0.51397000  0.66879600  0.83455600  1
  Fe  Fe32  1  0.98603000  0.16544400  0.33120400  1
  Fe  Fe33  1  0.98593300  0.16557300  0.83442700  1
  Fe  Fe34  1  0.98603000  0.66879600  0.83455600  1
  Fe  Fe35  1  0.01397000  0.83455600  0.66879600  1
  Fe  Fe36  1  0.01406700  0.83442700  0.16557300  1
  Fe  Fe37  1  0.01397000  0.33120400  0.16544400  1
