# generated using pymatgen
data_Na2TbPWO8
_symmetry_space_group_name_H-M   'P 1'
_cell_length_a   11.55409803
_cell_length_b   11.55409803
_cell_length_c   11.55409803
_cell_angle_alpha   144.78110799
_cell_angle_beta   115.58030529
_cell_angle_gamma   75.59759652
_symmetry_Int_Tables_number   1
_chemical_formula_structural   Na2TbPWO8
_chemical_formula_sum   'Na8 Tb4 P4 W4 O32'
_cell_volume   786.13400157
_cell_formula_units_Z   4
loop_
 _symmetry_equiv_pos_site_id
 _symmetry_equiv_pos_as_xyz
  1  'x, y, z'
loop_
 _atom_site_type_symbol
 _atom_site_label
 _atom_site_symmetry_multiplicity
 _atom_site_fract_x
 _atom_site_fract_y
 _atom_site_fract_z
 _atom_site_occupancy
  Na  Na0  1  0.28918400  0.33482600  0.93078100  1
  Na  Na1  1  0.90404400  0.35840200  0.56921900  1
  Na  Na2  1  0.59595600  0.16517400  0.45435800  1
  Na  Na3  1  0.21081600  0.14159800  0.04564200  1
  Na  Na4  1  0.71081600  0.66517400  0.06921900  1
  Na  Na5  1  0.09595600  0.64159800  0.43078100  1
  Na  Na6  1  0.40404400  0.83482600  0.54564200  1
  Na  Na7  1  0.78918400  0.85840200  0.95435800  1
  Tb  Tb8  1  0.32271500  0.75000000  0.07271500  1
  Tb  Tb9  1  0.17728500  0.25000000  0.42728500  1
  Tb  Tb10  1  0.67728500  0.25000000  0.92728500  1
  Tb  Tb11  1  0.82271500  0.75000000  0.57271500  1
  P  P12  1  0.93008100  0.25000000  0.18008100  1
  P  P13  1  0.56991900  0.75000000  0.31991900  1
  P  P14  1  0.06991900  0.75000000  0.81991900  1
  P  P15  1  0.43008100  0.25000000  0.68008100  1
  W  W16  1  0.92875500  0.17875500  0.75000000  1
  W  W17  1  0.57124500  0.32124500  0.25000000  1
  W  W18  1  0.07124500  0.82124500  0.25000000  1
  W  W19  1  0.42875500  0.67875500  0.75000000  1
  O  O20  1  0.93774900  0.19843200  0.27165500  1
  O  O21  1  0.42677700  0.66609400  0.22834500  1
  O  O22  1  0.07322300  0.30156800  0.23931700  1
  O  O23  1  0.56225100  0.83390600  0.26068300  1
  O  O24  1  0.06225100  0.80156800  0.72834500  1
  O  O25  1  0.57322300  0.33390600  0.77165500  1
  O  O26  1  0.92677700  0.69843200  0.76068300  1
  O  O27  1  0.43774900  0.16609400  0.73931700  1
  O  O28  1  0.84307000  0.06799600  0.92797100  1
  O  O29  1  0.64002500  0.91509900  0.57202900  1
  O  O30  1  0.85997500  0.43200400  0.27507400  1
  O  O31  1  0.65693000  0.58490100  0.22492600  1
  O  O32  1  0.15693000  0.93200400  0.07202900  1
  O  O33  1  0.35997500  0.08490100  0.42797100  1
  O  O34  1  0.14002500  0.56799600  0.72492600  1
  O  O35  1  0.34307000  0.41509900  0.77507400  1
  O  O36  1  0.84528600  0.33011500  0.93310200  1
  O  O37  1  0.89701300  0.91218500  0.56689800  1
  O  O38  1  0.60298700  0.16988500  0.01517200  1
  O  O39  1  0.65471400  0.58781600  0.48482800  1
  O  O40  1  0.15471400  0.66988500  0.06689800  1
  O  O41  1  0.10298700  0.08781600  0.43310200  1
  O  O42  1  0.39701300  0.83011500  0.98482800  1
  O  O43  1  0.34528600  0.41218400  0.51517200  1
  O  O44  1  0.86432400  0.18834500  0.58537900  1
  O  O45  1  0.10296600  0.27894600  0.91462100  1
  O  O46  1  0.39703400  0.31165500  0.17598000  1
  O  O47  1  0.63567600  0.22105400  0.32402000  1
  O  O48  1  0.13567600  0.81165500  0.41462100  1
  O  O49  1  0.89703400  0.72105400  0.08537900  1
  O  O50  1  0.60296600  0.68834500  0.82402000  1
  O  O51  1  0.36432400  0.77894600  0.67598000  1
