# generated using pymatgen
data_Cs2PH4Se3O2
_symmetry_space_group_name_H-M   'P 1'
_cell_length_a   8.03372800
_cell_length_b   10.21256500
_cell_length_c   13.01651300
_cell_angle_alpha   90.00000000
_cell_angle_beta   90.00000000
_cell_angle_gamma   90.00000000
_symmetry_Int_Tables_number   1
_chemical_formula_structural   Cs2PH4Se3O2
_chemical_formula_sum   'Cs8 P4 H16 Se12 O8'
_cell_volume   1067.93941068
_cell_formula_units_Z   4
loop_
 _symmetry_equiv_pos_site_id
 _symmetry_equiv_pos_as_xyz
  1  'x, y, z'
loop_
 _atom_site_type_symbol
 _atom_site_label
 _atom_site_symmetry_multiplicity
 _atom_site_fract_x
 _atom_site_fract_y
 _atom_site_fract_z
 _atom_site_occupancy
  Cs  Cs0  1  0.00000000  0.89475500  0.34010600  1
  Cs  Cs1  1  0.00000000  0.10524500  0.65989400  1
  Cs  Cs2  1  0.50000000  0.39475500  0.15989400  1
  Cs  Cs3  1  0.50000000  0.60524500  0.84010600  1
  Cs  Cs4  1  0.00000000  0.50000000  0.50000000  1
  Cs  Cs5  1  0.50000000  0.00000000  0.00000000  1
  Cs  Cs6  1  0.50000000  0.50000000  0.50000000  1
  Cs  Cs7  1  0.00000000  0.00000000  0.00000000  1
  P  P8  1  0.50000000  0.88648000  0.49110500  1
  P  P9  1  0.50000000  0.11352000  0.50889500  1
  P  P10  1  0.00000000  0.38648000  0.00889500  1
  P  P11  1  0.00000000  0.61352000  0.99110500  1
  H  H12  1  0.70029400  0.65836000  0.30724000  1
  H  H13  1  0.70029400  0.34164000  0.69276000  1
  H  H14  1  0.79970600  0.15836000  0.19276000  1
  H  H15  1  0.79970600  0.84164000  0.80724000  1
  H  H16  1  0.29970600  0.34164000  0.69276000  1
  H  H17  1  0.29970600  0.65836000  0.30724000  1
  H  H18  1  0.20029400  0.84164000  0.80724000  1
  H  H19  1  0.20029400  0.15836000  0.19276000  1
  H  H20  1  0.81895500  0.55139300  0.26109600  1
  H  H21  1  0.81895500  0.44860700  0.73890400  1
  H  H22  1  0.68104500  0.05139300  0.23890400  1
  H  H23  1  0.68104500  0.94860700  0.76109600  1
  H  H24  1  0.18104500  0.44860700  0.73890400  1
  H  H25  1  0.18104500  0.55139300  0.26109600  1
  H  H26  1  0.31895500  0.94860700  0.76109600  1
  H  H27  1  0.31895500  0.05139300  0.23890400  1
  Se  Se28  1  0.72624100  0.81282400  0.56659600  1
  Se  Se29  1  0.72624100  0.18717600  0.43340400  1
  Se  Se30  1  0.77375900  0.31282400  0.93340400  1
  Se  Se31  1  0.77375900  0.68717600  0.06659600  1
  Se  Se32  1  0.27375900  0.18717600  0.43340400  1
  Se  Se33  1  0.27375900  0.81282400  0.56659600  1
  Se  Se34  1  0.22624100  0.68717600  0.06659600  1
  Se  Se35  1  0.22624100  0.31282400  0.93340400  1
  Se  Se36  1  0.50000000  0.85097300  0.32134200  1
  Se  Se37  1  0.50000000  0.14902700  0.67865800  1
  Se  Se38  1  0.00000000  0.35097300  0.17865800  1
  Se  Se39  1  0.00000000  0.64902700  0.82134200  1
  O  O40  1  0.75812300  0.57593300  0.32432200  1
  O  O41  1  0.75812300  0.42406700  0.67567800  1
  O  O42  1  0.74187700  0.07593300  0.17567800  1
  O  O43  1  0.74187700  0.92406700  0.82432200  1
  O  O44  1  0.24187700  0.42406700  0.67567800  1
  O  O45  1  0.24187700  0.57593300  0.32432200  1
  O  O46  1  0.25812300  0.92406700  0.82432200  1
  O  O47  1  0.25812300  0.07593300  0.17567800  1
