# generated using pymatgen
data_RbSO4
_symmetry_space_group_name_H-M   'P 1'
_cell_length_a   4.82064500
_cell_length_b   14.58080600
_cell_length_c   15.06732235
_cell_angle_alpha   58.94944692
_cell_angle_beta   90.00000000
_cell_angle_gamma   90.00000000
_symmetry_Int_Tables_number   1
_chemical_formula_structural   RbSO4
_chemical_formula_sum   'Rb8 S8 O32'
_cell_volume   907.31457134
_cell_formula_units_Z   8
loop_
 _symmetry_equiv_pos_site_id
 _symmetry_equiv_pos_as_xyz
  1  'x, y, z'
loop_
 _atom_site_type_symbol
 _atom_site_label
 _atom_site_symmetry_multiplicity
 _atom_site_fract_x
 _atom_site_fract_y
 _atom_site_fract_z
 _atom_site_occupancy
  Rb  Rb0  1  0.64374300  0.87580800  0.91933300  1
  Rb  Rb1  1  0.14374300  0.12419200  0.58066700  1
  Rb  Rb2  1  0.35625700  0.12419200  0.08066700  1
  Rb  Rb3  1  0.85625700  0.87580800  0.41933300  1
  Rb  Rb4  1  0.20441800  0.62381900  0.83200900  1
  Rb  Rb5  1  0.70441800  0.37618100  0.66799100  1
  Rb  Rb6  1  0.79558200  0.37618100  0.16799100  1
  Rb  Rb7  1  0.29558200  0.62381900  0.33200900  1
  S  S8  1  0.70069400  0.87563700  0.67432100  1
  S  S9  1  0.20069400  0.12436300  0.82567900  1
  S  S10  1  0.29930600  0.12436300  0.32567900  1
  S  S11  1  0.79930600  0.87563700  0.17432100  1
  S  S12  1  0.27225500  0.62548400  0.58129100  1
  S  S13  1  0.77225500  0.37451600  0.91870900  1
  S  S14  1  0.72774500  0.37451600  0.41870900  1
  S  S15  1  0.22774500  0.62548400  0.08129100  1
  O  O16  1  0.61251400  0.96925500  0.68009500  1
  O  O17  1  0.11251400  0.03074500  0.81990500  1
  O  O18  1  0.38748600  0.03074500  0.31990500  1
  O  O19  1  0.88748600  0.96925500  0.18009500  1
  O  O20  1  0.53225200  0.86225400  0.59761000  1
  O  O21  1  0.03225200  0.13774600  0.90239000  1
  O  O22  1  0.46774800  0.13774600  0.40239000  1
  O  O23  1  0.96774800  0.86225400  0.09761000  1
  O  O24  1  0.70140700  0.77704300  0.77720700  1
  O  O25  1  0.20140700  0.22295700  0.72279300  1
  O  O26  1  0.29859300  0.22295700  0.22279300  1
  O  O27  1  0.79859300  0.77704300  0.27720700  1
  O  O28  1  0.97966600  0.89663700  0.62213200  1
  O  O29  1  0.47966600  0.10336300  0.87786800  1
  O  O30  1  0.02033400  0.10336300  0.37786800  1
  O  O31  1  0.52033400  0.89663700  0.12213200  1
  O  O32  1  0.19579100  0.53376400  0.56976300  1
  O  O33  1  0.69579100  0.46623600  0.93023700  1
  O  O34  1  0.80420900  0.46623600  0.43023700  1
  O  O35  1  0.30420900  0.53376400  0.06976300  1
  O  O36  1  0.49063100  0.59290500  0.66305300  1
  O  O37  1  0.99063100  0.40709500  0.83694700  1
  O  O38  1  0.50936900  0.40709500  0.33694700  1
  O  O39  1  0.00936900  0.59290500  0.16305300  1
  O  O40  1  0.37573400  0.71599400  0.48137800  1
  O  O41  1  0.87573400  0.28400600  0.01862200  1
  O  O42  1  0.62426600  0.28400600  0.51862200  1
  O  O43  1  0.12426600  0.71599400  0.98137800  1
  O  O44  1  0.02473900  0.66202900  0.61477500  1
  O  O45  1  0.52473900  0.33797100  0.88522500  1
  O  O46  1  0.97526100  0.33797100  0.38522500  1
  O  O47  1  0.47526100  0.66202900  0.11477500  1
