# generated using pymatgen
data_MgBO3
_symmetry_space_group_name_H-M   'P 1'
_cell_length_a   3.22044161
_cell_length_b   10.43426800
_cell_length_c   12.48454368
_cell_angle_alpha   90.00000000
_cell_angle_beta   95.09562198
_cell_angle_gamma   90.00000000
_symmetry_Int_Tables_number   1
_chemical_formula_structural   MgBO3
_chemical_formula_sum   'Mg8 B8 O24'
_cell_volume   417.85951393
_cell_formula_units_Z   8
loop_
 _symmetry_equiv_pos_site_id
 _symmetry_equiv_pos_as_xyz
  1  'x, y, z'
loop_
 _atom_site_type_symbol
 _atom_site_label
 _atom_site_symmetry_multiplicity
 _atom_site_fract_x
 _atom_site_fract_y
 _atom_site_fract_z
 _atom_site_occupancy
  Mg  Mg0  1  0.75827400  0.63071500  0.99355700  1
  Mg  Mg1  1  0.24172600  0.13071500  0.50644300  1
  Mg  Mg2  1  0.24172600  0.36928500  0.00644300  1
  Mg  Mg3  1  0.75827400  0.86928500  0.49355700  1
  Mg  Mg4  1  0.28914400  0.91753300  0.09513500  1
  Mg  Mg5  1  0.71085600  0.41753300  0.40486500  1
  Mg  Mg6  1  0.71085600  0.08246700  0.90486500  1
  Mg  Mg7  1  0.28914400  0.58246700  0.59513500  1
  B  B8  1  0.24274500  0.66967500  0.35749100  1
  B  B9  1  0.75725500  0.16967500  0.14250900  1
  B  B10  1  0.75725500  0.33032500  0.64250900  1
  B  B11  1  0.24274500  0.83032500  0.85749100  1
  B  B12  1  0.37875100  0.54639300  0.19016600  1
  B  B13  1  0.62124900  0.04639300  0.30983400  1
  B  B14  1  0.62124900  0.45360700  0.80983400  1
  B  B15  1  0.37875100  0.95360700  0.69016600  1
  O  O16  1  0.21421800  0.56482200  0.42376200  1
  O  O17  1  0.78578200  0.06482200  0.07623800  1
  O  O18  1  0.78578200  0.43517800  0.57623800  1
  O  O19  1  0.21421800  0.93517800  0.92376200  1
  O  O20  1  0.23328800  0.79140000  0.40069600  1
  O  O21  1  0.76671200  0.29140000  0.09930400  1
  O  O22  1  0.76671200  0.20860000  0.59930400  1
  O  O23  1  0.23328800  0.70860000  0.90069600  1
  O  O24  1  0.28583300  0.65634700  0.24905500  1
  O  O25  1  0.71416700  0.15634700  0.25094500  1
  O  O26  1  0.71416700  0.34365300  0.75094500  1
  O  O27  1  0.28583300  0.84365300  0.74905500  1
  O  O28  1  0.39647000  0.95203100  0.25579900  1
  O  O29  1  0.60353000  0.45203100  0.24420100  1
  O  O30  1  0.60353000  0.04796900  0.74420100  1
  O  O31  1  0.39647000  0.54796900  0.75579900  1
  O  O32  1  0.27828000  0.54631500  0.08174400  1
  O  O33  1  0.72172000  0.04631500  0.41825600  1
  O  O34  1  0.72172000  0.45368500  0.91825600  1
  O  O35  1  0.27828000  0.95368500  0.58174400  1
  O  O36  1  0.78687700  0.79922400  0.07662300  1
  O  O37  1  0.21312300  0.29922400  0.42337700  1
  O  O38  1  0.21312300  0.20077600  0.92337700  1
  O  O39  1  0.78687700  0.70077600  0.57662300  1
