# generated using pymatgen
data_U3Ni2O9F16
_symmetry_space_group_name_H-M   'P 1'
_cell_length_a   8.07900720
_cell_length_b   8.07900769
_cell_length_c   16.14786700
_cell_angle_alpha   90.00000000
_cell_angle_beta   90.00000000
_cell_angle_gamma   120.44252313
_symmetry_Int_Tables_number   1
_chemical_formula_structural   U3Ni2O9F16
_chemical_formula_sum   'U6 Ni4 O18 F32'
_cell_volume   908.67358273
_cell_formula_units_Z   2
loop_
 _symmetry_equiv_pos_site_id
 _symmetry_equiv_pos_as_xyz
  1  'x, y, z'
loop_
 _atom_site_type_symbol
 _atom_site_label
 _atom_site_symmetry_multiplicity
 _atom_site_fract_x
 _atom_site_fract_y
 _atom_site_fract_z
 _atom_site_occupancy
  U  U0  1  0.50559200  0.49440800  0.75000000  1
  U  U1  1  0.50782900  0.00598300  0.75000000  1
  U  U2  1  0.99401700  0.49217100  0.75000000  1
  U  U3  1  0.49440800  0.50559200  0.25000000  1
  U  U4  1  0.49217100  0.99401700  0.25000000  1
  U  U5  1  0.00598300  0.50782900  0.25000000  1
  Ni  Ni6  1  0.33396900  0.66603100  0.96104300  1
  Ni  Ni7  1  0.66603100  0.33396900  0.03895700  1
  Ni  Ni8  1  0.66603100  0.33396900  0.46104300  1
  Ni  Ni9  1  0.33396900  0.66603100  0.53895700  1
  O  O10  1  0.21370100  0.41966400  0.01076700  1
  O  O11  1  0.58033600  0.78629900  0.01076700  1
  O  O12  1  0.21147300  0.78852700  0.01109800  1
  O  O13  1  0.78629900  0.58033600  0.98923300  1
  O  O14  1  0.41966400  0.21370100  0.98923300  1
  O  O15  1  0.78852700  0.21147300  0.98890200  1
  O  O16  1  0.78629900  0.58033600  0.51076700  1
  O  O17  1  0.41966400  0.21370100  0.51076700  1
  O  O18  1  0.78852700  0.21147300  0.51109800  1
  O  O19  1  0.21370100  0.41966400  0.48923300  1
  O  O20  1  0.58033600  0.78629900  0.48923300  1
  O  O21  1  0.21147300  0.78852700  0.48890200  1
  O  O22  1  0.97936400  0.02063600  0.81909200  1
  O  O23  1  0.02063600  0.97936400  0.18090800  1
  O  O24  1  0.02063600  0.97936400  0.31909200  1
  O  O25  1  0.97936400  0.02063600  0.68090800  1
  O  O26  1  0.02416900  0.97583100  0.75000000  1
  O  O27  1  0.97583100  0.02416900  0.25000000  1
  F  F28  1  0.17084500  0.34045700  0.75000000  1
  F  F29  1  0.65954300  0.82915500  0.75000000  1
  F  F30  1  0.18110000  0.81890000  0.75000000  1
  F  F31  1  0.82915500  0.65954300  0.25000000  1
  F  F32  1  0.34045700  0.17084500  0.25000000  1
  F  F33  1  0.81890000  0.18110000  0.25000000  1
  F  F34  1  0.33788900  0.66211100  0.75000000  1
  F  F35  1  0.66211100  0.33788900  0.25000000  1
  F  F36  1  0.77966900  0.55789800  0.82224800  1
  F  F37  1  0.44210200  0.22033100  0.82224800  1
  F  F38  1  0.77783600  0.22216400  0.82289700  1
  F  F39  1  0.22033100  0.44210200  0.17775200  1
  F  F40  1  0.55789800  0.77966900  0.17775200  1
  F  F41  1  0.22216400  0.77783600  0.17710300  1
  F  F42  1  0.22033100  0.44210200  0.32224800  1
  F  F43  1  0.55789800  0.77966900  0.32224800  1
  F  F44  1  0.22216400  0.77783600  0.32289700  1
  F  F45  1  0.77966900  0.55789800  0.67775200  1
  F  F46  1  0.44210200  0.22033100  0.67775200  1
  F  F47  1  0.77783600  0.22216400  0.67710300  1
  F  F48  1  0.45407100  0.54592900  0.87345100  1
  F  F49  1  0.45458100  0.90885700  0.87406000  1
  F  F50  1  0.09114300  0.54541900  0.87406000  1
  F  F51  1  0.54592900  0.45407100  0.12654900  1
  F  F52  1  0.54541900  0.09114300  0.12594000  1
  F  F53  1  0.90885700  0.45458100  0.12594000  1
  F  F54  1  0.54592900  0.45407100  0.37345100  1
  F  F55  1  0.54541900  0.09114300  0.37406000  1
  F  F56  1  0.90885700  0.45458100  0.37406000  1
  F  F57  1  0.45407100  0.54592900  0.62654900  1
  F  F58  1  0.45458100  0.90885700  0.62594000  1
  F  F59  1  0.09114300  0.54541900  0.62594000  1
