# generated using pymatgen
data_Cr2CoH20N6ClO8
_symmetry_space_group_name_H-M   'P 1'
_cell_length_a   9.50856700
_cell_length_b   10.20902500
_cell_length_c   16.26575421
_cell_angle_alpha   67.60132616
_cell_angle_beta   90.00000000
_cell_angle_gamma   90.00000000
_symmetry_Int_Tables_number   1
_chemical_formula_structural   Cr2CoH20N6ClO8
_chemical_formula_sum   'Cr8 Co4 H80 N24 Cl4 O32'
_cell_volume   1459.84325139
_cell_formula_units_Z   4
loop_
 _symmetry_equiv_pos_site_id
 _symmetry_equiv_pos_as_xyz
  1  'x, y, z'
loop_
 _atom_site_type_symbol
 _atom_site_label
 _atom_site_symmetry_multiplicity
 _atom_site_fract_x
 _atom_site_fract_y
 _atom_site_fract_z
 _atom_site_occupancy
  Cr  Cr0  1  0.92919400  0.91647800  0.24409100  1
  Cr  Cr1  1  0.42919400  0.08352200  0.25590900  1
  Cr  Cr2  1  0.07080600  0.08352200  0.75590900  1
  Cr  Cr3  1  0.57080600  0.91647800  0.74409100  1
  Cr  Cr4  1  0.74647400  0.76166800  0.41744800  1
  Cr  Cr5  1  0.24647400  0.23833200  0.08255200  1
  Cr  Cr6  1  0.25352600  0.23833200  0.58255200  1
  Cr  Cr7  1  0.75352600  0.76166800  0.91744800  1
  Co  Co8  1  0.25146300  0.71109300  0.06041500  1
  Co  Co9  1  0.75146300  0.28890700  0.43958500  1
  Co  Co10  1  0.74853700  0.28890700  0.93958500  1
  Co  Co11  1  0.24853700  0.71109300  0.56041500  1
  H  H12  1  0.50121500  0.60060300  0.11480800  1
  H  H13  1  0.00121500  0.39939700  0.38519200  1
  H  H14  1  0.49878500  0.39939700  0.88519200  1
  H  H15  1  0.99878500  0.60060300  0.61480800  1
  H  H16  1  0.40195700  0.48820500  0.09037300  1
  H  H17  1  0.90195700  0.51179500  0.40962700  1
  H  H18  1  0.59804300  0.51179500  0.90962700  1
  H  H19  1  0.09804300  0.48820500  0.59037300  1
  H  H20  1  0.37544900  0.51228900  0.18481700  1
  H  H21  1  0.87544900  0.48771100  0.31518300  1
  H  H22  1  0.62455100  0.48771100  0.81518300  1
  H  H23  1  0.12455100  0.51228900  0.68481700  1
  H  H24  1  0.25819900  0.54774100  0.97264300  1
  H  H25  1  0.75819900  0.45225900  0.52735700  1
  H  H26  1  0.74180100  0.45225900  0.02735700  1
  H  H27  1  0.24180100  0.54774100  0.47264300  1
  H  H28  1  0.31542300  0.70678800  0.90782100  1
  H  H29  1  0.81542300  0.29321200  0.59217900  1
  H  H30  1  0.68457700  0.29321200  0.09217900  1
  H  H31  1  0.18457700  0.70678800  0.40782100  1
  H  H32  1  0.14558600  0.67873100  0.92535000  1
  H  H33  1  0.64558600  0.32126900  0.57465000  1
  H  H34  1  0.85441400  0.32126900  0.07465000  1
  H  H35  1  0.35441400  0.67873100  0.42535000  1
  H  H36  1  0.14032000  0.51747300  0.18880100  1
  H  H37  1  0.64032000  0.48252700  0.31119900  1
  H  H38  1  0.85968000  0.48252700  0.81119900  1
  H  H39  1  0.35968000  0.51747300  0.68880100  1
  H  H40  1  0.09884600  0.49075100  0.09687900  1
  H  H41  1  0.59884600  0.50924900  0.40312100  1
  H  H42  1  0.90115400  0.50924900  0.90312100  1
  H  H43  1  0.40115400  0.49075100  0.59687900  1
  H  H44  1  0.00872200  0.60677400  0.12450000  1
  H  H45  1  0.50872200  0.39322600  0.37550000  1
  H  H46  1  0.99127800  0.39322600  0.87550000  1
  H  H47  1  0.49127800  0.60677400  0.62450000  1
  H  H48  1  0.35378100  0.81454700  0.16868700  1
  H  H49  1  0.85378100  0.18545300  0.33131300  1
  H  H50  1  0.64621900  0.18545300  0.83131300  1
  H  H51  1  0.14621900  0.81454700  0.66868700  1
  H  H52  1  0.25153100  0.67813300  0.22288100  1
  H  H53  1  0.75153100  0.32186700  0.27711900  1
  H  H54  1  0.74846900  0.32186700  0.77711900  1
  H  H55  1  0.24846900  0.67813300  0.72288100  1
  H  H56  1  0.17996900  0.83461100  0.16453700  1
  H  H57  1  0.67996900  0.16538900  0.33546300  1
  H  H58  1  0.82003100  0.16538900  0.83546300  1
  H  H59  1  0.32003100  0.83461100  0.66453700  1
  H  H60  1  0.03389800  0.85512400  0.05759400  1
  H  H61  1  0.53389800  0.14487600  0.44240600  1
  H  H62  1  0.96610200  0.14487600  0.94240600  1
  H  H63  1  0.46610200  0.85512400  0.55759400  1
  H  H64  1  0.03796000  0.82715100  0.96342700  1
  H  H65  1  0.53796000  0.17284900  0.53657300  1
  H  H66  1  0.96204000  0.17284900  0.03657300  1
  H  H67  1  0.46204000  0.82715100  0.46342700  1
  H  H68  1  0.13451800  0.95405400  0.97438400  1
  H  H69  1  0.63451800  0.04594600  0.52561600  1
  H  H70  1  0.86548200  0.04594600  0.02561600  1
  H  H71  1  0.36548200  0.95405400  0.47438400  1
  H  H72  1  0.45001200  0.82589900  0.95476900  1
  H  H73  1  0.95001200  0.17410100  0.54523100  1
  H  H74  1  0.54998800  0.17410100  0.04523100  1
  H  H75  1  0.04998800  0.82589900  0.45476900  1
  H  H76  1  0.47003500  0.85183600  0.04923500  1
  H  H77  1  0.97003500  0.14816400  0.45076500  1
  H  H78  1  0.52996500  0.14816400  0.95076500  1
  H  H79  1  0.02996500  0.85183600  0.54923500  1
  H  H80  1  0.36073200  0.95273100  0.97044400  1
  H  H81  1  0.86073200  0.04726900  0.52955600  1
  H  H82  1  0.63926800  0.04726900  0.02955600  1
  H  H83  1  0.13926800  0.95273100  0.47044400  1
  H  H84  1  0.65743800  0.75720700  0.15660600  1
  H  H85  1  0.15743800  0.24279300  0.34339400  1
  H  H86  1  0.34256200  0.24279300  0.84339400  1
  H  H87  1  0.84256200  0.75720700  0.65660600  1
  H  H88  1  0.59479600  0.85946200  0.19836300  1
  H  H89  1  0.09479600  0.14053800  0.30163700  1
  H  H90  1  0.40520400  0.14053800  0.80163700  1
  H  H91  1  0.90520400  0.85946200  0.69836300  1
  N  N92  1  0.39940700  0.56389700  0.11809000  1
  N  N93  1  0.89940700  0.43610300  0.38191000  1
  N  N94  1  0.60059300  0.43610300  0.88191000  1
  N  N95  1  0.10059300  0.56389700  0.61809000  1
  N  N96  1  0.24206200  0.65454000  0.95581500  1
  N  N97  1  0.74206200  0.34546000  0.54418500  1
  N  N98  1  0.75793800  0.34546000  0.04418500  1
  N  N99  1  0.25793800  0.65454000  0.45581500  1
  N  N100  1  0.10817700  0.56764600  0.12326400  1
  N  N101  1  0.60817700  0.43235400  0.37673600  1
  N  N102  1  0.89182300  0.43235400  0.87673600  1
  N  N103  1  0.39182300  0.56764600  0.62326400  1
  N  N104  1  0.26006500  0.76694000  0.16477400  1
  N  N105  1  0.76006500  0.23306000  0.33522600  1
  N  N106  1  0.73993500  0.23306000  0.83522600  1
  N  N107  1  0.23993500  0.76694000  0.66477400  1
  N  N108  1  0.09929200  0.85212300  0.00752200  1
  N  N109  1  0.59929200  0.14787700  0.49247800  1
  N  N110  1  0.90070800  0.14787700  0.99247800  1
  N  N111  1  0.40070800  0.85212300  0.50752200  1
  N  N112  1  0.39771200  0.85122800  0.00195900  1
  N  N113  1  0.89771200  0.14877200  0.49804100  1
  N  N114  1  0.60228800  0.14877200  0.99804100  1
  N  N115  1  0.10228800  0.85122800  0.50195900  1
  Cl  Cl116  1  0.25765400  0.44467500  0.31812600  1
  Cl  Cl117  1  0.75765400  0.55532500  0.18187400  1
  Cl  Cl118  1  0.74234600  0.55532500  0.68187400  1
  Cl  Cl119  1  0.24234600  0.44467500  0.81812600  1
  O  O120  1  0.77202900  0.82733000  0.29979900  1
  O  O121  1  0.27202900  0.17267000  0.20020100  1
  O  O122  1  0.22797100  0.17267000  0.70020100  1
  O  O123  1  0.72797100  0.82733000  0.79979900  1
  O  O124  1  0.95612200  0.87412800  0.15749700  1
  O  O125  1  0.45612200  0.12587200  0.34250300  1
  O  O126  1  0.04387800  0.12587200  0.84250300  1
  O  O127  1  0.54387800  0.87412800  0.65749700  1
  O  O128  1  0.06045000  0.86258800  0.31384500  1
  O  O129  1  0.56045000  0.13741200  0.18615500  1
  O  O130  1  0.93955000  0.13741200  0.68615500  1
  O  O131  1  0.43955000  0.86258800  0.81384500  1
  O  O132  1  0.90932400  0.08693900  0.21263000  1
  O  O133  1  0.40932400  0.91306100  0.28737000  1
  O  O134  1  0.09067600  0.91306100  0.78737000  1
  O  O135  1  0.59067600  0.08693900  0.71263000  1
  O  O136  1  0.87623400  0.65185100  0.46402100  1
  O  O137  1  0.37623400  0.34814900  0.03597900  1
  O  O138  1  0.12376600  0.34814900  0.53597900  1
  O  O139  1  0.62376600  0.65185100  0.96402100  1
  O  O140  1  0.59626700  0.67542000  0.43912700  1
  O  O141  1  0.09626700  0.32458000  0.06087300  1
  O  O142  1  0.40373300  0.32458000  0.56087300  1
  O  O143  1  0.90373300  0.67542000  0.93912700  1
  O  O144  1  0.74534000  0.89303100  0.45091000  1
  O  O145  1  0.24534000  0.10696900  0.04909000  1
  O  O146  1  0.25466000  0.10696900  0.54909000  1
  O  O147  1  0.75466000  0.89303100  0.95091000  1
  O  O148  1  0.59063400  0.83687900  0.14494200  1
  O  O149  1  0.09063400  0.16312100  0.35505800  1
  O  O150  1  0.40936600  0.16312100  0.85505800  1
  O  O151  1  0.90936600  0.83687900  0.64494200  1
