# generated using pymatgen
data_NaGaBP2H3O10
_symmetry_space_group_name_H-M   'P 1'
_cell_length_a   6.71274855
_cell_length_b   6.71274855
_cell_length_c   9.21005114
_cell_angle_alpha   69.40271091
_cell_angle_beta   69.40271091
_cell_angle_gamma   75.69926328
_symmetry_Int_Tables_number   1
_chemical_formula_structural   NaGaBP2H3O10
_chemical_formula_sum   'Na2 Ga2 B2 P4 H6 O20'
_cell_volume   360.03599818
_cell_formula_units_Z   2
loop_
 _symmetry_equiv_pos_site_id
 _symmetry_equiv_pos_as_xyz
  1  'x, y, z'
loop_
 _atom_site_type_symbol
 _atom_site_label
 _atom_site_symmetry_multiplicity
 _atom_site_fract_x
 _atom_site_fract_y
 _atom_site_fract_z
 _atom_site_occupancy
  Na  Na0  1  0.13032000  0.86968000  0.25000000  1
  Na  Na1  1  0.86968000  0.13032000  0.75000000  1
  Ga  Ga2  1  0.00000000  0.50000000  0.00000000  1
  Ga  Ga3  1  0.50000000  0.00000000  0.50000000  1
  B  B4  1  0.46701200  0.53298800  0.75000000  1
  B  B5  1  0.53298800  0.46701200  0.25000000  1
  P  P6  1  0.29090700  0.16232500  0.82038300  1
  P  P7  1  0.83767500  0.70909300  0.67961700  1
  P  P8  1  0.70909300  0.83767500  0.17961700  1
  P  P9  1  0.16232500  0.29090700  0.32038300  1
  H  H10  1  0.50000000  0.00000000  0.00000000  1
  H  H11  1  0.00000000  0.50000000  0.50000000  1
  H  H12  1  0.32022300  0.69641900  0.92495700  1
  H  H13  1  0.30358100  0.67977700  0.57504300  1
  H  H14  1  0.67977700  0.30358100  0.07504300  1
  H  H15  1  0.69641900  0.32022300  0.42495700  1
  O  O16  1  0.08341200  0.27336100  0.18906600  1
  O  O17  1  0.72663900  0.91658800  0.31093400  1
  O  O18  1  0.91658800  0.72663900  0.81093400  1
  O  O19  1  0.27336100  0.08341200  0.68906600  1
  O  O20  1  0.46797900  0.31535500  0.74742100  1
  O  O21  1  0.68464500  0.53202100  0.75257900  1
  O  O22  1  0.53202100  0.68464500  0.25257900  1
  O  O23  1  0.31535500  0.46797900  0.24742100  1
  O  O24  1  0.30474600  0.57150900  0.89971100  1
  O  O25  1  0.42849100  0.69525400  0.60028900  1
  O  O26  1  0.69525400  0.42849100  0.10028900  1
  O  O27  1  0.57150900  0.30474600  0.39971100  1
  O  O28  1  0.36223400  0.97035200  0.95576600  1
  O  O29  1  0.02964800  0.63776600  0.54423400  1
  O  O30  1  0.63776600  0.02964800  0.04423400  1
  O  O31  1  0.97035200  0.36223400  0.45576600  1
  O  O32  1  0.06840000  0.28335000  0.88777900  1
  O  O33  1  0.71665000  0.93160000  0.61222100  1
  O  O34  1  0.93160000  0.71665000  0.11222100  1
  O  O35  1  0.28335000  0.06840000  0.38777900  1
