# generated using pymatgen
data_Cu2(ReS2)3
_symmetry_space_group_name_H-M   'P 1'
_cell_length_a   9.33777720
_cell_length_b   9.33777720
_cell_length_c   11.77320421
_cell_angle_alpha   87.80687583
_cell_angle_beta   87.80687583
_cell_angle_gamma   61.69441367
_symmetry_Int_Tables_number   1
_chemical_formula_structural   Cu2(ReS2)3
_chemical_formula_sum   'Cu8 Re12 S24'
_cell_volume   902.91158657
_cell_formula_units_Z   4
loop_
 _symmetry_equiv_pos_site_id
 _symmetry_equiv_pos_as_xyz
  1  'x, y, z'
loop_
 _atom_site_type_symbol
 _atom_site_label
 _atom_site_symmetry_multiplicity
 _atom_site_fract_x
 _atom_site_fract_y
 _atom_site_fract_z
 _atom_site_occupancy
  Cu  Cu0  1  0.60417400  0.39582600  0.25000000  1
  Cu  Cu1  1  0.39582600  0.60417400  0.75000000  1
  Cu  Cu2  1  0.90656400  0.09343600  0.25000000  1
  Cu  Cu3  1  0.09343600  0.90656400  0.75000000  1
  Cu  Cu4  1  0.86945100  0.31594500  0.09930000  1
  Cu  Cu5  1  0.68405500  0.13054900  0.40070000  1
  Cu  Cu6  1  0.13054900  0.68405500  0.90070000  1
  Cu  Cu7  1  0.31594500  0.86945100  0.59930000  1
  Re  Re8  1  0.98104800  0.70191800  0.46638000  1
  Re  Re9  1  0.29808200  0.01895200  0.03362000  1
  Re  Re10  1  0.01895200  0.29808200  0.53362000  1
  Re  Re11  1  0.70191800  0.98104800  0.96638000  1
  Re  Re12  1  0.88251800  0.51821700  0.37179100  1
  Re  Re13  1  0.48178300  0.11748200  0.12820900  1
  Re  Re14  1  0.11748200  0.48178300  0.62820900  1
  Re  Re15  1  0.51821700  0.88251800  0.87179100  1
  Re  Re16  1  0.19379300  0.40413500  0.41357400  1
  Re  Re17  1  0.59586500  0.80620800  0.08642600  1
  Re  Re18  1  0.80620800  0.59586500  0.58642600  1
  Re  Re19  1  0.40413500  0.19379200  0.91357400  1
  S  S20  1  0.97347400  0.94465400  0.92617600  1
  S  S21  1  0.05534600  0.02652600  0.57382400  1
  S  S22  1  0.02652600  0.05534600  0.07382400  1
  S  S23  1  0.94465400  0.97347400  0.42617600  1
  S  S24  1  0.91925300  0.75709200  0.66556400  1
  S  S25  1  0.24290800  0.08074700  0.83443600  1
  S  S26  1  0.08074700  0.24290800  0.33443600  1
  S  S27  1  0.75709200  0.91925300  0.16556400  1
  S  S28  1  0.20875700  0.30377600  0.06899800  1
  S  S29  1  0.69622400  0.79124300  0.43100200  1
  S  S30  1  0.79124300  0.69622400  0.93100200  1
  S  S31  1  0.30377600  0.20875700  0.56899800  1
  S  S32  1  0.94486900  0.38734600  0.72722700  1
  S  S33  1  0.61265400  0.05513100  0.77277300  1
  S  S34  1  0.05513100  0.61265400  0.27277300  1
  S  S35  1  0.38734600  0.94486900  0.22722700  1
  S  S36  1  0.73288800  0.41443300  0.49316700  1
  S  S37  1  0.58556700  0.26711200  0.00683300  1
  S  S38  1  0.26711200  0.58556700  0.50683300  1
  S  S39  1  0.41443300  0.73288800  0.99316700  1
  S  S40  1  0.72775300  0.53812900  0.19723500  1
  S  S41  1  0.46187100  0.27224700  0.30276500  1
  S  S42  1  0.27224700  0.46187100  0.80276500  1
  S  S43  1  0.53812900  0.72775300  0.69723500  1
