# generated using pymatgen
data_RbVPO6
_symmetry_space_group_name_H-M   'P 1'
_cell_length_a   6.78582500
_cell_length_b   9.88192300
_cell_length_c   18.37064800
_cell_angle_alpha   90.00000000
_cell_angle_beta   90.00000000
_cell_angle_gamma   90.00000000
_symmetry_Int_Tables_number   1
_chemical_formula_structural   RbVPO6
_chemical_formula_sum   'Rb8 V8 P8 O48'
_cell_volume   1231.88054553
_cell_formula_units_Z   8
loop_
 _symmetry_equiv_pos_site_id
 _symmetry_equiv_pos_as_xyz
  1  'x, y, z'
loop_
 _atom_site_type_symbol
 _atom_site_label
 _atom_site_symmetry_multiplicity
 _atom_site_fract_x
 _atom_site_fract_y
 _atom_site_fract_z
 _atom_site_occupancy
  Rb  Rb0  1  0.77359100  0.80905600  0.40095800  1
  Rb  Rb1  1  0.27359100  0.69094400  0.59904200  1
  Rb  Rb2  1  0.22640900  0.30905600  0.09904200  1
  Rb  Rb3  1  0.72640900  0.19094400  0.90095800  1
  Rb  Rb4  1  0.22640900  0.19094400  0.59904200  1
  Rb  Rb5  1  0.72640900  0.30905600  0.40095800  1
  Rb  Rb6  1  0.77359100  0.69094400  0.90095800  1
  Rb  Rb7  1  0.27359100  0.80905600  0.09904200  1
  V  V8  1  0.52254900  0.95524400  0.74360900  1
  V  V9  1  0.02254900  0.54475600  0.25639100  1
  V  V10  1  0.47745100  0.45524400  0.75639100  1
  V  V11  1  0.97745100  0.04475600  0.24360900  1
  V  V12  1  0.47745100  0.04475600  0.25639100  1
  V  V13  1  0.97745100  0.45524400  0.74360900  1
  V  V14  1  0.52254900  0.54475600  0.24360900  1
  V  V15  1  0.02254900  0.95524400  0.75639100  1
  P  P16  1  0.29561000  0.90109200  0.89845000  1
  P  P17  1  0.79561000  0.59890800  0.10155000  1
  P  P18  1  0.70439000  0.40109200  0.60155000  1
  P  P19  1  0.20439000  0.09890800  0.39845000  1
  P  P20  1  0.70439000  0.09890800  0.10155000  1
  P  P21  1  0.20439000  0.40109200  0.89845000  1
  P  P22  1  0.29561000  0.59890800  0.39845000  1
  P  P23  1  0.79561000  0.90109200  0.60155000  1
  O  O24  1  0.34364300  0.76858700  0.93893100  1
  O  O25  1  0.84364300  0.73141300  0.06106900  1
  O  O26  1  0.65635700  0.26858700  0.56106900  1
  O  O27  1  0.15635700  0.23141300  0.43893100  1
  O  O28  1  0.65635700  0.23141300  0.06106900  1
  O  O29  1  0.15635700  0.26858700  0.93893100  1
  O  O30  1  0.34364300  0.73141300  0.43893100  1
  O  O31  1  0.84364300  0.76858700  0.56106900  1
  O  O32  1  0.27241300  0.99702400  0.96411900  1
  O  O33  1  0.77241300  0.50297600  0.03588100  1
  O  O34  1  0.72758700  0.49702400  0.53588100  1
  O  O35  1  0.22758700  0.00297600  0.46411900  1
  O  O36  1  0.72758700  0.00297600  0.03588100  1
  O  O37  1  0.22758700  0.49702400  0.96411900  1
  O  O38  1  0.27241300  0.50297600  0.46411900  1
  O  O39  1  0.77241300  0.99702400  0.53588100  1
  O  O40  1  0.60309400  0.88970700  0.64728200  1
  O  O41  1  0.10309400  0.61029300  0.35271800  1
  O  O42  1  0.39690600  0.38970700  0.85271800  1
  O  O43  1  0.89690600  0.11029300  0.14728200  1
  O  O44  1  0.39690600  0.11029300  0.35271800  1
  O  O45  1  0.89690600  0.38970700  0.64728200  1
  O  O46  1  0.60309400  0.61029300  0.14728200  1
  O  O47  1  0.10309400  0.88970700  0.85271800  1
  O  O48  1  0.96926800  0.94568700  0.65124600  1
  O  O49  1  0.46926800  0.55431300  0.34875400  1
  O  O50  1  0.03073200  0.44568700  0.84875400  1
  O  O51  1  0.53073200  0.05431300  0.15124600  1
  O  O52  1  0.03073200  0.05431300  0.34875400  1
  O  O53  1  0.53073200  0.44568700  0.65124600  1
  O  O54  1  0.96926800  0.55431300  0.15124600  1
  O  O55  1  0.46926800  0.94568700  0.84875400  1
  O  O56  1  0.47640100  0.88113300  0.26726300  1
  O  O57  1  0.97640100  0.61886700  0.73273700  1
  O  O58  1  0.52359900  0.38113300  0.23273700  1
  O  O59  1  0.02359900  0.11886700  0.76726300  1
  O  O60  1  0.52359900  0.11886700  0.73273700  1
  O  O61  1  0.02359900  0.38113300  0.26726300  1
  O  O62  1  0.47640100  0.61886700  0.76726300  1
  O  O63  1  0.97640100  0.88113300  0.23273700  1
  O  O64  1  0.72259400  0.10139300  0.27360600  1
  O  O65  1  0.22259400  0.39860700  0.72639400  1
  O  O66  1  0.27740600  0.60139300  0.22639400  1
  O  O67  1  0.77740600  0.89860700  0.77360600  1
  O  O68  1  0.27740600  0.89860700  0.72639400  1
  O  O69  1  0.77740600  0.60139300  0.27360600  1
  O  O70  1  0.72259400  0.39860700  0.77360600  1
  O  O71  1  0.22259400  0.10139300  0.22639400  1
