# generated using pymatgen
data_Si18O29
_symmetry_space_group_name_H-M   'P 1'
_cell_length_a   14.44172464
_cell_length_b   13.96601938
_cell_length_c   19.06790034
_cell_angle_alpha   90.00000000
_cell_angle_beta   76.19275611
_cell_angle_gamma   90.00000000
_symmetry_Int_Tables_number   1
_chemical_formula_structural   Si18O29
_chemical_formula_sum   'Si72 O116'
_cell_volume   3734.73995665
_cell_formula_units_Z   4
loop_
 _symmetry_equiv_pos_site_id
 _symmetry_equiv_pos_as_xyz
  1  'x, y, z'
loop_
 _atom_site_type_symbol
 _atom_site_label
 _atom_site_symmetry_multiplicity
 _atom_site_fract_x
 _atom_site_fract_y
 _atom_site_fract_z
 _atom_site_occupancy
  Si  Si0  1  0.21770582  -0.00000000  0.28293155  1
  Si  Si1  1  0.78229418  -0.00000000  0.71706845  1
  Si  Si2  1  0.99888172  -0.00000000  0.37403323  1
  Si  Si3  1  0.00111828  -0.00000000  0.62596677  1
  Si  Si4  1  0.03308856  0.80346607  0.42146367  1
  Si  Si5  1  0.03308856  0.19653393  0.42146367  1
  Si  Si6  1  0.96691144  0.19653393  0.57853633  1
  Si  Si7  1  0.96691144  0.80346607  0.57853633  1
  Si  Si8  1  0.03331742  0.71003030  0.26919521  1
  Si  Si9  1  0.03331742  0.28996970  0.26919521  1
  Si  Si10  1  0.96668258  0.28996970  0.73080479  1
  Si  Si11  1  0.96668258  0.71003030  0.73080479  1
  Si  Si12  1  0.05759269  0.50000000  0.22005389  1
  Si  Si13  1  0.94240731  0.50000000  0.77994611  1
  Si  Si14  1  0.23780383  0.78923151  0.22255027  1
  Si  Si15  1  0.23780383  0.21076849  0.22255027  1
  Si  Si16  1  0.76219617  0.21076849  0.77744973  1
  Si  Si17  1  0.76219617  0.78923151  0.77744973  1
  Si  Si18  1  0.38632951  0.69091090  0.10166479  1
  Si  Si19  1  0.38632951  0.30908910  0.10166479  1
  Si  Si20  1  0.61367049  0.30908910  0.89833521  1
  Si  Si21  1  0.61367049  0.69091090  0.89833521  1
  Si  Si22  1  0.31796091  -0.00000000  0.41275168  1
  Si  Si23  1  0.68203909  0.00000000  0.58724832  1
  Si  Si24  1  0.68313671  0.00000000  0.24123897  1
  Si  Si25  1  0.31686329  -0.00000000  0.75876103  1
  Si  Si26  1  0.67778651  0.79260450  0.18178306  1
  Si  Si27  1  0.67778651  0.20739550  0.18178306  1
  Si  Si28  1  0.32221349  0.20739550  0.81821694  1
  Si  Si29  1  0.32221349  0.79260450  0.81821694  1
  Si  Si30  1  0.61434053  0.69142508  0.06513777  1
  Si  Si31  1  0.61434053  0.30857492  0.06513777  1
  Si  Si32  1  0.38565947  0.30857492  0.93486223  1
  Si  Si33  1  0.38565947  0.69142508  0.93486223  1
  Si  Si34  1  0.54389718  0.00000000  0.39349961  1
  Si  Si35  1  0.45610282  -0.00000000  0.60650039  1
  Si  Si36  1  0.58409296  0.79453962  0.43646316  1
  Si  Si37  1  0.58409296  0.20546038  0.43646316  1
  Si  Si38  1  0.41590704  0.20546038  0.56353684  1
  Si  Si39  1  0.41590704  0.79453962  0.56353684  1
  Si  Si40  1  0.52751847  0.70559306  0.30483842  1
  Si  Si41  1  0.52751847  0.29440694  0.30483842  1
  Si  Si42  1  0.47248153  0.29440694  0.69516158  1
  Si  Si43  1  0.47248153  0.70559306  0.69516158  1
  Si  Si44  1  0.67696215  0.50000000  0.12444759  1
  Si  Si45  1  0.32303785  0.50000000  0.87555241  1
  Si  Si46  1  0.50917954  0.50000000  0.26919788  1
  Si  Si47  1  0.49082046  0.50000000  0.73080212  1
  Si  Si48  1  0.22424146  0.79584853  0.45498882  1
  Si  Si49  1  0.22424146  0.20415147  0.45498882  1
  Si  Si50  1  0.77575854  0.20415147  0.54501118  1
  Si  Si51  1  0.77575854  0.79584853  0.54501118  1
  Si  Si52  1  0.80626633  0.00000000  0.35427159  1
  Si  Si53  1  0.19373367  0.00000000  0.64572841  1
  Si  Si54  1  0.79574150  0.79930532  0.41034444  1
  Si  Si55  1  0.79574150  0.20069468  0.41034444  1
  Si  Si56  1  0.20425850  0.20069468  0.58965556  1
  Si  Si57  1  0.20425850  0.79930532  0.58965556  1
  Si  Si58  1  0.82711235  0.69752153  0.26693233  1
  Si  Si59  1  0.82711235  0.30247847  0.26693233  1
  Si  Si60  1  0.17288765  0.30247847  0.73306767  1
  Si  Si61  1  0.17288765  0.69752153  0.73306767  1
  Si  Si62  1  0.84756769  0.50000000  0.21298851  1
  Si  Si63  1  0.15243231  0.50000000  0.78701149  1
  Si  Si64  1  0.30752725  0.67845077  0.34994427  1
  Si  Si65  1  0.30752725  0.32154923  0.34994427  1
  Si  Si66  1  0.69247275  0.32154923  0.65005573  1
  Si  Si67  1  0.69247275  0.67845077  0.65005573  1
  Si  Si68  1  0.28540259  0.50000000  0.18144245  1
  Si  Si69  1  0.71459741  0.50000000  0.81855755  1
  Si  Si70  1  0.33385007  0.50000000  0.29913525  1
  Si  Si71  1  0.66614993  0.50000000  0.70086475  1
  O  O72  1  0.23829313  0.09608663  0.23490095  1
  O  O73  1  0.23829313  0.90391337  0.23490095  1
  O  O74  1  0.76170687  0.90391337  0.76509905  1
  O  O75  1  0.76170687  0.09608663  0.76509905  1
  O  O76  1  0.10573645  0.00000000  0.32455638  1
  O  O77  1  0.89426355  -0.00000000  0.67544362  1
  O  O78  1  0.29022571  0.00000000  0.33566986  1
  O  O79  1  0.70977429  0.00000000  0.66433014  1
  O  O80  1  0.92404263  0.00000000  0.32266635  1
  O  O81  1  0.07595737  0.00000000  0.67733365  1
  O  O82  1  0.97764118  0.09411352  0.42631490  1
  O  O83  1  0.97764118  0.90588648  0.42631490  1
  O  O84  1  0.02235882  0.90588648  0.57368510  1
  O  O85  1  0.02235882  0.09411352  0.57368510  1
  O  O86  1  0.14571890  0.82531183  0.40778789  1
  O  O87  1  0.14571890  0.17468817  0.40778789  1
  O  O88  1  0.85428110  0.17468817  0.59221211  1
  O  O89  1  0.85428110  0.82531183  0.59221211  1
  O  O90  1  -0.00000000  0.74877565  0.50000000  1
  O  O91  1  -0.00000000  0.25122435  0.50000000  1
  O  O92  1  0.01335976  0.74224362  0.35431264  1
  O  O93  1  0.01335976  0.25775638  0.35431264  1
  O  O94  1  0.98664024  0.25775638  0.64568736  1
  O  O95  1  0.98664024  0.74224362  0.64568736  1
  O  O96  1  0.93971235  0.73706638  0.23837558  1
  O  O97  1  0.93971235  0.26293362  0.23837558  1
  O  O98  1  0.06028765  0.26293362  0.76162442  1
  O  O99  1  0.06028765  0.73706638  0.76162442  1
  O  O100  1  0.12902572  0.75834274  0.21796903  1
  O  O101  1  0.12902572  0.24165726  0.21796903  1
  O  O102  1  0.87097428  0.24165726  0.78203097  1
  O  O103  1  0.87097428  0.75834274  0.78203097  1
  O  O104  1  0.04251085  0.59404662  0.27192876  1
  O  O105  1  0.04251085  0.40595338  0.27192876  1
  O  O106  1  0.95748915  0.40595338  0.72807124  1
  O  O107  1  0.95748915  0.59404662  0.72807124  1
  O  O108  1  0.96902391  0.50000000  0.17679555  1
  O  O109  1  0.03097609  0.50000000  0.82320445  1
  O  O110  1  0.17108128  0.50000000  0.17663959  1
  O  O111  1  0.82891872  0.50000000  0.82336041  1
  O  O112  1  0.25805323  0.72086047  0.28679224  1
  O  O113  1  0.25805323  0.27913953  0.28679224  1
  O  O114  1  0.74194677  0.27913953  0.71320776  1
  O  O115  1  0.74194677  0.72086047  0.71320776  1
  O  O116  1  0.32294406  0.77459116  0.15035121  1
  O  O117  1  0.32294406  0.22540884  0.15035121  1
  O  O118  1  0.67705594  0.22540884  0.84964879  1
  O  O119  1  0.67705594  0.77459116  0.84964879  1
  O  O120  1  0.37576958  0.70901413  0.02004096  1
  O  O121  1  0.37576958  0.29098587  0.02004096  1
  O  O122  1  0.62423042  0.29098587  0.97995904  1
  O  O123  1  0.62423042  0.70901413  0.97995904  1
  O  O124  1  0.49928616  0.69093300  0.10384527  1
  O  O125  1  0.49928616  0.30906700  0.10384527  1
  O  O126  1  0.50071384  0.30906700  0.89615473  1
  O  O127  1  0.50071384  0.69093300  0.89615473  1
  O  O128  1  0.33807610  0.59094980  0.13494693  1
  O  O129  1  0.33807610  0.40905020  0.13494693  1
  O  O130  1  0.66192390  0.40905020  0.86505307  1
  O  O131  1  0.66192390  0.59094980  0.86505307  1
  O  O132  1  0.43150898  -0.00000000  0.40169989  1
  O  O133  1  0.56849102  -0.00000000  0.59830011  1
  O  O134  1  0.28111787  0.09963542  0.45512084  1
  O  O135  1  0.28111787  0.90036458  0.45512084  1
  O  O136  1  0.71888213  0.90036458  0.54487916  1
  O  O137  1  0.71888213  0.09963542  0.54487916  1
  O  O138  1  0.58821466  -0.00000000  0.30731774  1
  O  O139  1  0.41178534  0.00000000  0.69268226  1
  O  O140  1  0.68312268  0.90706817  0.19104825  1
  O  O141  1  0.68312268  0.09293183  0.19104825  1
  O  O142  1  0.31687732  0.09293183  0.80895175  1
  O  O143  1  0.31687732  0.90706817  0.80895175  1
  O  O144  1  0.77561081  0.00000000  0.27599787  1
  O  O145  1  0.22438919  -0.00000000  0.72400213  1
  O  O146  1  0.76589793  0.74335308  0.21040821  1
  O  O147  1  0.76589793  0.25664692  0.21040821  1
  O  O148  1  0.23410207  0.25664692  0.78959179  1
  O  O149  1  0.23410207  0.74335308  0.78959179  1
  O  O150  1  0.67459113  0.77301416  0.09786089  1
  O  O151  1  0.67459113  0.22698584  0.09786089  1
  O  O152  1  0.32540887  0.22698584  0.90213911  1
  O  O153  1  0.32540887  0.77301416  0.90213911  1
  O  O154  1  0.57494188  0.74884096  0.22593246  1
  O  O155  1  0.57494188  0.25115904  0.22593246  1
  O  O156  1  0.42505812  0.25115904  0.77406754  1
  O  O157  1  0.42505812  0.74884096  0.77406754  1
  O  O158  1  0.67010299  0.59260075  0.07466798  1
  O  O159  1  0.67010299  0.40739925  0.07466798  1
  O  O160  1  0.32989701  0.40739925  0.92533202  1
  O  O161  1  0.32989701  0.59260075  0.92533202  1
  O  O162  1  0.57867536  0.90986845  0.43442099  1
  O  O163  1  0.57867536  0.09013155  0.43442099  1
  O  O164  1  0.42132464  0.09013155  0.56557901  1
  O  O165  1  0.42132464  0.90986845  0.56557901  1
  O  O166  1  0.58414913  0.75620901  0.35759853  1
  O  O167  1  0.58414913  0.24379099  0.35759853  1
  O  O168  1  0.41585087  0.24379099  0.64240147  1
  O  O169  1  0.41585087  0.75620901  0.64240147  1
  O  O170  1  0.50000000  0.74986975  0.50000000  1
  O  O171  1  0.50000000  0.25013025  0.50000000  1
  O  O172  1  0.68488809  0.75925032  0.44962339  1
  O  O173  1  0.68488809  0.24074968  0.44962339  1
  O  O174  1  0.31511191  0.24074968  0.55037661  1
  O  O175  1  0.31511191  0.75925032  0.55037661  1
  O  O176  1  0.41475722  0.72857368  0.33111366  1
  O  O177  1  0.41475722  0.27142632  0.33111366  1
  O  O178  1  0.58524278  0.27142632  0.66888634  1
  O  O179  1  0.58524278  0.72857368  0.66888634  1
  O  O180  1  0.54401002  0.59151072  0.30995285  1
  O  O181  1  0.54401002  0.40848928  0.30995285  1
  O  O182  1  0.45598998  0.40848928  0.69004715  1
  O  O183  1  0.45598998  0.59151072  0.69004715  1
  O  O184  1  0.77747279  0.50000000  0.15297225  1
  O  O185  1  0.22252721  0.50000000  0.84702775  1
  O  O186  1  0.57799865  0.50000000  0.18764171  1
  O  O187  1  0.42200135  0.50000000  0.81235829  1
