# generated using pymatgen
data_IrCSN6(ClO4)2
_symmetry_space_group_name_H-M   'P 1'
_cell_length_a   15.75561900
_cell_length_b   7.50337400
_cell_length_c   13.83062069
_cell_angle_alpha   58.11904408
_cell_angle_beta   90.00000000
_cell_angle_gamma   90.00000000
_symmetry_Int_Tables_number   1
_chemical_formula_structural   IrCSN6(ClO4)2
_chemical_formula_sum   'Ir4 C4 S4 N24 Cl8 O32'
_cell_volume   1388.40688975
_cell_formula_units_Z   4
loop_
 _symmetry_equiv_pos_site_id
 _symmetry_equiv_pos_as_xyz
  1  'x, y, z'
loop_
 _atom_site_type_symbol
 _atom_site_label
 _atom_site_symmetry_multiplicity
 _atom_site_fract_x
 _atom_site_fract_y
 _atom_site_fract_z
 _atom_site_occupancy
  Ir  Ir0  1  0.86231200  0.87245300  0.24332100  1
  Ir  Ir1  1  0.36231200  0.12754700  0.25667900  1
  Ir  Ir2  1  0.13768800  0.12754700  0.75667900  1
  Ir  Ir3  1  0.63768800  0.87245300  0.74332100  1
  C  C4  1  0.07984800  0.69178500  0.22840500  1
  C  C5  1  0.57984800  0.30821500  0.27159500  1
  C  C6  1  0.92015200  0.30821500  0.77159500  1
  C  C7  1  0.42015200  0.69178500  0.72840500  1
  S  S8  1  0.99422400  0.55027800  0.27769100  1
  S  S9  1  0.49422400  0.44972200  0.22230900  1
  S  S10  1  0.00577600  0.44972200  0.72230900  1
  S  S11  1  0.50577600  0.55027800  0.77769100  1
  N  N12  1  0.78332900  0.03011200  0.24433900  1
  N  N13  1  0.28332900  0.96988800  0.25566100  1
  N  N14  1  0.21667100  0.96988800  0.75566100  1
  N  N15  1  0.71667100  0.03011200  0.74433900  1
  N  N16  1  0.96700000  0.99550800  0.26422800  1
  N  N17  1  0.46700000  0.00449200  0.23577200  1
  N  N18  1  0.03300000  0.00449200  0.73577200  1
  N  N19  1  0.53300000  0.99550800  0.76422800  1
  N  N20  1  0.80988400  0.62548500  0.27109400  1
  N  N21  1  0.30988400  0.37451500  0.22890600  1
  N  N22  1  0.19011600  0.37451500  0.72890600  1
  N  N23  1  0.69011600  0.62548500  0.77109400  1
  N  N24  1  0.89198000  0.98432300  0.09159400  1
  N  N25  1  0.39198000  0.01567700  0.40840600  1
  N  N26  1  0.10802000  0.01567700  0.90840600  1
  N  N27  1  0.60802000  0.98432300  0.59159400  1
  N  N28  1  0.88254800  0.67563800  0.42479700  1
  N  N29  1  0.38254800  0.32436200  0.07520300  1
  N  N30  1  0.11745200  0.32436200  0.57520300  1
  N  N31  1  0.61745200  0.67563800  0.92479700  1
  N  N32  1  0.14385400  0.78927100  0.19111200  1
  N  N33  1  0.64385400  0.21072900  0.30888800  1
  N  N34  1  0.85614600  0.21072900  0.80888800  1
  N  N35  1  0.35614600  0.78927100  0.69111200  1
  Cl  Cl36  1  0.13052400  0.37611800  0.01335900  1
  Cl  Cl37  1  0.63052400  0.62388200  0.48664100  1
  Cl  Cl38  1  0.86947600  0.62388200  0.98664100  1
  Cl  Cl39  1  0.36947600  0.37611800  0.51335900  1
  Cl  Cl40  1  0.13780300  0.89427600  0.48489900  1
  Cl  Cl41  1  0.63780300  0.10572400  0.01510100  1
  Cl  Cl42  1  0.86219700  0.10572400  0.51510100  1
  Cl  Cl43  1  0.36219700  0.89427600  0.98489900  1
  O  O44  1  0.20342900  0.28792400  0.98658900  1
  O  O45  1  0.70342900  0.71207600  0.51341100  1
  O  O46  1  0.79657100  0.71207600  0.01341100  1
  O  O47  1  0.29657100  0.28792400  0.48658900  1
  O  O48  1  0.05426400  0.25816500  0.01862800  1
  O  O49  1  0.55426400  0.74183500  0.48137200  1
  O  O50  1  0.94573600  0.74183500  0.98137200  1
  O  O51  1  0.44573600  0.25816500  0.51862800  1
  O  O52  1  0.14264600  0.36662700  0.11913900  1
  O  O53  1  0.64264600  0.63337300  0.38086100  1
  O  O54  1  0.85735400  0.63337300  0.88086100  1
  O  O55  1  0.35735400  0.36662700  0.61913900  1
  O  O56  1  0.11999100  0.59355200  0.91772400  1
  O  O57  1  0.61999100  0.40644800  0.58227600  1
  O  O58  1  0.88000900  0.40644800  0.08227600  1
  O  O59  1  0.38000900  0.59355200  0.41772400  1
  O  O60  1  0.06282300  0.79116600  0.47133600  1
  O  O61  1  0.56282300  0.20883400  0.02866400  1
  O  O62  1  0.93717700  0.20883400  0.52866400  1
  O  O63  1  0.43717700  0.79116600  0.97133600  1
  O  O64  1  0.21355400  0.77551800  0.49159700  1
  O  O65  1  0.71355400  0.22448200  0.00840300  1
  O  O66  1  0.78644600  0.22448200  0.50840300  1
  O  O67  1  0.28644600  0.77551800  0.99159700  1
  O  O68  1  0.14325600  0.10901000  0.39061900  1
  O  O69  1  0.64325600  0.89099000  0.10938100  1
  O  O70  1  0.85674400  0.89099000  0.60938100  1
  O  O71  1  0.35674400  0.10901000  0.89061900  1
  O  O72  1  0.12890300  0.88349200  0.59328600  1
  O  O73  1  0.62890300  0.11650800  0.90671400  1
  O  O74  1  0.87109700  0.11650800  0.40671400  1
  O  O75  1  0.37109700  0.88349200  0.09328600  1
