# generated using pymatgen
data_Cs2NdN5O17
_symmetry_space_group_name_H-M   'P 1'
_cell_length_a   7.58102048
_cell_length_b   7.58102048
_cell_length_c   17.31565324
_cell_angle_alpha   78.34980268
_cell_angle_beta   78.34980268
_cell_angle_gamma   76.36115703
_symmetry_Int_Tables_number   1
_chemical_formula_structural   Cs2NdN5O17
_chemical_formula_sum   'Cs4 Nd2 N10 O34'
_cell_volume   934.64436060
_cell_formula_units_Z   2
loop_
 _symmetry_equiv_pos_site_id
 _symmetry_equiv_pos_as_xyz
  1  'x, y, z'
loop_
 _atom_site_type_symbol
 _atom_site_label
 _atom_site_symmetry_multiplicity
 _atom_site_fract_x
 _atom_site_fract_y
 _atom_site_fract_z
 _atom_site_occupancy
  Cs  Cs0  1  0.73506000  0.66023700  0.57973600  1
  Cs  Cs1  1  0.33976300  0.26494000  0.92026400  1
  Cs  Cs2  1  0.26494000  0.33976300  0.42026400  1
  Cs  Cs3  1  0.66023700  0.73506000  0.07973600  1
  Nd  Nd4  1  0.06004400  0.93995600  0.75000000  1
  Nd  Nd5  1  0.93995600  0.06004400  0.25000000  1
  N  N6  1  0.38161400  0.61838600  0.75000000  1
  N  N7  1  0.61838600  0.38161400  0.25000000  1
  N  N8  1  0.71222200  0.73508900  0.84671800  1
  N  N9  1  0.26491100  0.28777800  0.65328200  1
  N  N10  1  0.28777800  0.26491100  0.15328200  1
  N  N11  1  0.73508900  0.71222200  0.34671800  1
  N  N12  1  0.15961900  0.83685800  0.93984200  1
  N  N13  1  0.16314200  0.84038100  0.56015800  1
  N  N14  1  0.84038100  0.16314200  0.06015800  1
  N  N15  1  0.83685800  0.15961900  0.43984200  1
  O  O16  1  0.51376700  0.48623300  0.75000000  1
  O  O17  1  0.48623300  0.51376700  0.25000000  1
  O  O18  1  0.21754400  0.59803300  0.78183100  1
  O  O19  1  0.40196700  0.78245600  0.71816900  1
  O  O20  1  0.78245600  0.40196700  0.21816900  1
  O  O21  1  0.59803300  0.21754400  0.28183100  1
  O  O22  1  0.62549400  0.62455000  0.88802900  1
  O  O23  1  0.37545000  0.37450600  0.61197100  1
  O  O24  1  0.37450600  0.37545000  0.11197100  1
  O  O25  1  0.62455000  0.62549400  0.38802900  1
  O  O26  1  0.83060900  0.72007500  0.78640600  1
  O  O27  1  0.27992500  0.16939100  0.71359400  1
  O  O28  1  0.16939100  0.27992500  0.21359400  1
  O  O29  1  0.72007500  0.83060900  0.28640600  1
  O  O30  1  0.67267100  0.91268200  0.87530800  1
  O  O31  1  0.08731800  0.32732900  0.62469200  1
  O  O32  1  0.32732900  0.08731800  0.12469200  1
  O  O33  1  0.91268200  0.67267100  0.37530800  1
  O  O34  1  0.06822900  0.71395200  0.94777600  1
  O  O35  1  0.28604800  0.93177100  0.55222400  1
  O  O36  1  0.93177100  0.28604800  0.05222400  1
  O  O37  1  0.71395200  0.06822900  0.44777600  1
  O  O38  1  0.23099100  0.86075600  0.99490300  1
  O  O39  1  0.13924400  0.76900900  0.50509700  1
  O  O40  1  0.76900900  0.13924400  0.00509700  1
  O  O41  1  0.86075600  0.23099100  0.49490300  1
  O  O42  1  0.18199100  0.94509900  0.87106400  1
  O  O43  1  0.05490100  0.81800900  0.62893600  1
  O  O44  1  0.81800900  0.05490100  0.12893600  1
  O  O45  1  0.94509900  0.18199100  0.37106400  1
  O  O46  1  0.77232900  0.03449300  0.82601500  1
  O  O47  1  0.96550700  0.22767100  0.67398500  1
  O  O48  1  0.22767100  0.96550700  0.17398500  1
  O  O49  1  0.03449300  0.77232900  0.32601500  1
