# generated using pymatgen
data_Si2H2O3
_symmetry_space_group_name_H-M   'P 1'
_cell_length_a   14.97687711
_cell_length_b   15.80542392
_cell_length_c   21.23583753
_cell_angle_alpha   90.00000000
_cell_angle_beta   90.00000000
_cell_angle_gamma   90.00000000
_symmetry_Int_Tables_number   1
_chemical_formula_structural   Si2H2O3
_chemical_formula_sum   'Si96 H96 O144'
_cell_volume   5026.86021736
_cell_formula_units_Z   48
loop_
 _symmetry_equiv_pos_site_id
 _symmetry_equiv_pos_as_xyz
  1  'x, y, z'
loop_
 _atom_site_type_symbol
 _atom_site_label
 _atom_site_symmetry_multiplicity
 _atom_site_fract_x
 _atom_site_fract_y
 _atom_site_fract_z
 _atom_site_occupancy
  Si  Si0  1  0.39897719  0.66398957  0.51976720  1
  Si  Si1  1  0.89897719  0.33601043  0.98023280  1
  Si  Si2  1  0.60102281  0.83601043  0.01976720  1
  Si  Si3  1  0.10102281  0.16398957  0.48023280  1
  Si  Si4  1  0.60102281  0.33601043  0.48023280  1
  Si  Si5  1  0.10102281  0.66398957  0.01976720  1
  Si  Si6  1  0.39897719  0.16398957  0.98023280  1
  Si  Si7  1  0.89897719  0.83601043  0.51976720  1
  Si  Si8  1  0.35691135  0.71574241  0.76856029  1
  Si  Si9  1  0.85691135  0.28425759  0.73143971  1
  Si  Si10  1  0.64308865  0.78425759  0.26856029  1
  Si  Si11  1  0.14308865  0.21574241  0.23143971  1
  Si  Si12  1  0.64308865  0.28425759  0.23143971  1
  Si  Si13  1  0.14308865  0.71574241  0.26856029  1
  Si  Si14  1  0.35691135  0.21574241  0.73143971  1
  Si  Si15  1  0.85691135  0.78425759  0.76856029  1
  Si  Si16  1  0.40042689  0.52308387  0.74300491  1
  Si  Si17  1  0.90042689  0.47691613  0.75699509  1
  Si  Si18  1  0.59957311  0.97691613  0.24300491  1
  Si  Si19  1  0.09957311  0.02308387  0.25699509  1
  Si  Si20  1  0.59957311  0.47691613  0.25699509  1
  Si  Si21  1  0.09957311  0.52308387  0.24300491  1
  Si  Si22  1  0.40042689  0.02308387  0.75699509  1
  Si  Si23  1  0.90042689  0.97691613  0.74300491  1
  Si  Si24  1  0.45216633  0.49817209  0.59799971  1
  Si  Si25  1  0.95216633  0.50182791  0.90200029  1
  Si  Si26  1  0.54783367  0.00182791  0.09799971  1
  Si  Si27  1  0.04783367  0.99817209  0.40200029  1
  Si  Si28  1  0.54783367  0.50182791  0.40200029  1
  Si  Si29  1  0.04783367  0.49817209  0.09799971  1
  Si  Si30  1  0.45216633  0.99817209  0.90200029  1
  Si  Si31  1  0.95216633  0.00182791  0.59799971  1
  Si  Si32  1  0.19389849  0.47864807  0.75755875  1
  Si  Si33  1  0.69389849  0.52135193  0.74244125  1
  Si  Si34  1  0.80610151  0.02135193  0.25755875  1
  Si  Si35  1  0.30610151  0.97864807  0.24244125  1
  Si  Si36  1  0.80610151  0.52135193  0.24244125  1
  Si  Si37  1  0.30610151  0.47864807  0.25755875  1
  Si  Si38  1  0.19389849  0.97864807  0.74244125  1
  Si  Si39  1  0.69389849  0.02135193  0.75755875  1
  Si  Si40  1  0.28727365  0.40013986  0.53911783  1
  Si  Si41  1  0.78727365  0.59986014  0.96088217  1
  Si  Si42  1  0.71272635  0.09986014  0.03911783  1
  Si  Si43  1  0.21272635  0.90013986  0.46088217  1
  Si  Si44  1  0.71272635  0.59986014  0.46088217  1
  Si  Si45  1  0.21272635  0.40013986  0.03911783  1
  Si  Si46  1  0.28727365  0.90013986  0.96088217  1
  Si  Si47  1  0.78727365  0.09986014  0.53911783  1
  Si  Si48  1  0.11067271  0.74619029  0.64712868  1
  Si  Si49  1  0.61067271  0.25380971  0.85287132  1
  Si  Si50  1  0.88932729  0.75380971  0.14712868  1
  Si  Si51  1  0.38932729  0.24619029  0.35287132  1
  Si  Si52  1  0.88932729  0.25380971  0.35287132  1
  Si  Si53  1  0.38932729  0.74619029  0.14712868  1
  Si  Si54  1  0.11067271  0.24619029  0.85287132  1
  Si  Si55  1  0.61067271  0.75380971  0.64712868  1
  Si  Si56  1  0.32147448  0.78199435  0.63057743  1
  Si  Si57  1  0.82147448  0.21800565  0.86942257  1
  Si  Si58  1  0.67852552  0.71800565  0.13057743  1
  Si  Si59  1  0.17852552  0.28199435  0.36942257  1
  Si  Si60  1  0.67852552  0.21800565  0.36942257  1
  Si  Si61  1  0.17852552  0.78199435  0.13057743  1
  Si  Si62  1  0.32147448  0.28199435  0.86942257  1
  Si  Si63  1  0.82147448  0.71800565  0.63057743  1
  Si  Si64  1  0.15080584  0.67561428  0.78065617  1
  Si  Si65  1  0.65080584  0.32438572  0.71934383  1
  Si  Si66  1  0.84919416  0.82438572  0.28065617  1
  Si  Si67  1  0.34919416  0.17561428  0.21934383  1
  Si  Si68  1  0.84919416  0.32438572  0.21934383  1
  Si  Si69  1  0.34919416  0.67561428  0.28065617  1
  Si  Si70  1  0.15080584  0.17561428  0.71934383  1
  Si  Si71  1  0.65080584  0.82438572  0.78065617  1
  Si  Si72  1  0.23090757  0.56730395  0.46526478  1
  Si  Si73  1  0.73090757  0.43269605  0.03473522  1
  Si  Si74  1  0.76909243  0.93269605  0.96526478  1
  Si  Si75  1  0.26909243  0.06730395  0.53473522  1
  Si  Si76  1  0.76909243  0.43269605  0.53473522  1
  Si  Si77  1  0.26909243  0.56730395  0.96526478  1
  Si  Si78  1  0.23090757  0.06730395  0.03473522  1
  Si  Si79  1  0.73090757  0.93269605  0.46526478  1
  Si  Si80  1  0.11552379  0.41634052  0.62656027  1
  Si  Si81  1  0.61552379  0.58365948  0.87343973  1
  Si  Si82  1  0.88447621  0.08365948  0.12656027  1
  Si  Si83  1  0.38447621  0.91634052  0.37343973  1
  Si  Si84  1  0.88447621  0.58365948  0.37343973  1
  Si  Si85  1  0.38447621  0.41634052  0.12656027  1
  Si  Si86  1  0.11552379  0.91634052  0.87343973  1
  Si  Si87  1  0.61552379  0.08365948  0.62656027  1
  Si  Si88  1  0.06344714  0.59030380  0.55659554  1
  Si  Si89  1  0.56344714  0.40969620  0.94340446  1
  Si  Si90  1  0.93655286  0.90969620  0.05659554  1
  Si  Si91  1  0.43655286  0.09030380  0.44340446  1
  Si  Si92  1  0.93655286  0.40969620  0.44340446  1
  Si  Si93  1  0.43655286  0.59030380  0.05659554  1
  Si  Si94  1  0.06344714  0.09030380  0.94340446  1
  Si  Si95  1  0.56344714  0.90969620  0.55659554  1
  H  H96  1  0.46381104  0.70320799  0.47656667  1
  H  H97  1  0.96381104  0.29679201  0.02343333  1
  H  H98  1  0.53618896  0.79679201  0.97656667  1
  H  H99  1  0.03618896  0.20320799  0.52343333  1
  H  H100  1  0.53618896  0.29679201  0.52343333  1
  H  H101  1  0.03618896  0.70320799  0.97656667  1
  H  H102  1  0.46381104  0.20320799  0.02343333  1
  H  H103  1  0.96381104  0.79679201  0.47656667  1
  H  H104  1  0.40746725  0.76943671  0.81287830  1
  H  H105  1  0.90746725  0.23056329  0.68712170  1
  H  H106  1  0.59253275  0.73056329  0.31287830  1
  H  H107  1  0.09253275  0.26943671  0.18712170  1
  H  H108  1  0.59253275  0.23056329  0.18712170  1
  H  H109  1  0.09253275  0.76943671  0.31287830  1
  H  H110  1  0.40746725  0.26943671  0.68712170  1
  H  H111  1  0.90746725  0.73056329  0.81287830  1
  H  H112  1  0.45861509  0.47093478  0.78311378  1
  H  H113  1  0.95861509  0.52906522  0.71688622  1
  H  H114  1  0.54138491  0.02906522  0.28311378  1
  H  H115  1  0.04138491  0.97093478  0.21688622  1
  H  H116  1  0.54138491  0.52906522  0.21688622  1
  H  H117  1  0.04138491  0.47093478  0.28311378  1
  H  H118  1  0.45861509  0.97093478  0.71688622  1
  H  H119  1  0.95861509  0.02906522  0.78311378  1
  H  H120  1  0.54085021  0.45968683  0.58999040  1
  H  H121  1  0.04085021  0.54031317  0.91000960  1
  H  H122  1  0.45914979  0.04031317  0.08999040  1
  H  H123  1  0.95914979  0.95968683  0.41000960  1
  H  H124  1  0.45914979  0.54031317  0.41000960  1
  H  H125  1  0.95914979  0.45968683  0.08999040  1
  H  H126  1  0.54085021  0.95968683  0.91000960  1
  H  H127  1  0.04085021  0.04031317  0.58999040  1
  H  H128  1  0.18024943  0.43079040  0.81608051  1
  H  H129  1  0.68024943  0.56920960  0.68391949  1
  H  H130  1  0.81975057  0.06920960  0.31608051  1
  H  H131  1  0.31975057  0.93079040  0.18391949  1
  H  H132  1  0.81975057  0.56920960  0.18391949  1
  H  H133  1  0.31975057  0.43079040  0.31608051  1
  H  H134  1  0.18024943  0.93079040  0.68391949  1
  H  H135  1  0.68024943  0.06920960  0.81608051  1
  H  H136  1  0.30624486  0.31956840  0.50672662  1
  H  H137  1  0.80624486  0.68043160  0.99327338  1
  H  H138  1  0.69375514  0.18043160  0.00672662  1
  H  H139  1  0.19375514  0.81956840  0.49327338  1
  H  H140  1  0.69375514  0.68043160  0.49327338  1
  H  H141  1  0.19375514  0.31956840  0.00672662  1
  H  H142  1  0.30624486  0.81956840  0.99327338  1
  H  H143  1  0.80624486  0.18043160  0.50672662  1
  H  H144  1  0.06421356  0.82635049  0.63458730  1
  H  H145  1  0.56421356  0.17364951  0.86541270  1
  H  H146  1  0.93578644  0.67364951  0.13458730  1
  H  H147  1  0.43578644  0.32635049  0.36541270  1
  H  H148  1  0.93578644  0.17364951  0.36541270  1
  H  H149  1  0.43578644  0.82635049  0.13458730  1
  H  H150  1  0.06421356  0.32635049  0.86541270  1
  H  H151  1  0.56421356  0.67364951  0.63458730  1
  H  H152  1  0.33088197  0.87401283  0.62229869  1
  H  H153  1  0.83088197  0.12598717  0.87770131  1
  H  H154  1  0.66911803  0.62598717  0.12229869  1
  H  H155  1  0.16911803  0.37401283  0.37770131  1
  H  H156  1  0.66911803  0.12598717  0.37770131  1
  H  H157  1  0.16911803  0.87401283  0.12229869  1
  H  H158  1  0.33088197  0.37401283  0.87770131  1
  H  H159  1  0.83088197  0.62598717  0.62229869  1
  H  H160  1  0.09879033  0.69014728  0.83856497  1
  H  H161  1  0.59879033  0.30985272  0.66143503  1
  H  H162  1  0.90120967  0.80985272  0.33856497  1
  H  H163  1  0.40120967  0.19014728  0.16143503  1
  H  H164  1  0.90120967  0.30985272  0.16143503  1
  H  H165  1  0.40120967  0.69014728  0.33856497  1
  H  H166  1  0.09879033  0.19014728  0.66143503  1
  H  H167  1  0.59879033  0.80985272  0.83856497  1
  H  H168  1  0.21259564  0.56701846  0.39699269  1
  H  H169  1  0.71259564  0.43298154  0.10300731  1
  H  H170  1  0.78740436  0.93298154  0.89699269  1
  H  H171  1  0.28740436  0.06701846  0.60300731  1
  H  H172  1  0.78740436  0.43298154  0.60300731  1
  H  H173  1  0.28740436  0.56701846  0.89699269  1
  H  H174  1  0.21259564  0.06701846  0.10300731  1
  H  H175  1  0.71259564  0.93298154  0.39699269  1
  H  H176  1  0.04629708  0.35056724  0.62179039  1
  H  H177  1  0.54629708  0.64943276  0.87820961  1
  H  H178  1  0.95370292  0.14943276  0.12179039  1
  H  H179  1  0.45370292  0.85056724  0.37820961  1
  H  H180  1  0.95370292  0.64943276  0.37820961  1
  H  H181  1  0.45370292  0.35056724  0.12179039  1
  H  H182  1  0.04629708  0.85056724  0.87820961  1
  H  H183  1  0.54629708  0.14943276  0.62179039  1
  H  H184  1  0.97529919  0.58815696  0.52598401  1
  H  H185  1  0.47529919  0.41184304  0.97401599  1
  H  H186  1  0.02470081  0.91184304  0.02598401  1
  H  H187  1  0.52470081  0.08815696  0.47401599  1
  H  H188  1  0.02470081  0.41184304  0.47401599  1
  H  H189  1  0.52470081  0.58815696  0.02598401  1
  H  H190  1  0.97529919  0.08815696  0.97401599  1
  H  H191  1  0.47529919  0.91184304  0.52598401  1
  O  O192  1  0.10023905  0.72184253  0.72170946  1
  O  O193  1  0.60023905  0.27815747  0.77829054  1
  O  O194  1  0.89976095  0.77815747  0.22170946  1
  O  O195  1  0.39976095  0.22184253  0.27829054  1
  O  O196  1  0.89976095  0.27815747  0.27829054  1
  O  O197  1  0.39976095  0.72184253  0.22170946  1
  O  O198  1  0.10023905  0.22184253  0.77829054  1
  O  O199  1  0.60023905  0.77815747  0.72170946  1
  O  O200  1  0.31099824  0.63478951  0.47955177  1
  O  O201  1  0.81099824  0.36521049  0.02044823  1
  O  O202  1  0.68900176  0.86521049  0.97955177  1
  O  O203  1  0.18900176  0.13478951  0.52044823  1
  O  O204  1  0.68900176  0.36521049  0.52044823  1
  O  O205  1  0.18900176  0.63478951  0.97955177  1
  O  O206  1  0.31099824  0.13478951  0.02044823  1
  O  O207  1  0.81099824  0.86521049  0.47955177  1
  O  O208  1  0.39721755  0.61957835  0.77062231  1
  O  O209  1  0.89721755  0.38042165  0.72937769  1
  O  O210  1  0.60278245  0.88042165  0.27062231  1
  O  O211  1  0.10278245  0.11957835  0.22937769  1
  O  O212  1  0.60278245  0.38042165  0.22937769  1
  O  O213  1  0.10278245  0.61957835  0.27062231  1
  O  O214  1  0.39721755  0.11957835  0.72937769  1
  O  O215  1  0.89721755  0.88042165  0.77062231  1
  O  O216  1  0.14075004  0.43105696  0.70062489  1
  O  O217  1  0.64075004  0.56894304  0.79937511  1
  O  O218  1  0.85924996  0.06894304  0.20062489  1
  O  O219  1  0.35924996  0.93105696  0.29937511  1
  O  O220  1  0.85924996  0.56894304  0.29937511  1
  O  O221  1  0.35924996  0.43105696  0.20062489  1
  O  O222  1  0.14075004  0.93105696  0.79937511  1
  O  O223  1  0.64075004  0.06894304  0.70062489  1
  O  O224  1  0.21625102  0.75616759  0.63010039  1
  O  O225  1  0.71625102  0.24383241  0.86989961  1
  O  O226  1  0.78374898  0.74383241  0.13010039  1
  O  O227  1  0.28374898  0.25616759  0.36989961  1
  O  O228  1  0.78374898  0.24383241  0.36989961  1
  O  O229  1  0.28374898  0.75616759  0.13010039  1
  O  O230  1  0.21625102  0.25616759  0.86989961  1
  O  O231  1  0.71625102  0.74383241  0.63010039  1
  O  O232  1  0.37576265  0.42926403  0.57844033  1
  O  O233  1  0.87576265  0.57073597  0.92155967  1
  O  O234  1  0.62423735  0.07073597  0.07844033  1
  O  O235  1  0.12423735  0.92926403  0.42155967  1
  O  O236  1  0.62423735  0.57073597  0.42155967  1
  O  O237  1  0.12423735  0.42926403  0.07844033  1
  O  O238  1  0.37576265  0.92926403  0.92155967  1
  O  O239  1  0.87576265  0.07073597  0.57844033  1
  O  O240  1  0.30047253  0.48183754  0.74185831  1
  O  O241  1  0.80047253  0.51816246  0.75814169  1
  O  O242  1  0.69952747  0.01816246  0.24185831  1
  O  O243  1  0.19952747  0.98183754  0.25814169  1
  O  O244  1  0.69952747  0.51816246  0.25814169  1
  O  O245  1  0.19952747  0.48183754  0.24185831  1
  O  O246  1  0.30047253  0.98183754  0.75814169  1
  O  O247  1  0.80047253  0.01816246  0.74185831  1
  O  O248  1  0.44537208  0.58139721  0.55264185  1
  O  O249  1  0.94537208  0.41860279  0.94735815  1
  O  O250  1  0.55462792  0.91860279  0.05264185  1
  O  O251  1  0.05462792  0.08139721  0.44735815  1
  O  O252  1  0.55462792  0.41860279  0.44735815  1
  O  O253  1  0.05462792  0.58139721  0.05264185  1
  O  O254  1  0.44537208  0.08139721  0.94735815  1
  O  O255  1  0.94537208  0.91860279  0.55264185  1
  O  O256  1  0.20368474  0.38616092  0.58724253  1
  O  O257  1  0.70368474  0.61383908  0.91275747  1
  O  O258  1  0.79631526  0.11383908  0.08724253  1
  O  O259  1  0.29631526  0.88616092  0.41275747  1
  O  O260  1  0.79631526  0.61383908  0.41275747  1
  O  O261  1  0.29631526  0.38616092  0.08724253  1
  O  O262  1  0.20368474  0.88616092  0.91275747  1
  O  O263  1  0.70368474  0.11383908  0.58724253  1
  O  O264  1  0.25150510  0.71430257  0.78936108  1
  O  O265  1  0.75150510  0.28569743  0.71063892  1
  O  O266  1  0.74849490  0.78569743  0.28936108  1
  O  O267  1  0.24849490  0.21430257  0.21063892  1
  O  O268  1  0.74849490  0.28569743  0.21063892  1
  O  O269  1  0.24849490  0.71430257  0.28936108  1
  O  O270  1  0.25150510  0.21430257  0.71063892  1
  O  O271  1  0.75150510  0.78569743  0.78936108  1
  O  O272  1  0.14041682  0.59635773  0.50223641  1
  O  O273  1  0.64041682  0.40364227  0.99776359  1
  O  O274  1  0.85958318  0.90364227  0.00223641  1
  O  O275  1  0.35958318  0.09635773  0.49776359  1
  O  O276  1  0.85958318  0.40364227  0.49776359  1
  O  O277  1  0.35958318  0.59635773  0.00223641  1
  O  O278  1  0.14041682  0.09635773  0.99776359  1
  O  O279  1  0.64041682  0.90364227  0.50223641  1
  O  O280  1  0.26143395  0.47240918  0.48697460  1
  O  O281  1  0.76143395  0.52759082  0.01302540  1
  O  O282  1  0.73856605  0.02759082  0.98697460  1
  O  O283  1  0.23856605  0.97240918  0.51302540  1
  O  O284  1  0.73856605  0.52759082  0.51302540  1
  O  O285  1  0.23856605  0.47240918  0.98697460  1
  O  O286  1  0.26143395  0.97240918  0.01302540  1
  O  O287  1  0.76143395  0.02759082  0.48697460  1
  O  O288  1  0.15588584  0.57422845  0.76718394  1
  O  O289  1  0.65588584  0.42577155  0.73281606  1
  O  O290  1  0.84411416  0.92577155  0.26718394  1
  O  O291  1  0.34411416  0.07422845  0.23281606  1
  O  O292  1  0.84411416  0.42577155  0.23281606  1
  O  O293  1  0.34411416  0.57422845  0.26718394  1
  O  O294  1  0.15588584  0.07422845  0.73281606  1
  O  O295  1  0.65588584  0.92577155  0.76718394  1
  O  O296  1  0.07658106  0.50389306  0.59699762  1
  O  O297  1  0.57658106  0.49610694  0.90300238  1
  O  O298  1  0.92341894  0.99610694  0.09699762  1
  O  O299  1  0.42341894  0.00389306  0.40300238  1
  O  O300  1  0.92341894  0.49610694  0.40300238  1
  O  O301  1  0.42341894  0.50389306  0.09699762  1
  O  O302  1  0.07658106  0.00389306  0.90300238  1
  O  O303  1  0.57658106  0.99610694  0.59699762  1
  O  O304  1  0.36678074  0.75415395  0.69741698  1
  O  O305  1  0.86678074  0.24584605  0.80258302  1
  O  O306  1  0.63321926  0.74584605  0.19741698  1
  O  O307  1  0.13321926  0.25415395  0.30258302  1
  O  O308  1  0.63321926  0.24584605  0.30258302  1
  O  O309  1  0.13321926  0.75415395  0.19741698  1
  O  O310  1  0.36678074  0.25415395  0.80258302  1
  O  O311  1  0.86678074  0.74584605  0.69741698  1
  O  O312  1  0.06722109  0.67180635  0.60340277  1
  O  O313  1  0.56722109  0.32819365  0.89659723  1
  O  O314  1  0.93277891  0.82819365  0.10340277  1
  O  O315  1  0.43277891  0.17180635  0.39659723  1
  O  O316  1  0.93277891  0.32819365  0.39659723  1
  O  O317  1  0.43277891  0.67180635  0.10340277  1
  O  O318  1  0.06722109  0.17180635  0.89659723  1
  O  O319  1  0.56722109  0.82819365  0.60340277  1
  O  O320  1  0.37125990  0.73365721  0.57268202  1
  O  O321  1  0.87125990  0.26634279  0.92731798  1
  O  O322  1  0.62874010  0.76634279  0.07268202  1
  O  O323  1  0.12874010  0.23365721  0.42731798  1
  O  O324  1  0.62874010  0.26634279  0.42731798  1
  O  O325  1  0.12874010  0.73365721  0.07268202  1
  O  O326  1  0.37125990  0.23365721  0.92731798  1
  O  O327  1  0.87125990  0.76634279  0.57268202  1
  O  O328  1  0.44058171  0.52463201  0.67162995  1
  O  O329  1  0.94058171  0.47536799  0.82837005  1
  O  O330  1  0.55941829  0.97536799  0.17162995  1
  O  O331  1  0.05941829  0.02463201  0.32837005  1
  O  O332  1  0.55941829  0.47536799  0.32837005  1
  O  O333  1  0.05941829  0.52463201  0.17162995  1
  O  O334  1  0.44058171  0.02463201  0.82837005  1
  O  O335  1  0.94058171  0.97536799  0.67162995  1
