# generated using pymatgen
data_Na9Al2(H9O7)3
_symmetry_space_group_name_H-M   'P 1'
_cell_length_a   8.88309800
_cell_length_b   11.49514822
_cell_length_c   11.70767215
_cell_angle_alpha   105.42527193
_cell_angle_beta   87.96022665
_cell_angle_gamma   109.20045998
_symmetry_Int_Tables_number   1
_chemical_formula_structural   Na9Al2(H9O7)3
_chemical_formula_sum   'Na18 Al4 H54 O42'
_cell_volume   1086.56139443
_cell_formula_units_Z   2
loop_
 _symmetry_equiv_pos_site_id
 _symmetry_equiv_pos_as_xyz
  1  'x, y, z'
loop_
 _atom_site_type_symbol
 _atom_site_label
 _atom_site_symmetry_multiplicity
 _atom_site_fract_x
 _atom_site_fract_y
 _atom_site_fract_z
 _atom_site_occupancy
  Na  Na0  1  0.41792500  0.96852400  0.36200300  1
  Na  Na1  1  0.58207500  0.03147600  0.63799700  1
  Na  Na2  1  0.60580200  0.77429000  0.37981000  1
  Na  Na3  1  0.39419800  0.22571000  0.62019000  1
  Na  Na4  1  0.20625300  0.67673500  0.36773000  1
  Na  Na5  1  0.79374700  0.32326500  0.63227000  1
  Na  Na6  1  0.42654200  0.49155000  0.37148200  1
  Na  Na7  1  0.57345800  0.50845000  0.62851800  1
  Na  Na8  1  0.40558900  0.96635700  0.86619900  1
  Na  Na9  1  0.59441100  0.03364300  0.13380100  1
  Na  Na10  1  0.59111600  0.77708100  0.88027400  1
  Na  Na11  1  0.40888400  0.22291900  0.11972600  1
  Na  Na12  1  0.20363900  0.67996400  0.86874500  1
  Na  Na13  1  0.79636100  0.32003600  0.13125500  1
  Na  Na14  1  0.40263700  0.48515200  0.88025400  1
  Na  Na15  1  0.59736300  0.51484800  0.11974600  1
  Na  Na16  1  0.00717400  0.59904800  0.62025800  1
  Na  Na17  1  0.99282600  0.40095200  0.37974200  1
  Al  Al18  1  0.41238600  0.72619400  0.12667200  1
  Al  Al19  1  0.58761400  0.27380600  0.87332800  1
  Al  Al20  1  0.40370300  0.72488500  0.62269900  1
  Al  Al21  1  0.59629700  0.27511500  0.37730100  1
  H  H22  1  0.16208200  0.77794100  0.18387300  1
  H  H23  1  0.83791800  0.22205900  0.81612700  1
  H  H24  1  0.68522800  0.87005200  0.20426500  1
  H  H25  1  0.31477200  0.12994800  0.79573500  1
  H  H26  1  0.67127100  0.71694700  0.05487300  1
  H  H27  1  0.32872900  0.28305300  0.94512700  1
  H  H28  1  0.14495100  0.59491100  0.03398500  1
  H  H29  1  0.85504900  0.40508900  0.96601500  1
  H  H30  1  0.32755500  0.54066100  0.19092800  1
  H  H31  1  0.67244500  0.45933900  0.80907200  1
  H  H32  1  0.32674200  0.87455000  0.05696700  1
  H  H33  1  0.67325800  0.12545000  0.94303300  1
  H  H34  1  0.19359400  0.83030400  0.68724400  1
  H  H35  1  0.80640600  0.16969600  0.31275600  1
  H  H36  1  0.67161200  0.87927600  0.71335600  1
  H  H37  1  0.32838800  0.12072400  0.28664400  1
  H  H38  1  0.66981000  0.71803200  0.56527900  1
  H  H39  1  0.33019000  0.28196800  0.43472100  1
  H  H40  1  0.23408200  0.50029400  0.53709900  1
  H  H41  1  0.76591800  0.49970600  0.46290100  1
  H  H42  1  0.29785400  0.54786500  0.71342500  1
  H  H43  1  0.70214600  0.45213500  0.28657500  1
  H  H44  1  0.31580300  0.86657800  0.53731000  1
  H  H45  1  0.68419700  0.13342200  0.46269000  1
  H  H46  1  0.01333000  0.90968000  0.17945200  1
  H  H47  1  0.98667000  0.09032000  0.82054800  1
  H  H48  1  0.00168900  0.94249000  0.70150100  1
  H  H49  1  0.99831100  0.05751000  0.29849900  1
  H  H50  1  0.02856300  0.52624700  0.18800900  1
  H  H51  1  0.97143700  0.47375300  0.81199100  1
  H  H52  1  0.87906900  0.02393400  0.96585400  1
  H  H53  1  0.12093100  0.97606600  0.03414600  1
  H  H54  1  0.85248800  0.93664800  0.05547100  1
  H  H55  1  0.14751200  0.06335200  0.94452900  1
  H  H56  1  0.85411600  0.73436300  0.22829900  1
  H  H57  1  0.14588400  0.26563700  0.77170100  1
  H  H58  1  0.88333900  0.60852300  0.26084300  1
  H  H59  1  0.11666100  0.39147700  0.73915700  1
  H  H60  1  0.95682300  0.79125300  0.55606200  1
  H  H61  1  0.04317700  0.20874700  0.44393800  1
  H  H62  1  0.92597300  0.71835200  0.41698100  1
  H  H63  1  0.07402700  0.28164800  0.58301900  1
  H  H64  1  0.87528700  0.03722400  0.49038800  1
  H  H65  1  0.12471300  0.96277600  0.50961200  1
  H  H66  1  0.83978500  0.94146100  0.57210500  1
  H  H67  1  0.16021500  0.05853900  0.42789500  1
  H  H68  1  0.86248800  0.68734700  0.82847000  1
  H  H69  1  0.13751200  0.31265300  0.17153000  1
  H  H70  1  0.84791700  0.76255100  0.73121600  1
  H  H71  1  0.15208300  0.23744900  0.26878400  1
  H  H72  1  0.87470300  0.59018800  0.97100900  1
  H  H73  1  0.12529700  0.40981200  0.02899100  1
  H  H74  1  0.94392000  0.74596000  0.02840200  1
  H  H75  1  0.05608000  0.25404000  0.97159800  1
  O  O76  1  0.26207800  0.78918000  0.22314800  1
  O  O77  1  0.73792200  0.21082000  0.77685200  1
  O  O78  1  0.57792600  0.86697500  0.22839800  1
  O  O79  1  0.42207400  0.13302500  0.77160200  1
  O  O80  1  0.56185800  0.66687500  0.02505900  1
  O  O81  1  0.43814200  0.33312500  0.97494100  1
  O  O82  1  0.24311600  0.57386900  0.02794300  1
  O  O83  1  0.75688400  0.42613100  0.97205700  1
  O  O84  1  0.41433400  0.61657400  0.23199700  1
  O  O85  1  0.58566600  0.38342600  0.76800300  1
  O  O86  1  0.39875900  0.83085300  0.01677500  1
  O  O87  1  0.60124100  0.16914700  0.98322500  1
  O  O88  1  0.23885900  0.77703200  0.71674600  1
  O  O89  1  0.76114100  0.22296800  0.28325400  1
  O  O90  1  0.56002900  0.86642700  0.73160100  1
  O  O91  1  0.43997100  0.13357300  0.26839900  1
  O  O92  1  0.56302300  0.66813800  0.53003300  1
  O  O93  1  0.43697700  0.33186200  0.46996700  1
  O  O94  1  0.23970200  0.57601700  0.51245900  1
  O  O95  1  0.76029800  0.42398300  0.48754100  1
  O  O96  1  0.39937500  0.61768400  0.73005200  1
  O  O97  1  0.60062500  0.38231600  0.26994800  1
  O  O98  1  0.40054800  0.83005800  0.51548000  1
  O  O99  1  0.59945200  0.16994200  0.48452000  1
  O  O100  1  0.92050000  0.85986800  0.12462100  1
  O  O101  1  0.07950000  0.14013200  0.87537900  1
  O  O102  1  0.90232500  0.87994700  0.66116500  1
  O  O103  1  0.09767500  0.12005300  0.33883500  1
  O  O104  1  0.96473100  0.52446300  0.25727000  1
  O  O105  1  0.03526900  0.47553700  0.74273000  1
  O  O106  1  0.79521900  0.97309700  0.00650900  1
  O  O107  1  0.20478100  0.02690300  0.99349100  1
  O  O108  1  0.80908700  0.67178400  0.27459300  1
  O  O109  1  0.19091300  0.32821600  0.72540700  1
  O  O110  1  0.99385000  0.73160800  0.48792200  1
  O  O111  1  0.00615000  0.26839200  0.51207800  1
  O  O112  1  0.78893800  0.96976500  0.51175900  1
  O  O113  1  0.21106200  0.03023500  0.48824100  1
  O  O114  1  0.80279800  0.68000500  0.75517500  1
  O  O115  1  0.19720200  0.31999500  0.24482500  1
  O  O116  1  0.95351900  0.67094600  0.95991300  1
  O  O117  1  0.04648100  0.32905400  0.04008700  1
