# generated using pymatgen
data_KCd(BH4)3
_symmetry_space_group_name_H-M   'P 1'
_cell_length_a   15.70512116
_cell_length_b   15.70512116
_cell_length_c   15.70512116
_cell_angle_alpha   109.47122063
_cell_angle_beta   109.47122063
_cell_angle_gamma   109.47122063
_symmetry_Int_Tables_number   1
_chemical_formula_structural   KCd(BH4)3
_chemical_formula_sum   'K16 Cd16 B48 H192'
_cell_volume   2981.96116299
_cell_formula_units_Z   16
loop_
 _symmetry_equiv_pos_site_id
 _symmetry_equiv_pos_as_xyz
  1  'x, y, z'
loop_
 _atom_site_type_symbol
 _atom_site_label
 _atom_site_symmetry_multiplicity
 _atom_site_fract_x
 _atom_site_fract_y
 _atom_site_fract_z
 _atom_site_occupancy
  K  K0  1  0.12897247  0.75000000  0.37897247  1
  K  K1  1  0.37102753  0.25000000  0.12102753  1
  K  K2  1  0.75000000  0.37897247  0.12897247  1
  K  K3  1  0.25000000  0.12102753  0.37102753  1
  K  K4  1  0.37897247  0.12897247  0.75000000  1
  K  K5  1  0.12102753  0.37102753  0.25000000  1
  K  K6  1  0.87102753  0.25000000  0.62102753  1
  K  K7  1  0.62897247  0.75000000  0.87897247  1
  K  K8  1  0.25000000  0.62102753  0.87102753  1
  K  K9  1  0.75000000  0.87897247  0.62897247  1
  K  K10  1  0.62102753  0.87102753  0.25000000  1
  K  K11  1  0.87897247  0.62897247  0.75000000  1
  K  K12  1  0.00000000  0.50000000  0.50000000  1
  K  K13  1  0.50000000  0.00000000  0.50000000  1
  K  K14  1  0.50000000  0.50000000  0.00000000  1
  K  K15  1  0.00000000  0.00000000  0.00000000  1
  Cd  Cd16  1  0.87710500  0.75000000  0.12710500  1
  Cd  Cd17  1  0.62289500  0.25000000  0.37289500  1
  Cd  Cd18  1  0.75000000  0.12710500  0.87710500  1
  Cd  Cd19  1  0.25000000  0.37289500  0.62289500  1
  Cd  Cd20  1  0.12710500  0.87710500  0.75000000  1
  Cd  Cd21  1  0.37289500  0.62289500  0.25000000  1
  Cd  Cd22  1  0.12289500  0.25000000  0.87289500  1
  Cd  Cd23  1  0.37710500  0.75000000  0.62710500  1
  Cd  Cd24  1  0.25000000  0.87289500  0.12289500  1
  Cd  Cd25  1  0.75000000  0.62710500  0.37710500  1
  Cd  Cd26  1  0.87289500  0.12289500  0.25000000  1
  Cd  Cd27  1  0.62710500  0.37710500  0.75000000  1
  Cd  Cd28  1  0.00000000  0.50000000  0.00000000  1
  Cd  Cd29  1  0.00000000  0.00000000  0.50000000  1
  Cd  Cd30  1  0.50000000  0.00000000  0.00000000  1
  Cd  Cd31  1  0.50000000  0.50000000  0.50000000  1
  B  B32  1  0.61179576  0.11767512  0.93481783  1
  B  B33  1  0.31714271  0.38232488  0.49412063  1
  B  B34  1  0.88820424  0.32302207  0.00587937  1
  B  B35  1  0.18285729  0.17697793  0.56518217  1
  B  B36  1  0.11767512  0.93481783  0.61179576  1
  B  B37  1  0.38232488  0.49412063  0.31714271  1
  B  B38  1  0.32302207  0.00587937  0.88820424  1
  B  B39  1  0.17697793  0.56518217  0.18285729  1
  B  B40  1  0.93481783  0.61179576  0.11767512  1
  B  B41  1  0.49412063  0.31714271  0.38232488  1
  B  B42  1  0.00587937  0.88820424  0.32302207  1
  B  B43  1  0.56518217  0.18285729  0.17697793  1
  B  B44  1  0.38820424  0.88232488  0.06518217  1
  B  B45  1  0.68285729  0.61767512  0.50587937  1
  B  B46  1  0.11179576  0.67697793  0.99412063  1
  B  B47  1  0.81714271  0.82302207  0.43481783  1
  B  B48  1  0.88232488  0.06518217  0.38820424  1
  B  B49  1  0.61767512  0.50587937  0.68285729  1
  B  B50  1  0.67697793  0.99412063  0.11179576  1
  B  B51  1  0.82302207  0.43481783  0.81714271  1
  B  B52  1  0.06518217  0.38820424  0.88232488  1
  B  B53  1  0.50587937  0.68285729  0.61767512  1
  B  B54  1  0.99412063  0.11179576  0.67697793  1
  B  B55  1  0.43481783  0.81714271  0.82302207  1
  B  B56  1  0.26604483  0.89377368  0.29402344  1
  B  B57  1  0.90024976  0.60622632  0.37227116  1
  B  B58  1  0.23395517  0.02797861  0.12772884  1
  B  B59  1  0.59975024  0.47202139  0.20597656  1
  B  B60  1  0.89377368  0.29402344  0.26604483  1
  B  B61  1  0.60622632  0.37227116  0.90024976  1
  B  B62  1  0.02797861  0.12772884  0.23395517  1
  B  B63  1  0.47202139  0.20597656  0.59975024  1
  B  B64  1  0.29402344  0.26604483  0.89377368  1
  B  B65  1  0.37227116  0.90024976  0.60622632  1
  B  B66  1  0.12772884  0.23395517  0.02797861  1
  B  B67  1  0.20597656  0.59975024  0.47202139  1
  B  B68  1  0.73395517  0.10622632  0.70597656  1
  B  B69  1  0.09975024  0.39377368  0.62772884  1
  B  B70  1  0.76604483  0.97202139  0.87227116  1
  B  B71  1  0.40024976  0.52797861  0.79402344  1
  B  B72  1  0.10622632  0.70597656  0.73395517  1
  B  B73  1  0.39377368  0.62772884  0.09975024  1
  B  B74  1  0.97202139  0.87227116  0.76604483  1
  B  B75  1  0.52797861  0.79402344  0.40024976  1
  B  B76  1  0.70597656  0.73395517  0.10622632  1
  B  B77  1  0.62772884  0.09975024  0.39377368  1
  B  B78  1  0.87227116  0.76604483  0.97202139  1
  B  B79  1  0.79402344  0.40024976  0.52797861  1
  H  H80  1  0.54903617  0.14537501  0.93856260  1
  H  H81  1  0.29318760  0.35462499  0.40366116  1
  H  H82  1  0.95096383  0.38952644  0.09633884  1
  H  H83  1  0.20681240  0.11047356  0.56143740  1
  H  H84  1  0.14537501  0.93856260  0.54903617  1
  H  H85  1  0.35462499  0.40366116  0.29318760  1
  H  H86  1  0.38952644  0.09633884  0.95096383  1
  H  H87  1  0.11047356  0.56143740  0.20681240  1
  H  H88  1  0.93856260  0.54903617  0.14537501  1
  H  H89  1  0.40366116  0.29318760  0.35462499  1
  H  H90  1  0.09633884  0.95096383  0.38952644  1
  H  H91  1  0.56143740  0.20681240  0.11047356  1
  H  H92  1  0.45096383  0.85462499  0.06143740  1
  H  H93  1  0.70681240  0.64537501  0.59633884  1
  H  H94  1  0.04903617  0.61047356  0.90366116  1
  H  H95  1  0.79318760  0.88952644  0.43856260  1
  H  H96  1  0.85462499  0.06143740  0.45096383  1
  H  H97  1  0.64537501  0.59633884  0.70681240  1
  H  H98  1  0.61047356  0.90366116  0.04903617  1
  H  H99  1  0.88952644  0.43856260  0.79318760  1
  H  H100  1  0.06143740  0.45096383  0.85462499  1
  H  H101  1  0.59633884  0.70681240  0.64537501  1
  H  H102  1  0.90366116  0.04903617  0.61047356  1
  H  H103  1  0.43856260  0.79318760  0.88952644  1
  H  H104  1  0.69605355  0.17635096  0.01450097  1
  H  H105  1  0.33815001  0.32364904  0.51970259  1
  H  H106  1  0.80394645  0.31844743  0.98029741  1
  H  H107  1  0.16184999  0.18155257  0.48549903  1
  H  H108  1  0.17635096  0.01450097  0.69605355  1
  H  H109  1  0.32364904  0.51970259  0.33815001  1
  H  H110  1  0.31844743  0.98029741  0.80394645  1
  H  H111  1  0.18155257  0.48549903  0.16184999  1
  H  H112  1  0.01450097  0.69605355  0.17635096  1
  H  H113  1  0.51970259  0.33815001  0.32364904  1
  H  H114  1  0.98029741  0.80394645  0.31844743  1
  H  H115  1  0.48549903  0.16184999  0.18155257  1
  H  H116  1  0.30394645  0.82364904  0.98549903  1
  H  H117  1  0.66184999  0.67635096  0.48029741  1
  H  H118  1  0.19605355  0.68155257  0.01970259  1
  H  H119  1  0.83815001  0.81844743  0.51450097  1
  H  H120  1  0.82364904  0.98549903  0.30394645  1
  H  H121  1  0.67635096  0.48029741  0.66184999  1
  H  H122  1  0.68155257  0.01970259  0.19605355  1
  H  H123  1  0.81844743  0.51450097  0.83815001  1
  H  H124  1  0.98549903  0.30394645  0.82364904  1
  H  H125  1  0.48029741  0.66184999  0.67635096  1
  H  H126  1  0.01970259  0.19605355  0.68155257  1
  H  H127  1  0.51450097  0.83815001  0.81844743  1
  H  H128  1  0.60985228  0.11492233  0.85333100  1
  H  H129  1  0.23840866  0.38507767  0.49492995  1
  H  H130  1  0.89014772  0.24347872  0.00507005  1
  H  H131  1  0.26159134  0.25652128  0.64666900  1
  H  H132  1  0.11492233  0.85333100  0.60985228  1
  H  H133  1  0.38507767  0.49492995  0.23840866  1
  H  H134  1  0.24347872  0.00507005  0.89014772  1
  H  H135  1  0.25652128  0.64666900  0.26159134  1
  H  H136  1  0.85333100  0.60985228  0.11492233  1
  H  H137  1  0.49492995  0.23840866  0.38507767  1
  H  H138  1  0.00507005  0.89014772  0.24347872  1
  H  H139  1  0.64666900  0.26159134  0.25652128  1
  H  H140  1  0.39014772  0.88507767  0.14666900  1
  H  H141  1  0.76159134  0.61492233  0.50507005  1
  H  H142  1  0.10985228  0.75652128  0.99492995  1
  H  H143  1  0.73840866  0.74347872  0.35333100  1
  H  H144  1  0.88507767  0.14666900  0.39014772  1
  H  H145  1  0.61492233  0.50507005  0.76159134  1
  H  H146  1  0.75652128  0.99492995  0.10985228  1
  H  H147  1  0.74347872  0.35333100  0.73840866  1
  H  H148  1  0.14666900  0.39014772  0.88507767  1
  H  H149  1  0.50507005  0.76159134  0.61492233  1
  H  H150  1  0.99492995  0.10985228  0.75652128  1
  H  H151  1  0.35333100  0.73840866  0.74347872  1
  H  H152  1  0.58493164  0.02830613  0.91820360  1
  H  H153  1  0.38989747  0.47169387  0.55662551  1
  H  H154  1  0.91506836  0.33327196  0.94337449  1
  H  H155  1  0.11010253  0.16672804  0.58179640  1
  H  H156  1  0.02830613  0.91820360  0.58493164  1
  H  H157  1  0.47169387  0.55662551  0.38989747  1
  H  H158  1  0.33327196  0.94337449  0.91506836  1
  H  H159  1  0.16672804  0.58179640  0.11010253  1
  H  H160  1  0.91820360  0.58493164  0.02830613  1
  H  H161  1  0.55662551  0.38989747  0.47169387  1
  H  H162  1  0.94337449  0.91506836  0.33327196  1
  H  H163  1  0.58179640  0.11010253  0.16672804  1
  H  H164  1  0.41506836  0.97169387  0.08179640  1
  H  H165  1  0.61010253  0.52830613  0.44337449  1
  H  H166  1  0.08493164  0.66672804  0.05662551  1
  H  H167  1  0.88989747  0.83327196  0.41820360  1
  H  H168  1  0.97169387  0.08179640  0.41506836  1
  H  H169  1  0.52830613  0.44337449  0.61010253  1
  H  H170  1  0.66672804  0.05662551  0.08493164  1
  H  H171  1  0.83327196  0.41820360  0.88989747  1
  H  H172  1  0.08179640  0.41506836  0.97169387  1
  H  H173  1  0.44337449  0.61010253  0.52830613  1
  H  H174  1  0.05662551  0.08493164  0.66672804  1
  H  H175  1  0.41820360  0.88989747  0.83327196  1
  H  H176  1  0.33717487  0.96873438  0.30443868  1
  H  H177  1  0.83570430  0.53126562  0.36844049  1
  H  H178  1  0.16282513  0.96726381  0.13155951  1
  H  H179  1  0.66429570  0.53273619  0.19556132  1
  H  H180  1  0.96873438  0.30443868  0.33717487  1
  H  H181  1  0.53126562  0.36844049  0.83570430  1
  H  H182  1  0.96726381  0.13155951  0.16282513  1
  H  H183  1  0.53273619  0.19556132  0.66429570  1
  H  H184  1  0.30443868  0.33717487  0.96873438  1
  H  H185  1  0.36844049  0.83570430  0.53126562  1
  H  H186  1  0.13155951  0.16282513  0.96726381  1
  H  H187  1  0.19556132  0.66429570  0.53273619  1
  H  H188  1  0.66282513  0.03126562  0.69556132  1
  H  H189  1  0.16429570  0.46873438  0.63155951  1
  H  H190  1  0.83717487  0.03273619  0.86844049  1
  H  H191  1  0.33570430  0.46726381  0.80443868  1
  H  H192  1  0.03126562  0.69556132  0.66282513  1
  H  H193  1  0.46873438  0.63155951  0.16429570  1
  H  H194  1  0.03273619  0.86844049  0.83717487  1
  H  H195  1  0.46726381  0.80443868  0.33570430  1
  H  H196  1  0.69556132  0.66282513  0.03126562  1
  H  H197  1  0.63155951  0.16429570  0.46873438  1
  H  H198  1  0.86844049  0.83717487  0.03273619  1
  H  H199  1  0.80443868  0.33570430  0.46726381  1
  H  H200  1  0.24226740  0.80839968  0.22464051  1
  H  H201  1  0.91624082  0.69160032  0.43386772  1
  H  H202  1  0.25773260  0.98237311  0.06613228  1
  H  H203  1  0.58375918  0.51762689  0.27535949  1
  H  H204  1  0.80839968  0.22464051  0.24226740  1
  H  H205  1  0.69160032  0.43386772  0.91624082  1
  H  H206  1  0.98237311  0.06613228  0.25773260  1
  H  H207  1  0.51762689  0.27535949  0.58375918  1
  H  H208  1  0.22464051  0.24226740  0.80839968  1
  H  H209  1  0.43386772  0.91624082  0.69160032  1
  H  H210  1  0.06613228  0.25773260  0.98237311  1
  H  H211  1  0.27535949  0.58375918  0.51762689  1
  H  H212  1  0.75773260  0.19160032  0.77535949  1
  H  H213  1  0.08375918  0.30839968  0.56613228  1
  H  H214  1  0.74226740  0.01762689  0.93386772  1
  H  H215  1  0.41624082  0.48237311  0.72464051  1
  H  H216  1  0.19160032  0.77535949  0.75773260  1
  H  H217  1  0.30839968  0.56613228  0.08375918  1
  H  H218  1  0.01762689  0.93386772  0.74226740  1
  H  H219  1  0.48237311  0.72464051  0.41624082  1
  H  H220  1  0.77535949  0.75773260  0.19160032  1
  H  H221  1  0.56613228  0.08375918  0.30839968  1
  H  H222  1  0.93386772  0.74226740  0.01762689  1
  H  H223  1  0.72464051  0.41624082  0.48237311  1
  H  H224  1  0.18942564  0.90299674  0.27908947  1
  H  H225  1  0.87609273  0.59700326  0.28642890  1
  H  H226  1  0.31057436  0.08966383  0.21357110  1
  H  H227  1  0.62390727  0.41033617  0.22091053  1
  H  H228  1  0.90299674  0.27908947  0.18942564  1
  H  H229  1  0.59700326  0.28642890  0.87609273  1
  H  H230  1  0.08966383  0.21357110  0.31057436  1
  H  H231  1  0.41033617  0.22091053  0.62390727  1
  H  H232  1  0.27908947  0.18942564  0.90299674  1
  H  H233  1  0.28642890  0.87609273  0.59700326  1
  H  H234  1  0.21357110  0.31057436  0.08966383  1
  H  H235  1  0.22091053  0.62390727  0.41033617  1
  H  H236  1  0.81057436  0.09700326  0.72091053  1
  H  H237  1  0.12390727  0.40299674  0.71357110  1
  H  H238  1  0.68942564  0.91033617  0.78642890  1
  H  H239  1  0.37609273  0.58966383  0.77908947  1
  H  H240  1  0.09700326  0.72091053  0.81057436  1
  H  H241  1  0.40299674  0.71357110  0.12390727  1
  H  H242  1  0.91033617  0.78642890  0.68942564  1
  H  H243  1  0.58966383  0.77908947  0.37609273  1
  H  H244  1  0.72091053  0.81057436  0.09700326  1
  H  H245  1  0.71357110  0.12390727  0.40299674  1
  H  H246  1  0.78642890  0.68942564  0.91033617  1
  H  H247  1  0.77908947  0.37609273  0.58966383  1
  H  H248  1  0.30043980  0.88913865  0.37331235  1
  H  H249  1  0.98417369  0.61086135  0.41130115  1
  H  H250  1  0.19956020  0.07287255  0.08869885  1
  H  H251  1  0.51582631  0.42712745  0.12668765  1
  H  H252  1  0.88913865  0.37331235  0.30043980  1
  H  H253  1  0.61086135  0.41130115  0.98417369  1
  H  H254  1  0.07287255  0.08869885  0.19956020  1
  H  H255  1  0.42712745  0.12668765  0.51582631  1
  H  H256  1  0.37331235  0.30043980  0.88913865  1
  H  H257  1  0.41130115  0.98417369  0.61086135  1
  H  H258  1  0.08869885  0.19956020  0.07287255  1
  H  H259  1  0.12668765  0.51582631  0.42712745  1
  H  H260  1  0.69956020  0.11086135  0.62668765  1
  H  H261  1  0.01582631  0.38913865  0.58869885  1
  H  H262  1  0.80043980  0.92712745  0.91130115  1
  H  H263  1  0.48417369  0.57287255  0.87331235  1
  H  H264  1  0.11086135  0.62668765  0.69956020  1
  H  H265  1  0.38913865  0.58869885  0.01582631  1
  H  H266  1  0.92712745  0.91130115  0.80043980  1
  H  H267  1  0.57287255  0.87331235  0.48417369  1
  H  H268  1  0.62668765  0.69956020  0.11086135  1
  H  H269  1  0.58869885  0.01582631  0.38913865  1
  H  H270  1  0.91130115  0.80043980  0.92712745  1
  H  H271  1  0.87331235  0.48417369  0.57287255  1
