# generated using pymatgen
data_CuH20C6(NCl2)2
_symmetry_space_group_name_H-M   'P 1'
_cell_length_a   14.80162600
_cell_length_b   8.54153800
_cell_length_c   13.22084288
_cell_angle_alpha   81.86384112
_cell_angle_beta   90.00000000
_cell_angle_gamma   90.00000000
_symmetry_Int_Tables_number   1
_chemical_formula_structural   CuH20C6(NCl2)2
_chemical_formula_sum   'Cu4 H80 C24 N8 Cl16'
_cell_volume   1654.66897849
_cell_formula_units_Z   4
loop_
 _symmetry_equiv_pos_site_id
 _symmetry_equiv_pos_as_xyz
  1  'x, y, z'
loop_
 _atom_site_type_symbol
 _atom_site_label
 _atom_site_symmetry_multiplicity
 _atom_site_fract_x
 _atom_site_fract_y
 _atom_site_fract_z
 _atom_site_occupancy
  Cu  Cu0  1  0.10071900  0.77785400  0.27007400  1
  Cu  Cu1  1  0.60071900  0.22214600  0.22992600  1
  Cu  Cu2  1  0.89928100  0.22214600  0.72992600  1
  Cu  Cu3  1  0.39928100  0.77785400  0.77007400  1
  H  H4  1  0.98876900  0.07678600  0.15601000  1
  H  H5  1  0.48876900  0.92321400  0.34399000  1
  H  H6  1  0.01123100  0.92321400  0.84399000  1
  H  H7  1  0.51123100  0.07678600  0.65601000  1
  H  H8  1  0.15773700  0.46065200  0.44374700  1
  H  H9  1  0.65773700  0.53934800  0.05625300  1
  H  H10  1  0.84226300  0.53934800  0.55625300  1
  H  H11  1  0.34226300  0.46065200  0.94374700  1
  H  H12  1  0.98036400  0.34222100  0.06211300  1
  H  H13  1  0.48036400  0.65777900  0.43788700  1
  H  H14  1  0.01963600  0.65777900  0.93788700  1
  H  H15  1  0.51963600  0.34222100  0.56211300  1
  H  H16  1  0.02627300  0.33349200  0.18912300  1
  H  H17  1  0.52627300  0.66650800  0.31087700  1
  H  H18  1  0.97372700  0.66650800  0.81087700  1
  H  H19  1  0.47372700  0.33349200  0.68912300  1
  H  H20  1  0.91136300  0.39448600  0.16439800  1
  H  H21  1  0.41136300  0.60551400  0.33560200  1
  H  H22  1  0.08863700  0.60551400  0.83560200  1
  H  H23  1  0.58863700  0.39448600  0.66439800  1
  H  H24  1  0.83850100  0.99405200  0.11975500  1
  H  H25  1  0.33850100  0.00594800  0.38024500  1
  H  H26  1  0.16149900  0.00594800  0.88024500  1
  H  H27  1  0.66149900  0.99405200  0.61975500  1
  H  H28  1  0.80042600  0.19413700  0.11648300  1
  H  H29  1  0.30042600  0.80586300  0.38351700  1
  H  H30  1  0.19957400  0.80586300  0.88351700  1
  H  H31  1  0.69957400  0.19413700  0.61648300  1
  H  H32  1  0.87882000  0.14455300  0.02109000  1
  H  H33  1  0.37882000  0.85544700  0.47891000  1
  H  H34  1  0.12118000  0.85544700  0.97891000  1
  H  H35  1  0.62118000  0.14455300  0.52109000  1
  H  H36  1  0.96972200  0.13200800  0.32359400  1
  H  H37  1  0.46972200  0.86799200  0.17640600  1
  H  H38  1  0.03027800  0.86799200  0.67640600  1
  H  H39  1  0.53027800  0.13200800  0.82359400  1
  H  H40  1  0.85416000  0.18946000  0.29372300  1
  H  H41  1  0.35416000  0.81054000  0.20627700  1
  H  H42  1  0.14584000  0.81054000  0.70627700  1
  H  H43  1  0.64584000  0.18946000  0.79372300  1
  H  H44  1  0.88968600  0.98836500  0.29280900  1
  H  H45  1  0.38968600  0.01163500  0.20719100  1
  H  H46  1  0.11031400  0.01163500  0.70719100  1
  H  H47  1  0.61031400  0.98836500  0.79280900  1
  H  H48  1  0.15684500  0.51776600  0.61735100  1
  H  H49  1  0.65684500  0.48223400  0.88264900  1
  H  H50  1  0.84315500  0.48223400  0.38264900  1
  H  H51  1  0.34315500  0.51776600  0.11735100  1
  H  H52  1  0.16641800  0.31008700  0.66137100  1
  H  H53  1  0.66641800  0.68991300  0.83862900  1
  H  H54  1  0.83358200  0.68991300  0.33862900  1
  H  H55  1  0.33358200  0.31008700  0.16137100  1
  H  H56  1  0.06543800  0.38602200  0.59647000  1
  H  H57  1  0.56543800  0.61397800  0.90353000  1
  H  H58  1  0.93456200  0.61397800  0.40353000  1
  H  H59  1  0.43456200  0.38602200  0.09647000  1
  H  H60  1  0.30887100  0.37745800  0.43245200  1
  H  H61  1  0.80887100  0.62254200  0.06754800  1
  H  H62  1  0.69112900  0.62254200  0.56754800  1
  H  H63  1  0.19112900  0.37745800  0.93245200  1
  H  H64  1  0.30651400  0.30107900  0.56667600  1
  H  H65  1  0.80651400  0.69892100  0.93332400  1
  H  H66  1  0.69348600  0.69892100  0.43332400  1
  H  H67  1  0.19348600  0.30107900  0.06667600  1
  H  H68  1  0.29584300  0.51003000  0.52643100  1
  H  H69  1  0.79584300  0.48997000  0.97356900  1
  H  H70  1  0.70415700  0.48997000  0.47356900  1
  H  H71  1  0.20415700  0.51003000  0.02643100  1
  H  H72  1  0.17855300  0.21042100  0.39632200  1
  H  H73  1  0.67855300  0.78957900  0.10367800  1
  H  H74  1  0.82144700  0.78957900  0.60367800  1
  H  H75  1  0.32144700  0.21042100  0.89632200  1
  H  H76  1  0.08228100  0.20283600  0.47974300  1
  H  H77  1  0.58228100  0.79716400  0.02025700  1
  H  H78  1  0.91771900  0.79716400  0.52025700  1
  H  H79  1  0.41771900  0.20283600  0.97974300  1
  H  H80  1  0.18916800  0.12535300  0.52826400  1
  H  H81  1  0.68916800  0.87464700  0.97173600  1
  H  H82  1  0.81083200  0.87464700  0.47173600  1
  H  H83  1  0.31083200  0.12535300  0.02826400  1
  C  C84  1  0.96575800  0.31759400  0.14404300  1
  C  C85  1  0.46575800  0.68240600  0.35595700  1
  C  C86  1  0.03424200  0.68240600  0.85595700  1
  C  C87  1  0.53424200  0.31759400  0.64404300  1
  C  C88  1  0.85729100  0.11857400  0.10100900  1
  C  C89  1  0.35729100  0.88142600  0.39899100  1
  C  C90  1  0.14270900  0.88142600  0.89899100  1
  C  C91  1  0.64270900  0.11857400  0.60100900  1
  C  C92  1  0.91019500  0.11248500  0.27801800  1
  C  C93  1  0.41019500  0.88751500  0.22198200  1
  C  C94  1  0.08980500  0.88751500  0.72198200  1
  C  C95  1  0.58980500  0.11248500  0.77801800  1
  C  C96  1  0.13880000  0.39938700  0.60165500  1
  C  C97  1  0.63880000  0.60061300  0.89834500  1
  C  C98  1  0.86120000  0.60061300  0.39834500  1
  C  C99  1  0.36120000  0.39938700  0.10165500  1
  C  C100  1  0.28064800  0.39242200  0.50701000  1
  C  C101  1  0.78064800  0.60757800  0.99299000  1
  C  C102  1  0.71935200  0.60757800  0.49299000  1
  C  C103  1  0.21935200  0.39242200  0.00701000  1
  C  C104  1  0.15579800  0.21668400  0.47444200  1
  C  C105  1  0.65579800  0.78331600  0.02555800  1
  C  C106  1  0.84420200  0.78331600  0.52555800  1
  C  C107  1  0.34420200  0.21668400  0.97444200  1
  N  N108  1  0.93440000  0.15042900  0.16785900  1
  N  N109  1  0.43440000  0.84957100  0.33214100  1
  N  N110  1  0.06560000  0.84957100  0.83214100  1
  N  N111  1  0.56560000  0.15042900  0.66785900  1
  N  N112  1  0.18059800  0.37446000  0.50264900  1
  N  N113  1  0.68059800  0.62554000  0.99735100  1
  N  N114  1  0.81940200  0.62554000  0.49735100  1
  N  N115  1  0.31940200  0.37446000  0.00264900  1
  Cl  Cl116  1  0.13810500  0.03497000  0.21637700  1
  Cl  Cl117  1  0.63810500  0.96503000  0.28362300  1
  Cl  Cl118  1  0.86189500  0.96503000  0.78362300  1
  Cl  Cl119  1  0.36189500  0.03497000  0.71637700  1
  Cl  Cl120  1  0.10711100  0.77697400  0.44142100  1
  Cl  Cl121  1  0.60711100  0.22302600  0.05857900  1
  Cl  Cl122  1  0.89288900  0.22302600  0.55857900  1
  Cl  Cl123  1  0.39288900  0.77697400  0.94142100  1
  Cl  Cl124  1  0.99541000  0.76382700  0.14677000  1
  Cl  Cl125  1  0.49541000  0.23617300  0.35323000  1
  Cl  Cl126  1  0.00459000  0.23617300  0.85323000  1
  Cl  Cl127  1  0.50459000  0.76382700  0.64677000  1
  Cl  Cl128  1  0.16561800  0.53640000  0.27224900  1
  Cl  Cl129  1  0.66561800  0.46360000  0.22775100  1
  Cl  Cl130  1  0.83438200  0.46360000  0.72775100  1
  Cl  Cl131  1  0.33438200  0.53640000  0.77224900  1
