# generated using pymatgen
data_CsFeP2H3CO10
_symmetry_space_group_name_H-M   'P 1'
_cell_length_a   8.14484444
_cell_length_b   10.41540700
_cell_length_c   11.67753412
_cell_angle_alpha   90.00000000
_cell_angle_beta   100.28293251
_cell_angle_gamma   90.00000000
_symmetry_Int_Tables_number   1
_chemical_formula_structural   CsFeP2H3CO10
_chemical_formula_sum   'Cs4 Fe4 P8 H12 C4 O40'
_cell_volume   974.71585656
_cell_formula_units_Z   4
loop_
 _symmetry_equiv_pos_site_id
 _symmetry_equiv_pos_as_xyz
  1  'x, y, z'
loop_
 _atom_site_type_symbol
 _atom_site_label
 _atom_site_symmetry_multiplicity
 _atom_site_fract_x
 _atom_site_fract_y
 _atom_site_fract_z
 _atom_site_occupancy
  Cs  Cs0  1  0.05310400  0.82675700  0.66291200  1
  Cs  Cs1  1  0.55310400  0.67324300  0.16291200  1
  Cs  Cs2  1  0.94689600  0.17324300  0.33708800  1
  Cs  Cs3  1  0.44689600  0.32675700  0.83708800  1
  Fe  Fe4  1  0.04387000  0.23501200  0.99948900  1
  Fe  Fe5  1  0.54387000  0.26498800  0.49948900  1
  Fe  Fe6  1  0.95613000  0.76498800  0.00051100  1
  Fe  Fe7  1  0.45613000  0.73501200  0.50051100  1
  P  P8  1  0.85286200  0.19971700  0.72012200  1
  P  P9  1  0.35286200  0.30028300  0.22012200  1
  P  P10  1  0.14713800  0.80028300  0.27987800  1
  P  P11  1  0.64713800  0.69971700  0.77987800  1
  P  P12  1  0.25032800  0.97708600  0.95661500  1
  P  P13  1  0.75032800  0.52291400  0.45661500  1
  P  P14  1  0.74967200  0.02291400  0.04338500  1
  P  P15  1  0.24967200  0.47708600  0.54338500  1
  H  H16  1  0.77413300  0.02554600  0.79142300  1
  H  H17  1  0.27413300  0.47445400  0.29142300  1
  H  H18  1  0.22586700  0.97445400  0.20857700  1
  H  H19  1  0.72586700  0.52554600  0.70857700  1
  H  H20  1  0.04765700  0.29680300  0.63883900  1
  H  H21  1  0.54765700  0.20319700  0.13883900  1
  H  H22  1  0.95234300  0.70319700  0.36116100  1
  H  H23  1  0.45234300  0.79680300  0.86116100  1
  H  H24  1  0.45672400  0.99714600  0.10658300  1
  H  H25  1  0.95672400  0.50285400  0.60658300  1
  H  H26  1  0.54327600  0.00285400  0.89341700  1
  H  H27  1  0.04327600  0.49714600  0.39341700  1
  C  C28  1  0.92318100  0.49125400  0.02918100  1
  C  C29  1  0.42318100  0.00874600  0.52918100  1
  C  C30  1  0.07681900  0.50874600  0.97081900  1
  C  C31  1  0.57681900  0.99125400  0.47081900  1
  O  O32  1  0.90079500  0.25533600  0.84193300  1
  O  O33  1  0.40079500  0.24466400  0.34193300  1
  O  O34  1  0.09920500  0.74466400  0.15806700  1
  O  O35  1  0.59920500  0.75533600  0.65806700  1
  O  O36  1  0.69142000  0.26168000  0.65747700  1
  O  O37  1  0.19142000  0.23832000  0.15747700  1
  O  O38  1  0.30858000  0.73832000  0.34252300  1
  O  O39  1  0.80858000  0.76168000  0.84252300  1
  O  O40  1  0.83130600  0.04797900  0.72560200  1
  O  O41  1  0.33130600  0.45202100  0.22560200  1
  O  O42  1  0.16869400  0.95202100  0.27439800  1
  O  O43  1  0.66869400  0.54797900  0.77439800  1
  O  O44  1  0.99693000  0.20852900  0.64621900  1
  O  O45  1  0.49693000  0.29147100  0.14621900  1
  O  O46  1  0.00307000  0.79147100  0.35378100  1
  O  O47  1  0.50307000  0.70852900  0.85378100  1
  O  O48  1  0.09361600  0.89315800  0.93864700  1
  O  O49  1  0.59361600  0.60684200  0.43864700  1
  O  O50  1  0.90638400  0.10684200  0.06135300  1
  O  O51  1  0.40638400  0.39315800  0.56135300  1
  O  O52  1  0.20706300  0.12082000  0.93976700  1
  O  O53  1  0.70706300  0.37918000  0.43976700  1
  O  O54  1  0.79293700  0.87918000  0.06023300  1
  O  O55  1  0.29293700  0.62082000  0.56023300  1
  O  O56  1  0.37200800  0.93678600  0.87601400  1
  O  O57  1  0.87200800  0.56321400  0.37601400  1
  O  O58  1  0.62799200  0.06321400  0.12398600  1
  O  O59  1  0.12799200  0.43678600  0.62398600  1
  O  O60  1  0.34041700  0.95418100  0.08975800  1
  O  O61  1  0.84041700  0.54581900  0.58975800  1
  O  O62  1  0.65958300  0.04581900  0.91024200  1
  O  O63  1  0.15958300  0.45418100  0.41024200  1
  O  O64  1  0.88900700  0.37837400  0.05634400  1
  O  O65  1  0.38900700  0.12162600  0.55634400  1
  O  O66  1  0.11099300  0.62162600  0.94365600  1
  O  O67  1  0.61099300  0.87837400  0.44365600  1
  O  O68  1  0.15692200  0.40740400  0.95502200  1
  O  O69  1  0.65692200  0.09259600  0.45502200  1
  O  O70  1  0.84307800  0.59259600  0.04497800  1
  O  O71  1  0.34307800  0.90740400  0.54497800  1
