# generated using pymatgen
data_Na3FeC6O17
_symmetry_space_group_name_H-M   'P 1'
_cell_length_a   10.77594835
_cell_length_b   10.77594835
_cell_length_c   14.21041035
_cell_angle_alpha   79.72449784
_cell_angle_beta   79.72449784
_cell_angle_gamma   75.02558061
_symmetry_Int_Tables_number   1
_chemical_formula_structural   Na3FeC6O17
_chemical_formula_sum   'Na12 Fe4 C24 O68'
_cell_volume   1553.26011090
_cell_formula_units_Z   4
loop_
 _symmetry_equiv_pos_site_id
 _symmetry_equiv_pos_as_xyz
  1  'x, y, z'
loop_
 _atom_site_type_symbol
 _atom_site_label
 _atom_site_symmetry_multiplicity
 _atom_site_fract_x
 _atom_site_fract_y
 _atom_site_fract_z
 _atom_site_occupancy
  Na  Na0  1  0.73124900  0.26875100  0.75000000  1
  Na  Na1  1  0.26875100  0.73124900  0.25000000  1
  Na  Na2  1  0.00166100  0.99833900  0.75000000  1
  Na  Na3  1  0.99833900  0.00166100  0.25000000  1
  Na  Na4  1  0.77260200  0.96261600  0.02690500  1
  Na  Na5  1  0.03738400  0.22739800  0.47309500  1
  Na  Na6  1  0.22739800  0.03738400  0.97309500  1
  Na  Na7  1  0.96261600  0.77260200  0.52690500  1
  Na  Na8  1  0.58400100  0.32351800  0.00249800  1
  Na  Na9  1  0.67648200  0.41599900  0.49750200  1
  Na  Na10  1  0.41599900  0.67648200  0.99750200  1
  Na  Na11  1  0.32351800  0.58400100  0.50249800  1
  Fe  Fe12  1  0.44136500  0.18149400  0.24374000  1
  Fe  Fe13  1  0.81850600  0.55863500  0.25626000  1
  Fe  Fe14  1  0.55863500  0.81850600  0.75626000  1
  Fe  Fe15  1  0.18149400  0.44136500  0.74374000  1
  C  C16  1  0.27663800  0.04836200  0.18662100  1
  C  C17  1  0.95163800  0.72336200  0.31337900  1
  C  C18  1  0.72336200  0.95163800  0.81337900  1
  C  C19  1  0.04836200  0.27663800  0.68662100  1
  C  C20  1  0.30032000  0.98963700  0.29336300  1
  C  C21  1  0.01036300  0.69968000  0.20663700  1
  C  C22  1  0.69968000  0.01036300  0.70663700  1
  C  C23  1  0.98963700  0.30032000  0.79336300  1
  C  C24  1  0.39330500  0.44516500  0.18630700  1
  C  C25  1  0.55483500  0.60669500  0.31369300  1
  C  C26  1  0.60669500  0.55483500  0.81369300  1
  C  C27  1  0.44516500  0.39330500  0.68630700  1
  C  C28  1  0.29523700  0.42291700  0.27816200  1
  C  C29  1  0.57708300  0.70476300  0.22183800  1
  C  C30  1  0.70476300  0.57708300  0.72183800  1
  C  C31  1  0.42291700  0.29523700  0.77816200  1
  C  C32  1  0.70489400  0.04116400  0.21772300  1
  C  C33  1  0.95883600  0.29510600  0.28227700  1
  C  C34  1  0.29510600  0.95883600  0.78227700  1
  C  C35  1  0.04116400  0.70489400  0.71772300  1
  C  C36  1  0.68912000  0.10807300  0.31089200  1
  C  C37  1  0.89192700  0.31088000  0.18910800  1
  C  C38  1  0.31088000  0.89192700  0.68910800  1
  C  C39  1  0.10807300  0.68912000  0.81089200  1
  O  O40  1  0.50815900  0.05572100  0.99405500  1
  O  O41  1  0.94427900  0.49184100  0.50594500  1
  O  O42  1  0.49184100  0.94427900  0.00594500  1
  O  O43  1  0.05572100  0.50815900  0.49405500  1
  O  O44  1  0.79261600  0.19194800  0.01746300  1
  O  O45  1  0.80805200  0.20738400  0.48253700  1
  O  O46  1  0.20738400  0.80805200  0.98253700  1
  O  O47  1  0.19194800  0.79261600  0.51746300  1
  O  O48  1  0.68213500  0.56560800  0.00878800  1
  O  O49  1  0.43439200  0.31786500  0.49121200  1
  O  O50  1  0.31786500  0.43439200  0.99121200  1
  O  O51  1  0.56560800  0.68213500  0.50878800  1
  O  O52  1  0.81181800  0.69918800  0.98835100  1
  O  O53  1  0.30081200  0.18818200  0.51164900  1
  O  O54  1  0.18818200  0.30081200  0.01164900  1
  O  O55  1  0.69918800  0.81181800  0.48835100  1
  O  O56  1  0.79733200  0.58723800  0.98137600  1
  O  O57  1  0.41276200  0.20266800  0.51862400  1
  O  O58  1  0.20266800  0.41276200  0.01862400  1
  O  O59  1  0.58723800  0.79733200  0.48137600  1
  O  O60  1  0.32782700  0.14402100  0.15181200  1
  O  O61  1  0.85597900  0.67217300  0.34818800  1
  O  O62  1  0.67217300  0.85597900  0.84818800  1
  O  O63  1  0.14402100  0.32782700  0.65181200  1
  O  O64  1  0.38173100  0.03321600  0.32644300  1
  O  O65  1  0.96678400  0.61826900  0.17355700  1
  O  O66  1  0.61826900  0.96678400  0.67355700  1
  O  O67  1  0.03321600  0.38173100  0.82644300  1
  O  O68  1  0.78700100  0.00141100  0.85547300  1
  O  O69  1  0.99858900  0.21299900  0.64452700  1
  O  O70  1  0.21299900  0.99858900  0.14452700  1
  O  O71  1  0.00141100  0.78700100  0.35547300  1
  O  O72  1  0.75927500  0.09302800  0.66230800  1
  O  O73  1  0.90697200  0.24072500  0.83769200  1
  O  O74  1  0.24072500  0.90697200  0.33769200  1
  O  O75  1  0.09302800  0.75927500  0.16230800  1
  O  O76  1  0.46958100  0.34028300  0.15716700  1
  O  O77  1  0.65971700  0.53041900  0.34283300  1
  O  O78  1  0.53041900  0.65971700  0.84283300  1
  O  O79  1  0.34028300  0.46958100  0.65716700  1
  O  O80  1  0.29795900  0.30167500  0.31023400  1
  O  O81  1  0.69832500  0.70204100  0.18976600  1
  O  O82  1  0.70204100  0.69832500  0.68976600  1
  O  O83  1  0.30167500  0.29795900  0.81023400  1
  O  O84  1  0.60580700  0.44347200  0.85488300  1
  O  O85  1  0.55652800  0.39419300  0.64511700  1
  O  O86  1  0.39419300  0.55652800  0.14511700  1
  O  O87  1  0.44347200  0.60580700  0.35488300  1
  O  O88  1  0.77815600  0.48370000  0.68607700  1
  O  O89  1  0.51630000  0.22184400  0.81392300  1
  O  O90  1  0.22184400  0.51630000  0.31392300  1
  O  O91  1  0.48370000  0.77815600  0.18607700  1
  O  O92  1  0.60195800  0.07177200  0.17547000  1
  O  O93  1  0.92822800  0.39804200  0.32453000  1
  O  O94  1  0.39804200  0.92822800  0.82453000  1
  O  O95  1  0.07177200  0.60195800  0.67547000  1
  O  O96  1  0.57695600  0.18024500  0.33150800  1
  O  O97  1  0.81975500  0.42304400  0.16849200  1
  O  O98  1  0.42304400  0.81975500  0.66849200  1
  O  O99  1  0.18024500  0.57695600  0.83150800  1
  O  O100  1  0.19071000  0.03067000  0.81253400  1
  O  O101  1  0.96933000  0.80929000  0.68746600  1
  O  O102  1  0.80929000  0.96933000  0.18746600  1
  O  O103  1  0.03067000  0.19071000  0.31253400  1
  O  O104  1  0.21302400  0.91283800  0.64737400  1
  O  O105  1  0.08716200  0.78697600  0.85262600  1
  O  O106  1  0.78697600  0.08716200  0.35262600  1
  O  O107  1  0.91283800  0.21302400  0.14737400  1
