# generated using pymatgen
data_RhC3(N2Cl)3
_symmetry_space_group_name_H-M   'P 1'
_cell_length_a   11.98210200
_cell_length_b   10.02571800
_cell_length_c   17.45924409
_cell_angle_alpha   80.99383823
_cell_angle_beta   90.00000000
_cell_angle_gamma   90.00000000
_symmetry_Int_Tables_number   1
_chemical_formula_structural   RhC3(N2Cl)3
_chemical_formula_sum   'Rh4 C12 N24 Cl12'
_cell_volume   2071.50726550
_cell_formula_units_Z   4
loop_
 _symmetry_equiv_pos_site_id
 _symmetry_equiv_pos_as_xyz
  1  'x, y, z'
loop_
 _atom_site_type_symbol
 _atom_site_label
 _atom_site_symmetry_multiplicity
 _atom_site_fract_x
 _atom_site_fract_y
 _atom_site_fract_z
 _atom_site_occupancy
  Rh  Rh0  1  0.74960800  0.78215300  0.94423500  1
  Rh  Rh1  1  0.24960800  0.21784700  0.55576500  1
  Rh  Rh2  1  0.25039200  0.21784700  0.05576500  1
  Rh  Rh3  1  0.75039200  0.78215300  0.44423500  1
  C  C4  1  0.02178800  0.84522100  0.86295500  1
  C  C5  1  0.52178800  0.15477900  0.63704500  1
  C  C6  1  0.97821200  0.15477900  0.13704500  1
  C  C7  1  0.47821200  0.84522100  0.36295500  1
  C  C8  1  0.12023400  0.87965300  0.83280800  1
  C  C9  1  0.62023400  0.12034700  0.66719200  1
  C  C10  1  0.87976600  0.12034700  0.16719200  1
  C  C11  1  0.37976600  0.87965300  0.33280800  1
  C  C12  1  0.22938700  0.88642600  0.82339000  1
  C  C13  1  0.72938700  0.11357400  0.67661000  1
  C  C14  1  0.77061300  0.11357400  0.17661000  1
  C  C15  1  0.27061300  0.88642600  0.32339000  1
  N  N16  1  0.93321200  0.81358500  0.89098600  1
  N  N17  1  0.43321200  0.18641500  0.60901400  1
  N  N18  1  0.06678800  0.18641500  0.10901400  1
  N  N19  1  0.56678800  0.81358500  0.39098600  1
  N  N20  1  0.32851400  0.89205700  0.81551100  1
  N  N21  1  0.82851400  0.10794300  0.68448900  1
  N  N22  1  0.67148600  0.10794300  0.18448900  1
  N  N23  1  0.17148600  0.89205700  0.31551100  1
  N  N24  1  0.84300200  0.71604800  0.11001900  1
  N  N25  1  0.34300200  0.28395200  0.38998100  1
  N  N26  1  0.15699800  0.28395200  0.88998100  1
  N  N27  1  0.65699800  0.71604800  0.61001900  1
  N  N28  1  0.08398800  0.54797500  0.34380400  1
  N  N29  1  0.58398800  0.45202500  0.15619600  1
  N  N30  1  0.91601200  0.45202500  0.65619600  1
  N  N31  1  0.41601200  0.54797500  0.84380400  1
  N  N32  1  0.63349900  0.76738600  0.99509100  1
  N  N33  1  0.13349900  0.23261400  0.50490900  1
  N  N34  1  0.36650100  0.23261400  0.00490900  1
  N  N35  1  0.86650100  0.76738600  0.49509100  1
  N  N36  1  0.78393600  0.69623100  0.15969300  1
  N  N37  1  0.28393600  0.30376900  0.34030700  1
  N  N38  1  0.21606400  0.30376900  0.84030700  1
  N  N39  1  0.71606400  0.69623100  0.65969300  1
  Cl  Cl40  1  0.79892000  0.56125900  0.93996700  1
  Cl  Cl41  1  0.29892000  0.43874100  0.56003300  1
  Cl  Cl42  1  0.20108000  0.43874100  0.06003300  1
  Cl  Cl43  1  0.70108000  0.56125900  0.43996700  1
  Cl  Cl44  1  0.69993600  0.82765700  0.81611800  1
  Cl  Cl45  1  0.19993600  0.17234300  0.68388200  1
  Cl  Cl46  1  0.30006400  0.17234300  0.18388200  1
  Cl  Cl47  1  0.80006400  0.82765700  0.31611800  1
  Cl  Cl48  1  0.80043100  0.00016100  0.96172200  1
  Cl  Cl49  1  0.30043100  0.99983900  0.53827800  1
  Cl  Cl50  1  0.19956900  0.99983900  0.03827800  1
  Cl  Cl51  1  0.69956900  0.00016100  0.46172200  1
