# generated using pymatgen
data_Dy(PO3)3
_symmetry_space_group_name_H-M   'P 1'
_cell_length_a   20.28574800
_cell_length_b   10.20947400
_cell_length_c   11.44411635
_cell_angle_alpha   82.33163773
_cell_angle_beta   90.00000000
_cell_angle_gamma   90.00000000
_symmetry_Int_Tables_number   1
_chemical_formula_structural   Dy(PO3)3
_chemical_formula_sum   'Dy12 P36 O108'
_cell_volume   2348.95829553
_cell_formula_units_Z   12
loop_
 _symmetry_equiv_pos_site_id
 _symmetry_equiv_pos_as_xyz
  1  'x, y, z'
loop_
 _atom_site_type_symbol
 _atom_site_label
 _atom_site_symmetry_multiplicity
 _atom_site_fract_x
 _atom_site_fract_y
 _atom_site_fract_z
 _atom_site_occupancy
  Dy  Dy0  1  0.17719000  0.52799100  0.50265800  1
  Dy  Dy1  1  0.67719000  0.97200900  0.49734200  1
  Dy  Dy2  1  0.82281000  0.47200900  0.49734200  1
  Dy  Dy3  1  0.32281000  0.02799100  0.50265800  1
  Dy  Dy4  1  0.65371800  0.98151900  0.99987600  1
  Dy  Dy5  1  0.15371800  0.51848100  0.00012400  1
  Dy  Dy6  1  0.34628200  0.01848100  0.00012400  1
  Dy  Dy7  1  0.84628200  0.48151900  0.99987600  1
  Dy  Dy8  1  0.00000000  0.00000000  0.50000000  1
  Dy  Dy9  1  0.50000000  0.50000000  0.50000000  1
  Dy  Dy10  1  0.00000000  0.00000000  0.00000000  1
  Dy  Dy11  1  0.50000000  0.50000000  0.00000000  1
  P  P12  1  0.55127800  0.96711500  0.27218400  1
  P  P13  1  0.05127800  0.53288500  0.72781600  1
  P  P14  1  0.44872200  0.03288500  0.72781600  1
  P  P15  1  0.94872200  0.46711500  0.27218400  1
  P  P16  1  0.54073500  0.81790600  0.81872200  1
  P  P17  1  0.04073500  0.68209400  0.18127800  1
  P  P18  1  0.45926500  0.18209400  0.18127800  1
  P  P19  1  0.95926500  0.31790600  0.81872200  1
  P  P20  1  0.37473200  0.32309300  0.34598200  1
  P  P21  1  0.87473200  0.17690700  0.65401800  1
  P  P22  1  0.62526800  0.67690700  0.65401800  1
  P  P23  1  0.12526800  0.82309300  0.34598200  1
  P  P24  1  0.27328100  0.50902600  0.23781500  1
  P  P25  1  0.77328100  0.99097400  0.76218500  1
  P  P26  1  0.72671900  0.49097400  0.76218500  1
  P  P27  1  0.22671900  0.00902600  0.23781500  1
  P  P28  1  0.11730000  0.19184100  0.14630300  1
  P  P29  1  0.61730000  0.30815900  0.85369700  1
  P  P30  1  0.88270000  0.80815900  0.85369700  1
  P  P31  1  0.38270000  0.69184100  0.14630300  1
  P  P32  1  0.06617200  0.30880800  0.36032400  1
  P  P33  1  0.56617200  0.19119200  0.63967600  1
  P  P34  1  0.93382800  0.69119200  0.63967600  1
  P  P35  1  0.43382800  0.80880800  0.36032400  1
  P  P36  1  0.20808100  0.19830000  0.67808600  1
  P  P37  1  0.70808100  0.30170000  0.32191400  1
  P  P38  1  0.79191900  0.80170000  0.32191400  1
  P  P39  1  0.29191900  0.69830000  0.67808600  1
  P  P40  1  0.77801800  0.17539000  0.13265500  1
  P  P41  1  0.27801800  0.32461000  0.86734500  1
  P  P42  1  0.22198200  0.82461000  0.86734500  1
  P  P43  1  0.72198200  0.67539000  0.13265500  1
  P  P44  1  0.88841600  0.02299900  0.24570500  1
  P  P45  1  0.38841600  0.47700100  0.75429500  1
  P  P46  1  0.11158400  0.97700100  0.75429500  1
  P  P47  1  0.61158400  0.52299900  0.24570500  1
  O  O48  1  0.58710700  0.94572000  0.38743200  1
  O  O49  1  0.08710700  0.55428000  0.61256800  1
  O  O50  1  0.41289300  0.05428000  0.61256800  1
  O  O51  1  0.91289300  0.44572000  0.38743200  1
  O  O52  1  0.58981700  0.96273500  0.16106900  1
  O  O53  1  0.08981700  0.53726500  0.83893100  1
  O  O54  1  0.41018300  0.03726500  0.83893100  1
  O  O55  1  0.91018300  0.46273500  0.16106900  1
  O  O56  1  0.51312000  0.69099300  0.87931100  1
  O  O57  1  0.01312000  0.80900700  0.12068900  1
  O  O58  1  0.48688000  0.30900700  0.12068900  1
  O  O59  1  0.98688000  0.19099300  0.87931100  1
  O  O60  1  0.57111000  0.91295200  0.89220400  1
  O  O61  1  0.07111000  0.58704800  0.10779600  1
  O  O62  1  0.42889000  0.08704800  0.10779600  1
  O  O63  1  0.92889000  0.41295200  0.89220400  1
  O  O64  1  0.42540800  0.41855400  0.37903000  1
  O  O65  1  0.92540800  0.08144600  0.62097000  1
  O  O66  1  0.57459200  0.58144600  0.62097000  1
  O  O67  1  0.07459200  0.91855400  0.37903000  1
  O  O68  1  0.33375000  0.24793400  0.44140300  1
  O  O69  1  0.83375000  0.25206600  0.55859700  1
  O  O70  1  0.66625000  0.75206600  0.55859700  1
  O  O71  1  0.16625000  0.74793400  0.44140300  1
  O  O72  1  0.25846700  0.53767800  0.36080500  1
  O  O73  1  0.75846700  0.96232200  0.63919500  1
  O  O74  1  0.74153300  0.46232200  0.63919500  1
  O  O75  1  0.24153300  0.03767800  0.36080500  1
  O  O76  1  0.21631200  0.47658800  0.16390500  1
  O  O77  1  0.71631200  0.02341200  0.83609500  1
  O  O78  1  0.78368800  0.52341200  0.83609500  1
  O  O79  1  0.28368800  0.97658800  0.16390500  1
  O  O80  1  0.06760900  0.08895900  0.12520900  1
  O  O81  1  0.56760900  0.41104100  0.87479100  1
  O  O82  1  0.93239100  0.91104100  0.87479100  1
  O  O83  1  0.43239100  0.58895900  0.12520900  1
  O  O84  1  0.12055400  0.31148400  0.05536900  1
  O  O85  1  0.62055400  0.18851600  0.94463100  1
  O  O86  1  0.87944600  0.68851600  0.94463100  1
  O  O87  1  0.37944600  0.81148400  0.05536900  1
  O  O88  1  0.10490100  0.42383400  0.39259600  1
  O  O89  1  0.60490100  0.07616600  0.60740400  1
  O  O90  1  0.89509900  0.57616600  0.60740400  1
  O  O91  1  0.39509900  0.92383400  0.39259600  1
  O  O92  1  0.04085100  0.20740500  0.45699400  1
  O  O93  1  0.54085100  0.29259500  0.54300600  1
  O  O94  1  0.95914900  0.79259500  0.54300600  1
  O  O95  1  0.45914900  0.70740500  0.45699400  1
  O  O96  1  0.48556300  0.89228700  0.73298700  1
  O  O97  1  0.98556300  0.60771300  0.26701300  1
  O  O98  1  0.51443700  0.10771300  0.26701300  1
  O  O99  1  0.01443700  0.39228700  0.73298700  1
  O  O100  1  0.59407000  0.78960300  0.72203000  1
  O  O101  1  0.09407000  0.71039700  0.27797000  1
  O  O102  1  0.40593000  0.21039700  0.27797000  1
  O  O103  1  0.90593000  0.28960300  0.72203000  1
  O  O104  1  0.32744100  0.39319100  0.24236400  1
  O  O105  1  0.82744100  0.10680900  0.75763600  1
  O  O106  1  0.67255900  0.60680900  0.75763600  1
  O  O107  1  0.17255900  0.89319100  0.24236400  1
  O  O108  1  0.19012700  0.13014900  0.15918900  1
  O  O109  1  0.69012700  0.36985100  0.84081100  1
  O  O110  1  0.80987300  0.86985100  0.84081100  1
  O  O111  1  0.30987300  0.63014900  0.15918900  1
  O  O112  1  0.11022600  0.23169400  0.27612200  1
  O  O113  1  0.61022600  0.26830600  0.72387800  1
  O  O114  1  0.88977400  0.76830600  0.72387800  1
  O  O115  1  0.38977400  0.73169400  0.27612200  1
  O  O116  1  0.49286000  0.86084800  0.27113300  1
  O  O117  1  0.99286000  0.63915200  0.72886700  1
  O  O118  1  0.50714000  0.13915200  0.72886700  1
  O  O119  1  0.00714000  0.36084800  0.27113300  1
  O  O120  1  0.19231900  0.32332600  0.59893900  1
  O  O121  1  0.69231900  0.17667400  0.40106100  1
  O  O122  1  0.80768100  0.67667400  0.40106100  1
  O  O123  1  0.30768100  0.82332600  0.59893900  1
  O  O124  1  0.25682400  0.10393000  0.63688000  1
  O  O125  1  0.75682400  0.39607000  0.36312000  1
  O  O126  1  0.74317600  0.89607000  0.36312000  1
  O  O127  1  0.24317600  0.60393000  0.63688000  1
  O  O128  1  0.74071800  0.06203600  0.09370600  1
  O  O129  1  0.24071800  0.43796400  0.90629400  1
  O  O130  1  0.25928200  0.93796400  0.90629400  1
  O  O131  1  0.75928200  0.56203600  0.09370600  1
  O  O132  1  0.81511200  0.26720800  0.04239600  1
  O  O133  1  0.31511200  0.23279200  0.95760400  1
  O  O134  1  0.18488800  0.73279200  0.95760400  1
  O  O135  1  0.68488800  0.76720800  0.04239600  1
  O  O136  1  0.93257400  0.05353500  0.34347700  1
  O  O137  1  0.43257400  0.44646500  0.65652300  1
  O  O138  1  0.06742600  0.94646500  0.65652300  1
  O  O139  1  0.56742600  0.55353500  0.34347700  1
  O  O140  1  0.91552700  0.02864300  0.12320100  1
  O  O141  1  0.41552700  0.47135700  0.87679900  1
  O  O142  1  0.08447300  0.97135700  0.87679900  1
  O  O143  1  0.58447300  0.52864300  0.12320100  1
  O  O144  1  0.22831300  0.23393600  0.80539000  1
  O  O145  1  0.72831300  0.26606400  0.19461000  1
  O  O146  1  0.77168700  0.76606400  0.19461000  1
  O  O147  1  0.27168700  0.73393600  0.80539000  1
  O  O148  1  0.82585300  0.12101000  0.24205500  1
  O  O149  1  0.32585300  0.37899000  0.75794500  1
  O  O150  1  0.17414700  0.87899000  0.75794500  1
  O  O151  1  0.67414700  0.62101000  0.24205500  1
  O  O152  1  0.14055700  0.12277700  0.71410600  1
  O  O153  1  0.64055700  0.37722300  0.28589400  1
  O  O154  1  0.85944300  0.87722300  0.28589400  1
  O  O155  1  0.35944300  0.62277700  0.71410600  1
