# generated using pymatgen
data_ErC3O8
_symmetry_space_group_name_H-M   'P 1'
_cell_length_a   7.23152900
_cell_length_b   8.88505800
_cell_length_c   12.68688200
_cell_angle_alpha   90.00000000
_cell_angle_beta   90.00000000
_cell_angle_gamma   90.00000000
_symmetry_Int_Tables_number   1
_chemical_formula_structural   ErC3O8
_chemical_formula_sum   'Er4 C12 O32'
_cell_volume   815.16457833
_cell_formula_units_Z   4
loop_
 _symmetry_equiv_pos_site_id
 _symmetry_equiv_pos_as_xyz
  1  'x, y, z'
loop_
 _atom_site_type_symbol
 _atom_site_label
 _atom_site_symmetry_multiplicity
 _atom_site_fract_x
 _atom_site_fract_y
 _atom_site_fract_z
 _atom_site_occupancy
  Er  Er0  1  0.75010800  0.47130900  0.80094100  1
  Er  Er1  1  0.24989200  0.97130900  0.69905900  1
  Er  Er2  1  0.74989200  0.52869100  0.30094100  1
  Er  Er3  1  0.25010800  0.02869100  0.19905900  1
  C  C4  1  0.44826900  0.21197300  0.95441600  1
  C  C5  1  0.55173100  0.71197300  0.54558400  1
  C  C6  1  0.05173100  0.78802700  0.45441600  1
  C  C7  1  0.94826900  0.28802700  0.04558400  1
  C  C8  1  0.94155000  0.77641500  0.03878700  1
  C  C9  1  0.05845000  0.27641500  0.46121300  1
  C  C10  1  0.55845000  0.22358500  0.53878700  1
  C  C11  1  0.44155000  0.72358500  0.96121300  1
  C  C12  1  0.02425300  0.65181100  0.74290700  1
  C  C13  1  0.97574700  0.15181100  0.75709300  1
  C  C14  1  0.47574700  0.34818900  0.24290700  1
  C  C15  1  0.52425300  0.84818900  0.25709300  1
  O  O16  1  0.87877000  0.37380600  0.98791500  1
  O  O17  1  0.12123000  0.87380600  0.51208500  1
  O  O18  1  0.62123000  0.62619400  0.48791500  1
  O  O19  1  0.37877000  0.12619400  0.01208500  1
  O  O20  1  0.51780900  0.30589200  0.90263300  1
  O  O21  1  0.48219100  0.80589200  0.59736700  1
  O  O22  1  0.98219100  0.69410800  0.40263300  1
  O  O23  1  0.01780900  0.19410800  0.09736700  1
  O  O24  1  0.87191900  0.70648000  0.97136300  1
  O  O25  1  0.12808100  0.20648000  0.52863700  1
  O  O26  1  0.62808100  0.29352000  0.47136300  1
  O  O27  1  0.37191900  0.79352000  0.02863700  1
  O  O28  1  0.51199300  0.64051900  0.90085700  1
  O  O29  1  0.48800700  0.14051900  0.59914300  1
  O  O30  1  0.98800700  0.35948100  0.40085700  1
  O  O31  1  0.01199300  0.85948100  0.09914300  1
  O  O32  1  0.84453300  0.24611900  0.77348600  1
  O  O33  1  0.15546700  0.74611900  0.72651400  1
  O  O34  1  0.65546700  0.75388100  0.27348600  1
  O  O35  1  0.34453300  0.25388100  0.22651400  1
  O  O36  1  0.05152200  0.53099100  0.79807600  1
  O  O37  1  0.94847800  0.03099100  0.70192400  1
  O  O38  1  0.44847800  0.46900900  0.29807600  1
  O  O39  1  0.55152200  0.96900900  0.20192400  1
  O  O40  1  0.57735600  0.46239800  0.66862200  1
  O  O41  1  0.42264400  0.96239800  0.83137800  1
  O  O42  1  0.92264400  0.53760200  0.16862200  1
  O  O43  1  0.07735600  0.03760200  0.33137800  1
  O  O44  1  0.85674700  0.67274100  0.70634200  1
  O  O45  1  0.14325300  0.17274100  0.79365800  1
  O  O46  1  0.64325300  0.32725900  0.20634200  1
  O  O47  1  0.35674700  0.82725900  0.29365800  1
