# generated using pymatgen
data_Ca2Y3Si3O13
_symmetry_space_group_name_H-M   'P 1'
_cell_length_a   6.91222000
_cell_length_b   9.47010208
_cell_length_c   9.44281075
_cell_angle_alpha   120.08705858
_cell_angle_beta   90.00000000
_cell_angle_gamma   90.00000000
_symmetry_Int_Tables_number   1
_chemical_formula_structural   Ca2Y3Si3O13
_chemical_formula_sum   'Ca4 Y6 Si6 O26'
_cell_volume   534.83826605
_cell_formula_units_Z   2
loop_
 _symmetry_equiv_pos_site_id
 _symmetry_equiv_pos_as_xyz
  1  'x, y, z'
loop_
 _atom_site_type_symbol
 _atom_site_label
 _atom_site_symmetry_multiplicity
 _atom_site_fract_x
 _atom_site_fract_y
 _atom_site_fract_z
 _atom_site_occupancy
  Ca  Ca0  1  0.01804500  0.66459700  0.33349700  1
  Ca  Ca1  1  0.51804500  0.33540300  0.66650300  1
  Ca  Ca2  1  0.51299300  0.66592800  0.33459700  1
  Ca  Ca3  1  0.01299300  0.33407200  0.66540300  1
  Y  Y4  1  0.76734100  0.24006600  0.24690400  1
  Y  Y5  1  0.26734100  0.75993400  0.75309600  1
  Y  Y6  1  0.76661300  0.75210500  0.99571100  1
  Y  Y7  1  0.26661300  0.24789500  0.00428900  1
  Y  Y8  1  0.26652600  0.99389800  0.24100400  1
  Y  Y9  1  0.76652600  0.00610200  0.75899600  1
  Si  Si10  1  0.76601800  0.97683300  0.36905500  1
  Si  Si11  1  0.26601800  0.02316700  0.63094500  1
  Si  Si12  1  0.76614800  0.38936400  0.02223500  1
  Si  Si13  1  0.26614800  0.61063600  0.97776500  1
  Si  Si14  1  0.26699000  0.36808100  0.39062600  1
  Si  Si15  1  0.76699000  0.63191900  0.60937400  1
  O  O16  1  0.26715100  0.70033300  0.17635900  1
  O  O17  1  0.76715100  0.29966700  0.82364100  1
  O  O18  1  0.76345500  0.52449400  0.40931100  1
  O  O19  1  0.26345500  0.47550600  0.59068900  1
  O  O20  1  0.76318300  0.88383300  0.47567200  1
  O  O21  1  0.26318300  0.11616700  0.52432800  1
  O  O22  1  0.76683500  0.17491900  0.47575800  1
  O  O23  1  0.26683500  0.82508100  0.52424200  1
  O  O24  1  0.76274900  0.58888700  0.11565200  1
  O  O25  1  0.26274900  0.41111300  0.88434800  1
  O  O26  1  0.26742500  0.47455100  0.29857600  1
  O  O27  1  0.76742500  0.52544900  0.70142400  1
  O  O28  1  0.95215600  0.90970900  0.24266300  1
  O  O29  1  0.45215600  0.09029100  0.75733700  1
  O  O30  1  0.58141900  0.91205800  0.24093400  1
  O  O31  1  0.08141900  0.08794200  0.75906600  1
  O  O32  1  0.95230000  0.33088300  0.08955500  1
  O  O33  1  0.45230000  0.66911700  0.91044500  1
  O  O34  1  0.58229600  0.32466100  0.08582500  1
  O  O35  1  0.08229600  0.67533900  0.91417500  1
  O  O36  1  0.45272700  0.24226700  0.33188900  1
  O  O37  1  0.95272700  0.75773300  0.66811100  1
  O  O38  1  0.08143700  0.24085300  0.32796300  1
  O  O39  1  0.58143700  0.75914700  0.67203700  1
  O  O40  1  0.76689300  0.99832700  0.99935900  1
  O  O41  1  0.26689300  0.00167300  0.00064100  1
