# generated using pymatgen
data_K2Al2(SiO4)3
_symmetry_space_group_name_H-M   'P 1'
_cell_length_a   13.50428859
_cell_length_b   10.19213469
_cell_length_c   10.06854806
_cell_angle_alpha   83.59674811
_cell_angle_beta   48.59253024
_cell_angle_gamma   47.81072165
_symmetry_Int_Tables_number   1
_chemical_formula_structural   K2Al2(SiO4)3
_chemical_formula_sum   'K4 Al4 Si6 O24'
_cell_volume   616.88647382
_cell_formula_units_Z   2
loop_
 _symmetry_equiv_pos_site_id
 _symmetry_equiv_pos_as_xyz
  1  'x, y, z'
loop_
 _atom_site_type_symbol
 _atom_site_label
 _atom_site_symmetry_multiplicity
 _atom_site_fract_x
 _atom_site_fract_y
 _atom_site_fract_z
 _atom_site_occupancy
  K  K0  1  0.85490400  0.60897800  0.11362900  1
  K  K1  1  0.42248900  0.11362900  0.60897800  1
  K  K2  1  0.13637100  0.82751100  0.39509600  1
  K  K3  1  0.64102200  0.39509600  0.82751100  1
  Al  Al4  1  0.25018600  0.57243900  0.66390800  1
  Al  Al5  1  0.51346700  0.66390800  0.57243900  1
  Al  Al6  1  0.58609200  0.73653300  0.99981400  1
  Al  Al7  1  0.67756100  0.99981400  0.73653300  1
  Si  Si8  1  0.24076800  0.25923200  0.25923200  1
  Si  Si9  1  0.99076800  0.00923200  0.00923200  1
  Si  Si10  1  0.57748400  0.51251200  0.24237100  1
  Si  Si11  1  0.66763400  0.24237100  0.51251200  1
  Si  Si12  1  0.00762900  0.58236600  0.67251600  1
  Si  Si13  1  0.73748800  0.67251600  0.58236600  1
  O  O14  1  0.34949000  0.02508600  0.20666100  1
  O  O15  1  0.41876300  0.20666100  0.02508600  1
  O  O16  1  0.04333900  0.83123700  0.90051000  1
  O  O17  1  0.22491400  0.90051000  0.83123700  1
  O  O18  1  0.13124100  0.52334300  0.70848000  1
  O  O19  1  0.63693500  0.70848000  0.52334300  1
  O  O20  1  0.54152000  0.61306500  0.11875900  1
  O  O21  1  0.72665700  0.11875900  0.61306500  1
  O  O22  1  0.37412600  0.57083400  0.43180400  1
  O  O23  1  0.62323600  0.43180400  0.57083400  1
  O  O24  1  0.81819600  0.62676400  0.87587400  1
  O  O25  1  0.67916600  0.87587400  0.62676400  1
  O  O26  1  0.45220800  0.34867200  0.62010000  1
  O  O27  1  0.57901900  0.62010000  0.34867200  1
  O  O28  1  0.62990000  0.67098100  0.79779200  1
  O  O29  1  0.90132800  0.79779200  0.67098100  1
  O  O30  1  0.00778600  0.43359200  0.36416700  1
  O  O31  1  0.19445500  0.36416700  0.43359200  1
  O  O32  1  0.88583300  0.05554500  0.24221400  1
  O  O33  1  0.81640800  0.24221400  0.05554500  1
  O  O34  1  0.70293200  0.01055600  0.14163500  1
  O  O35  1  0.14487700  0.14163500  0.01055600  1
  O  O36  1  0.10836500  0.10512300  0.54706800  1
  O  O37  1  0.23944400  0.54706800  0.10512300  1
