# generated using pymatgen
data_RbVH6SeO9
_symmetry_space_group_name_H-M   'P 1'
_cell_length_a   10.23088000
_cell_length_b   6.47393500
_cell_length_c   6.91049565
_cell_angle_alpha   71.23389755
_cell_angle_beta   90.00000000
_cell_angle_gamma   90.00000000
_symmetry_Int_Tables_number   1
_chemical_formula_structural   RbVH6SeO9
_chemical_formula_sum   'Rb2 V2 H12 Se2 O18'
_cell_volume   433.37814587
_cell_formula_units_Z   2
loop_
 _symmetry_equiv_pos_site_id
 _symmetry_equiv_pos_as_xyz
  1  'x, y, z'
loop_
 _atom_site_type_symbol
 _atom_site_label
 _atom_site_symmetry_multiplicity
 _atom_site_fract_x
 _atom_site_fract_y
 _atom_site_fract_z
 _atom_site_occupancy
  Rb  Rb0  1  0.15200600  0.31379300  0.18032000  1
  Rb  Rb1  1  0.65200600  0.68620700  0.81968000  1
  V  V2  1  0.99781100  0.62129000  0.60457100  1
  V  V3  1  0.49781100  0.37871000  0.39542900  1
  H  H4  1  0.20448100  0.77621000  0.30890400  1
  H  H5  1  0.70448100  0.22379000  0.69109600  1
  H  H6  1  0.85184400  0.13841400  0.07551700  1
  H  H7  1  0.35184400  0.86158600  0.92448300  1
  H  H8  1  0.85848400  0.97909300  0.29908700  1
  H  H9  1  0.35848400  0.02090700  0.70091300  1
  H  H10  1  0.26028600  0.68602300  0.72816300  1
  H  H11  1  0.76028600  0.31397700  0.27183700  1
  H  H12  1  0.07508600  0.81173800  0.18295900  1
  H  H13  1  0.57508600  0.18826200  0.81704100  1
  H  H14  1  0.75982200  0.52690700  0.34651200  1
  H  H15  1  0.25982200  0.47309300  0.65348800  1
  Se  Se16  1  0.99863200  0.07697300  0.73170300  1
  Se  Se17  1  0.49863200  0.92302700  0.26829700  1
  O  O18  1  0.44225800  0.46112800  0.15788200  1
  O  O19  1  0.94225800  0.53887200  0.84211800  1
  O  O20  1  0.36167900  0.31321800  0.54049400  1
  O  O21  1  0.86167900  0.68678200  0.45950600  1
  O  O22  1  0.70488900  0.43656400  0.28631800  1
  O  O23  1  0.20488900  0.56343600  0.71368200  1
  O  O24  1  0.61533800  0.28514500  0.68972500  1
  O  O25  1  0.11533800  0.71485500  0.31027500  1
  O  O26  1  0.05106800  0.92830900  0.58323500  1
  O  O27  1  0.55106800  0.07169100  0.41676500  1
  O  O28  1  0.03397200  0.33080400  0.56892000  1
  O  O29  1  0.53397200  0.66919600  0.43108000  1
  O  O30  1  0.08533300  0.01933000  0.94337400  1
  O  O31  1  0.58533300  0.98067000  0.05662600  1
  O  O32  1  0.33978300  0.94822600  0.21954400  1
  O  O33  1  0.83978300  0.05177400  0.78045600  1
  O  O34  1  0.86322900  0.13566200  0.21685200  1
  O  O35  1  0.36322900  0.86433800  0.78314800  1
