# generated using pymatgen
data_FeBO3
_symmetry_space_group_name_H-M   'P 1'
_cell_length_a   3.14936650
_cell_length_b   10.36410700
_cell_length_c   12.42698298
_cell_angle_alpha   90.00000000
_cell_angle_beta   97.54344784
_cell_angle_gamma   90.00000000
_symmetry_Int_Tables_number   1
_chemical_formula_structural   FeBO3
_chemical_formula_sum   'Fe8 B8 O24'
_cell_volume   402.11092897
_cell_formula_units_Z   8
loop_
 _symmetry_equiv_pos_site_id
 _symmetry_equiv_pos_as_xyz
  1  'x, y, z'
loop_
 _atom_site_type_symbol
 _atom_site_label
 _atom_site_symmetry_multiplicity
 _atom_site_fract_x
 _atom_site_fract_y
 _atom_site_fract_z
 _atom_site_occupancy
  Fe  Fe0  1  0.75227900  0.64312400  0.99717200  1
  Fe  Fe1  1  0.24772100  0.14312400  0.50282800  1
  Fe  Fe2  1  0.24772100  0.35687600  0.00282800  1
  Fe  Fe3  1  0.75227900  0.85687600  0.49717200  1
  Fe  Fe4  1  0.28989000  0.90839900  0.09730500  1
  Fe  Fe5  1  0.71011000  0.40839900  0.40269500  1
  Fe  Fe6  1  0.71011000  0.09160100  0.90269500  1
  Fe  Fe7  1  0.28989000  0.59160100  0.59730500  1
  B  B8  1  0.22012200  0.66736100  0.36226200  1
  B  B9  1  0.77987800  0.16736100  0.13773800  1
  B  B10  1  0.77987800  0.33263900  0.63773800  1
  B  B11  1  0.22012200  0.83263900  0.86226200  1
  B  B12  1  0.37942200  0.54665000  0.20125000  1
  B  B13  1  0.62057800  0.04665000  0.29875000  1
  B  B14  1  0.62057800  0.45335000  0.79875000  1
  B  B15  1  0.37942200  0.95335000  0.70125000  1
  O  O16  1  0.21349000  0.55760600  0.42634300  1
  O  O17  1  0.78651000  0.05760600  0.07365700  1
  O  O18  1  0.78651000  0.44239400  0.57365700  1
  O  O19  1  0.21349000  0.94239400  0.92634300  1
  O  O20  1  0.19947800  0.78896200  0.40968800  1
  O  O21  1  0.80052200  0.28896200  0.09031200  1
  O  O22  1  0.80052200  0.21103800  0.59031200  1
  O  O23  1  0.19947800  0.71103800  0.90968800  1
  O  O24  1  0.25954500  0.65799200  0.25355800  1
  O  O25  1  0.74045500  0.15799200  0.24644200  1
  O  O26  1  0.74045500  0.34200800  0.74644200  1
  O  O27  1  0.25954500  0.84200800  0.75355800  1
  O  O28  1  0.39875400  0.95100200  0.24730000  1
  O  O29  1  0.60124600  0.45100200  0.25270000  1
  O  O30  1  0.60124600  0.04899800  0.75270000  1
  O  O31  1  0.39875400  0.54899800  0.74730000  1
  O  O32  1  0.28732300  0.54557800  0.08462700  1
  O  O33  1  0.71267700  0.04557800  0.41537300  1
  O  O34  1  0.71267700  0.45442200  0.91537300  1
  O  O35  1  0.28732300  0.95442200  0.58462700  1
  O  O36  1  0.78184600  0.79577100  0.08276500  1
  O  O37  1  0.21815400  0.29577100  0.41723500  1
  O  O38  1  0.21815400  0.20422900  0.91723500  1
  O  O39  1  0.78184600  0.70422900  0.58276500  1
