# generated using pymatgen
data_Sn2Mo15Se19
_symmetry_space_group_name_H-M   'P 1'
_cell_length_a   19.99848939
_cell_length_b   19.99848939
_cell_length_c   19.99848957
_cell_angle_alpha   28.46026113
_cell_angle_beta   28.46026113
_cell_angle_gamma   28.46026174
_symmetry_Int_Tables_number   1
_chemical_formula_structural   Sn2Mo15Se19
_chemical_formula_sum   'Sn4 Mo30 Se38'
_cell_volume   1605.33764830
_cell_formula_units_Z   2
loop_
 _symmetry_equiv_pos_site_id
 _symmetry_equiv_pos_as_xyz
  1  'x, y, z'
loop_
 _atom_site_type_symbol
 _atom_site_label
 _atom_site_symmetry_multiplicity
 _atom_site_fract_x
 _atom_site_fract_y
 _atom_site_fract_z
 _atom_site_occupancy
  Sn  Sn0  1  0.88370900  0.88370900  0.88370900  1
  Sn  Sn1  1  0.38370900  0.38370900  0.38370900  1
  Sn  Sn2  1  0.11629100  0.11629100  0.11629100  1
  Sn  Sn3  1  0.61629100  0.61629100  0.61629100  1
  Mo  Mo4  1  0.81324800  0.99985500  0.12716100  1
  Mo  Mo5  1  0.12716100  0.81324800  0.99985500  1
  Mo  Mo6  1  0.99985500  0.12716100  0.81324800  1
  Mo  Mo7  1  0.62716100  0.49985500  0.31324800  1
  Mo  Mo8  1  0.31324800  0.62716100  0.49985500  1
  Mo  Mo9  1  0.49985500  0.31324800  0.62716100  1
  Mo  Mo10  1  0.18675200  0.00014500  0.87283900  1
  Mo  Mo11  1  0.87283900  0.18675200  0.00014500  1
  Mo  Mo12  1  0.00014500  0.87283900  0.18675200  1
  Mo  Mo13  1  0.37283900  0.50014500  0.68675200  1
  Mo  Mo14  1  0.68675200  0.37283900  0.50014500  1
  Mo  Mo15  1  0.50014500  0.68675200  0.37283900  1
  Mo  Mo16  1  0.64032900  0.77747400  0.95044900  1
  Mo  Mo17  1  0.95044900  0.64032900  0.77747400  1
  Mo  Mo18  1  0.77747400  0.95044900  0.64032900  1
  Mo  Mo19  1  0.45044900  0.27747400  0.14032900  1
  Mo  Mo20  1  0.14032900  0.45044900  0.27747400  1
  Mo  Mo21  1  0.27747400  0.14032900  0.45044900  1
  Mo  Mo22  1  0.35967100  0.22252600  0.04955100  1
  Mo  Mo23  1  0.04955100  0.35967100  0.22252600  1
  Mo  Mo24  1  0.22252600  0.04955100  0.35967100  1
  Mo  Mo25  1  0.54955100  0.72252600  0.85967100  1
  Mo  Mo26  1  0.85967100  0.54955100  0.72252600  1
  Mo  Mo27  1  0.72252600  0.85967100  0.54955100  1
  Mo  Mo28  1  0.59056100  0.90943900  0.75000000  1
  Mo  Mo29  1  0.75000000  0.59056100  0.90943900  1
  Mo  Mo30  1  0.90943900  0.75000000  0.59056100  1
  Mo  Mo31  1  0.25000000  0.40943900  0.09056100  1
  Mo  Mo32  1  0.09056100  0.25000000  0.40943900  1
  Mo  Mo33  1  0.40943900  0.09056100  0.25000000  1
  Se  Se34  1  0.94230400  0.69930600  0.30676300  1
  Se  Se35  1  0.30676300  0.94230400  0.69930600  1
  Se  Se36  1  0.69930600  0.30676300  0.94230400  1
  Se  Se37  1  0.80676300  0.19930600  0.44230400  1
  Se  Se38  1  0.44230400  0.80676300  0.19930600  1
  Se  Se39  1  0.19930600  0.44230400  0.80676300  1
  Se  Se40  1  0.05769600  0.30069400  0.69323700  1
  Se  Se41  1  0.69323700  0.05769600  0.30069400  1
  Se  Se42  1  0.30069400  0.69323700  0.05769600  1
  Se  Se43  1  0.19323700  0.80069400  0.55769600  1
  Se  Se44  1  0.55769600  0.19323700  0.80069400  1
  Se  Se45  1  0.80069400  0.55769600  0.19323700  1
  Se  Se46  1  0.45339700  0.07791700  0.82660600  1
  Se  Se47  1  0.82660600  0.45339700  0.07791700  1
  Se  Se48  1  0.07791700  0.82660600  0.45339700  1
  Se  Se49  1  0.32660600  0.57791700  0.95339700  1
  Se  Se50  1  0.95339700  0.32660600  0.57791700  1
  Se  Se51  1  0.57791700  0.95339700  0.32660600  1
  Se  Se52  1  0.54660300  0.92208300  0.17339400  1
  Se  Se53  1  0.17339400  0.54660300  0.92208300  1
  Se  Se54  1  0.92208300  0.17339400  0.54660300  1
  Se  Se55  1  0.67339400  0.42208300  0.04660300  1
  Se  Se56  1  0.04660300  0.67339400  0.42208300  1
  Se  Se57  1  0.42208300  0.04660300  0.67339400  1
  Se  Se58  1  0.05703800  0.44296200  0.75000000  1
  Se  Se59  1  0.75000000  0.05703800  0.44296200  1
  Se  Se60  1  0.44296200  0.75000000  0.05703800  1
  Se  Se61  1  0.25000000  0.94296200  0.55703800  1
  Se  Se62  1  0.55703800  0.25000000  0.94296200  1
  Se  Se63  1  0.94296200  0.55703800  0.25000000  1
  Se  Se64  1  0.94430200  0.94430200  0.94430200  1
  Se  Se65  1  0.44430200  0.44430200  0.44430200  1
  Se  Se66  1  0.05569800  0.05569800  0.05569800  1
  Se  Se67  1  0.55569800  0.55569800  0.55569800  1
  Se  Se68  1  0.82521400  0.82521400  0.82521400  1
  Se  Se69  1  0.32521400  0.32521400  0.32521400  1
  Se  Se70  1  0.17478600  0.17478600  0.17478600  1
  Se  Se71  1  0.67478600  0.67478600  0.67478600  1
