# generated using pymatgen
data_NaH6CN2ClO2
_symmetry_space_group_name_H-M   'P 1'
_cell_length_a   5.25509300
_cell_length_b   6.66838400
_cell_length_c   17.50248200
_cell_angle_alpha   90.00000000
_cell_angle_beta   90.00000000
_cell_angle_gamma   90.00000000
_symmetry_Int_Tables_number   1
_chemical_formula_structural   NaH6CN2ClO2
_chemical_formula_sum   'Na4 H24 C4 N8 Cl4 O8'
_cell_volume   613.33909307
_cell_formula_units_Z   4
loop_
 _symmetry_equiv_pos_site_id
 _symmetry_equiv_pos_as_xyz
  1  'x, y, z'
loop_
 _atom_site_type_symbol
 _atom_site_label
 _atom_site_symmetry_multiplicity
 _atom_site_fract_x
 _atom_site_fract_y
 _atom_site_fract_z
 _atom_site_occupancy
  Na  Na0  1  0.31149200  0.51505500  0.00000000  1
  Na  Na1  1  0.81149200  0.48494500  0.50000000  1
  Na  Na2  1  0.30794000  0.99062200  0.00000000  1
  Na  Na3  1  0.80794000  0.00937800  0.50000000  1
  H  H4  1  0.73302000  0.24363800  0.04406100  1
  H  H5  1  0.73302000  0.24363800  0.95593900  1
  H  H6  1  0.23302000  0.75636200  0.45593900  1
  H  H7  1  0.23302000  0.75636200  0.54406100  1
  H  H8  1  0.84533800  0.75862400  0.04312600  1
  H  H9  1  0.84533800  0.75862400  0.95687400  1
  H  H10  1  0.34533800  0.24137600  0.45687400  1
  H  H11  1  0.34533800  0.24137600  0.54312600  1
  H  H12  1  0.76424000  0.03059600  0.32163100  1
  H  H13  1  0.76424000  0.03059600  0.67836900  1
  H  H14  1  0.26424000  0.96940400  0.17836900  1
  H  H15  1  0.26424000  0.96940400  0.82163100  1
  H  H16  1  0.87874300  0.14816900  0.23790200  1
  H  H17  1  0.87874300  0.14816900  0.76209800  1
  H  H18  1  0.37874300  0.85183100  0.26209800  1
  H  H19  1  0.37874300  0.85183100  0.73790200  1
  H  H20  1  0.28832300  0.47742400  0.33578900  1
  H  H21  1  0.28832300  0.47742400  0.66421100  1
  H  H22  1  0.78832300  0.52257600  0.16421100  1
  H  H23  1  0.78832300  0.52257600  0.83578900  1
  H  H24  1  0.19334600  0.38278600  0.24598000  1
  H  H25  1  0.19334600  0.38278600  0.75402000  1
  H  H26  1  0.69334600  0.61721400  0.25402000  1
  H  H27  1  0.69334600  0.61721400  0.74598000  1
  C  C28  1  0.02027400  0.25530600  0.34016200  1
  C  C29  1  0.02027400  0.25530600  0.65983800  1
  C  C30  1  0.52027400  0.74469400  0.15983800  1
  C  C31  1  0.52027400  0.74469400  0.84016200  1
  N  N32  1  0.86675600  0.14116200  0.29609100  1
  N  N33  1  0.86675600  0.14116200  0.70390900  1
  N  N34  1  0.36675600  0.85883800  0.20390900  1
  N  N35  1  0.36675600  0.85883800  0.79609100  1
  N  N36  1  0.17807700  0.38347700  0.30409000  1
  N  N37  1  0.17807700  0.38347700  0.69591000  1
  N  N38  1  0.67807700  0.61652300  0.19591000  1
  N  N39  1  0.67807700  0.61652300  0.80409000  1
  Cl  Cl40  1  0.06723000  0.25732500  0.11941400  1
  Cl  Cl41  1  0.06723000  0.25732500  0.88058600  1
  Cl  Cl42  1  0.56723000  0.74267500  0.38058600  1
  Cl  Cl43  1  0.56723000  0.74267500  0.61941400  1
  O  O44  1  0.61516600  0.24948000  0.00000000  1
  O  O45  1  0.11516600  0.75052000  0.50000000  1
  O  O46  1  0.96687500  0.75648500  0.00000000  1
  O  O47  1  0.46687500  0.24351500  0.50000000  1
  O  O48  1  0.01509000  0.24371700  0.41286800  1
  O  O49  1  0.01509000  0.24371700  0.58713200  1
  O  O50  1  0.51509000  0.75628300  0.08713200  1
  O  O51  1  0.51509000  0.75628300  0.91286800  1
