# generated using pymatgen
data_Rb2Ti3(P2O9)2
_symmetry_space_group_name_H-M   'P 1'
_cell_length_a   16.98511200
_cell_length_b   5.30401100
_cell_length_c   10.11220494
_cell_angle_alpha   58.83229538
_cell_angle_beta   90.00000000
_cell_angle_gamma   90.00000000
_symmetry_Int_Tables_number   1
_chemical_formula_structural   Rb2Ti3(P2O9)2
_chemical_formula_sum   'Rb4 Ti6 P8 O36'
_cell_volume   779.50328995
_cell_formula_units_Z   2
loop_
 _symmetry_equiv_pos_site_id
 _symmetry_equiv_pos_as_xyz
  1  'x, y, z'
loop_
 _atom_site_type_symbol
 _atom_site_label
 _atom_site_symmetry_multiplicity
 _atom_site_fract_x
 _atom_site_fract_y
 _atom_site_fract_z
 _atom_site_occupancy
  Rb  Rb0  1  0.12766800  0.46791100  0.85935200  1
  Rb  Rb1  1  0.62766800  0.53208900  0.64064800  1
  Rb  Rb2  1  0.87233200  0.53208900  0.14064800  1
  Rb  Rb3  1  0.37233200  0.46791100  0.35935200  1
  Ti  Ti4  1  0.16568300  0.95574500  0.34762900  1
  Ti  Ti5  1  0.66568300  0.04425500  0.15237100  1
  Ti  Ti6  1  0.00000000  0.50000000  0.50000000  1
  Ti  Ti7  1  0.50000000  0.50000000  0.00000000  1
  Ti  Ti8  1  0.83431700  0.04425500  0.65237100  1
  Ti  Ti9  1  0.33431700  0.95574500  0.84762900  1
  P  P10  1  0.91646500  0.36794900  0.82650000  1
  P  P11  1  0.41646500  0.63205100  0.67350000  1
  P  P12  1  0.08353500  0.63205100  0.17350000  1
  P  P13  1  0.58353500  0.36794900  0.32650000  1
  P  P14  1  0.81887400  0.75561700  0.42331300  1
  P  P15  1  0.31887400  0.24438300  0.07668700  1
  P  P16  1  0.18112600  0.24438300  0.57668700  1
  P  P17  1  0.68112600  0.75561700  0.92331300  1
  O  O18  1  0.27895300  0.07372000  0.23445300  1
  O  O19  1  0.77895300  0.92628000  0.26554700  1
  O  O20  1  0.14406300  0.83221200  0.19383000  1
  O  O21  1  0.64406300  0.16778800  0.30617000  1
  O  O22  1  0.13078400  0.36798600  0.18444500  1
  O  O23  1  0.63078400  0.63201400  0.31555500  1
  O  O24  1  0.20255900  0.12013700  0.47338700  1
  O  O25  1  0.70255900  0.87986300  0.02661300  1
  O  O26  1  0.21442100  0.57029000  0.49088100  1
  O  O27  1  0.71442100  0.42971000  0.00911900  1
  O  O28  1  0.07199200  0.82661900  0.43337600  1
  O  O29  1  0.57199200  0.17338100  0.06662400  1
  O  O30  1  0.97946700  0.48562300  0.69733200  1
  O  O31  1  0.47946700  0.51437700  0.80266800  1
  O  O32  1  0.09309300  0.23923500  0.60235400  1
  O  O33  1  0.59309300  0.76076500  0.89764600  1
  O  O34  1  0.02053300  0.51437700  0.30266800  1
  O  O35  1  0.52053300  0.48562300  0.19733200  1
  O  O36  1  0.90690700  0.76076500  0.39764600  1
  O  O37  1  0.40690700  0.23923500  0.10235400  1
  O  O38  1  0.92800800  0.17338100  0.56662400  1
  O  O39  1  0.42800800  0.82661900  0.93337600  1
  O  O40  1  0.85593700  0.16778800  0.80617000  1
  O  O41  1  0.35593700  0.83221200  0.69383000  1
  O  O42  1  0.86921600  0.63201400  0.81555500  1
  O  O43  1  0.36921600  0.36798600  0.68444500  1
  O  O44  1  0.78557900  0.42971000  0.50911900  1
  O  O45  1  0.28557900  0.57029000  0.99088100  1
  O  O46  1  0.79744100  0.87986300  0.52661300  1
  O  O47  1  0.29744100  0.12013700  0.97338700  1
  O  O48  1  0.72104700  0.92628000  0.76554700  1
  O  O49  1  0.22104700  0.07372000  0.73445300  1
  O  O50  1  0.95501200  0.21367600  0.98803000  1
  O  O51  1  0.45501200  0.78632400  0.51197000  1
  O  O52  1  0.04498800  0.78632400  0.01197000  1
  O  O53  1  0.54498800  0.21367600  0.48803000  1
