# generated using pymatgen
data_Sr2Re6S11
_symmetry_space_group_name_H-M   'P 1'
_cell_length_a   11.89024604
_cell_length_b   11.89024604
_cell_length_c   11.89024548
_cell_angle_alpha   45.30155414
_cell_angle_beta   45.30155414
_cell_angle_gamma   45.30154964
_symmetry_Int_Tables_number   1
_chemical_formula_structural   Sr2Re6S11
_chemical_formula_sum   'Sr4 Re12 S22'
_cell_volume   773.56209173
_cell_formula_units_Z   2
loop_
 _symmetry_equiv_pos_site_id
 _symmetry_equiv_pos_as_xyz
  1  'x, y, z'
loop_
 _atom_site_type_symbol
 _atom_site_label
 _atom_site_symmetry_multiplicity
 _atom_site_fract_x
 _atom_site_fract_y
 _atom_site_fract_z
 _atom_site_occupancy
  Sr  Sr0  1  0.68935100  0.68935100  0.68935100  1
  Sr  Sr1  1  0.18935100  0.18935100  0.18935100  1
  Sr  Sr2  1  0.31064900  0.31064900  0.31064900  1
  Sr  Sr3  1  0.81064900  0.81064900  0.81064900  1
  Re  Re4  1  0.61637400  0.49372200  0.28730700  1
  Re  Re5  1  0.28730700  0.61637400  0.49372200  1
  Re  Re6  1  0.49372200  0.28730700  0.61637400  1
  Re  Re7  1  0.78730700  0.99372200  0.11637400  1
  Re  Re8  1  0.11637400  0.78730700  0.99372200  1
  Re  Re9  1  0.99372200  0.11637400  0.78730700  1
  Re  Re10  1  0.38362600  0.50627800  0.71269300  1
  Re  Re11  1  0.71269300  0.38362600  0.50627800  1
  Re  Re12  1  0.50627800  0.71269300  0.38362600  1
  Re  Re13  1  0.21269300  0.00627800  0.88362600  1
  Re  Re14  1  0.88362600  0.21269300  0.00627800  1
  Re  Re15  1  0.00627800  0.88362600  0.21269300  1
  S  S16  1  0.79900400  0.19190100  0.41813000  1
  S  S17  1  0.41813000  0.79900400  0.19190100  1
  S  S18  1  0.19190100  0.41813000  0.79900400  1
  S  S19  1  0.91813000  0.69190100  0.29900400  1
  S  S20  1  0.29900400  0.91813000  0.69190100  1
  S  S21  1  0.69190100  0.29900400  0.91813000  1
  S  S22  1  0.20099600  0.80809900  0.58187000  1
  S  S23  1  0.58187000  0.20099600  0.80809900  1
  S  S24  1  0.80809900  0.58187000  0.20099600  1
  S  S25  1  0.08187000  0.30809900  0.70099600  1
  S  S26  1  0.70099600  0.08187000  0.30809900  1
  S  S27  1  0.30809900  0.70099600  0.08187000  1
  S  S28  1  0.50347500  0.99652500  0.25000000  1
  S  S29  1  0.25000000  0.50347500  0.99652500  1
  S  S30  1  0.99652500  0.25000000  0.50347500  1
  S  S31  1  0.75000000  0.49652500  0.00347500  1
  S  S32  1  0.00347500  0.75000000  0.49652500  1
  S  S33  1  0.49652500  0.00347500  0.75000000  1
  S  S34  1  0.40793400  0.40793400  0.40793400  1
  S  S35  1  0.90793400  0.90793400  0.90793400  1
  S  S36  1  0.59206600  0.59206600  0.59206600  1
  S  S37  1  0.09206600  0.09206600  0.09206600  1
