# generated using pymatgen
data_Ca(BO2)3
_symmetry_space_group_name_H-M   'P 1'
_cell_length_a   10.41212500
_cell_length_b   6.51402900
_cell_length_c   6.81749129
_cell_angle_alpha   64.20700298
_cell_angle_beta   90.00000000
_cell_angle_gamma   90.00000000
_symmetry_Int_Tables_number   1
_chemical_formula_structural   Ca(BO2)3
_chemical_formula_sum   'Ca4 B12 O24'
_cell_volume   416.32799455
_cell_formula_units_Z   4
loop_
 _symmetry_equiv_pos_site_id
 _symmetry_equiv_pos_as_xyz
  1  'x, y, z'
loop_
 _atom_site_type_symbol
 _atom_site_label
 _atom_site_symmetry_multiplicity
 _atom_site_fract_x
 _atom_site_fract_y
 _atom_site_fract_z
 _atom_site_occupancy
  Ca  Ca0  1  0.06740900  0.37841500  0.79867600  1
  Ca  Ca1  1  0.56740900  0.62158500  0.70132400  1
  Ca  Ca2  1  0.93259100  0.62158500  0.20132400  1
  Ca  Ca3  1  0.43259100  0.37841500  0.29867600  1
  B  B4  1  0.38774100  0.24208400  0.90589400  1
  B  B5  1  0.88774100  0.75791600  0.59410600  1
  B  B6  1  0.61225900  0.75791600  0.09410600  1
  B  B7  1  0.11225900  0.24208400  0.40589400  1
  B  B8  1  0.42009000  0.86948300  0.26190800  1
  B  B9  1  0.92009000  0.13051700  0.23809200  1
  B  B10  1  0.57991000  0.13051700  0.73809200  1
  B  B11  1  0.07991000  0.86948300  0.76190800  1
  B  B12  1  0.23112900  0.91979900  0.02030300  1
  B  B13  1  0.73112900  0.08020100  0.47969700  1
  B  B14  1  0.76887100  0.08020100  0.97969700  1
  B  B15  1  0.26887100  0.91979900  0.52030300  1
  O  O16  1  0.37904800  0.45296300  0.92881100  1
  O  O17  1  0.87904800  0.54703700  0.57118900  1
  O  O18  1  0.62095200  0.54703700  0.07118900  1
  O  O19  1  0.12095200  0.45296300  0.42881100  1
  O  O20  1  0.25990300  0.14662500  0.89535900  1
  O  O21  1  0.75990300  0.85337500  0.60464100  1
  O  O22  1  0.74009700  0.85337500  0.10464100  1
  O  O23  1  0.24009700  0.14662500  0.39535900  1
  O  O24  1  0.46533800  0.27202900  0.71095300  1
  O  O25  1  0.96533800  0.72797100  0.78904700  1
  O  O26  1  0.53466200  0.72797100  0.28904700  1
  O  O27  1  0.03466200  0.27202900  0.21095300  1
  O  O28  1  0.45470500  0.10807800  0.11442700  1
  O  O29  1  0.95470500  0.89192200  0.38557300  1
  O  O30  1  0.54529500  0.89192200  0.88557300  1
  O  O31  1  0.04529500  0.10807800  0.61442700  1
  O  O32  1  0.31236200  0.77920600  0.17973300  1
  O  O33  1  0.81236200  0.22079400  0.32026700  1
  O  O34  1  0.68763800  0.22079400  0.82026700  1
  O  O35  1  0.18763800  0.77920600  0.67973300  1
  O  O36  1  0.38600600  0.84031500  0.48384900  1
  O  O37  1  0.88600600  0.15968500  0.01615100  1
  O  O38  1  0.61399400  0.15968500  0.51615100  1
  O  O39  1  0.11399400  0.84031500  0.98384900  1
