# generated using pymatgen
data_KSbP(O2F)2
_symmetry_space_group_name_H-M   'P 1'
_cell_length_a   7.16496600
_cell_length_b   9.39115100
_cell_length_c   10.46712178
_cell_angle_alpha   63.67814552
_cell_angle_beta   90.00000000
_cell_angle_gamma   90.00000000
_symmetry_Int_Tables_number   1
_chemical_formula_structural   KSbP(O2F)2
_chemical_formula_sum   'K4 Sb4 P4 O16 F8'
_cell_volume   631.28002024
_cell_formula_units_Z   4
loop_
 _symmetry_equiv_pos_site_id
 _symmetry_equiv_pos_as_xyz
  1  'x, y, z'
loop_
 _atom_site_type_symbol
 _atom_site_label
 _atom_site_symmetry_multiplicity
 _atom_site_fract_x
 _atom_site_fract_y
 _atom_site_fract_z
 _atom_site_occupancy
  K  K0  1  0.24936500  0.08245800  0.09301500  1
  K  K1  1  0.74936500  0.91754200  0.40698500  1
  K  K2  1  0.75063500  0.91754200  0.90698500  1
  K  K3  1  0.25063500  0.08245800  0.59301500  1
  Sb  Sb4  1  0.25019200  0.68401800  0.49466100  1
  Sb  Sb5  1  0.75019200  0.31598200  0.00533900  1
  Sb  Sb6  1  0.74980800  0.31598200  0.50533900  1
  Sb  Sb7  1  0.24980800  0.68401800  0.99466100  1
  P  P8  1  0.57800900  0.65657500  0.25866700  1
  P  P9  1  0.07800900  0.34342500  0.24133300  1
  P  P10  1  0.42199100  0.34342500  0.74133300  1
  P  P11  1  0.92199100  0.65657500  0.75866700  1
  O  O12  1  0.76764300  0.73236900  0.23411800  1
  O  O13  1  0.26764300  0.26763100  0.26588200  1
  O  O14  1  0.23235700  0.26763100  0.76588200  1
  O  O15  1  0.73235700  0.73236900  0.73411800  1
  O  O16  1  0.57494000  0.47034400  0.33707900  1
  O  O17  1  0.07494000  0.52965600  0.16292100  1
  O  O18  1  0.42506000  0.52965600  0.66292100  1
  O  O19  1  0.92506000  0.47034400  0.83707900  1
  O  O20  1  0.46157600  0.72560900  0.34665900  1
  O  O21  1  0.96157600  0.27439100  0.15334100  1
  O  O22  1  0.53842400  0.27439100  0.65334100  1
  O  O23  1  0.03842400  0.72560900  0.84665900  1
  O  O24  1  0.02181500  0.70629900  0.61105300  1
  O  O25  1  0.52181500  0.29370100  0.88894700  1
  O  O26  1  0.97818500  0.29370100  0.38894700  1
  O  O27  1  0.47818500  0.70629900  0.11105300  1
  F  F28  1  0.37795200  0.84747100  0.52537100  1
  F  F29  1  0.87795200  0.15252900  0.97462900  1
  F  F30  1  0.62204800  0.15252900  0.47462900  1
  F  F31  1  0.12204800  0.84747100  0.02537100  1
  F  F32  1  0.11708800  0.86587800  0.33981300  1
  F  F33  1  0.61708800  0.13412200  0.16018700  1
  F  F34  1  0.88291200  0.13412200  0.66018700  1
  F  F35  1  0.38291200  0.86587800  0.83981300  1
