# generated using pymatgen
data_MgB12(H2O)6
_symmetry_space_group_name_H-M   'P 1'
_cell_length_a   8.10837334
_cell_length_b   9.44403782
_cell_length_c   10.93860800
_cell_angle_alpha   90.00000000
_cell_angle_beta   90.00000000
_cell_angle_gamma   90.57670143
_symmetry_Int_Tables_number   1
_chemical_formula_structural   MgB12(H2O)6
_chemical_formula_sum   'Mg2 B24 H24 O12'
_cell_volume   837.59005798
_cell_formula_units_Z   2
loop_
 _symmetry_equiv_pos_site_id
 _symmetry_equiv_pos_as_xyz
  1  'x, y, z'
loop_
 _atom_site_type_symbol
 _atom_site_label
 _atom_site_symmetry_multiplicity
 _atom_site_fract_x
 _atom_site_fract_y
 _atom_site_fract_z
 _atom_site_occupancy
  Mg  Mg0  1  0.50000000  0.00000000  0.50000000  1
  Mg  Mg1  1  0.50000000  0.50000000  0.00000000  1
  B  B2  1  0.97060400  0.32471000  0.54172900  1
  B  B3  1  0.02939600  0.17529000  0.04172900  1
  B  B4  1  0.02939600  0.67529000  0.45827100  1
  B  B5  1  0.97060400  0.82471000  0.95827100  1
  B  B6  1  0.02157000  0.52150000  0.34360400  1
  B  B7  1  0.97843000  0.97850000  0.84360400  1
  B  B8  1  0.97843000  0.47850000  0.65639600  1
  B  B9  1  0.02157000  0.02150000  0.15639600  1
  B  B10  1  0.10348200  0.37369300  0.42219800  1
  B  B11  1  0.89651800  0.12630700  0.92219800  1
  B  B12  1  0.89651800  0.62630700  0.57780200  1
  B  B13  1  0.10348200  0.87369300  0.07780200  1
  B  B14  1  0.11677900  0.60469200  0.59307700  1
  B  B15  1  0.88322100  0.89530800  0.09307700  1
  B  B16  1  0.88322100  0.39530800  0.40692300  1
  B  B17  1  0.11677900  0.10469200  0.90692300  1
  B  B18  1  0.17312300  0.42899200  0.56634400  1
  B  B19  1  0.82687700  0.07100800  0.06634400  1
  B  B20  1  0.82687700  0.57100800  0.43365600  1
  B  B21  1  0.17312300  0.92899200  0.93365600  1
  B  B22  1  0.18928000  0.55154200  0.44344400  1
  B  B23  1  0.81072000  0.94845800  0.94344400  1
  B  B24  1  0.81072000  0.44845800  0.55655600  1
  B  B25  1  0.18928000  0.05154200  0.05655600  1
  H  H26  1  0.96287700  0.20806400  0.58322900  1
  H  H27  1  0.03712300  0.29193600  0.08322900  1
  H  H28  1  0.03712300  0.79193600  0.41677100  1
  H  H29  1  0.96287700  0.70806400  0.91677100  1
  H  H30  1  0.02274300  0.55131100  0.23781200  1
  H  H31  1  0.97725700  0.94868900  0.73781200  1
  H  H32  1  0.97725700  0.44868900  0.76218800  1
  H  H33  1  0.02274300  0.05131100  0.26218800  1
  H  H34  1  0.17526600  0.28959600  0.35953800  1
  H  H35  1  0.82473400  0.21040400  0.85953800  1
  H  H36  1  0.82473400  0.71040400  0.64046200  1
  H  H37  1  0.17526600  0.78959600  0.14046200  1
  H  H38  1  0.19482400  0.68608900  0.65587900  1
  H  H39  1  0.80517700  0.81391100  0.15587900  1
  H  H40  1  0.80517700  0.31391100  0.34412100  1
  H  H41  1  0.19482400  0.18608900  0.84412100  1
  H  H42  1  0.27504500  0.36798200  0.62393600  1
  H  H43  1  0.72495500  0.13201800  0.12393600  1
  H  H44  1  0.72495500  0.63201800  0.37606400  1
  H  H45  1  0.27504500  0.86798200  0.87606400  1
  H  H46  1  0.32373000  0.58221600  0.40676800  1
  H  H47  1  0.67627000  0.91778400  0.90676800  1
  H  H48  1  0.67627000  0.41778400  0.59323200  1
  H  H49  1  0.32373000  0.08221600  0.09323200  1
  O  O50  1  0.49582200  0.19347100  0.42770600  1
  O  O51  1  0.50417800  0.30652900  0.92770600  1
  O  O52  1  0.50417800  0.80652900  0.57229400  1
  O  O53  1  0.49582200  0.69347100  0.07229400  1
  O  O54  1  0.30197100  0.03709200  0.60066600  1
  O  O55  1  0.69802900  0.46290800  0.10066600  1
  O  O56  1  0.69802900  0.96290800  0.39933400  1
  O  O57  1  0.30197100  0.53709200  0.89933400  1
  O  O58  1  0.61851200  0.07659200  0.64500000  1
  O  O59  1  0.38148800  0.42340800  0.14500000  1
  O  O60  1  0.38148800  0.92340800  0.35500000  1
  O  O61  1  0.61851200  0.57659200  0.85500000  1
