# generated using pymatgen
data_FeAsNO4F
_symmetry_space_group_name_H-M   'P 1'
_cell_length_a   6.46685200
_cell_length_b   11.49327100
_cell_length_c   13.76449500
_cell_angle_alpha   90.00000000
_cell_angle_beta   90.00000000
_cell_angle_gamma   90.00000000
_symmetry_Int_Tables_number   1
_chemical_formula_structural   FeAsNO4F
_chemical_formula_sum   'Fe8 As8 N8 O32 F8'
_cell_volume   1023.04998007
_cell_formula_units_Z   8
loop_
 _symmetry_equiv_pos_site_id
 _symmetry_equiv_pos_as_xyz
  1  'x, y, z'
loop_
 _atom_site_type_symbol
 _atom_site_label
 _atom_site_symmetry_multiplicity
 _atom_site_fract_x
 _atom_site_fract_y
 _atom_site_fract_z
 _atom_site_occupancy
  Fe  Fe0  1  0.50407800  0.97471200  0.63960900  1
  Fe  Fe1  1  0.49592200  0.47471200  0.36039100  1
  Fe  Fe2  1  0.00407800  0.47471200  0.86039100  1
  Fe  Fe3  1  0.99592200  0.97471200  0.13960900  1
  Fe  Fe4  1  0.26606700  0.71029100  0.74491000  1
  Fe  Fe5  1  0.73393300  0.21029100  0.25509000  1
  Fe  Fe6  1  0.76606700  0.21029100  0.75509000  1
  Fe  Fe7  1  0.23393300  0.71029100  0.24491000  1
  As  As8  1  0.00450900  0.95931200  0.69796200  1
  As  As9  1  0.99549100  0.45931200  0.30203800  1
  As  As10  1  0.50450900  0.45931200  0.80203800  1
  As  As11  1  0.49549100  0.95931200  0.19796200  1
  As  As12  1  0.28778800  0.67234000  0.49268400  1
  As  As13  1  0.71221200  0.17234000  0.50731600  1
  As  As14  1  0.78778800  0.17234000  0.00731600  1
  As  As15  1  0.21221200  0.67234000  0.99268400  1
  N  N16  1  0.83304000  0.51642100  0.59745600  1
  N  N17  1  0.16696000  0.01642100  0.40254400  1
  N  N18  1  0.33304000  0.01642100  0.90254400  1
  N  N19  1  0.66696000  0.51642100  0.09745600  1
  N  N20  1  0.67802700  0.81029100  0.40642800  1
  N  N21  1  0.32197300  0.31029100  0.59357200  1
  N  N22  1  0.17802700  0.31029100  0.09357200  1
  N  N23  1  0.82197300  0.81029100  0.90642800  1
  O  O24  1  0.45393000  0.57743000  0.72903100  1
  O  O25  1  0.54607000  0.07743000  0.27096900  1
  O  O26  1  0.95393000  0.07743000  0.77096900  1
  O  O27  1  0.04607000  0.57743000  0.22903100  1
  O  O28  1  0.17940300  0.70733100  0.59901600  1
  O  O29  1  0.82059700  0.20733100  0.40098400  1
  O  O30  1  0.67940300  0.20733100  0.90098400  1
  O  O31  1  0.32059700  0.70733100  0.09901600  1
  O  O32  1  0.21194500  0.98413500  0.62227500  1
  O  O33  1  0.78805500  0.48413500  0.37772500  1
  O  O34  1  0.71194500  0.48413500  0.87772500  1
  O  O35  1  0.28805500  0.98413500  0.12227500  1
  O  O36  1  0.46791900  0.56639000  0.48578200  1
  O  O37  1  0.53208100  0.06639000  0.51421800  1
  O  O38  1  0.96791900  0.06639000  0.01421800  1
  O  O39  1  0.03208100  0.56639000  0.98578200  1
  O  O40  1  0.56627200  0.82036500  0.47241200  1
  O  O41  1  0.43372800  0.32036500  0.52758800  1
  O  O42  1  0.06627200  0.32036500  0.02758800  1
  O  O43  1  0.93372800  0.82036500  0.97241200  1
  O  O44  1  0.16013100  0.71636800  0.39287000  1
  O  O45  1  0.83986900  0.21636800  0.60713000  1
  O  O46  1  0.66013100  0.21636800  0.10713000  1
  O  O47  1  0.33986900  0.71636800  0.89287000  1
  O  O48  1  0.05805000  0.83826700  0.76779300  1
  O  O49  1  0.94195000  0.33826700  0.23220700  1
  O  O50  1  0.55805000  0.33826700  0.73220700  1
  O  O51  1  0.44195000  0.83826700  0.26779300  1
  O  O52  1  0.79445100  0.93780200  0.62362400  1
  O  O53  1  0.20554900  0.43780200  0.37637600  1
  O  O54  1  0.29445100  0.43780200  0.87637600  1
  O  O55  1  0.70554900  0.93780200  0.12362400  1
  F  F56  1  0.47830400  0.82697100  0.71254400  1
  F  F57  1  0.52169600  0.32697100  0.28745600  1
  F  F58  1  0.97830400  0.32697100  0.78745600  1
  F  F59  1  0.02169600  0.82697100  0.21254400  1
  F  F60  1  0.53147300  0.10011500  0.72989200  1
  F  F61  1  0.46852700  0.60011500  0.27010800  1
  F  F62  1  0.03147300  0.60011500  0.77010800  1
  F  F63  1  0.96852700  0.10011500  0.22989200  1
