# generated using pymatgen
data_UP2H8C2NO8
_symmetry_space_group_name_H-M   'P 1'
_cell_length_a   8.86288300
_cell_length_b   12.02852800
_cell_length_c   12.85031971
_cell_angle_alpha   90.00000000
_cell_angle_beta   127.66145971
_cell_angle_gamma   90.00000000
_symmetry_Int_Tables_number   1
_chemical_formula_structural   UP2H8C2NO8
_chemical_formula_sum   'U4 P8 H32 C8 N4 O32'
_cell_volume   1084.49175735
_cell_formula_units_Z   4
loop_
 _symmetry_equiv_pos_site_id
 _symmetry_equiv_pos_as_xyz
  1  'x, y, z'
loop_
 _atom_site_type_symbol
 _atom_site_label
 _atom_site_symmetry_multiplicity
 _atom_site_fract_x
 _atom_site_fract_y
 _atom_site_fract_z
 _atom_site_occupancy
  U  U0  1  0.06355400  0.36370200  0.72719600  1
  U  U1  1  0.06355400  0.13629800  0.22719600  1
  U  U2  1  0.93644600  0.63629800  0.27280400  1
  U  U3  1  0.93644600  0.86370200  0.77280400  1
  P  P4  1  0.94734800  0.63357100  0.58000600  1
  P  P5  1  0.94734800  0.86642900  0.08000600  1
  P  P6  1  0.05265200  0.36642900  0.41999400  1
  P  P7  1  0.05265200  0.13357100  0.91999400  1
  P  P8  1  0.17315900  0.60512800  0.95031200  1
  P  P9  1  0.17315900  0.89487200  0.45031200  1
  P  P10  1  0.82684100  0.39487200  0.04968800  1
  P  P11  1  0.82684100  0.10512800  0.54968800  1
  H  H12  1  0.60014700  0.48783000  0.69849600  1
  H  H13  1  0.60014700  0.01217000  0.19849600  1
  H  H14  1  0.39985300  0.51217000  0.30150400  1
  H  H15  1  0.39985300  0.98783000  0.80150400  1
  H  H16  1  0.53624400  0.61719700  0.62315900  1
  H  H17  1  0.53624400  0.88280300  0.12315900  1
  H  H18  1  0.46375600  0.38280300  0.37684100  1
  H  H19  1  0.46375600  0.11719700  0.87684100  1
  H  H20  1  0.36486200  0.54985900  0.63471300  1
  H  H21  1  0.36486200  0.95014100  0.13471300  1
  H  H22  1  0.63513800  0.45014100  0.36528700  1
  H  H23  1  0.63513800  0.04985900  0.86528700  1
  H  H24  1  0.47023100  0.75939100  0.76845100  1
  H  H25  1  0.47023100  0.74060900  0.26845100  1
  H  H26  1  0.52976900  0.24060900  0.23154900  1
  H  H27  1  0.52976900  0.25939100  0.73154900  1
  H  H28  1  0.61158900  0.71116300  0.93740600  1
  H  H29  1  0.61158900  0.78883700  0.43740600  1
  H  H30  1  0.38841100  0.28883700  0.06259400  1
  H  H31  1  0.38841100  0.21116300  0.56259400  1
  H  H32  1  0.37881600  0.64807400  0.79979200  1
  H  H33  1  0.37881600  0.85192600  0.29979200  1
  H  H34  1  0.62118400  0.35192600  0.20020800  1
  H  H35  1  0.62118400  0.14807400  0.70020800  1
  H  H36  1  0.77258300  0.59098800  0.54358700  1
  H  H37  1  0.77258300  0.90901200  0.04358700  1
  H  H38  1  0.22741700  0.40901200  0.45641300  1
  H  H39  1  0.22741700  0.09098800  0.95641300  1
  H  H40  1  0.31770300  0.64622200  0.94545400  1
  H  H41  1  0.31770300  0.85377800  0.44545400  1
  H  H42  1  0.68229700  0.35377800  0.05454600  1
  H  H43  1  0.68229700  0.14622200  0.55454600  1
  C  C44  1  0.51826800  0.56262400  0.68591600  1
  C  C45  1  0.51826800  0.93737600  0.18591600  1
  C  C46  1  0.48173200  0.43737600  0.31408400  1
  C  C47  1  0.48173200  0.06262400  0.81408400  1
  C  C48  1  0.51910800  0.68363500  0.83470300  1
  C  C49  1  0.51910800  0.81636500  0.33470300  1
  C  C50  1  0.48089200  0.31636500  0.16529700  1
  C  C51  1  0.48089200  0.18363500  0.66529700  1
  N  N52  1  0.61606100  0.61977800  0.80409500  1
  N  N53  1  0.61606100  0.88022200  0.30409500  1
  N  N54  1  0.38393900  0.38022200  0.19590500  1
  N  N55  1  0.38393900  0.11977800  0.69590500  1
  O  O56  1  0.02354800  0.24693600  0.85566200  1
  O  O57  1  0.02354800  0.25306400  0.35566200  1
  O  O58  1  0.97645200  0.75306400  0.14433800  1
  O  O59  1  0.97645200  0.74693600  0.64433800  1
  O  O60  1  0.10330200  0.54987300  0.67828900  1
  O  O61  1  0.10330200  0.95012700  0.17828900  1
  O  O62  1  0.89669800  0.45012700  0.32171100  1
  O  O63  1  0.89669800  0.04987300  0.82171100  1
  O  O64  1  0.00019700  0.18253500  0.63851900  1
  O  O65  1  0.00019700  0.31746500  0.13851900  1
  O  O66  1  0.99980300  0.81746500  0.36148100  1
  O  O67  1  0.99980300  0.68253500  0.86148100  1
  O  O68  1  0.12339900  0.48683100  0.89261500  1
  O  O69  1  0.12339900  0.01316900  0.39261500  1
  O  O70  1  0.87660100  0.51316900  0.10738500  1
  O  O71  1  0.87660100  0.98683100  0.60738500  1
  O  O72  1  0.31719600  0.33220900  0.83224200  1
  O  O73  1  0.31719600  0.16779100  0.33224200  1
  O  O74  1  0.68280400  0.66779100  0.16775800  1
  O  O75  1  0.68280400  0.83220900  0.66775800  1
  O  O76  1  0.80881500  0.39238600  0.62256600  1
  O  O77  1  0.80881500  0.10761400  0.12256600  1
  O  O78  1  0.19118500  0.60761400  0.37743400  1
  O  O79  1  0.19118500  0.89238600  0.87743400  1
  O  O80  1  0.06808400  0.35820300  0.54478100  1
  O  O81  1  0.06808400  0.14179700  0.04478100  1
  O  O82  1  0.93191600  0.64179700  0.45521900  1
  O  O83  1  0.93191600  0.85820300  0.95521900  1
  O  O84  1  0.24454900  0.60659000  0.09262800  1
  O  O85  1  0.24454900  0.89341000  0.59262800  1
  O  O86  1  0.75545100  0.39341000  0.90737200  1
  O  O87  1  0.75545100  0.10659000  0.40737200  1
