# generated using pymatgen
data_Co3P4H48(NO15)2
_symmetry_space_group_name_H-M   'P 1'
_cell_length_a   6.19672752
_cell_length_b   7.04126300
_cell_length_c   17.78336569
_cell_angle_alpha   101.41846615
_cell_angle_beta   90.87874117
_cell_angle_gamma   90.00000000
_symmetry_Int_Tables_number   1
_chemical_formula_structural   Co3P4H48(NO15)2
_chemical_formula_sum   'Co3 P4 H48 N2 O30'
_cell_volume   760.48691717
_cell_formula_units_Z   1
loop_
 _symmetry_equiv_pos_site_id
 _symmetry_equiv_pos_as_xyz
  1  'x, y, z'
loop_
 _atom_site_type_symbol
 _atom_site_label
 _atom_site_symmetry_multiplicity
 _atom_site_fract_x
 _atom_site_fract_y
 _atom_site_fract_z
 _atom_site_occupancy
  Co  Co0  1  0.24926200  0.83347000  0.66694100  1
  Co  Co1  1  0.75073800  0.16653000  0.33305900  1
  Co  Co2  1  0.00000000  0.50000000  0.00000000  1
  P  P3  1  0.65214900  0.95106100  0.90212300  1
  P  P4  1  0.34785100  0.04893900  0.09787700  1
  P  P5  1  0.62982600  0.29560700  0.59121400  1
  P  P6  1  0.37017400  0.70439300  0.40878600  1
  H  H7  1  0.67836100  0.99122200  0.98244500  1
  H  H8  1  0.32163900  0.00877800  0.01755500  1
  H  H9  1  0.42007600  0.27967500  0.55935100  1
  H  H10  1  0.57992400  0.72032500  0.44064900  1
  H  H11  1  0.63024200  0.91360400  0.59464800  1
  H  H12  1  0.63024200  0.68104500  0.59464800  1
  H  H13  1  0.36975800  0.08639600  0.40535200  1
  H  H14  1  0.36975800  0.31895500  0.40535200  1
  H  H15  1  0.20265900  0.96157500  0.53355100  1
  H  H16  1  0.20265900  0.57197600  0.53355100  1
  H  H17  1  0.79734100  0.03842500  0.46644900  1
  H  H18  1  0.79734100  0.42802400  0.46644900  1
  H  H19  1  0.00533500  0.04640900  0.58504300  1
  H  H20  1  0.00533500  0.53863400  0.58504300  1
  H  H21  1  0.99466500  0.95359100  0.41495700  1
  H  H22  1  0.99466500  0.46136600  0.41495700  1
  H  H23  1  0.80809200  0.84490200  0.68980500  1
  H  H24  1  0.19190800  0.15509800  0.31019500  1
  H  H25  1  0.92079100  0.88743400  0.77486800  1
  H  H26  1  0.07920900  0.11256600  0.22513200  1
  H  H27  1  0.44291300  0.53499100  0.71514900  1
  H  H28  1  0.44291300  0.18015700  0.71514900  1
  H  H29  1  0.55708700  0.46500900  0.28485100  1
  H  H30  1  0.55708700  0.81984300  0.28485100  1
  H  H31  1  0.41729400  0.69455000  0.79193300  1
  H  H32  1  0.41729400  0.09738300  0.79193300  1
  H  H33  1  0.58270600  0.30545000  0.20806700  1
  H  H34  1  0.58270600  0.90261700  0.20806700  1
  H  H35  1  0.96019200  0.86350200  0.08940600  1
  H  H36  1  0.96019200  0.22590400  0.08940600  1
  H  H37  1  0.03980800  0.13649800  0.91059400  1
  H  H38  1  0.03980800  0.77409600  0.91059400  1
  H  H39  1  0.71641300  0.78810100  0.08240100  1
  H  H40  1  0.71641300  0.29430000  0.08240100  1
  H  H41  1  0.28358700  0.21189900  0.91759900  1
  H  H42  1  0.28358700  0.70570000  0.91759900  1
  H  H43  1  0.65477100  0.56974300  0.90754800  1
  H  H44  1  0.65477100  0.33780500  0.90754800  1
  H  H45  1  0.34522900  0.43025700  0.09245200  1
  H  H46  1  0.34522900  0.66219500  0.09245200  1
  H  H47  1  0.84676200  0.36547500  0.73095000  1
  H  H48  1  0.15323800  0.63452500  0.26905000  1
  H  H49  1  0.08219400  0.25995700  0.75643900  1
  H  H50  1  0.08219400  0.49648200  0.75643900  1
  H  H51  1  0.91780600  0.74004300  0.24356100  1
  H  H52  1  0.91780600  0.50351800  0.24356100  1
  H  H53  1  0.93968200  0.41171800  0.82343600  1
  H  H54  1  0.06031800  0.58828200  0.17656400  1
  N  N55  1  0.98644000  0.38327500  0.76655100  1
  N  N56  1  0.01356000  0.61672500  0.23344900  1
  O  O57  1  0.52620500  0.75798700  0.88059300  1
  O  O58  1  0.52620500  0.12260500  0.88059300  1
  O  O59  1  0.47379500  0.24201300  0.11940700  1
  O  O60  1  0.47379500  0.87739500  0.11940700  1
  O  O61  1  0.88350000  0.93514500  0.87028900  1
  O  O62  1  0.11650000  0.06485500  0.12971100  1
  O  O63  1  0.60375800  0.33983800  0.67967600  1
  O  O64  1  0.39624200  0.66016200  0.32032400  1
  O  O65  1  0.74202800  0.46411000  0.56294600  1
  O  O66  1  0.74202800  0.09883600  0.56294600  1
  O  O67  1  0.25797200  0.53589000  0.43705400  1
  O  O68  1  0.25797200  0.90116400  0.43705400  1
  O  O69  1  0.58053500  0.81160900  0.62321700  1
  O  O70  1  0.41946500  0.18839100  0.37678300  1
  O  O71  1  0.15947500  0.00723900  0.58807700  1
  O  O72  1  0.15947500  0.58083800  0.58807700  1
  O  O73  1  0.84052500  0.99276100  0.41192300  1
  O  O74  1  0.84052500  0.41916200  0.41192300  1
  O  O75  1  0.94794400  0.85912000  0.71823900  1
  O  O76  1  0.05205600  0.14088000  0.28176100  1
  O  O77  1  0.34604800  0.64195800  0.74101100  1
  O  O78  1  0.34604800  0.09905300  0.74101100  1
  O  O79  1  0.65395200  0.35804200  0.25898900  1
  O  O80  1  0.65395200  0.90094700  0.25898900  1
  O  O81  1  0.86767300  0.74809600  0.06970400  1
  O  O82  1  0.86767300  0.32160800  0.06970400  1
  O  O83  1  0.13232700  0.25190400  0.93029600  1
  O  O84  1  0.13232700  0.67839200  0.93029600  1
  O  O85  1  0.74371200  0.45918000  0.91835900  1
  O  O86  1  0.25628800  0.54082000  0.08164100  1
