# generated using pymatgen
data_CaBePO5
_symmetry_space_group_name_H-M   'P 1'
_cell_length_a   7.76029100
_cell_length_b   4.91474200
_cell_length_c   9.79126446
_cell_angle_alpha   89.74045174
_cell_angle_beta   90.00000000
_cell_angle_gamma   90.00000000
_symmetry_Int_Tables_number   1
_chemical_formula_structural   CaBePO5
_chemical_formula_sum   'Ca4 Be4 P4 O20'
_cell_volume   373.43331196
_cell_formula_units_Z   4
loop_
 _symmetry_equiv_pos_site_id
 _symmetry_equiv_pos_as_xyz
  1  'x, y, z'
loop_
 _atom_site_type_symbol
 _atom_site_label
 _atom_site_symmetry_multiplicity
 _atom_site_fract_x
 _atom_site_fract_y
 _atom_site_fract_z
 _atom_site_occupancy
  Ca  Ca0  1  0.38236700  0.99707300  0.17011500  1
  Ca  Ca1  1  0.88236700  0.00292700  0.32988500  1
  Ca  Ca2  1  0.61763300  0.00292700  0.82988500  1
  Ca  Ca3  1  0.11763300  0.99707300  0.67011500  1
  Be  Be4  1  0.08647500  0.53973100  0.16200400  1
  Be  Be5  1  0.58647500  0.46026900  0.33799600  1
  Be  Be6  1  0.91352500  0.46026900  0.83799600  1
  Be  Be7  1  0.41352500  0.53973100  0.66200400  1
  P  P8  1  0.23152800  0.46959700  0.41750500  1
  P  P9  1  0.73152800  0.53040300  0.08249500  1
  P  P10  1  0.76847200  0.53040300  0.58249500  1
  P  P11  1  0.26847200  0.46959700  0.91750500  1
  O  O12  1  0.10272300  0.24451100  0.45663700  1
  O  O13  1  0.60272300  0.75548900  0.04336300  1
  O  O14  1  0.89727700  0.75548900  0.54336300  1
  O  O15  1  0.39727700  0.24451100  0.95663700  1
  O  O16  1  0.21839400  0.64470400  0.04306200  1
  O  O17  1  0.71839400  0.35529600  0.45693800  1
  O  O18  1  0.78160600  0.35529600  0.95693800  1
  O  O19  1  0.28160600  0.64470400  0.54306200  1
  O  O20  1  0.15661700  0.66930200  0.30745600  1
  O  O21  1  0.65661700  0.33069800  0.19254400  1
  O  O22  1  0.84338300  0.33069800  0.69254400  1
  O  O23  1  0.34338300  0.66930200  0.80745600  1
  O  O24  1  0.39565100  0.33246300  0.35739300  1
  O  O25  1  0.89565100  0.66753700  0.14260700  1
  O  O26  1  0.60434900  0.66753700  0.64260700  1
  O  O27  1  0.10434900  0.33246300  0.85739300  1
  O  O28  1  0.09408500  0.21432000  0.18618800  1
  O  O29  1  0.59408500  0.78568000  0.31381200  1
  O  O30  1  0.90591500  0.78568000  0.81381200  1
  O  O31  1  0.40591500  0.21432000  0.68618800  1
