# generated using pymatgen
data_Ga16Rh3
_symmetry_space_group_name_H-M   'P 1'
_cell_length_a   15.65893914
_cell_length_b   15.65893914
_cell_length_c   6.58349000
_cell_angle_alpha   90.00000000
_cell_angle_beta   90.00000000
_cell_angle_gamma   155.72901714
_symmetry_Int_Tables_number   1
_chemical_formula_structural   Ga16Rh3
_chemical_formula_sum   'Ga32 Rh6'
_cell_volume   663.55723705
_cell_formula_units_Z   2
loop_
 _symmetry_equiv_pos_site_id
 _symmetry_equiv_pos_as_xyz
  1  'x, y, z'
loop_
 _atom_site_type_symbol
 _atom_site_label
 _atom_site_symmetry_multiplicity
 _atom_site_fract_x
 _atom_site_fract_y
 _atom_site_fract_z
 _atom_site_occupancy
  Ga  Ga0  1  0.92028800  0.07971200  0.50000000  1
  Ga  Ga1  1  0.07971200  0.92028800  0.50000000  1
  Ga  Ga2  1  0.57971200  0.42028800  0.00000000  1
  Ga  Ga3  1  0.42028800  0.57971200  0.00000000  1
  Ga  Ga4  1  0.75908700  0.24091300  0.50000000  1
  Ga  Ga5  1  0.24091300  0.75908700  0.50000000  1
  Ga  Ga6  1  0.74091300  0.25908700  0.00000000  1
  Ga  Ga7  1  0.25908700  0.74091300  0.00000000  1
  Ga  Ga8  1  0.11587200  0.18321600  0.15084500  1
  Ga  Ga9  1  0.88412800  0.81678400  0.15084500  1
  Ga  Ga10  1  0.18321600  0.11587200  0.84915500  1
  Ga  Ga11  1  0.81678400  0.88412800  0.84915500  1
  Ga  Ga12  1  0.38412800  0.31678400  0.34915500  1
  Ga  Ga13  1  0.61587200  0.68321600  0.34915500  1
  Ga  Ga14  1  0.31678400  0.38412800  0.65084500  1
  Ga  Ga15  1  0.68321600  0.61587200  0.65084500  1
  Ga  Ga16  1  0.97222400  0.35178500  0.83811900  1
  Ga  Ga17  1  0.02777600  0.64821500  0.83811900  1
  Ga  Ga18  1  0.35178500  0.97222400  0.16188100  1
  Ga  Ga19  1  0.64821500  0.02777600  0.16188100  1
  Ga  Ga20  1  0.52777600  0.14821500  0.66188100  1
  Ga  Ga21  1  0.47222400  0.85178500  0.66188100  1
  Ga  Ga22  1  0.14821500  0.52777600  0.33811900  1
  Ga  Ga23  1  0.85178500  0.47222400  0.33811900  1
  Ga  Ga24  1  0.23290600  0.47723400  0.64635500  1
  Ga  Ga25  1  0.76709400  0.52276600  0.64635500  1
  Ga  Ga26  1  0.47723400  0.23290600  0.35364500  1
  Ga  Ga27  1  0.52276600  0.76709400  0.35364500  1
  Ga  Ga28  1  0.26709400  0.02276600  0.85364500  1
  Ga  Ga29  1  0.73290600  0.97723400  0.85364500  1
  Ga  Ga30  1  0.02276600  0.26709400  0.14635500  1
  Ga  Ga31  1  0.97723400  0.73290600  0.14635500  1
  Rh  Rh32  1  0.00000000  0.00000000  0.50000000  1
  Rh  Rh33  1  0.50000000  0.50000000  0.00000000  1
  Rh  Rh34  1  0.84016100  0.15983900  0.50000000  1
  Rh  Rh35  1  0.15983900  0.84016100  0.50000000  1
  Rh  Rh36  1  0.65983900  0.34016100  0.00000000  1
  Rh  Rh37  1  0.34016100  0.65983900  0.00000000  1
