# generated using pymatgen
data_Sr4Mn3O10
_symmetry_space_group_name_H-M   'P 1'
_cell_length_a   5.54223400
_cell_length_b   12.61368600
_cell_length_c   12.82642000
_cell_angle_alpha   90.00000000
_cell_angle_beta   90.00000000
_cell_angle_gamma   90.00000000
_symmetry_Int_Tables_number   1
_chemical_formula_structural   Sr4Mn3O10
_chemical_formula_sum   'Sr16 Mn12 O40'
_cell_volume   896.66936185
_cell_formula_units_Z   4
loop_
 _symmetry_equiv_pos_site_id
 _symmetry_equiv_pos_as_xyz
  1  'x, y, z'
loop_
 _atom_site_type_symbol
 _atom_site_label
 _atom_site_symmetry_multiplicity
 _atom_site_fract_x
 _atom_site_fract_y
 _atom_site_fract_z
 _atom_site_occupancy
  Sr  Sr0  1  0.75350100  0.26236600  0.10376900  1
  Sr  Sr1  1  0.75350100  0.73763400  0.89623100  1
  Sr  Sr2  1  0.24649900  0.73763400  0.60376900  1
  Sr  Sr3  1  0.24649900  0.26236600  0.39623100  1
  Sr  Sr4  1  0.25573900  0.76222200  0.10622900  1
  Sr  Sr5  1  0.25573900  0.23777800  0.89377100  1
  Sr  Sr6  1  0.74426100  0.23777800  0.60622900  1
  Sr  Sr7  1  0.74426100  0.76222200  0.39377100  1
  Sr  Sr8  1  0.74743800  0.47075900  0.35572600  1
  Sr  Sr9  1  0.74743800  0.52924100  0.64427400  1
  Sr  Sr10  1  0.25256200  0.52924100  0.85572600  1
  Sr  Sr11  1  0.25256200  0.47075900  0.14427400  1
  Sr  Sr12  1  0.24857700  0.97138000  0.35384400  1
  Sr  Sr13  1  0.24857700  0.02862000  0.64615600  1
  Sr  Sr14  1  0.75142300  0.02862000  0.85384400  1
  Sr  Sr15  1  0.75142300  0.97138000  0.14615600  1
  Mn  Mn16  1  0.74762100  0.13527000  0.34903600  1
  Mn  Mn17  1  0.74762100  0.86473000  0.65096400  1
  Mn  Mn18  1  0.25237900  0.86473000  0.84903600  1
  Mn  Mn19  1  0.25237900  0.13527000  0.15096400  1
  Mn  Mn20  1  0.24790400  0.63360500  0.34804500  1
  Mn  Mn21  1  0.24790400  0.36639500  0.65195500  1
  Mn  Mn22  1  0.75209600  0.36639500  0.84804500  1
  Mn  Mn23  1  0.75209600  0.63360500  0.15195500  1
  Mn  Mn24  1  0.75121300  0.00000000  0.50000000  1
  Mn  Mn25  1  0.24878700  0.00000000  0.00000000  1
  Mn  Mn26  1  0.24252500  0.50000000  0.50000000  1
  Mn  Mn27  1  0.75747500  0.50000000  0.00000000  1
  O  O28  1  0.51999200  0.10704100  0.46288500  1
  O  O29  1  0.51999200  0.89295900  0.53711500  1
  O  O30  1  0.48000800  0.89295900  0.96288500  1
  O  O31  1  0.48000800  0.10704100  0.03711500  1
  O  O32  1  0.52636200  0.60718700  0.03742500  1
  O  O33  1  0.52636200  0.39281300  0.96257500  1
  O  O34  1  0.47363800  0.39281300  0.53742500  1
  O  O35  1  0.47363800  0.60718700  0.46257500  1
  O  O36  1  0.01580400  0.60943900  0.46263400  1
  O  O37  1  0.01580400  0.39056100  0.53736600  1
  O  O38  1  0.98419600  0.39056100  0.96263400  1
  O  O39  1  0.98419600  0.60943900  0.03736600  1
  O  O40  1  0.02099200  0.10850800  0.03754100  1
  O  O41  1  0.02099200  0.89149200  0.96245900  1
  O  O42  1  0.97900800  0.89149200  0.53754100  1
  O  O43  1  0.97900800  0.10850800  0.46245900  1
  O  O44  1  0.50000000  0.12039600  0.25000000  1
  O  O45  1  0.50000000  0.87960400  0.75000000  1
  O  O46  1  0.00000000  0.62092700  0.25000000  1
  O  O47  1  0.00000000  0.37907200  0.75000000  1
  O  O48  1  0.00000000  0.12985800  0.25000000  1
  O  O49  1  0.00000000  0.87014200  0.75000000  1
  O  O50  1  0.50000000  0.61712800  0.25000000  1
  O  O51  1  0.50000000  0.38287200  0.75000000  1
  O  O52  1  0.75968600  0.46321200  0.14581200  1
  O  O53  1  0.75968600  0.53678800  0.85418800  1
  O  O54  1  0.24031400  0.53678800  0.64581200  1
  O  O55  1  0.24031400  0.46321200  0.35418800  1
  O  O56  1  0.24640900  0.96378300  0.14630300  1
  O  O57  1  0.24640900  0.03621700  0.85369700  1
  O  O58  1  0.75359100  0.03621700  0.64630300  1
  O  O59  1  0.75359100  0.96378300  0.35369700  1
  O  O60  1  0.73704600  0.27796700  0.36153000  1
  O  O61  1  0.73704600  0.72203300  0.63847000  1
  O  O62  1  0.26295400  0.72203300  0.86153000  1
  O  O63  1  0.26295400  0.27796700  0.13847000  1
  O  O64  1  0.25243200  0.77728500  0.35391100  1
  O  O65  1  0.25243200  0.22271500  0.64608900  1
  O  O66  1  0.74756800  0.22271500  0.85391100  1
  O  O67  1  0.74756800  0.77728500  0.14608900  1
