# generated using pymatgen
data_Cu2MoSeO7
_symmetry_space_group_name_H-M   'P 1'
_cell_length_a   9.15844300
_cell_length_b   8.34328800
_cell_length_c   8.47190380
_cell_angle_alpha   75.51441284
_cell_angle_beta   90.00000000
_cell_angle_gamma   90.00000000
_symmetry_Int_Tables_number   1
_chemical_formula_structural   Cu2MoSeO7
_chemical_formula_sum   'Cu8 Mo4 Se4 O28'
_cell_volume   626.77220278
_cell_formula_units_Z   4
loop_
 _symmetry_equiv_pos_site_id
 _symmetry_equiv_pos_as_xyz
  1  'x, y, z'
loop_
 _atom_site_type_symbol
 _atom_site_label
 _atom_site_symmetry_multiplicity
 _atom_site_fract_x
 _atom_site_fract_y
 _atom_site_fract_z
 _atom_site_occupancy
  Cu  Cu0  1  0.99350000  0.68791100  0.38188700  1
  Cu  Cu1  1  0.49350000  0.31208900  0.11811300  1
  Cu  Cu2  1  0.00650000  0.31208900  0.61811300  1
  Cu  Cu3  1  0.50650000  0.68791100  0.88188700  1
  Cu  Cu4  1  0.99359400  0.68522700  0.02652700  1
  Cu  Cu5  1  0.49359400  0.31477300  0.47347300  1
  Cu  Cu6  1  0.00640600  0.31477300  0.97347300  1
  Cu  Cu7  1  0.50640600  0.68522700  0.52652700  1
  Mo  Mo8  1  0.29071600  0.87702500  0.15784200  1
  Mo  Mo9  1  0.79071600  0.12297500  0.34215800  1
  Mo  Mo10  1  0.70928400  0.12297500  0.84215800  1
  Mo  Mo11  1  0.20928400  0.87702500  0.65784200  1
  Se  Se12  1  0.67185500  0.68392100  0.20505100  1
  Se  Se13  1  0.17185500  0.31607900  0.29494900  1
  Se  Se14  1  0.32814500  0.31607900  0.79494900  1
  Se  Se15  1  0.82814500  0.68392100  0.70505100  1
  O  O16  1  0.85744600  0.61903800  0.21971700  1
  O  O17  1  0.35744600  0.38096200  0.28028300  1
  O  O18  1  0.14255400  0.38096200  0.78028300  1
  O  O19  1  0.64255400  0.61903800  0.71971700  1
  O  O20  1  0.61253000  0.56574300  0.39307000  1
  O  O21  1  0.11253000  0.43425700  0.10693000  1
  O  O22  1  0.38747000  0.43425700  0.60693000  1
  O  O23  1  0.88747000  0.56574300  0.89307000  1
  O  O24  1  0.60722500  0.56607500  0.07749400  1
  O  O25  1  0.10722500  0.43392500  0.42250600  1
  O  O26  1  0.39277500  0.43392500  0.92250600  1
  O  O27  1  0.89277500  0.56607500  0.57749400  1
  O  O28  1  0.10526600  0.77989300  0.18060600  1
  O  O29  1  0.60526600  0.22010700  0.31939400  1
  O  O30  1  0.89473400  0.22010700  0.81939400  1
  O  O31  1  0.39473400  0.77989300  0.68060600  1
  O  O32  1  0.39097200  0.82333500  0.99748600  1
  O  O33  1  0.89097200  0.17666500  0.50251400  1
  O  O34  1  0.60902800  0.17666500  0.00251400  1
  O  O35  1  0.10902800  0.82333500  0.49748600  1
  O  O36  1  0.27143000  0.09460600  0.10792700  1
  O  O37  1  0.77143000  0.90539400  0.39207300  1
  O  O38  1  0.72857000  0.90539400  0.89207300  1
  O  O39  1  0.22857000  0.09460600  0.60792700  1
  O  O40  1  0.39569800  0.81589200  0.34074900  1
  O  O41  1  0.89569800  0.18410800  0.15925100  1
  O  O42  1  0.60430200  0.18410800  0.65925100  1
  O  O43  1  0.10430200  0.81589200  0.84074900  1
