# generated using pymatgen
data_PrP3(H5O7)2
_symmetry_space_group_name_H-M   'P 1'
_cell_length_a   7.71702700
_cell_length_b   8.99669498
_cell_length_c   9.79989610
_cell_angle_alpha   78.17375965
_cell_angle_beta   79.09054905
_cell_angle_gamma   66.58237612
_symmetry_Int_Tables_number   1
_chemical_formula_structural   PrP3(H5O7)2
_chemical_formula_sum   'Pr2 P6 H20 O28'
_cell_volume   606.67235677
_cell_formula_units_Z   2
loop_
 _symmetry_equiv_pos_site_id
 _symmetry_equiv_pos_as_xyz
  1  'x, y, z'
loop_
 _atom_site_type_symbol
 _atom_site_label
 _atom_site_symmetry_multiplicity
 _atom_site_fract_x
 _atom_site_fract_y
 _atom_site_fract_z
 _atom_site_occupancy
  Pr  Pr0  1  0.56985800  0.75522300  0.27151100  1
  Pr  Pr1  1  0.43014200  0.24477700  0.72848900  1
  P  P2  1  0.37176900  0.21817000  0.12696000  1
  P  P3  1  0.62823100  0.78183000  0.87304000  1
  P  P4  1  0.63544000  0.57655300  0.66308000  1
  P  P5  1  0.36456000  0.42344700  0.33692000  1
  P  P6  1  0.02371700  0.36951500  0.30772500  1
  P  P7  1  0.97628300  0.63048500  0.69227500  1
  H  H8  1  0.77607400  0.85141900  0.46585300  1
  H  H9  1  0.22392600  0.14858100  0.53414700  1
  H  H10  1  0.75241100  0.98501000  0.33275300  1
  H  H11  1  0.24758900  0.01499000  0.66724700  1
  H  H12  1  0.86961700  0.90921500  0.13141900  1
  H  H13  1  0.13038300  0.09078500  0.86858100  1
  H  H14  1  0.97213600  0.73563200  0.08024600  1
  H  H15  1  0.02786400  0.26436800  0.91975400  1
  H  H16  1  0.15027100  0.82790300  0.45112900  1
  H  H17  1  0.84972900  0.17209700  0.54887100  1
  H  H18  1  0.16312900  0.00010600  0.39163900  1
  H  H19  1  0.83687100  0.99989400  0.60836100  1
  H  H20  1  0.83926400  0.18138500  0.12403200  1
  H  H21  1  0.16073600  0.81861500  0.87596800  1
  H  H22  1  0.02678100  0.04752300  0.18286400  1
  H  H23  1  0.97321900  0.95247700  0.81713600  1
  H  H24  1  0.31270400  0.64199500  0.05564300  1
  H  H25  1  0.68729600  0.35800500  0.94435700  1
  H  H26  1  0.26965500  0.54025200  0.96382400  1
  H  H27  1  0.73034500  0.45974800  0.03617600  1
  O  O28  1  0.42815500  0.28774800  0.98011100  1
  O  O29  1  0.57184500  0.71225200  0.01988900  1
  O  O30  1  0.42696000  0.03709800  0.16575900  1
  O  O31  1  0.57304000  0.96290200  0.83424100  1
  O  O32  1  0.59225600  0.42999300  0.73837700  1
  O  O33  1  0.40774400  0.57000700  0.26162300  1
  O  O34  1  0.57553100  0.64889200  0.52059000  1
  O  O35  1  0.42446900  0.35110800  0.47941000  1
  O  O36  1  0.04241000  0.22240700  0.41892100  1
  O  O37  1  0.95759000  0.77759300  0.58107900  1
  O  O38  1  0.83131600  0.48748100  0.27400200  1
  O  O39  1  0.16868400  0.51251900  0.72599800  1
  O  O40  1  0.14329900  0.30876800  0.16075100  1
  O  O41  1  0.85670100  0.69123200  0.83924900  1
  O  O42  1  0.45051700  0.28011000  0.23786900  1
  O  O43  1  0.54948300  0.71989000  0.76213100  1
  O  O44  1  0.86311300  0.52721800  0.65796200  1
  O  O45  1  0.13688700  0.47278200  0.34203800  1
  O  O46  1  0.69441500  0.90926900  0.38992500  1
  O  O47  1  0.30558500  0.09073100  0.61007500  1
  O  O48  1  0.84663500  0.81347700  0.11431300  1
  O  O49  1  0.15336500  0.18652300  0.88568700  1
  O  O50  1  0.22009200  0.88383300  0.37825000  1
  O  O51  1  0.77990800  0.11616700  0.62175000  1
  O  O52  1  0.89207800  0.07168200  0.18191500  1
  O  O53  1  0.10792200  0.92831800  0.81808500  1
  O  O54  1  0.21826900  0.64639700  0.99863200  1
  O  O55  1  0.78173100  0.35360300  0.00136800  1
