# generated using pymatgen
data_HOs4C13O15
_symmetry_space_group_name_H-M   'P 1'
_cell_length_a   9.59013152
_cell_length_b   15.61100103
_cell_length_c   16.01051527
_cell_angle_alpha   104.81939632
_cell_angle_beta   107.42726101
_cell_angle_gamma   90.00000000
_symmetry_Int_Tables_number   1
_chemical_formula_structural   HOs4C13O15
_chemical_formula_sum   'H4 Os16 C52 O60'
_cell_volume   2203.22533925
_cell_formula_units_Z   4
loop_
 _symmetry_equiv_pos_site_id
 _symmetry_equiv_pos_as_xyz
  1  'x, y, z'
loop_
 _atom_site_type_symbol
 _atom_site_label
 _atom_site_symmetry_multiplicity
 _atom_site_fract_x
 _atom_site_fract_y
 _atom_site_fract_z
 _atom_site_occupancy
  H  H0  1  0.39599253  0.48519111  0.22002970  1
  H  H1  1  0.17596284  0.01480889  0.77997030  1
  H  H2  1  0.60400747  0.51480889  0.77997030  1
  H  H3  1  0.82403716  0.98519111  0.22002970  1
  Os  Os4  1  0.37804848  0.54869582  0.13764042  1
  Os  Os5  1  0.24040805  0.95130418  0.86235958  1
  Os  Os6  1  0.62195152  0.45130418  0.86235958  1
  Os  Os7  1  0.75959195  0.04869582  0.13764042  1
  Os  Os8  1  0.42018414  0.55297505  0.33407708  1
  Os  Os9  1  0.08610706  0.94702495  0.66592292  1
  Os  Os10  1  0.57981586  0.44702495  0.66592292  1
  Os  Os11  1  0.91389294  0.05297505  0.33407708  1
  Os  Os12  1  0.43172423  0.71313062  0.27811474  1
  Os  Os13  1  0.15360949  0.78686938  0.72188526  1
  Os  Os14  1  0.56827577  0.28686938  0.72188526  1
  Os  Os15  1  0.84639051  0.21313062  0.27811474  1
  Os  Os16  1  0.14756467  0.62939845  0.26024668  1
  Os  Os17  1  0.88731799  0.87060155  0.73975332  1
  Os  Os18  1  0.85243533  0.37060155  0.73975332  1
  Os  Os19  1  0.11268201  0.12939845  0.26024668  1
  C  C20  1  0.33397542  0.43028071  0.05556790  1
  C  C21  1  0.27840752  0.06971929  0.94443210  1
  C  C22  1  0.66602458  0.56971929  0.94443210  1
  C  C23  1  0.72159248  0.93028071  0.05556790  1
  C  C24  1  0.58064758  0.53976339  0.14985750  1
  C  C25  1  0.43079008  0.96023661  0.85014250  1
  C  C26  1  0.41935242  0.46023661  0.85014250  1
  C  C27  1  0.56920992  0.03976339  0.14985750  1
  C  C28  1  0.35534000  0.61195507  0.04702677  1
  C  C29  1  0.30831323  0.88804493  0.95297323  1
  C  C30  1  0.64466000  0.38804493  0.95297323  1
  C  C31  1  0.69168677  0.11195507  0.04702677  1
  C  C32  1  0.31369695  0.45327492  0.33863548  1
  C  C33  1  0.97506147  0.04672508  0.66136452  1
  C  C34  1  0.68630305  0.54672508  0.66136452  1
  C  C35  1  0.02493853  0.95327492  0.33863548  1
  C  C36  1  0.60376060  0.50256584  0.36580863  1
  C  C37  1  0.23795197  0.99743416  0.63419137  1
  C  C38  1  0.39623940  0.49743416  0.63419137  1
  C  C39  1  0.76204803  0.00256584  0.36580863  1
  C  C40  1  0.43512285  0.61502782  0.45636259  1
  C  C41  1  0.97876026  0.88497218  0.54363741  1
  C  C42  1  0.56487715  0.38497218  0.54363741  1
  C  C43  1  0.02123974  0.11502782  0.45636259  1
  C  C44  1  0.62361638  0.67235213  0.33060198  1
  C  C45  1  0.29301441  0.82764787  0.66939802  1
  C  C46  1  0.37638362  0.32764787  0.66939802  1
  C  C47  1  0.70698559  0.17235213  0.33060198  1
  C  C48  1  0.44243117  0.80650266  0.38608416  1
  C  C49  1  0.05634700  0.69349734  0.61391584  1
  C  C50  1  0.55756883  0.19349734  0.61391584  1
  C  C51  1  0.94365300  0.30650266  0.38608416  1
  C  C52  1  0.52354541  0.78117509  0.22177073  1
  C  C53  1  0.30177468  0.71882491  0.77822927  1
  C  C54  1  0.47645459  0.21882491  0.77822927  1
  C  C55  1  0.69822532  0.28117509  0.22177073  1
  C  C56  1  0.16179165  0.69992276  0.38023170  1
  C  C57  1  0.78155994  0.80007724  0.61976830  1
  C  C58  1  0.83820835  0.30007724  0.61976830  1
  C  C59  1  0.21844006  0.19992276  0.38023170  1
  C  C60  1  0.97463366  0.68641528  0.21425133  1
  C  C61  1  0.76038232  0.81358472  0.78574867  1
  C  C62  1  0.02536634  0.31358472  0.78574867  1
  C  C63  1  0.23961768  0.18641528  0.21425133  1
  C  C64  1  0.03898024  0.53731136  0.27670146  1
  C  C65  1  0.76227878  0.96268864  0.72329854  1
  C  C66  1  0.96101976  0.46268864  0.72329854  1
  C  C67  1  0.23772122  0.03731136  0.27670146  1
  C  C68  1  0.24544236  0.74539615  0.20106526  1
  C  C69  1  0.04437710  0.75460385  0.79893474  1
  C  C70  1  0.75455764  0.25460385  0.79893474  1
  C  C71  1  0.95562290  0.24539615  0.20106526  1
  O  O72  1  0.32265457  0.35962699  0.00735695  1
  O  O73  1  0.31529762  0.14037301  0.99264305  1
  O  O74  1  0.67734543  0.64037301  0.99264305  1
  O  O75  1  0.68470238  0.85962699  0.00735695  1
  O  O76  1  0.70503521  0.53463102  0.15821887  1
  O  O77  1  0.54681634  0.96536898  0.84178113  1
  O  O78  1  0.29496479  0.46536898  0.84178113  1
  O  O79  1  0.45318366  0.03463102  0.15821887  1
  O  O80  1  0.34804525  0.65178860  0.99425028  1
  O  O81  1  0.35379496  0.84821140  0.00574972  1
  O  O82  1  0.65195475  0.34821140  0.00574972  1
  O  O83  1  0.64620504  0.15178860  0.99425028  1
  O  O84  1  0.25038464  0.39295507  0.34507328  1
  O  O85  1  0.90531136  0.10704493  0.65492672  1
  O  O86  1  0.74961536  0.60704493  0.65492672  1
  O  O87  1  0.09468864  0.89295507  0.34507328  1
  O  O88  1  0.71582300  0.47297716  0.38740922  1
  O  O89  1  0.32841378  0.02702284  0.61259078  1
  O  O90  1  0.28417700  0.52702284  0.61259078  1
  O  O91  1  0.67158622  0.97297716  0.38740922  1
  O  O92  1  0.44444274  0.64899105  0.53152312  1
  O  O93  1  0.91291962  0.85100895  0.46847688  1
  O  O94  1  0.55555726  0.35100895  0.46847688  1
  O  O95  1  0.08708038  0.14899105  0.53152312  1
  O  O96  1  0.74937441  0.66386982  0.35439757  1
  O  O97  1  0.39497684  0.83613018  0.64560243  1
  O  O98  1  0.25062559  0.33613018  0.64560243  1
  O  O99  1  0.60502316  0.16386982  0.35439757  1
  O  O100  1  0.45131138  0.86465578  0.44972755  1
  O  O101  1  0.00158383  0.63534422  0.55027245  1
  O  O102  1  0.54868862  0.13534422  0.55027245  1
  O  O103  1  0.99841617  0.36465578  0.44972755  1
  O  O104  1  0.57765961  0.82379842  0.18863252  1
  O  O105  1  0.38902709  0.67620158  0.81136748  1
  O  O106  1  0.42234039  0.17620158  0.81136748  1
  O  O107  1  0.61097291  0.32379842  0.18863252  1
  O  O108  1  0.17059133  0.74180890  0.45313405  1
  O  O109  1  0.71745729  0.75819110  0.54686595  1
  O  O110  1  0.82940867  0.25819110  0.54686595  1
  O  O111  1  0.28254271  0.24180890  0.45313405  1
  O  O112  1  0.87363262  0.72560409  0.19257384  1
  O  O113  1  0.68105878  0.77439591  0.80742616  1
  O  O114  1  0.12636738  0.27439591  0.80742616  1
  O  O115  1  0.31894122  0.22560409  0.19257384  1
  O  O116  1  0.97236062  0.48252874  0.28935783  1
  O  O117  1  0.68300279  0.01747126  0.71064217  1
  O  O118  1  0.02763938  0.51747126  0.71064217  1
  O  O119  1  0.31699721  0.98252874  0.28935783  1
  O  O120  1  0.16691658  0.77865242  0.14941569  1
  O  O121  1  0.01750090  0.72134758  0.85058431  1
  O  O122  1  0.83308342  0.22134758  0.85058431  1
  O  O123  1  0.98249910  0.27865242  0.14941569  1
  O  O124  1  0.16701162  0.56283981  0.14057044  1
  O  O125  1  0.02644119  0.93716019  0.85942956  1
  O  O126  1  0.83298838  0.43716019  0.85942956  1
  O  O127  1  0.97355881  0.06283981  0.14057044  1
  O  O128  1  0.00177565  0.40444252  0.03251518  1
  O  O129  1  0.96926046  0.09555748  0.96748482  1
  O  O130  1  0.99822435  0.59555748  0.96748482  1
  O  O131  1  0.03073954  0.90444252  0.03251518  1
