# generated using pymatgen
data_MnP2O5
_symmetry_space_group_name_H-M   'P 1'
_cell_length_a   7.79261200
_cell_length_b   11.65402200
_cell_length_c   15.41111845
_cell_angle_alpha   60.10278589
_cell_angle_beta   90.00000000
_cell_angle_gamma   90.00000000
_symmetry_Int_Tables_number   1
_chemical_formula_structural   MnP2O5
_chemical_formula_sum   'Mn8 P16 O40'
_cell_volume   1213.31219071
_cell_formula_units_Z   8
loop_
 _symmetry_equiv_pos_site_id
 _symmetry_equiv_pos_as_xyz
  1  'x, y, z'
loop_
 _atom_site_type_symbol
 _atom_site_label
 _atom_site_symmetry_multiplicity
 _atom_site_fract_x
 _atom_site_fract_y
 _atom_site_fract_z
 _atom_site_occupancy
  Mn  Mn0  1  0.61040500  0.34670700  0.68280800  1
  Mn  Mn1  1  0.88959500  0.34670700  0.18280800  1
  Mn  Mn2  1  0.38959500  0.65329300  0.31719200  1
  Mn  Mn3  1  0.11040500  0.65329300  0.81719200  1
  Mn  Mn4  1  0.76417400  0.17941200  0.95469200  1
  Mn  Mn5  1  0.73582600  0.17941200  0.45469200  1
  Mn  Mn6  1  0.23582600  0.82058800  0.04530800  1
  Mn  Mn7  1  0.26417400  0.82058800  0.54530800  1
  P  P8  1  0.95327400  0.46852500  0.73271100  1
  P  P9  1  0.54672600  0.46852500  0.23271100  1
  P  P10  1  0.04672600  0.53147500  0.26728900  1
  P  P11  1  0.45327400  0.53147500  0.76728900  1
  P  P12  1  0.73253500  0.64299000  0.45625300  1
  P  P13  1  0.76746500  0.64299000  0.95625300  1
  P  P14  1  0.26746500  0.35701000  0.54374700  1
  P  P15  1  0.23253500  0.35701000  0.04374700  1
  P  P16  1  0.67770400  0.86420600  0.13561300  1
  P  P17  1  0.82229600  0.86420600  0.63561300  1
  P  P18  1  0.32229600  0.13579400  0.86438700  1
  P  P19  1  0.17770400  0.13579400  0.36438700  1
  P  P20  1  0.66357000  0.08038800  0.27728600  1
  P  P21  1  0.83643000  0.08038800  0.77728600  1
  P  P22  1  0.33643000  0.91961200  0.72271400  1
  P  P23  1  0.16357000  0.91961200  0.22271400  1
  O  O24  1  0.96711700  0.51307000  0.81016800  1
  O  O25  1  0.53288300  0.51307000  0.31016800  1
  O  O26  1  0.03288300  0.48693000  0.18983200  1
  O  O27  1  0.46711700  0.48693000  0.68983200  1
  O  O28  1  0.79710000  0.37500000  0.76130500  1
  O  O29  1  0.70290000  0.37500000  0.26130500  1
  O  O30  1  0.20290000  0.62500000  0.23869500  1
  O  O31  1  0.29710000  0.62500000  0.73869500  1
  O  O32  1  0.71775000  0.50514700  0.54507400  1
  O  O33  1  0.78225000  0.50514700  0.04507400  1
  O  O34  1  0.28225000  0.49485300  0.45492600  1
  O  O35  1  0.21775000  0.49485300  0.95492600  1
  O  O36  1  0.58787900  0.69150700  0.37864600  1
  O  O37  1  0.91212100  0.69150700  0.87864600  1
  O  O38  1  0.41212100  0.30849300  0.62135400  1
  O  O39  1  0.08787900  0.30849300  0.12135400  1
  O  O40  1  0.66485100  0.01114100  0.05710300  1
  O  O41  1  0.83514900  0.01114100  0.55710300  1
  O  O42  1  0.33514900  0.98885900  0.94289700  1
  O  O43  1  0.16485100  0.98885900  0.44289700  1
  O  O44  1  0.50104700  0.80177100  0.16691500  1
  O  O45  1  0.99895300  0.80177100  0.66691500  1
  O  O46  1  0.49895300  0.19822900  0.83308500  1
  O  O47  1  0.00104700  0.19822900  0.33308500  1
  O  O48  1  0.66764100  0.08008000  0.37523100  1
  O  O49  1  0.83235900  0.08008000  0.87523100  1
  O  O50  1  0.33235900  0.91992000  0.62476900  1
  O  O51  1  0.16764100  0.91992000  0.12476900  1
  O  O52  1  0.75426200  0.19745100  0.18865900  1
  O  O53  1  0.74573800  0.19745100  0.68865900  1
  O  O54  1  0.24573800  0.80254900  0.81134100  1
  O  O55  1  0.25426200  0.80254900  0.31134100  1
  O  O56  1  0.63137800  0.28303400  0.96010600  1
  O  O57  1  0.86862200  0.28303400  0.46010600  1
  O  O58  1  0.36862200  0.71696600  0.03989400  1
  O  O59  1  0.13137800  0.71696600  0.53989400  1
  O  O60  1  0.96769200  0.19189500  0.97333000  1
  O  O61  1  0.53230800  0.19189500  0.47333000  1
  O  O62  1  0.03230800  0.80810500  0.02667000  1
  O  O63  1  0.46769200  0.80810500  0.52667000  1
