# generated using pymatgen
data_Cr2XeF10
_symmetry_space_group_name_H-M   'P 1'
_cell_length_a   8.91576100
_cell_length_b   9.54503586
_cell_length_c   10.83094368
_cell_angle_alpha   104.20815244
_cell_angle_beta   98.35392413
_cell_angle_gamma   88.11725129
_symmetry_Int_Tables_number   1
_chemical_formula_structural   Cr2XeF10
_chemical_formula_sum   'Cr8 Xe4 F40'
_cell_volume   884.04710116
_cell_formula_units_Z   4
loop_
 _symmetry_equiv_pos_site_id
 _symmetry_equiv_pos_as_xyz
  1  'x, y, z'
loop_
 _atom_site_type_symbol
 _atom_site_label
 _atom_site_symmetry_multiplicity
 _atom_site_fract_x
 _atom_site_fract_y
 _atom_site_fract_z
 _atom_site_occupancy
  Cr  Cr0  1  0.21826300  0.91588200  0.37558600  1
  Cr  Cr1  1  0.78173700  0.08411800  0.62441400  1
  Cr  Cr2  1  0.29121000  0.75070600  0.02653100  1
  Cr  Cr3  1  0.70879000  0.24929400  0.97346900  1
  Cr  Cr4  1  0.41769800  0.66171000  0.71102300  1
  Cr  Cr5  1  0.58230200  0.33829000  0.28897700  1
  Cr  Cr6  1  0.39991300  0.25776300  0.55823400  1
  Cr  Cr7  1  0.60008700  0.74223700  0.44176600  1
  Xe  Xe8  1  0.07729900  0.51652700  0.27820100  1
  Xe  Xe9  1  0.92270100  0.48347300  0.72179900  1
  Xe  Xe10  1  0.19805800  0.11843000  0.93490200  1
  Xe  Xe11  1  0.80194200  0.88157000  0.06509800  1
  F  F12  1  0.07832200  0.30030300  0.24066800  1
  F  F13  1  0.92167800  0.69969700  0.75933200  1
  F  F14  1  0.06993800  0.75542500  0.32029400  1
  F  F15  1  0.93006200  0.24457500  0.67970600  1
  F  F16  1  0.08124600  0.02557700  0.31150400  1
  F  F17  1  0.91875400  0.97442300  0.68849600  1
  F  F18  1  0.36578300  0.07161500  0.42902300  1
  F  F19  1  0.63421700  0.92838500  0.57097700  1
  F  F20  1  0.37586500  0.78345400  0.42015100  1
  F  F21  1  0.62413500  0.21654600  0.57984900  1
  F  F22  1  0.16822300  0.95040000  0.53065200  1
  F  F23  1  0.83177700  0.04960000  0.46934800  1
  F  F24  1  0.28433600  0.85640300  0.20836700  1
  F  F25  1  0.71566400  0.14359700  0.79163300  1
  F  F26  1  0.10815900  0.67223100  0.01921700  1
  F  F27  1  0.89184100  0.32776900  0.98078300  1
  F  F28  1  0.40321700  0.61581500  0.07624200  1
  F  F29  1  0.59678300  0.38418500  0.92375800  1
  F  F30  1  0.43530700  0.87356700  0.02243700  1
  F  F31  1  0.56469300  0.12643300  0.97756300  1
  F  F32  1  0.15111600  0.90921900  0.96929000  1
  F  F33  1  0.84888400  0.09078100  0.03071000  1
  F  F34  1  0.22439100  0.31544800  0.90319200  1
  F  F35  1  0.77560900  0.68455200  0.09680800  1
  F  F36  1  0.29336100  0.65632200  0.84480900  1
  F  F37  1  0.70663900  0.34367800  0.15519100  1
  F  F38  1  0.58862700  0.65555700  0.81831800  1
  F  F39  1  0.41137300  0.34444300  0.18168200  1
  F  F40  1  0.54667100  0.65853200  0.57422400  1
  F  F41  1  0.45332900  0.34146800  0.42577600  1
  F  F42  1  0.25339600  0.61264800  0.59265000  1
  F  F43  1  0.74660400  0.38735200  0.40735000  1
  F  F44  1  0.39857800  0.85010600  0.73754600  1
  F  F45  1  0.60142200  0.14989400  0.26245400  1
  F  F46  1  0.44266100  0.43899200  0.67794000  1
  F  F47  1  0.55733900  0.56100800  0.32206000  1
  F  F48  1  0.38980100  0.17162000  0.68231400  1
  F  F49  1  0.61019900  0.82838000  0.31768600  1
  F  F50  1  0.20700700  0.29956300  0.52643200  1
  F  F51  1  0.79299300  0.70043700  0.47356800  1
