# generated using pymatgen
data_Er(PO3)3
_symmetry_space_group_name_H-M   'P 1'
_cell_length_a   20.29628300
_cell_length_b   10.18823800
_cell_length_c   11.44036504
_cell_angle_alpha   82.28146168
_cell_angle_beta   90.00000000
_cell_angle_gamma   90.00000000
_symmetry_Int_Tables_number   1
_chemical_formula_structural   Er(PO3)3
_chemical_formula_sum   'Er12 P36 O108'
_cell_volume   2344.24362499
_cell_formula_units_Z   12
loop_
 _symmetry_equiv_pos_site_id
 _symmetry_equiv_pos_as_xyz
  1  'x, y, z'
loop_
 _atom_site_type_symbol
 _atom_site_label
 _atom_site_symmetry_multiplicity
 _atom_site_fract_x
 _atom_site_fract_y
 _atom_site_fract_z
 _atom_site_occupancy
  Er  Er0  1  0.17597900  0.52365300  0.50252200  1
  Er  Er1  1  0.67597900  0.97634700  0.49747800  1
  Er  Er2  1  0.82402100  0.47634700  0.49747800  1
  Er  Er3  1  0.32402100  0.02365300  0.50252200  1
  Er  Er4  1  0.65586100  0.98343900  0.99917400  1
  Er  Er5  1  0.15586100  0.51656100  0.00082600  1
  Er  Er6  1  0.34413900  0.01656100  0.00082600  1
  Er  Er7  1  0.84413900  0.48343900  0.99917400  1
  Er  Er8  1  0.00000000  0.00000000  0.50000000  1
  Er  Er9  1  0.50000000  0.50000000  0.50000000  1
  Er  Er10  1  0.00000000  0.00000000  0.00000000  1
  Er  Er11  1  0.50000000  0.50000000  0.00000000  1
  P  P12  1  0.55281300  0.96888300  0.26707100  1
  P  P13  1  0.05281300  0.53111700  0.73292900  1
  P  P14  1  0.44718700  0.03111700  0.73292900  1
  P  P15  1  0.94718700  0.46888300  0.26707100  1
  P  P16  1  0.54181600  0.81811300  0.82412300  1
  P  P17  1  0.04181600  0.68188700  0.17587700  1
  P  P18  1  0.45818400  0.18188700  0.17587700  1
  P  P19  1  0.95818400  0.31811300  0.82412300  1
  P  P20  1  0.37606400  0.32150500  0.34761800  1
  P  P21  1  0.87606400  0.17849500  0.65238200  1
  P  P22  1  0.62393600  0.67849500  0.65238200  1
  P  P23  1  0.12393600  0.82150500  0.34761800  1
  P  P24  1  0.27357600  0.50650400  0.23908600  1
  P  P25  1  0.77357600  0.99349600  0.76091400  1
  P  P26  1  0.72642400  0.49349600  0.76091400  1
  P  P27  1  0.22642400  0.00650400  0.23908600  1
  P  P28  1  0.11686900  0.19185900  0.14721000  1
  P  P29  1  0.61686900  0.30814100  0.85279000  1
  P  P30  1  0.88313100  0.80814100  0.85279000  1
  P  P31  1  0.38313100  0.69185900  0.14721000  1
  P  P32  1  0.06442400  0.30927100  0.36102700  1
  P  P33  1  0.56442400  0.19072900  0.63897300  1
  P  P34  1  0.93557600  0.69072900  0.63897300  1
  P  P35  1  0.43557600  0.80927100  0.36102700  1
  P  P36  1  0.20905800  0.19538600  0.67252400  1
  P  P37  1  0.70905800  0.30461400  0.32747600  1
  P  P38  1  0.79094200  0.80461400  0.32747600  1
  P  P39  1  0.29094200  0.69538600  0.67252400  1
  P  P40  1  0.77801300  0.17750300  0.13515300  1
  P  P41  1  0.27801300  0.32249700  0.86484700  1
  P  P42  1  0.22198700  0.82249700  0.86484700  1
  P  P43  1  0.72198700  0.67750300  0.13515300  1
  P  P44  1  0.88947000  0.02102800  0.24655100  1
  P  P45  1  0.38947000  0.47897200  0.75344900  1
  P  P46  1  0.11053000  0.97897200  0.75344900  1
  P  P47  1  0.61053000  0.52102800  0.24655100  1
  O  O48  1  0.58900300  0.95424100  0.38197600  1
  O  O49  1  0.08900300  0.54575900  0.61802400  1
  O  O50  1  0.41099700  0.04575900  0.61802400  1
  O  O51  1  0.91099700  0.45424100  0.38197600  1
  O  O52  1  0.59077700  0.95782000  0.15647800  1
  O  O53  1  0.09077700  0.54218000  0.84352200  1
  O  O54  1  0.40922300  0.04218000  0.84352200  1
  O  O55  1  0.90922300  0.45782000  0.15647800  1
  O  O56  1  0.51633100  0.69214100  0.89048800  1
  O  O57  1  0.01633100  0.80785900  0.10951200  1
  O  O58  1  0.48366900  0.30785900  0.10951200  1
  O  O59  1  0.98366900  0.19214100  0.89048800  1
  O  O60  1  0.57519900  0.91617000  0.89067400  1
  O  O61  1  0.07519900  0.58383000  0.10932600  1
  O  O62  1  0.42480100  0.08383000  0.10932600  1
  O  O63  1  0.92480100  0.41617000  0.89067400  1
  O  O64  1  0.42438200  0.42048300  0.38258800  1
  O  O65  1  0.92438200  0.07951700  0.61741200  1
  O  O66  1  0.57561800  0.57951700  0.61741200  1
  O  O67  1  0.07561800  0.92048300  0.38258800  1
  O  O68  1  0.33703600  0.24047100  0.44251100  1
  O  O69  1  0.83703600  0.25952900  0.55748900  1
  O  O70  1  0.66296400  0.75952900  0.55748900  1
  O  O71  1  0.16296400  0.74047100  0.44251100  1
  O  O72  1  0.25632000  0.53204400  0.36194500  1
  O  O73  1  0.75632000  0.96795600  0.63805500  1
  O  O74  1  0.74368000  0.46795600  0.63805500  1
  O  O75  1  0.24368000  0.03204400  0.36194500  1
  O  O76  1  0.21821900  0.47505300  0.16118200  1
  O  O77  1  0.71821900  0.02494700  0.83881800  1
  O  O78  1  0.78178100  0.52494700  0.83881800  1
  O  O79  1  0.28178100  0.97505300  0.16118200  1
  O  O80  1  0.06740400  0.08917700  0.12403600  1
  O  O81  1  0.56740400  0.41082300  0.87596400  1
  O  O82  1  0.93259600  0.91082300  0.87596400  1
  O  O83  1  0.43259600  0.58917700  0.12403600  1
  O  O84  1  0.12174300  0.31164300  0.05620100  1
  O  O85  1  0.62174300  0.18835700  0.94379900  1
  O  O86  1  0.87825700  0.68835700  0.94379900  1
  O  O87  1  0.37825700  0.81164300  0.05620100  1
  O  O88  1  0.10319900  0.42454400  0.39332900  1
  O  O89  1  0.60319900  0.07545600  0.60667100  1
  O  O90  1  0.89680100  0.57545600  0.60667100  1
  O  O91  1  0.39680100  0.92454400  0.39332900  1
  O  O92  1  0.03913900  0.20777100  0.45796500  1
  O  O93  1  0.53913900  0.29222900  0.54203500  1
  O  O94  1  0.96086100  0.79222900  0.54203500  1
  O  O95  1  0.46086100  0.70777100  0.45796500  1
  O  O96  1  0.48330100  0.88903700  0.74461400  1
  O  O97  1  0.98330100  0.61096300  0.25538600  1
  O  O98  1  0.51669900  0.11096300  0.25538600  1
  O  O99  1  0.01669900  0.38903700  0.74461400  1
  O  O100  1  0.59113500  0.78702900  0.72282900  1
  O  O101  1  0.09113500  0.71297100  0.27717100  1
  O  O102  1  0.40886500  0.21297100  0.27717100  1
  O  O103  1  0.90886500  0.28702900  0.72282900  1
  O  O104  1  0.32778600  0.39056400  0.24489100  1
  O  O105  1  0.82778600  0.10943600  0.75510900  1
  O  O106  1  0.67221400  0.60943600  0.75510900  1
  O  O107  1  0.17221400  0.89056400  0.24489100  1
  O  O108  1  0.18941500  0.12945400  0.16384100  1
  O  O109  1  0.68941500  0.37054600  0.83615900  1
  O  O110  1  0.81058500  0.87054600  0.83615900  1
  O  O111  1  0.31058500  0.62945400  0.16384100  1
  O  O112  1  0.10850000  0.23199700  0.27688500  1
  O  O113  1  0.60850000  0.26800300  0.72311500  1
  O  O114  1  0.89150000  0.76800300  0.72311500  1
  O  O115  1  0.39150000  0.73199700  0.27688500  1
  O  O116  1  0.49434600  0.86192800  0.27141600  1
  O  O117  1  0.99434600  0.63807200  0.72858400  1
  O  O118  1  0.50565400  0.13807200  0.72858400  1
  O  O119  1  0.00565400  0.36192800  0.27141600  1
  O  O120  1  0.19404800  0.31971200  0.59148300  1
  O  O121  1  0.69404800  0.18028800  0.40851700  1
  O  O122  1  0.80595200  0.68028800  0.40851700  1
  O  O123  1  0.30595200  0.81971200  0.59148300  1
  O  O124  1  0.25672800  0.09817200  0.63258900  1
  O  O125  1  0.75672800  0.40182800  0.36741100  1
  O  O126  1  0.74327200  0.90182800  0.36741100  1
  O  O127  1  0.24327200  0.59817200  0.63258900  1
  O  O128  1  0.73941100  0.06476200  0.09762800  1
  O  O129  1  0.23941100  0.43523800  0.90237200  1
  O  O130  1  0.26058900  0.93523800  0.90237200  1
  O  O131  1  0.76058900  0.56476200  0.09762800  1
  O  O132  1  0.81321700  0.27037500  0.04275100  1
  O  O133  1  0.31321700  0.22962500  0.95724900  1
  O  O134  1  0.18678300  0.72962500  0.95724900  1
  O  O135  1  0.68678300  0.77037500  0.04275100  1
  O  O136  1  0.93436200  0.05170000  0.34323200  1
  O  O137  1  0.43436200  0.44830000  0.65676800  1
  O  O138  1  0.06563800  0.94830000  0.65676800  1
  O  O139  1  0.56563800  0.55170000  0.34323200  1
  O  O140  1  0.91632900  0.02124900  0.12438000  1
  O  O141  1  0.41632900  0.47875100  0.87562000  1
  O  O142  1  0.08367100  0.97875100  0.87562000  1
  O  O143  1  0.58367100  0.52124900  0.12438000  1
  O  O144  1  0.22986500  0.23254700  0.79894400  1
  O  O145  1  0.72986500  0.26745300  0.20105600  1
  O  O146  1  0.77013500  0.76745300  0.20105600  1
  O  O147  1  0.27013500  0.73254700  0.79894400  1
  O  O148  1  0.82801200  0.12232800  0.24112600  1
  O  O149  1  0.32801200  0.37767200  0.75887400  1
  O  O150  1  0.17198800  0.87767200  0.75887400  1
  O  O151  1  0.67198800  0.62232800  0.24112600  1
  O  O152  1  0.14095900  0.12293100  0.70957600  1
  O  O153  1  0.64095900  0.37706900  0.29042400  1
  O  O154  1  0.85904100  0.87706900  0.29042400  1
  O  O155  1  0.35904100  0.62293100  0.70957600  1
