# generated using pymatgen
data_Ga4HCl6
_symmetry_space_group_name_H-M   'P 1'
_cell_length_a   8.24374000
_cell_length_b   9.55975200
_cell_length_c   14.52859600
_cell_angle_alpha   90.00000000
_cell_angle_beta   90.00000000
_cell_angle_gamma   90.00000000
_symmetry_Int_Tables_number   1
_chemical_formula_structural   Ga4HCl6
_chemical_formula_sum   'Ga16 H4 Cl24'
_cell_volume   1144.97119102
_cell_formula_units_Z   4
loop_
 _symmetry_equiv_pos_site_id
 _symmetry_equiv_pos_as_xyz
  1  'x, y, z'
loop_
 _atom_site_type_symbol
 _atom_site_label
 _atom_site_symmetry_multiplicity
 _atom_site_fract_x
 _atom_site_fract_y
 _atom_site_fract_z
 _atom_site_occupancy
  Ga  Ga0  1  0.00513500  0.09483800  0.22769600  1
  Ga  Ga1  1  0.00513500  0.09483800  0.77230400  1
  Ga  Ga2  1  0.50513500  0.90516200  0.27230400  1
  Ga  Ga3  1  0.50513500  0.90516200  0.72769600  1
  Ga  Ga4  1  0.71707600  0.76712100  0.00000000  1
  Ga  Ga5  1  0.21707600  0.23287900  0.50000000  1
  Ga  Ga6  1  0.60495700  0.33789900  0.78241300  1
  Ga  Ga7  1  0.60495700  0.33789900  0.21758700  1
  Ga  Ga8  1  0.10495700  0.66210100  0.71758700  1
  Ga  Ga9  1  0.10495700  0.66210100  0.28241300  1
  Ga  Ga10  1  0.26957500  0.05930800  0.00000000  1
  Ga  Ga11  1  0.76957500  0.94069200  0.50000000  1
  Ga  Ga12  1  0.01858800  0.42673300  0.00000000  1
  Ga  Ga13  1  0.51858800  0.57326700  0.50000000  1
  Ga  Ga14  1  0.30513000  0.48683400  0.00000000  1
  Ga  Ga15  1  0.80513000  0.51316600  0.50000000  1
  H  H16  1  0.83550300  0.16383100  0.22091400  1
  H  H17  1  0.83550300  0.16383100  0.77908600  1
  H  H18  1  0.33550300  0.83616900  0.27908600  1
  H  H19  1  0.33550300  0.83616900  0.72091400  1
  Cl  Cl20  1  0.04125700  0.90216200  0.13929000  1
  Cl  Cl21  1  0.04125700  0.90216200  0.86071000  1
  Cl  Cl22  1  0.54125700  0.09783800  0.36071000  1
  Cl  Cl23  1  0.54125700  0.09783800  0.63929000  1
  Cl  Cl24  1  0.06711200  0.01151700  0.36933900  1
  Cl  Cl25  1  0.06711200  0.01151700  0.63066100  1
  Cl  Cl26  1  0.56711200  0.98848300  0.13066100  1
  Cl  Cl27  1  0.56711200  0.98848300  0.86933900  1
  Cl  Cl28  1  0.21262800  0.23630300  0.19283800  1
  Cl  Cl29  1  0.21262800  0.23630300  0.80716200  1
  Cl  Cl30  1  0.71262800  0.76369700  0.30716200  1
  Cl  Cl31  1  0.71262800  0.76369700  0.69283800  1
  Cl  Cl32  1  0.92606000  0.20732600  0.00000000  1
  Cl  Cl33  1  0.42606000  0.79267400  0.50000000  1
  Cl  Cl34  1  0.88300300  0.52941100  0.87866300  1
  Cl  Cl35  1  0.88300300  0.52941100  0.12133700  1
  Cl  Cl36  1  0.38300300  0.47058900  0.62133700  1
  Cl  Cl37  1  0.38300300  0.47058900  0.37866300  1
  Cl  Cl38  1  0.49797500  0.31637800  0.00000000  1
  Cl  Cl39  1  0.99797500  0.68362200  0.50000000  1
  Cl  Cl40  1  0.38857300  0.61533700  0.12259600  1
  Cl  Cl41  1  0.38857300  0.61533700  0.87740400  1
  Cl  Cl42  1  0.88857300  0.38466300  0.37740400  1
  Cl  Cl43  1  0.88857300  0.38466300  0.62259600  1
