# generated using pymatgen
data_ZnP2(H4O5)2
_symmetry_space_group_name_H-M   'P 1'
_cell_length_a   7.19194439
_cell_length_b   7.21504324
_cell_length_c   8.64364310
_cell_angle_alpha   100.93646201
_cell_angle_beta   106.82202200
_cell_angle_gamma   95.35756034
_symmetry_Int_Tables_number   1
_chemical_formula_structural   ZnP2(H4O5)2
_chemical_formula_sum   'Zn2 P4 H16 O20'
_cell_volume   416.25070303
_cell_formula_units_Z   2
loop_
 _symmetry_equiv_pos_site_id
 _symmetry_equiv_pos_as_xyz
  1  'x, y, z'
loop_
 _atom_site_type_symbol
 _atom_site_label
 _atom_site_symmetry_multiplicity
 _atom_site_fract_x
 _atom_site_fract_y
 _atom_site_fract_z
 _atom_site_occupancy
  Zn  Zn0  1  0.00000000  0.00000000  0.00000000  1
  Zn  Zn1  1  0.00000000  0.50000000  0.50000000  1
  P  P2  1  0.26123700  0.66829800  0.91834800  1
  P  P3  1  0.73876300  0.33170200  0.08165200  1
  P  P4  1  0.34863600  0.39717600  0.13247300  1
  P  P5  1  0.65136400  0.60282400  0.86752700  1
  H  H6  1  0.97523500  0.14213500  0.71940500  1
  H  H7  1  0.02476500  0.85786500  0.28059500  1
  H  H8  1  0.16040000  0.03065700  0.75428000  1
  H  H9  1  0.83960000  0.96934300  0.24572000  1
  H  H10  1  0.25808000  0.81739100  0.51681500  1
  H  H11  1  0.74192000  0.18260900  0.48318500  1
  H  H12  1  0.26804200  0.65843600  0.36697700  1
  H  H13  1  0.73195800  0.34156400  0.63302300  1
  H  H14  1  0.20282800  0.25690800  0.38265100  1
  H  H15  1  0.79717200  0.74309200  0.61734900  1
  H  H16  1  0.33738000  0.37154000  0.56606900  1
  H  H17  1  0.66262000  0.62846000  0.43393100  1
  H  H18  1  0.41672500  0.13193200  0.67142700  1
  H  H19  1  0.58327500  0.86806800  0.32857300  1
  H  H20  1  0.52004300  0.99800800  0.77466500  1
  H  H21  1  0.47995700  0.00199200  0.22533500  1
  O  O22  1  0.21856700  0.47281400  0.97780700  1
  O  O23  1  0.78143300  0.52718600  0.02219300  1
  O  O24  1  0.49542700  0.69571900  0.94803800  1
  O  O25  1  0.50457300  0.30428100  0.05196200  1
  O  O26  1  0.23150200  0.83688300  0.03578900  1
  O  O27  1  0.76849800  0.16311700  0.96421100  1
  O  O28  1  0.15095800  0.63267200  0.73882700  1
  O  O29  1  0.84904200  0.36732800  0.26117300  1
  O  O30  1  0.44483300  0.56313000  0.27881200  1
  O  O31  1  0.55516700  0.43687000  0.72118800  1
  O  O32  1  0.22236100  0.23629300  0.15834400  1
  O  O33  1  0.77763900  0.76370700  0.84165600  1
  O  O34  1  0.03497800  0.04535100  0.77636600  1
  O  O35  1  0.96502200  0.95464900  0.22363400  1
  O  O36  1  0.17452900  0.71744600  0.41871700  1
  O  O37  1  0.82547100  0.28255400  0.58128300  1
  O  O38  1  0.20249700  0.30755800  0.49695000  1
  O  O39  1  0.79750300  0.69244200  0.50305000  1
  O  O40  1  0.39600200  0.00322800  0.69090100  1
  O  O41  1  0.60399800  0.99677200  0.30909800  1
