# generated using pymatgen
data_CeH3CSO7
_symmetry_space_group_name_H-M   'P 1'
_cell_length_a   7.06156900
_cell_length_b   7.06156900
_cell_length_c   11.98405800
_cell_angle_alpha   90.00000000
_cell_angle_beta   90.00000000
_cell_angle_gamma   90.00000000
_symmetry_Int_Tables_number   1
_chemical_formula_structural   CeH3CSO7
_chemical_formula_sum   'Ce4 H12 C4 S4 O28'
_cell_volume   597.59412101
_cell_formula_units_Z   4
loop_
 _symmetry_equiv_pos_site_id
 _symmetry_equiv_pos_as_xyz
  1  'x, y, z'
loop_
 _atom_site_type_symbol
 _atom_site_label
 _atom_site_symmetry_multiplicity
 _atom_site_fract_x
 _atom_site_fract_y
 _atom_site_fract_z
 _atom_site_occupancy
  Ce  Ce0  1  0.13274000  0.39176600  0.47836400  1
  Ce  Ce1  1  0.86726000  0.60823400  0.97836400  1
  Ce  Ce2  1  0.39176600  0.86726000  0.72836400  1
  Ce  Ce3  1  0.60823400  0.13274000  0.22836400  1
  H  H4  1  0.64637100  0.48288600  0.51751600  1
  H  H5  1  0.35362900  0.51711400  0.01751600  1
  H  H6  1  0.48288600  0.35362900  0.76751600  1
  H  H7  1  0.51711400  0.64637100  0.26751600  1
  H  H8  1  0.89574200  0.31547600  0.69742900  1
  H  H9  1  0.10425800  0.68452400  0.19742900  1
  H  H10  1  0.31547600  0.10425800  0.94742900  1
  H  H11  1  0.68452400  0.89574200  0.44742900  1
  H  H12  1  0.96424600  0.11488800  0.65711300  1
  H  H13  1  0.03575400  0.88511200  0.15711300  1
  H  H14  1  0.11488800  0.03575400  0.90711300  1
  H  H15  1  0.88511200  0.96424600  0.40711300  1
  C  C16  1  0.64235800  0.39599400  0.44089700  1
  C  C17  1  0.35764200  0.60400600  0.94089700  1
  C  C18  1  0.39599400  0.35764200  0.69089700  1
  C  C19  1  0.60400600  0.64235800  0.19089700  1
  S  S20  1  0.11176400  0.25867600  0.17267500  1
  S  S21  1  0.88823600  0.74132400  0.67267500  1
  S  S22  1  0.25867600  0.88823600  0.42267500  1
  S  S23  1  0.74132400  0.11176400  0.92267500  1
  O  O24  1  0.28981300  0.16248900  0.13909200  1
  O  O25  1  0.71018700  0.83751100  0.63909200  1
  O  O26  1  0.16248900  0.71018700  0.38909200  1
  O  O27  1  0.83751100  0.28981300  0.88909200  1
  O  O28  1  0.14433700  0.37749200  0.27274800  1
  O  O29  1  0.85566300  0.62250800  0.77274800  1
  O  O30  1  0.37749200  0.85566300  0.52274800  1
  O  O31  1  0.62250800  0.14433700  0.02274800  1
  O  O32  1  0.04924600  0.38057300  0.07913300  1
  O  O33  1  0.95075400  0.61942700  0.57913300  1
  O  O34  1  0.38057300  0.95075400  0.32913300  1
  O  O35  1  0.61942700  0.04924600  0.82913300  1
  O  O36  1  0.96208600  0.11325800  0.19662600  1
  O  O37  1  0.03791400  0.88674200  0.69662600  1
  O  O38  1  0.11325800  0.03791400  0.44662600  1
  O  O39  1  0.88674200  0.96208600  0.94662600  1
  O  O40  1  0.48137100  0.34490900  0.40208700  1
  O  O41  1  0.51862900  0.65509100  0.90208700  1
  O  O42  1  0.34490900  0.51862900  0.65208700  1
  O  O43  1  0.65509100  0.48137100  0.15208700  1
  O  O44  1  0.79686700  0.35237600  0.39330500  1
  O  O45  1  0.20313300  0.64762400  0.89330500  1
  O  O46  1  0.35237600  0.20313300  0.64330500  1
  O  O47  1  0.64762400  0.79686700  0.14330500  1
  O  O48  1  0.93387900  0.24470600  0.63094600  1
  O  O49  1  0.06612100  0.75529400  0.13094600  1
  O  O50  1  0.24470600  0.06612100  0.88094600  1
  O  O51  1  0.75529400  0.93387900  0.38094600  1
