# generated using pymatgen
data_Nd2(SeO4)3
_symmetry_space_group_name_H-M   'P 1'
_cell_length_a   7.25350022
_cell_length_b   7.25350022
_cell_length_c   13.49026140
_cell_angle_alpha   76.35341823
_cell_angle_beta   76.35341823
_cell_angle_gamma   60.26618276
_symmetry_Int_Tables_number   1
_chemical_formula_structural   Nd2(SeO4)3
_chemical_formula_sum   'Nd4 Se6 O24'
_cell_volume   592.94199541
_cell_formula_units_Z   2
loop_
 _symmetry_equiv_pos_site_id
 _symmetry_equiv_pos_as_xyz
  1  'x, y, z'
loop_
 _atom_site_type_symbol
 _atom_site_label
 _atom_site_symmetry_multiplicity
 _atom_site_fract_x
 _atom_site_fract_y
 _atom_site_fract_z
 _atom_site_occupancy
  Nd  Nd0  1  0.70814000  0.70113400  0.82496700  1
  Nd  Nd1  1  0.29886600  0.29186000  0.67503300  1
  Nd  Nd2  1  0.29186000  0.29886600  0.17503300  1
  Nd  Nd3  1  0.70113400  0.70814000  0.32496700  1
  Se  Se4  1  0.77246300  0.82344600  0.56243600  1
  Se  Se5  1  0.17655400  0.22753700  0.93756400  1
  Se  Se6  1  0.22753700  0.17655400  0.43756400  1
  Se  Se7  1  0.82344600  0.77246300  0.06243600  1
  Se  Se8  1  0.82726600  0.17273400  0.75000000  1
  Se  Se9  1  0.17273400  0.82726600  0.25000000  1
  O  O10  1  0.55982400  0.91098500  0.66231400  1
  O  O11  1  0.08901500  0.44017600  0.83768600  1
  O  O12  1  0.44017600  0.08901500  0.33768600  1
  O  O13  1  0.91098500  0.55982400  0.16231400  1
  O  O14  1  0.94732800  0.61571400  0.64723800  1
  O  O15  1  0.38428600  0.05267200  0.85276200  1
  O  O16  1  0.05267200  0.38428600  0.35276200  1
  O  O17  1  0.61571400  0.94732800  0.14723800  1
  O  O18  1  0.69665000  0.69592300  0.50292700  1
  O  O19  1  0.30407700  0.30335000  0.99707300  1
  O  O20  1  0.30335000  0.30407700  0.49707300  1
  O  O21  1  0.69592300  0.69665000  0.00292700  1
  O  O22  1  0.86064500  0.93466100  0.81514400  1
  O  O23  1  0.06533900  0.13935500  0.68485600  1
  O  O24  1  0.13935500  0.06533900  0.18485600  1
  O  O25  1  0.93466100  0.86064500  0.31514400  1
  O  O26  1  0.73663400  0.34998800  0.83205300  1
  O  O27  1  0.65001200  0.26336600  0.66794700  1
  O  O28  1  0.26336600  0.65001200  0.16794700  1
  O  O29  1  0.34998800  0.73663400  0.33205300  1
  O  O30  1  0.33201000  0.76298800  0.89782400  1
  O  O31  1  0.23701200  0.66799000  0.60217600  1
  O  O32  1  0.66799000  0.23701200  0.10217600  1
  O  O33  1  0.76298800  0.33201000  0.39782400  1
