# generated using pymatgen
data_Cu2PHO5
_symmetry_space_group_name_H-M   'P 1'
_cell_length_a   5.94576611
_cell_length_b   8.12170382
_cell_length_c   8.51892800
_cell_angle_alpha   90.00000000
_cell_angle_beta   90.00000000
_cell_angle_gamma   90.13597974
_symmetry_Int_Tables_number   1
_chemical_formula_structural   Cu2PHO5
_chemical_formula_sum   'Cu8 P4 H4 O20'
_cell_volume   411.37575632
_cell_formula_units_Z   4
loop_
 _symmetry_equiv_pos_site_id
 _symmetry_equiv_pos_as_xyz
  1  'x, y, z'
loop_
 _atom_site_type_symbol
 _atom_site_label
 _atom_site_symmetry_multiplicity
 _atom_site_fract_x
 _atom_site_fract_y
 _atom_site_fract_z
 _atom_site_occupancy
  Cu  Cu0  1  0.25138200  0.50016700  0.00285600  1
  Cu  Cu1  1  0.75138200  0.00016700  0.49714400  1
  Cu  Cu2  1  0.74861800  0.49983300  0.99714400  1
  Cu  Cu3  1  0.24861800  0.99983300  0.50285600  1
  Cu  Cu4  1  0.98800100  0.86151700  0.87400600  1
  Cu  Cu5  1  0.48800100  0.36151700  0.62599400  1
  Cu  Cu6  1  0.01199900  0.13848300  0.12599400  1
  Cu  Cu7  1  0.51199900  0.63848300  0.37400600  1
  P  P8  1  0.49452000  0.73151300  0.75151000  1
  P  P9  1  0.99452000  0.23151300  0.74849000  1
  P  P10  1  0.50548000  0.26848700  0.24849000  1
  P  P11  1  0.00548000  0.76848700  0.25151000  1
  H  H12  1  0.01079000  0.57988700  0.79325200  1
  H  H13  1  0.51079000  0.07988700  0.70674800  1
  H  H14  1  0.98921000  0.42011300  0.20674800  1
  H  H15  1  0.48921000  0.92011300  0.29325200  1
  O  O16  1  0.49926800  0.63312300  0.91093100  1
  O  O17  1  0.99926800  0.13312300  0.58906900  1
  O  O18  1  0.50073200  0.36687700  0.08906900  1
  O  O19  1  0.00073200  0.86687700  0.41093100  1
  O  O20  1  0.29246900  0.84954200  0.74752800  1
  O  O21  1  0.79246900  0.34954200  0.75247200  1
  O  O22  1  0.70753100  0.15045800  0.25247200  1
  O  O23  1  0.20753100  0.65045800  0.24752800  1
  O  O24  1  0.47168800  0.60186000  0.61641200  1
  O  O25  1  0.97168800  0.10186000  0.88358800  1
  O  O26  1  0.52831200  0.39814000  0.38358800  1
  O  O27  1  0.02831200  0.89814000  0.11641200  1
  O  O28  1  0.00371500  0.62535300  0.90041800  1
  O  O29  1  0.50371500  0.12535300  0.59958200  1
  O  O30  1  0.99628500  0.37464700  0.09958200  1
  O  O31  1  0.49628500  0.87464700  0.40041800  1
  O  O32  1  0.71504000  0.83073300  0.73252100  1
  O  O33  1  0.21504000  0.33073300  0.76747900  1
  O  O34  1  0.28496000  0.16926700  0.26747900  1
  O  O35  1  0.78496000  0.66926700  0.23252100  1
