# generated using pymatgen
data_U3O10
_symmetry_space_group_name_H-M   'P 1'
_cell_length_a   5.85732300
_cell_length_b   19.85882100
_cell_length_c   8.23511462
_cell_angle_alpha   90.00000000
_cell_angle_beta   110.55991077
_cell_angle_gamma   90.00000000
_symmetry_Int_Tables_number   1
_chemical_formula_structural   U3O10
_chemical_formula_sum   'U12 O40'
_cell_volume   896.89138285
_cell_formula_units_Z   4
loop_
 _symmetry_equiv_pos_site_id
 _symmetry_equiv_pos_as_xyz
  1  'x, y, z'
loop_
 _atom_site_type_symbol
 _atom_site_label
 _atom_site_symmetry_multiplicity
 _atom_site_fract_x
 _atom_site_fract_y
 _atom_site_fract_z
 _atom_site_occupancy
  U  U0  1  0.23792900  0.26669200  0.77125000  1
  U  U1  1  0.76207100  0.76669200  0.72875000  1
  U  U2  1  0.76207100  0.73330800  0.22875000  1
  U  U3  1  0.23792900  0.23330800  0.27125000  1
  U  U4  1  0.19144900  0.06213600  0.75739700  1
  U  U5  1  0.80855100  0.56213600  0.74260300  1
  U  U6  1  0.80855100  0.93786400  0.24260300  1
  U  U7  1  0.19144900  0.43786400  0.25739700  1
  U  U8  1  0.30768800  0.85377100  0.84662500  1
  U  U9  1  0.69231200  0.35377100  0.65337500  1
  U  U10  1  0.69231200  0.14622900  0.15337500  1
  U  U11  1  0.30768800  0.64622900  0.34662500  1
  O  O12  1  0.45356800  0.26889500  0.56515400  1
  O  O13  1  0.54643200  0.76889500  0.93484600  1
  O  O14  1  0.54643200  0.73110500  0.43484600  1
  O  O15  1  0.45356800  0.23110500  0.06515400  1
  O  O16  1  0.95100700  0.30712600  0.85603400  1
  O  O17  1  0.04899300  0.80712600  0.64396600  1
  O  O18  1  0.04899300  0.69287400  0.14396600  1
  O  O19  1  0.95100700  0.19287400  0.35603400  1
  O  O20  1  0.29023100  0.07171500  0.56981200  1
  O  O21  1  0.70976900  0.57171500  0.93018800  1
  O  O22  1  0.70976900  0.92828500  0.43018800  1
  O  O23  1  0.29023100  0.42828500  0.06981200  1
  O  O24  1  0.15484500  0.05252700  0.96980800  1
  O  O25  1  0.84515500  0.55252700  0.53019200  1
  O  O26  1  0.84515500  0.94747300  0.03019200  1
  O  O27  1  0.15484500  0.44747300  0.46980800  1
  O  O28  1  0.56512300  0.84596000  0.68551700  1
  O  O29  1  0.43487700  0.34596000  0.81448300  1
  O  O30  1  0.43487700  0.15404000  0.31448300  1
  O  O31  1  0.56512300  0.65404000  0.18551700  1
  O  O32  1  0.03737200  0.81544600  0.93405800  1
  O  O33  1  0.96262800  0.31544600  0.56594200  1
  O  O34  1  0.96262800  0.18455400  0.06594200  1
  O  O35  1  0.03737200  0.68455400  0.43405800  1
  O  O36  1  0.09206600  0.18146700  0.72793300  1
  O  O37  1  0.90793400  0.68146700  0.77206700  1
  O  O38  1  0.90793400  0.81853300  0.27206700  1
  O  O39  1  0.09206600  0.31853300  0.22793300  1
  O  O40  1  0.22655500  0.94631900  0.75961200  1
  O  O41  1  0.77344500  0.44631900  0.74038800  1
  O  O42  1  0.77344500  0.05368100  0.24038800  1
  O  O43  1  0.22655500  0.55368100  0.25961200  1
  O  O44  1  0.47128300  0.60687300  0.59433700  1
  O  O45  1  0.52871700  0.10687300  0.90566300  1
  O  O46  1  0.52871700  0.39312700  0.40566300  1
  O  O47  1  0.47128300  0.89312700  0.09433700  1
  O  O48  1  0.13895200  0.54861700  0.87834500  1
  O  O49  1  0.86104800  0.04861700  0.62165500  1
  O  O50  1  0.86104800  0.45138300  0.12165500  1
  O  O51  1  0.13895200  0.95138300  0.37834500  1
