# generated using pymatgen
data_UCO6
_symmetry_space_group_name_H-M   'P 1'
_cell_length_a   8.07836468
_cell_length_b   8.07836468
_cell_length_c   10.70666544
_cell_angle_alpha   87.25363377
_cell_angle_beta   87.25363377
_cell_angle_gamma   63.29373394
_symmetry_Int_Tables_number   1
_chemical_formula_structural   UCO6
_chemical_formula_sum   'U4 C4 O24'
_cell_volume   623.18973336
_cell_formula_units_Z   4
loop_
 _symmetry_equiv_pos_site_id
 _symmetry_equiv_pos_as_xyz
  1  'x, y, z'
loop_
 _atom_site_type_symbol
 _atom_site_label
 _atom_site_symmetry_multiplicity
 _atom_site_fract_x
 _atom_site_fract_y
 _atom_site_fract_z
 _atom_site_occupancy
  U  U0  1  0.79907100  0.70780100  0.25269900  1
  U  U1  1  0.29219900  0.20092900  0.24730100  1
  U  U2  1  0.20092900  0.29219900  0.74730100  1
  U  U3  1  0.70780100  0.79907100  0.75269900  1
  C  C4  1  0.70626400  0.34212600  0.54201600  1
  C  C5  1  0.65787400  0.29373600  0.95798400  1
  C  C6  1  0.29373600  0.65787400  0.45798400  1
  C  C7  1  0.34212600  0.70626400  0.04201600  1
  O  O8  1  0.88628600  0.86623200  0.18101100  1
  O  O9  1  0.13376800  0.11371400  0.31898900  1
  O  O10  1  0.11371400  0.13376800  0.81898900  1
  O  O11  1  0.86623200  0.88628600  0.68101100  1
  O  O12  1  0.04255100  0.48059400  0.27556200  1
  O  O13  1  0.51940600  0.95744900  0.22443800  1
  O  O14  1  0.95744900  0.51940600  0.72443800  1
  O  O15  1  0.48059400  0.04255100  0.77556200  1
  O  O16  1  0.38187700  0.71271500  0.39372100  1
  O  O17  1  0.28728500  0.61812300  0.10627900  1
  O  O18  1  0.61812300  0.28728500  0.60627900  1
  O  O19  1  0.71271500  0.38187700  0.89372100  1
  O  O20  1  0.79294400  0.39849600  0.47781300  1
  O  O21  1  0.60150400  0.20705600  0.02218700  1
  O  O22  1  0.20705600  0.60150400  0.52218700  1
  O  O23  1  0.39849600  0.79294400  0.97781300  1
  O  O24  1  0.72397800  0.55054200  0.18372500  1
  O  O25  1  0.44945800  0.27602200  0.31627500  1
  O  O26  1  0.27602200  0.44945800  0.81627500  1
  O  O27  1  0.55054200  0.72397800  0.68372500  1
  O  O28  1  0.77919300  0.83190200  0.39606100  1
  O  O29  1  0.16809800  0.22080700  0.10393900  1
  O  O30  1  0.22080700  0.16809800  0.60393900  1
  O  O31  1  0.83190200  0.77919300  0.89606100  1
