# generated using pymatgen
data_Na4ZnP3H32C3NO22
_symmetry_space_group_name_H-M   'P 1'
_cell_length_a   11.24458300
_cell_length_b   11.38539963
_cell_length_c   12.52294774
_cell_angle_alpha   109.00788668
_cell_angle_beta   97.13379322
_cell_angle_gamma   117.17010349
_symmetry_Int_Tables_number   1
_chemical_formula_structural   Na4ZnP3H32C3NO22
_chemical_formula_sum   'Na8 Zn2 P6 H64 C6 N2 O44'
_cell_volume   1275.60244490
_cell_formula_units_Z   2
loop_
 _symmetry_equiv_pos_site_id
 _symmetry_equiv_pos_as_xyz
  1  'x, y, z'
loop_
 _atom_site_type_symbol
 _atom_site_label
 _atom_site_symmetry_multiplicity
 _atom_site_fract_x
 _atom_site_fract_y
 _atom_site_fract_z
 _atom_site_occupancy
  Na  Na0  1  0.01668800  0.41697400  0.80654400  1
  Na  Na1  1  0.98331200  0.58302600  0.19345600  1
  Na  Na2  1  0.82709800  0.45305300  0.41215400  1
  Na  Na3  1  0.17290200  0.54694700  0.58784600  1
  Na  Na4  1  0.75973600  0.47061900  0.68786900  1
  Na  Na5  1  0.24026400  0.52938100  0.31213100  1
  Na  Na6  1  0.38301100  0.81411800  0.97370900  1
  Na  Na7  1  0.61698900  0.18588200  0.02629100  1
  Zn  Zn8  1  0.92325700  0.89431200  0.86062200  1
  Zn  Zn9  1  0.07674300  0.10568800  0.13937800  1
  P  P10  1  0.05207200  0.78914200  0.68323000  1
  P  P11  1  0.94792800  0.21085800  0.31677000  1
  P  P12  1  0.12929800  0.24038600  0.93441000  1
  P  P13  1  0.87070200  0.75961400  0.06559000  1
  P  P14  1  0.67695900  0.84830900  0.68365900  1
  P  P15  1  0.32304100  0.15169100  0.31634100  1
  H  H16  1  0.66609900  0.92377400  0.94087500  1
  H  H17  1  0.33390100  0.07622600  0.05912500  1
  H  H18  1  0.69830600  0.99913300  0.08075600  1
  H  H19  1  0.30169400  0.00086700  0.91924400  1
  H  H20  1  0.08106500  0.70838400  0.86568400  1
  H  H21  1  0.91893500  0.29161600  0.13431600  1
  H  H22  1  0.76746900  0.24829800  0.57982600  1
  H  H23  1  0.23253100  0.75170200  0.42017400  1
  H  H24  1  0.62752400  0.63425500  0.76677600  1
  H  H25  1  0.37247600  0.36574500  0.23322400  1
  H  H26  1  0.66296000  0.56865900  0.53929900  1
  H  H27  1  0.33704000  0.43134100  0.46070100  1
  H  H28  1  0.37078800  0.51822600  0.96928600  1
  H  H29  1  0.62921200  0.48177400  0.03071400  1
  H  H30  1  0.56774600  0.18612400  0.26217500  1
  H  H31  1  0.43225400  0.81387600  0.73782500  1
  H  H32  1  0.53222200  0.15713200  0.46975900  1
  H  H33  1  0.46777800  0.84286800  0.53024100  1
  H  H34  1  0.85134400  0.50320300  0.92843500  1
  H  H35  1  0.14865600  0.49679700  0.07156500  1
  H  H36  1  0.64560700  0.57619800  0.86031700  1
  H  H37  1  0.35439300  0.42380200  0.13968300  1
  H  H38  1  0.69751100  0.17394700  0.24095600  1
  H  H39  1  0.30248900  0.82605300  0.75904400  1
  H  H40  1  0.56530300  0.40066300  0.47659500  1
  H  H41  1  0.43469700  0.59933700  0.52340500  1
  H  H42  1  0.90209400  0.31385000  0.53824600  1
  H  H43  1  0.09790600  0.68615000  0.46175400  1
  H  H44  1  0.51662500  0.63885100  0.97400400  1
  H  H45  1  0.48337500  0.36114900  0.02599600  1
  H  H46  1  0.08199300  0.69033500  0.98180800  1
  H  H47  1  0.91800700  0.30966500  0.01819200  1
  H  H48  1  0.24087400  0.38199500  0.68470200  1
  H  H49  1  0.75912600  0.61800500  0.31529800  1
  H  H50  1  0.52083500  0.13636800  0.58683300  1
  H  H51  1  0.47916500  0.86363200  0.41316700  1
  H  H52  1  0.74490200  0.32891400  0.84954500  1
  H  H53  1  0.25509800  0.67108600  0.15045500  1
  H  H54  1  0.64714100  0.70582900  0.43694300  1
  H  H55  1  0.35285900  0.29417100  0.56305700  1
  H  H56  1  0.30998500  0.01861700  0.68890000  1
  H  H57  1  0.69001500  0.98138300  0.31110000  1
  H  H58  1  0.47150000  0.85239400  0.22058800  1
  H  H59  1  0.52850000  0.14760600  0.77941200  1
  H  H60  1  0.28672200  0.52286100  0.79393700  1
  H  H61  1  0.71327800  0.47713900  0.20606300  1
  H  H62  1  0.38794500  0.92973100  0.21990000  1
  H  H63  1  0.61205500  0.07026900  0.78010000  1
  H  H64  1  0.55853700  0.60446500  0.30197600  1
  H  H65  1  0.44146300  0.39553500  0.69802400  1
  H  H66  1  0.35586800  0.16205400  0.66378400  1
  H  H67  1  0.64413200  0.83794600  0.33621600  1
  H  H68  1  0.18485600  0.10567000  0.78294400  1
  H  H69  1  0.81514400  0.89433000  0.21705600  1
  H  H70  1  0.02813900  0.92308200  0.57150500  1
  H  H71  1  0.97186100  0.07691800  0.42849500  1
  H  H72  1  0.86333700  0.78565200  0.56728600  1
  H  H73  1  0.13666300  0.21434800  0.43271400  1
  H  H74  1  0.10744000  0.18685800  0.72446300  1
  H  H75  1  0.89256000  0.81314200  0.27553700  1
  H  H76  1  0.86079600  0.09891400  0.75468300  1
  H  H77  1  0.13920400  0.90108600  0.24531700  1
  H  H78  1  0.83093600  0.00170400  0.60065500  1
  H  H79  1  0.16906400  0.99829600  0.39934500  1
  C  C80  1  0.97109700  0.87372100  0.62582700  1
  C  C81  1  0.02890300  0.12627900  0.37417300  1
  C  C82  1  0.09877400  0.12646700  0.77918400  1
  C  C83  1  0.90122600  0.87353300  0.22081600  1
  C  C84  1  0.84213300  0.99637700  0.68749100  1
  C  C85  1  0.15786700  0.00362300  0.31250900  1
  N  N86  1  0.96374900  0.98277300  0.72494700  1
  N  N87  1  0.03625100  0.01722700  0.27505300  1
  O  O88  1  0.20921000  0.90787400  0.75346300  1
  O  O89  1  0.79079000  0.09212600  0.24653700  1
  O  O90  1  0.02900400  0.65749800  0.57709200  1
  O  O91  1  0.97099600  0.34250200  0.42290800  1
  O  O92  1  0.97022300  0.74281600  0.76934300  1
  O  O93  1  0.02977700  0.25718400  0.23065700  1
  O  O94  1  0.06812800  0.12085000  0.98292000  1
  O  O95  1  0.93187200  0.87915000  0.01708000  1
  O  O96  1  0.28958200  0.34792800  0.99203800  1
  O  O97  1  0.71041800  0.65207200  0.00796200  1
  O  O98  1  0.04665700  0.31736100  0.93802400  1
  O  O99  1  0.95334300  0.68263900  0.06197600  1
  O  O100  1  0.62698800  0.70670300  0.57237100  1
  O  O101  1  0.37301200  0.29329700  0.42762900  1
  O  O102  1  0.57013100  0.89651700  0.68204600  1
  O  O103  1  0.42986900  0.10348300  0.31795400  1
  O  O104  1  0.71828100  0.83526900  0.80141000  1
  O  O105  1  0.28171900  0.16473100  0.19859000  1
  O  O106  1  0.81917800  0.42122400  0.84973100  1
  O  O107  1  0.18082200  0.57877600  0.15026900  1
  O  O108  1  0.66713800  0.47862000  0.51141900  1
  O  O109  1  0.33286200  0.52138000  0.48858100  1
  O  O110  1  0.63079100  0.96320800  0.00245300  1
  O  O111  1  0.36920900  0.03679200  0.99754700  1
  O  O112  1  0.12462300  0.67915300  0.91727500  1
  O  O113  1  0.87537700  0.32084700  0.08272500  1
  O  O114  1  0.65297500  0.23185000  0.23899700  1
  O  O115  1  0.34702500  0.76815000  0.76100300  1
  O  O116  1  0.38662800  0.84025400  0.17070800  1
  O  O117  1  0.61337200  0.15974600  0.82929200  1
  O  O118  1  0.61081100  0.54341000  0.77175900  1
  O  O119  1  0.38918900  0.45659000  0.22824100  1
  O  O120  1  0.65377600  0.69333200  0.35556700  1
  O  O121  1  0.34622400  0.30666800  0.64443300  1
  O  O122  1  0.20462400  0.44492800  0.72201300  1
  O  O123  1  0.79537600  0.55507200  0.27798700  1
  O  O124  1  0.41595900  0.60600900  0.95354600  1
  O  O125  1  0.58404100  0.39399100  0.04645400  1
  O  O126  1  0.58803300  0.19279500  0.55349800  1
  O  O127  1  0.41196700  0.80720500  0.44650200  1
  O  O128  1  0.87094000  0.32020300  0.60960400  1
  O  O129  1  0.12906000  0.67979700  0.39039600  1
  O  O130  1  0.38117600  0.08956300  0.66605200  1
  O  O131  1  0.61882400  0.91043700  0.33394800  1
