# generated using pymatgen
data_CoH20C4SO10
_symmetry_space_group_name_H-M   'P 1'
_cell_length_a   13.51475258
_cell_length_b   13.51475258
_cell_length_c   13.51475267
_cell_angle_alpha   72.53700472
_cell_angle_beta   72.53700472
_cell_angle_gamma   72.53700378
_symmetry_Int_Tables_number   1
_chemical_formula_structural   CoH20C4SO10
_chemical_formula_sum   'Co6 H120 C24 S6 O60'
_cell_volume   2185.50092752
_cell_formula_units_Z   6
loop_
 _symmetry_equiv_pos_site_id
 _symmetry_equiv_pos_as_xyz
  1  'x, y, z'
loop_
 _atom_site_type_symbol
 _atom_site_label
 _atom_site_symmetry_multiplicity
 _atom_site_fract_x
 _atom_site_fract_y
 _atom_site_fract_z
 _atom_site_occupancy
  Co  Co0  1  0.42230758  0.07769771  0.75004003  1
  Co  Co1  1  0.07769771  0.75004003  0.42230758  1
  Co  Co2  1  0.75004003  0.42230758  0.07769771  1
  Co  Co3  1  0.92230758  0.25004003  0.57769771  1
  Co  Co4  1  0.25004003  0.57769771  0.92230758  1
  Co  Co5  1  0.57769771  0.92230758  0.25004003  1
  H  H6  1  0.58998923  0.08194311  0.81806580  1
  H  H7  1  0.08194311  0.81806580  0.58998923  1
  H  H8  1  0.81806580  0.58998923  0.08194311  1
  H  H9  1  0.08998923  0.31806580  0.58194311  1
  H  H10  1  0.31806580  0.58194311  0.08998923  1
  H  H11  1  0.58194311  0.08998923  0.31806580  1
  H  H12  1  0.40969467  0.91817653  0.18177449  1
  H  H13  1  0.91817653  0.18177449  0.40969467  1
  H  H14  1  0.18177449  0.40969467  0.91817653  1
  H  H15  1  0.90969467  0.68177449  0.41817653  1
  H  H16  1  0.68177449  0.41817653  0.90969467  1
  H  H17  1  0.41817653  0.90969467  0.68177449  1
  H  H18  1  0.58298632  0.13654067  0.57732597  1
  H  H19  1  0.13654067  0.57732597  0.58298632  1
  H  H20  1  0.57732597  0.58298632  0.13654067  1
  H  H21  1  0.08298632  0.07732597  0.63654067  1
  H  H22  1  0.07732597  0.63654067  0.08298632  1
  H  H23  1  0.63654067  0.08298632  0.07732597  1
  H  H24  1  0.41700222  0.86346438  0.42270927  1
  H  H25  1  0.86346438  0.42270927  0.41700222  1
  H  H26  1  0.42270927  0.41700222  0.86346438  1
  H  H27  1  0.91700222  0.92270927  0.36346438  1
  H  H28  1  0.92270927  0.36346438  0.91700222  1
  H  H29  1  0.36346438  0.91700222  0.92270927  1
  H  H30  1  0.58631470  0.93055772  0.95881074  1
  H  H31  1  0.93055772  0.95881074  0.58631470  1
  H  H32  1  0.95881074  0.58631470  0.93055772  1
  H  H33  1  0.08631470  0.45881074  0.43055772  1
  H  H34  1  0.45881074  0.43055772  0.08631470  1
  H  H35  1  0.43055772  0.08631470  0.45881074  1
  H  H36  1  0.41354024  0.06961761  0.04105289  1
  H  H37  1  0.06961761  0.04105289  0.41354024  1
  H  H38  1  0.04105289  0.41354024  0.06961761  1
  H  H39  1  0.91354024  0.54105289  0.56961761  1
  H  H40  1  0.54105289  0.56961761  0.91354024  1
  H  H41  1  0.56961761  0.91354024  0.54105289  1
  H  H42  1  0.68639850  0.89895727  0.84319463  1
  H  H43  1  0.89895727  0.84319463  0.68639850  1
  H  H44  1  0.84319463  0.68639850  0.89895727  1
  H  H45  1  0.18639850  0.34319463  0.39895727  1
  H  H46  1  0.34319463  0.39895727  0.18639850  1
  H  H47  1  0.39895727  0.18639850  0.34319463  1
  H  H48  1  0.31344377  0.10122354  0.15668557  1
  H  H49  1  0.10122354  0.15668557  0.31344377  1
  H  H50  1  0.15668557  0.31344377  0.10122354  1
  H  H51  1  0.81344377  0.65668557  0.60122354  1
  H  H52  1  0.65668557  0.60122354  0.81344377  1
  H  H53  1  0.60122354  0.81344377  0.65668557  1
  H  H54  1  0.55907205  0.86784929  0.87423614  1
  H  H55  1  0.86784929  0.87423614  0.55907205  1
  H  H56  1  0.87423614  0.55907205  0.86784929  1
  H  H57  1  0.05907205  0.37423614  0.36784929  1
  H  H58  1  0.37423614  0.36784929  0.05907205  1
  H  H59  1  0.36784929  0.05907205  0.37423614  1
  H  H60  1  0.44085490  0.13213926  0.12573964  1
  H  H61  1  0.13213926  0.12573964  0.44085490  1
  H  H62  1  0.12573964  0.44085490  0.13213926  1
  H  H63  1  0.94085490  0.62573964  0.63213926  1
  H  H64  1  0.62573964  0.63213926  0.94085490  1
  H  H65  1  0.63213926  0.94085490  0.62573964  1
  H  H66  1  0.39209050  0.30297083  0.60934580  1
  H  H67  1  0.30297083  0.60934580  0.39209050  1
  H  H68  1  0.60934580  0.39209050  0.30297083  1
  H  H69  1  0.89209050  0.10934580  0.80297083  1
  H  H70  1  0.10934580  0.80297083  0.89209050  1
  H  H71  1  0.80297083  0.89209050  0.10934580  1
  H  H72  1  0.60791043  0.69704002  0.39065367  1
  H  H73  1  0.69704002  0.39065367  0.60791043  1
  H  H74  1  0.39065367  0.60791043  0.69704002  1
  H  H75  1  0.10791043  0.89065367  0.19704002  1
  H  H76  1  0.89065367  0.19704002  0.10791043  1
  H  H77  1  0.19704002  0.10791043  0.89065367  1
  H  H78  1  0.47020662  0.27695254  0.48278423  1
  H  H79  1  0.27695254  0.48278423  0.47020662  1
  H  H80  1  0.48278423  0.47020662  0.27695254  1
  H  H81  1  0.97020662  0.98278423  0.77695254  1
  H  H82  1  0.98278423  0.77695254  0.97020662  1
  H  H83  1  0.77695254  0.97020662  0.98278423  1
  H  H84  1  0.52979467  0.72304671  0.51720773  1
  H  H85  1  0.72304671  0.51720773  0.52979467  1
  H  H86  1  0.51720773  0.52979467  0.72304671  1
  H  H87  1  0.02979467  0.01720773  0.22304671  1
  H  H88  1  0.01720773  0.22304671  0.02979467  1
  H  H89  1  0.22304671  0.02979467  0.01720773  1
  H  H90  1  0.52562376  0.32154225  0.56244622  1
  H  H91  1  0.32154225  0.56244622  0.52562376  1
  H  H92  1  0.56244622  0.52562376  0.32154225  1
  H  H93  1  0.02562376  0.06244622  0.82154225  1
  H  H94  1  0.06244622  0.82154225  0.02562376  1
  H  H95  1  0.82154225  0.02562376  0.06244622  1
  H  H96  1  0.47436981  0.67846032  0.43754446  1
  H  H97  1  0.67846032  0.43754446  0.47436981  1
  H  H98  1  0.43754446  0.47436981  0.67846032  1
  H  H99  1  0.97436981  0.93754446  0.17846032  1
  H  H100  1  0.93754446  0.17846032  0.97436981  1
  H  H101  1  0.17846032  0.97436981  0.93754446  1
  H  H102  1  0.41538835  0.23693938  0.83941314  1
  H  H103  1  0.23693938  0.83941314  0.41538835  1
  H  H104  1  0.83941314  0.41538835  0.23693938  1
  H  H105  1  0.91538835  0.33941314  0.73693938  1
  H  H106  1  0.33941314  0.73693938  0.91538835  1
  H  H107  1  0.73693938  0.91538835  0.33941314  1
  H  H108  1  0.58448506  0.76338514  0.16077275  1
  H  H109  1  0.76338514  0.16077275  0.58448506  1
  H  H110  1  0.16077275  0.58448506  0.76338514  1
  H  H111  1  0.08448506  0.66077275  0.26338514  1
  H  H112  1  0.66077275  0.26338514  0.08448506  1
  H  H113  1  0.26338514  0.08448506  0.66077275  1
  H  H114  1  0.29696650  0.25808628  0.82101512  1
  H  H115  1  0.25808628  0.82101512  0.29696650  1
  H  H116  1  0.82101512  0.29696650  0.25808628  1
  H  H117  1  0.79696650  0.32101512  0.75808628  1
  H  H118  1  0.32101512  0.75808628  0.79696650  1
  H  H119  1  0.75808628  0.79696650  0.32101512  1
  H  H120  1  0.70293206  0.74220912  0.17921181  1
  H  H121  1  0.74220912  0.17921181  0.70293206  1
  H  H122  1  0.17921181  0.70293206  0.74220912  1
  H  H123  1  0.20293206  0.67921181  0.24220912  1
  H  H124  1  0.67921181  0.24220912  0.20293206  1
  H  H125  1  0.24220912  0.20293206  0.67921181  1
  C  C126  1  0.60034632  0.92569763  0.87582985  1
  C  C127  1  0.92569763  0.87582985  0.60034632  1
  C  C128  1  0.87582985  0.60034632  0.92569763  1
  C  C129  1  0.10034632  0.37582985  0.42569763  1
  C  C130  1  0.37582985  0.42569763  0.10034632  1
  C  C131  1  0.42569763  0.10034632  0.37582985  1
  C  C132  1  0.39949667  0.07438907  0.12407765  1
  C  C133  1  0.07438907  0.12407765  0.39949667  1
  C  C134  1  0.12407765  0.39949667  0.07438907  1
  C  C135  1  0.89949667  0.62407765  0.57438907  1
  C  C136  1  0.62407765  0.57438907  0.89949667  1
  C  C137  1  0.57438907  0.89949667  0.62407765  1
  C  C138  1  0.47266647  0.27274694  0.56446373  1
  C  C139  1  0.27274694  0.56446373  0.47266647  1
  C  C140  1  0.56446373  0.47266647  0.27274694  1
  C  C141  1  0.97266647  0.06446373  0.77274694  1
  C  C142  1  0.06446373  0.77274694  0.97266647  1
  C  C143  1  0.77274694  0.97266647  0.06446373  1
  C  C144  1  0.52732503  0.72725369  0.43553332  1
  C  C145  1  0.72725369  0.43553332  0.52732503  1
  C  C146  1  0.43553332  0.52732503  0.72725369  1
  C  C147  1  0.02732503  0.93553332  0.22725369  1
  C  C148  1  0.93553332  0.22725369  0.02732503  1
  C  C149  1  0.22725369  0.02732503  0.93553332  1
  S  S150  1  0.10938836  0.39061192  0.74999233  1
  S  S151  1  0.39061192  0.74999233  0.10938836  1
  S  S152  1  0.74999233  0.10938836  0.39061192  1
  S  S153  1  0.60938836  0.24999233  0.89061192  1
  S  S154  1  0.24999233  0.89061192  0.60938836  1
  S  S155  1  0.89061192  0.60938836  0.24999233  1
  O  O156  1  0.55909882  0.02678788  0.81107723  1
  O  O157  1  0.02678788  0.81107723  0.55909882  1
  O  O158  1  0.81107723  0.55909882  0.02678788  1
  O  O159  1  0.05909882  0.31107723  0.52678788  1
  O  O160  1  0.31107723  0.52678788  0.05909882  1
  O  O161  1  0.52678788  0.05909882  0.31107723  1
  O  O162  1  0.44069808  0.97324214  0.18879066  1
  O  O163  1  0.97324214  0.18879066  0.44069808  1
  O  O164  1  0.18879066  0.44069808  0.97324214  1
  O  O165  1  0.94069808  0.68879066  0.47324214  1
  O  O166  1  0.68879066  0.47324214  0.94069808  1
  O  O167  1  0.47324214  0.94069808  0.68879066  1
  O  O168  1  0.50960650  0.16458515  0.61772751  1
  O  O169  1  0.16458515  0.61772751  0.50960650  1
  O  O170  1  0.61772751  0.50960650  0.16458515  1
  O  O171  1  0.00960650  0.11772751  0.66458515  1
  O  O172  1  0.11772751  0.66458515  0.00960650  1
  O  O173  1  0.66458515  0.00960650  0.11772751  1
  O  O174  1  0.49038492  0.83541806  0.38228666  1
  O  O175  1  0.83541806  0.38228666  0.49038492  1
  O  O176  1  0.38228666  0.49038492  0.83541806  1
  O  O177  1  0.99038492  0.88228666  0.33541806  1
  O  O178  1  0.88228666  0.33541806  0.99038492  1
  O  O179  1  0.33541806  0.99038492  0.88228666  1
  O  O180  1  0.16831941  0.34073482  0.83731097  1
  O  O181  1  0.34073482  0.83731097  0.16831941  1
  O  O182  1  0.83731097  0.16831941  0.34073482  1
  O  O183  1  0.66831941  0.33731097  0.84073482  1
  O  O184  1  0.33731097  0.84073482  0.66831941  1
  O  O185  1  0.84073482  0.66831941  0.33731097  1
  O  O186  1  0.83165118  0.65921920  0.16266554  1
  O  O187  1  0.65921920  0.16266554  0.83165118  1
  O  O188  1  0.16266554  0.83165118  0.65921920  1
  O  O189  1  0.33165118  0.66266554  0.15921920  1
  O  O190  1  0.66266554  0.15921920  0.33165118  1
  O  O191  1  0.15921920  0.33165118  0.66266554  1
  O  O192  1  0.11584391  0.50476902  0.70832070  1
  O  O193  1  0.50476902  0.70832070  0.11584391  1
  O  O194  1  0.70832070  0.11584391  0.50476902  1
  O  O195  1  0.61584391  0.20832070  0.00476902  1
  O  O196  1  0.20832070  0.00476902  0.61584391  1
  O  O197  1  0.00476902  0.61584391  0.20832070  1
  O  O198  1  0.88424354  0.49522829  0.29167193  1
  O  O199  1  0.49522829  0.29167193  0.88424354  1
  O  O200  1  0.29167193  0.88424354  0.49522829  1
  O  O201  1  0.38424354  0.79167193  0.99522829  1
  O  O202  1  0.79167193  0.99522829  0.38424354  1
  O  O203  1  0.99522829  0.38424354  0.79167193  1
  O  O204  1  0.36779395  0.20785523  0.81843096  1
  O  O205  1  0.20785523  0.81843096  0.36779395  1
  O  O206  1  0.81843096  0.36779395  0.20785523  1
  O  O207  1  0.86779395  0.31843096  0.70785523  1
  O  O208  1  0.31843096  0.70785523  0.86779395  1
  O  O209  1  0.70785523  0.86779395  0.31843096  1
  O  O210  1  0.63211722  0.79245440  0.18171347  1
  O  O211  1  0.79245440  0.18171347  0.63211722  1
  O  O212  1  0.18171347  0.63211722  0.79245440  1
  O  O213  1  0.13211722  0.68171347  0.29245440  1
  O  O214  1  0.68171347  0.29245440  0.13211722  1
  O  O215  1  0.29245440  0.13211722  0.68171347  1
