# generated using pymatgen
data_Mg11(Al2Cu)6
_symmetry_space_group_name_H-M   'P 1'
_cell_length_a   14.19994019
_cell_length_b   14.19994019
_cell_length_c   14.19994019
_cell_angle_alpha   60.00000000
_cell_angle_beta   60.00000000
_cell_angle_gamma   60.00000000
_symmetry_Int_Tables_number   1
_chemical_formula_structural   Mg11(Al2Cu)6
_chemical_formula_sum   'Mg44 Al48 Cu24'
_cell_volume   2024.62477761
_cell_formula_units_Z   4
loop_
 _symmetry_equiv_pos_site_id
 _symmetry_equiv_pos_as_xyz
  1  'x, y, z'
loop_
 _atom_site_type_symbol
 _atom_site_label
 _atom_site_symmetry_multiplicity
 _atom_site_fract_x
 _atom_site_fract_y
 _atom_site_fract_z
 _atom_site_occupancy
  Mg  Mg0  1  0.25000000  0.25000000  0.25000000  1
  Mg  Mg1  1  0.00000000  0.00000000  0.00000000  1
  Mg  Mg2  1  0.86281100  0.25627200  0.25627200  1
  Mg  Mg3  1  0.62464500  0.86281100  0.25627200  1
  Mg  Mg4  1  0.25627200  0.62464500  0.25627200  1
  Mg  Mg5  1  0.62464500  0.25627200  0.25627200  1
  Mg  Mg6  1  0.25627200  0.86281100  0.25627200  1
  Mg  Mg7  1  0.86281100  0.62464500  0.25627200  1
  Mg  Mg8  1  0.25627200  0.25627200  0.86281100  1
  Mg  Mg9  1  0.86281100  0.25627200  0.62464500  1
  Mg  Mg10  1  0.62464500  0.25627200  0.86281100  1
  Mg  Mg11  1  0.25627200  0.25627200  0.62464500  1
  Mg  Mg12  1  0.25627200  0.62464500  0.86281100  1
  Mg  Mg13  1  0.25627200  0.86281100  0.62464500  1
  Mg  Mg14  1  0.38718900  0.99372800  0.99372800  1
  Mg  Mg15  1  0.62535500  0.38718900  0.99372800  1
  Mg  Mg16  1  0.99372800  0.62535500  0.99372800  1
  Mg  Mg17  1  0.62535500  0.99372800  0.99372800  1
  Mg  Mg18  1  0.99372800  0.38718900  0.99372800  1
  Mg  Mg19  1  0.38718900  0.62535500  0.99372800  1
  Mg  Mg20  1  0.99372800  0.99372800  0.38718900  1
  Mg  Mg21  1  0.38718900  0.99372800  0.62535500  1
  Mg  Mg22  1  0.62535500  0.99372800  0.38718900  1
  Mg  Mg23  1  0.99372800  0.99372800  0.62535500  1
  Mg  Mg24  1  0.99372800  0.62535500  0.38718900  1
  Mg  Mg25  1  0.99372800  0.38718900  0.62535500  1
  Mg  Mg26  1  0.16580200  0.16580200  0.50259500  1
  Mg  Mg27  1  0.16580200  0.50259500  0.16580200  1
  Mg  Mg28  1  0.50259500  0.16580200  0.16580200  1
  Mg  Mg29  1  0.16580200  0.16580200  0.16580200  1
  Mg  Mg30  1  0.08419800  0.08419800  0.74740500  1
  Mg  Mg31  1  0.08419800  0.74740500  0.08419800  1
  Mg  Mg32  1  0.74740500  0.08419800  0.08419800  1
  Mg  Mg33  1  0.08419800  0.08419800  0.08419800  1
  Mg  Mg34  1  0.46858200  0.84380600  0.84380600  1
  Mg  Mg35  1  0.84380600  0.46858200  0.84380600  1
  Mg  Mg36  1  0.84380600  0.84380600  0.84380600  1
  Mg  Mg37  1  0.84380600  0.84380600  0.46858200  1
  Mg  Mg38  1  0.78141800  0.40619400  0.40619400  1
  Mg  Mg39  1  0.40619400  0.78141800  0.40619400  1
  Mg  Mg40  1  0.40619400  0.40619400  0.40619400  1
  Mg  Mg41  1  0.40619400  0.40619400  0.78141800  1
  Mg  Mg42  1  0.75000000  0.75000000  0.75000000  1
  Mg  Mg43  1  0.50000000  0.50000000  0.50000000  1
  Al  Al44  1  0.01088800  0.39366800  0.20177500  1
  Al  Al45  1  0.39366800  0.01088900  0.20177500  1
  Al  Al46  1  0.39366800  0.39366800  0.20177500  1
  Al  Al47  1  0.39366800  0.20177500  0.39366800  1
  Al  Al48  1  0.39366800  0.20177500  0.01088800  1
  Al  Al49  1  0.01088800  0.20177500  0.39366800  1
  Al  Al50  1  0.20177500  0.39366800  0.01088800  1
  Al  Al51  1  0.20177500  0.39366800  0.39366800  1
  Al  Al52  1  0.20177500  0.01088900  0.39366800  1
  Al  Al53  1  0.39366800  0.01088900  0.39366800  1
  Al  Al54  1  0.01088900  0.39366800  0.39366800  1
  Al  Al55  1  0.39366800  0.39366800  0.01088800  1
  Al  Al56  1  0.23911200  0.85633200  0.04822500  1
  Al  Al57  1  0.85633200  0.23911200  0.04822500  1
  Al  Al58  1  0.85633200  0.85633200  0.04822500  1
  Al  Al59  1  0.85633200  0.04822500  0.85633200  1
  Al  Al60  1  0.85633200  0.04822500  0.23911200  1
  Al  Al61  1  0.23911200  0.04822500  0.85633200  1
  Al  Al62  1  0.04822500  0.85633200  0.23911200  1
  Al  Al63  1  0.04822500  0.85633200  0.85633200  1
  Al  Al64  1  0.04822500  0.23911200  0.85633200  1
  Al  Al65  1  0.85633200  0.23911200  0.85633200  1
  Al  Al66  1  0.23911200  0.85633200  0.85633200  1
  Al  Al67  1  0.85633200  0.85633200  0.23911200  1
  Al  Al68  1  0.79717600  0.60958800  0.98364900  1
  Al  Al69  1  0.60958800  0.79717600  0.98364900  1
  Al  Al70  1  0.60958800  0.60958800  0.98364900  1
  Al  Al71  1  0.60958800  0.98364900  0.60958800  1
  Al  Al72  1  0.60958800  0.98364900  0.79717600  1
  Al  Al73  1  0.79717600  0.98364900  0.60958800  1
  Al  Al74  1  0.98364900  0.60958800  0.79717600  1
  Al  Al75  1  0.98364900  0.60958800  0.60958800  1
  Al  Al76  1  0.98364900  0.79717600  0.60958800  1
  Al  Al77  1  0.60958800  0.79717600  0.60958800  1
  Al  Al78  1  0.79717600  0.60958800  0.60958800  1
  Al  Al79  1  0.60958800  0.60958800  0.79717600  1
  Al  Al80  1  0.45282400  0.64041200  0.26635100  1
  Al  Al81  1  0.64041200  0.45282400  0.26635100  1
  Al  Al82  1  0.64041200  0.64041200  0.26635100  1
  Al  Al83  1  0.64041200  0.26635100  0.64041200  1
  Al  Al84  1  0.64041200  0.26635100  0.45282400  1
  Al  Al85  1  0.45282400  0.26635100  0.64041200  1
  Al  Al86  1  0.26635100  0.64041200  0.45282400  1
  Al  Al87  1  0.26635100  0.64041200  0.64041200  1
  Al  Al88  1  0.26635100  0.45282400  0.64041200  1
  Al  Al89  1  0.64041200  0.45282400  0.64041200  1
  Al  Al90  1  0.45282400  0.64041200  0.64041200  1
  Al  Al91  1  0.64041200  0.64041200  0.45282400  1
  Cu  Cu92  1  0.74831800  0.42418900  0.07917500  1
  Cu  Cu93  1  0.74831800  0.74831800  0.07917500  1
  Cu  Cu94  1  0.42418900  0.74831800  0.07917500  1
  Cu  Cu95  1  0.74831800  0.07917500  0.42418900  1
  Cu  Cu96  1  0.42418900  0.07917500  0.74831800  1
  Cu  Cu97  1  0.74831800  0.07917500  0.74831800  1
  Cu  Cu98  1  0.07917500  0.74831800  0.74831800  1
  Cu  Cu99  1  0.07917500  0.42418900  0.74831800  1
  Cu  Cu100  1  0.07917500  0.74831800  0.42418900  1
  Cu  Cu101  1  0.42418900  0.74831800  0.74831800  1
  Cu  Cu102  1  0.74831800  0.74831800  0.42418900  1
  Cu  Cu103  1  0.74831800  0.42418900  0.74831800  1
  Cu  Cu104  1  0.50168200  0.82581100  0.17082500  1
  Cu  Cu105  1  0.50168200  0.50168200  0.17082500  1
  Cu  Cu106  1  0.82581100  0.50168200  0.17082500  1
  Cu  Cu107  1  0.50168200  0.17082500  0.82581100  1
  Cu  Cu108  1  0.82581100  0.17082500  0.50168200  1
  Cu  Cu109  1  0.50168200  0.17082500  0.50168200  1
  Cu  Cu110  1  0.17082500  0.50168200  0.50168200  1
  Cu  Cu111  1  0.17082500  0.82581100  0.50168200  1
  Cu  Cu112  1  0.17082500  0.50168200  0.82581100  1
  Cu  Cu113  1  0.82581100  0.50168200  0.50168200  1
  Cu  Cu114  1  0.50168200  0.50168200  0.82581100  1
  Cu  Cu115  1  0.50168200  0.82581100  0.50168200  1
