# generated using pymatgen
data_NaSbNO4F3
_symmetry_space_group_name_H-M   'P 1'
_cell_length_a   5.75554400
_cell_length_b   11.68845200
_cell_length_c   18.00063200
_cell_angle_alpha   90.00000000
_cell_angle_beta   90.00000000
_cell_angle_gamma   90.00000000
_symmetry_Int_Tables_number   1
_chemical_formula_structural   NaSbNO4F3
_chemical_formula_sum   'Na8 Sb8 N8 O32 F24'
_cell_volume   1210.96371279
_cell_formula_units_Z   8
loop_
 _symmetry_equiv_pos_site_id
 _symmetry_equiv_pos_as_xyz
  1  'x, y, z'
loop_
 _atom_site_type_symbol
 _atom_site_label
 _atom_site_symmetry_multiplicity
 _atom_site_fract_x
 _atom_site_fract_y
 _atom_site_fract_z
 _atom_site_occupancy
  Na  Na0  1  0.31101400  0.86900900  0.98535700  1
  Na  Na1  1  0.68898600  0.63099100  0.48535700  1
  Na  Na2  1  0.18898600  0.36900900  0.01464300  1
  Na  Na3  1  0.81101400  0.13099100  0.51464300  1
  Na  Na4  1  0.68898600  0.13099100  0.01464300  1
  Na  Na5  1  0.31101400  0.36900900  0.51464300  1
  Na  Na6  1  0.81101400  0.63099100  0.98535700  1
  Na  Na7  1  0.18898600  0.86900900  0.48535700  1
  Sb  Sb8  1  0.65568600  0.40017100  0.86586900  1
  Sb  Sb9  1  0.34431400  0.09982900  0.36586900  1
  Sb  Sb10  1  0.84431400  0.90017100  0.13413100  1
  Sb  Sb11  1  0.15568600  0.59982900  0.63413100  1
  Sb  Sb12  1  0.34431400  0.59982900  0.13413100  1
  Sb  Sb13  1  0.65568600  0.90017100  0.63413100  1
  Sb  Sb14  1  0.15568600  0.09982900  0.86586900  1
  Sb  Sb15  1  0.84431400  0.40017100  0.36586900  1
  N  N16  1  0.22607200  0.36575000  0.75942200  1
  N  N17  1  0.77392800  0.13425000  0.25942200  1
  N  N18  1  0.27392800  0.86575000  0.24057800  1
  N  N19  1  0.72607200  0.63425000  0.74057800  1
  N  N20  1  0.77392800  0.63425000  0.24057800  1
  N  N21  1  0.22607200  0.86575000  0.74057800  1
  N  N22  1  0.72607200  0.13425000  0.75942200  1
  N  N23  1  0.27392800  0.36575000  0.25942200  1
  O  O24  1  0.64805300  0.29094200  0.58980900  1
  O  O25  1  0.35194700  0.20905800  0.08980900  1
  O  O26  1  0.85194700  0.79094200  0.41019100  1
  O  O27  1  0.14805300  0.70905800  0.91019100  1
  O  O28  1  0.35194700  0.70905800  0.41019100  1
  O  O29  1  0.64805300  0.79094200  0.91019100  1
  O  O30  1  0.14805300  0.20905800  0.58980900  1
  O  O31  1  0.85194700  0.29094200  0.08980900  1
  O  O32  1  0.35621300  0.43496100  0.72516500  1
  O  O33  1  0.64378700  0.06503900  0.22516500  1
  O  O34  1  0.14378700  0.93496100  0.27483500  1
  O  O35  1  0.85621300  0.56503900  0.77483500  1
  O  O36  1  0.64378700  0.56503900  0.27483500  1
  O  O37  1  0.35621300  0.93496100  0.77483500  1
  O  O38  1  0.85621300  0.06503900  0.72516500  1
  O  O39  1  0.14378700  0.43496100  0.22516500  1
  O  O40  1  0.26464700  0.34789100  0.82977300  1
  O  O41  1  0.73535300  0.15210900  0.32977300  1
  O  O42  1  0.23535300  0.84789100  0.17022700  1
  O  O43  1  0.76464700  0.65210900  0.67022700  1
  O  O44  1  0.73535300  0.65210900  0.17022700  1
  O  O45  1  0.26464700  0.84789100  0.67022700  1
  O  O46  1  0.76464700  0.15210900  0.82977300  1
  O  O47  1  0.23535300  0.34789100  0.32977300  1
  O  O48  1  0.06178300  0.31402700  0.72966500  1
  O  O49  1  0.93821700  0.18597300  0.22966500  1
  O  O50  1  0.43821700  0.81402700  0.27033500  1
  O  O51  1  0.56178300  0.68597300  0.77033500  1
  O  O52  1  0.93821700  0.68597300  0.27033500  1
  O  O53  1  0.06178300  0.81402700  0.77033500  1
  O  O54  1  0.56178300  0.18597300  0.72966500  1
  O  O55  1  0.43821700  0.31402700  0.22966500  1
  F  F56  1  0.52660900  0.30589400  0.94932500  1
  F  F57  1  0.47339100  0.19410600  0.44932500  1
  F  F58  1  0.97339100  0.80589400  0.05067500  1
  F  F59  1  0.02660900  0.69410600  0.55067500  1
  F  F60  1  0.47339100  0.69410600  0.05067500  1
  F  F61  1  0.52660900  0.80589400  0.55067500  1
  F  F62  1  0.02660900  0.19410600  0.94932500  1
  F  F63  1  0.97339100  0.30589400  0.44932500  1
  F  F64  1  0.49551800  0.53198200  0.90906100  1
  F  F65  1  0.50448200  0.96801800  0.40906100  1
  F  F66  1  0.00448200  0.03198200  0.09093900  1
  F  F67  1  0.99551800  0.46801800  0.59093900  1
  F  F68  1  0.50448200  0.46801800  0.09093900  1
  F  F69  1  0.49551800  0.03198200  0.59093900  1
  F  F70  1  0.99551800  0.96801800  0.90906100  1
  F  F71  1  0.00448200  0.53198200  0.40906100  1
  F  F72  1  0.90393700  0.44584200  0.93953500  1
  F  F73  1  0.09606300  0.05415800  0.43953500  1
  F  F74  1  0.59606300  0.94584200  0.06046500  1
  F  F75  1  0.40393700  0.55415800  0.56046500  1
  F  F76  1  0.09606300  0.55415800  0.06046500  1
  F  F77  1  0.90393700  0.94584200  0.56046500  1
  F  F78  1  0.40393700  0.05415800  0.93953500  1
  F  F79  1  0.59606300  0.44584200  0.43953500  1
