# generated using pymatgen
data_RbSi
_symmetry_space_group_name_H-M   'P 1'
_cell_length_a   11.88240601
_cell_length_b   11.88240601
_cell_length_c   11.88240601
_cell_angle_alpha   124.74051654
_cell_angle_beta   124.74051654
_cell_angle_gamma   81.96826812
_symmetry_Int_Tables_number   1
_chemical_formula_structural   RbSi
_chemical_formula_sum   'Rb16 Si16'
_cell_volume   1089.52349559
_cell_formula_units_Z   16
loop_
 _symmetry_equiv_pos_site_id
 _symmetry_equiv_pos_as_xyz
  1  'x, y, z'
loop_
 _atom_site_type_symbol
 _atom_site_label
 _atom_site_symmetry_multiplicity
 _atom_site_fract_x
 _atom_site_fract_y
 _atom_site_fract_z
 _atom_site_occupancy
  Rb  Rb0  1  0.26834400  0.87500000  0.89334400  1
  Rb  Rb1  1  0.76834400  0.87500000  0.39334400  1
  Rb  Rb2  1  0.12500000  0.01834400  0.39334400  1
  Rb  Rb3  1  0.62500000  0.23165600  0.10665600  1
  Rb  Rb4  1  0.48165600  0.37500000  0.60665600  1
  Rb  Rb5  1  0.98165600  0.37500000  0.10665600  1
  Rb  Rb6  1  0.12500000  0.51834400  0.89334400  1
  Rb  Rb7  1  0.62500000  0.73165600  0.60665600  1
  Rb  Rb8  1  0.36944800  0.36944800  0.23889600  1
  Rb  Rb9  1  0.86944800  0.63055200  0.00000000  1
  Rb  Rb10  1  0.61944800  0.11944800  0.73889600  1
  Rb  Rb11  1  0.11944800  0.38055200  0.50000000  1
  Rb  Rb12  1  0.38055200  0.88055200  0.26110400  1
  Rb  Rb13  1  0.88055200  0.61944800  0.50000000  1
  Rb  Rb14  1  0.13055200  0.13055200  0.76110400  1
  Rb  Rb15  1  0.63055200  0.86944800  0.00000000  1
  Si  Si16  1  0.00979800  0.85748500  0.96253000  1
  Si  Si17  1  0.50979800  0.54726800  0.15231300  1
  Si  Si18  1  0.10748500  0.75979800  0.46253000  1
  Si  Si19  1  0.60748500  0.14495500  0.34768700  1
  Si  Si20  1  0.74020200  0.39251500  0.53747000  1
  Si  Si21  1  0.24020200  0.70273200  0.34768700  1
  Si  Si22  1  0.64251500  0.49020200  0.03747000  1
  Si  Si23  1  0.14251500  0.10504500  0.15231300  1
  Si  Si24  1  0.39495500  0.35748500  0.84768700  1
  Si  Si25  1  0.89495500  0.04726800  0.03747000  1
  Si  Si26  1  0.79726800  0.25979800  0.65231300  1
  Si  Si27  1  0.29726800  0.64495500  0.53747000  1
  Si  Si28  1  0.35504500  0.89251500  0.65231300  1
  Si  Si29  1  0.85504500  0.20273200  0.46253000  1
  Si  Si30  1  0.95273200  0.99020200  0.84768700  1
  Si  Si31  1  0.45273200  0.60504500  0.96253000  1
