# generated using pymatgen
data_As2C4S2O
_symmetry_space_group_name_H-M   'P 1'
_cell_length_a   4.60076100
_cell_length_b   12.04820798
_cell_length_c   16.84364138
_cell_angle_alpha   96.69312372
_cell_angle_beta   97.84956592
_cell_angle_gamma   90.00000000
_symmetry_Int_Tables_number   1
_chemical_formula_structural   As2C4S2O
_chemical_formula_sum   'As8 C16 S8 O4'
_cell_volume   918.48648581
_cell_formula_units_Z   4
loop_
 _symmetry_equiv_pos_site_id
 _symmetry_equiv_pos_as_xyz
  1  'x, y, z'
loop_
 _atom_site_type_symbol
 _atom_site_label
 _atom_site_symmetry_multiplicity
 _atom_site_fract_x
 _atom_site_fract_y
 _atom_site_fract_z
 _atom_site_occupancy
  As  As0  1  0.13560900  0.00947900  0.18292700  1
  As  As1  1  0.95268100  0.49052100  0.81707300  1
  As  As2  1  0.86439100  0.99052100  0.81707300  1
  As  As3  1  0.04731900  0.50947900  0.18292700  1
  As  As4  1  0.42006700  0.03938300  0.37778400  1
  As  As5  1  0.04228300  0.46061700  0.62221600  1
  As  As6  1  0.57993300  0.96061700  0.62221600  1
  As  As7  1  0.95771700  0.53938300  0.37778400  1
  C  C8  1  0.52206700  0.87830600  0.06351000  1
  C  C9  1  0.45855700  0.62169400  0.93649000  1
  C  C10  1  0.47793300  0.12169400  0.93649000  1
  C  C11  1  0.54144300  0.37830600  0.06351000  1
  C  C12  1  0.42132000  0.92722600  0.12951300  1
  C  C13  1  0.29180600  0.57277400  0.87048700  1
  C  C14  1  0.57868000  0.07277400  0.87048700  1
  C  C15  1  0.70819400  0.42722600  0.12951300  1
  C  C16  1  0.00624400  0.23810700  0.42015700  1
  C  C17  1  0.58608700  0.26189300  0.57984300  1
  C  C18  1  0.99375600  0.76189300  0.57984300  1
  C  C19  1  0.41391300  0.73810700  0.42015700  1
  C  C20  1  0.11486600  0.14570900  0.38410700  1
  C  C21  1  0.73076000  0.35429100  0.61589300  1
  C  C22  1  0.88513400  0.85429100  0.61589300  1
  C  C23  1  0.26924000  0.64570900  0.38410700  1
  S  S24  1  0.40254600  0.37100700  0.16399600  1
  S  S25  1  0.23855000  0.12899300  0.83600400  1
  S  S26  1  0.59745400  0.62899300  0.83600400  1
  S  S27  1  0.76145000  0.87100700  0.16399600  1
  S  S28  1  0.75558300  0.16151300  0.33368300  1
  S  S29  1  0.42190000  0.33848700  0.66631700  1
  S  S30  1  0.24441700  0.83848700  0.66631700  1
  S  S31  1  0.57810000  0.66151300  0.33368300  1
  O  O32  1  0.29997300  0.96317100  0.27935900  1
  O  O33  1  0.02061400  0.53682900  0.72064100  1
  O  O34  1  0.70002700  0.03682900  0.72064100  1
  O  O35  1  0.97938600  0.46317100  0.27935900  1
