# generated using pymatgen
data_Al3Si3Pb2O13
_symmetry_space_group_name_H-M   'P 1'
_cell_length_a   5.89223200
_cell_length_b   10.95014300
_cell_length_c   15.90428300
_cell_angle_alpha   90.00000000
_cell_angle_beta   90.00000000
_cell_angle_gamma   90.00000000
_symmetry_Int_Tables_number   1
_chemical_formula_structural   Al3Si3Pb2O13
_chemical_formula_sum   'Al12 Si12 Pb8 O52'
_cell_volume   1026.15679204
_cell_formula_units_Z   4
loop_
 _symmetry_equiv_pos_site_id
 _symmetry_equiv_pos_as_xyz
  1  'x, y, z'
loop_
 _atom_site_type_symbol
 _atom_site_label
 _atom_site_symmetry_multiplicity
 _atom_site_fract_x
 _atom_site_fract_y
 _atom_site_fract_z
 _atom_site_occupancy
  Al  Al0  1  0.75000000  0.84033100  0.88524800  1
  Al  Al1  1  0.75000000  0.65966900  0.38524800  1
  Al  Al2  1  0.25000000  0.15966900  0.11475200  1
  Al  Al3  1  0.25000000  0.34033100  0.61475200  1
  Al  Al4  1  0.99617900  0.68489500  0.74206200  1
  Al  Al5  1  0.50382100  0.81510500  0.24206200  1
  Al  Al6  1  0.49617900  0.31510500  0.25793800  1
  Al  Al7  1  0.00382100  0.18489500  0.75793800  1
  Al  Al8  1  0.00382100  0.31510500  0.25793800  1
  Al  Al9  1  0.49617900  0.18489500  0.75793800  1
  Al  Al10  1  0.50382100  0.68489500  0.74206200  1
  Al  Al11  1  0.99617900  0.81510500  0.24206200  1
  Si  Si12  1  0.25000000  0.91336900  0.40640500  1
  Si  Si13  1  0.25000000  0.58663100  0.90640500  1
  Si  Si14  1  0.75000000  0.08663100  0.59359500  1
  Si  Si15  1  0.75000000  0.41336900  0.09359500  1
  Si  Si16  1  0.75000000  0.79212400  0.57610700  1
  Si  Si17  1  0.75000000  0.70787600  0.07610700  1
  Si  Si18  1  0.25000000  0.20787600  0.42389300  1
  Si  Si19  1  0.25000000  0.29212400  0.92389300  1
  Si  Si20  1  0.25000000  0.93105000  0.83680300  1
  Si  Si21  1  0.25000000  0.56895000  0.33680300  1
  Si  Si22  1  0.75000000  0.06895000  0.16319700  1
  Si  Si23  1  0.75000000  0.43105000  0.66319700  1
  Pb  Pb24  1  0.25000000  0.94666200  0.63061500  1
  Pb  Pb25  1  0.25000000  0.55333800  0.13061500  1
  Pb  Pb26  1  0.75000000  0.05333800  0.36938500  1
  Pb  Pb27  1  0.75000000  0.44666200  0.86938500  1
  Pb  Pb28  1  0.25000000  0.63775200  0.54734900  1
  Pb  Pb29  1  0.25000000  0.86224800  0.04734900  1
  Pb  Pb30  1  0.75000000  0.36224800  0.45265100  1
  Pb  Pb31  1  0.75000000  0.13775200  0.95265100  1
  O  O32  1  0.47449100  0.88764400  0.34945000  1
  O  O33  1  0.02550900  0.61235600  0.84945000  1
  O  O34  1  0.97449100  0.11235600  0.65055000  1
  O  O35  1  0.52550900  0.38764400  0.15055000  1
  O  O36  1  0.52550900  0.11235600  0.65055000  1
  O  O37  1  0.97449100  0.38764400  0.15055000  1
  O  O38  1  0.02550900  0.88764400  0.34945000  1
  O  O39  1  0.47449100  0.61235600  0.84945000  1
  O  O40  1  0.48004400  0.92021200  0.89496000  1
  O  O41  1  0.01995600  0.57978800  0.39496000  1
  O  O42  1  0.98004400  0.07978800  0.10504000  1
  O  O43  1  0.51995600  0.42021200  0.60504000  1
  O  O44  1  0.51995600  0.07978800  0.10504000  1
  O  O45  1  0.98004400  0.42021200  0.60504000  1
  O  O46  1  0.01995600  0.92021200  0.89496000  1
  O  O47  1  0.48004400  0.57978800  0.39496000  1
  O  O48  1  0.97495100  0.75449500  0.63163500  1
  O  O49  1  0.52504900  0.74550500  0.13163500  1
  O  O50  1  0.47495100  0.24550500  0.36836500  1
  O  O51  1  0.02504900  0.25449500  0.86836500  1
  O  O52  1  0.02504900  0.24550500  0.36836500  1
  O  O53  1  0.47495100  0.25449500  0.86836500  1
  O  O54  1  0.52504900  0.75449500  0.63163500  1
  O  O55  1  0.97495100  0.74550500  0.13163500  1
  O  O56  1  0.75000000  0.77561300  0.78301900  1
  O  O57  1  0.75000000  0.72438700  0.28301900  1
  O  O58  1  0.25000000  0.22438700  0.21698100  1
  O  O59  1  0.25000000  0.27561300  0.71698100  1
  O  O60  1  0.25000000  0.81541100  0.76827900  1
  O  O61  1  0.25000000  0.68458900  0.26827900  1
  O  O62  1  0.75000000  0.18458900  0.23172100  1
  O  O63  1  0.75000000  0.31541100  0.73172100  1
  O  O64  1  0.25000000  0.06342600  0.78566100  1
  O  O65  1  0.25000000  0.43657400  0.28566100  1
  O  O66  1  0.75000000  0.93657400  0.21433900  1
  O  O67  1  0.75000000  0.56342600  0.71433900  1
  O  O68  1  0.25000000  0.83876800  0.49479800  1
  O  O69  1  0.25000000  0.66123200  0.99479800  1
  O  O70  1  0.75000000  0.16123200  0.50520200  1
  O  O71  1  0.75000000  0.33876800  0.00520200  1
  O  O72  1  0.75000000  0.72599800  0.48654200  1
  O  O73  1  0.75000000  0.77400200  0.98654200  1
  O  O74  1  0.25000000  0.27400200  0.51345800  1
  O  O75  1  0.25000000  0.22599800  0.01345800  1
  O  O76  1  0.75000000  0.94178600  0.56345000  1
  O  O77  1  0.75000000  0.55821400  0.06345000  1
  O  O78  1  0.25000000  0.05821400  0.43655000  1
  O  O79  1  0.25000000  0.44178600  0.93655000  1
  O  O80  1  0.25000000  0.59995200  0.70403500  1
  O  O81  1  0.25000000  0.90004800  0.20403500  1
  O  O82  1  0.75000000  0.40004800  0.29596500  1
  O  O83  1  0.75000000  0.09995200  0.79596500  1
