# generated using pymatgen
data_Ni5Ge2
_symmetry_space_group_name_H-M   'P 1'
_cell_length_a   6.79821981
_cell_length_b   6.79821981
_cell_length_c   12.44988600
_cell_angle_alpha   90.00000000
_cell_angle_beta   90.00000000
_cell_angle_gamma   119.99999814
_symmetry_Int_Tables_number   1
_chemical_formula_structural   Ni5Ge2
_chemical_formula_sum   'Ni30 Ge12'
_cell_volume   498.29487436
_cell_formula_units_Z   6
loop_
 _symmetry_equiv_pos_site_id
 _symmetry_equiv_pos_as_xyz
  1  'x, y, z'
loop_
 _atom_site_type_symbol
 _atom_site_label
 _atom_site_symmetry_multiplicity
 _atom_site_fract_x
 _atom_site_fract_y
 _atom_site_fract_z
 _atom_site_occupancy
  Ni  Ni0  1  0.00000000  0.00000000  0.57163600  1
  Ni  Ni1  1  0.00000000  0.00000000  0.07163600  1
  Ni  Ni2  1  0.66666700  0.33333300  0.42726100  1
  Ni  Ni3  1  0.33333300  0.66666700  0.42726100  1
  Ni  Ni4  1  0.33333300  0.66666700  0.92726100  1
  Ni  Ni5  1  0.66666700  0.33333300  0.92726100  1
  Ni  Ni6  1  0.73520800  0.00000000  0.40333300  1
  Ni  Ni7  1  0.26479200  0.26479200  0.40333300  1
  Ni  Ni8  1  0.00000000  0.73520800  0.40333300  1
  Ni  Ni9  1  0.26479200  0.00000000  0.90333300  1
  Ni  Ni10  1  0.73520800  0.73520800  0.90333300  1
  Ni  Ni11  1  0.00000000  0.26479200  0.90333300  1
  Ni  Ni12  1  0.37376400  0.00000000  0.30753300  1
  Ni  Ni13  1  0.62623600  0.62623600  0.30753300  1
  Ni  Ni14  1  0.00000000  0.37376400  0.30753300  1
  Ni  Ni15  1  0.62623600  0.00000000  0.80753300  1
  Ni  Ni16  1  0.37376400  0.37376400  0.80753300  1
  Ni  Ni17  1  0.00000000  0.62623600  0.80753300  1
  Ni  Ni18  1  0.69173100  0.00000000  0.19574100  1
  Ni  Ni19  1  0.30826900  0.30826900  0.19574100  1
  Ni  Ni20  1  0.00000000  0.69173100  0.19574100  1
  Ni  Ni21  1  0.30826900  0.00000000  0.69574100  1
  Ni  Ni22  1  0.69173100  0.69173100  0.69574100  1
  Ni  Ni23  1  0.00000000  0.30826900  0.69574100  1
  Ni  Ni24  1  0.36713300  0.00000000  0.09830300  1
  Ni  Ni25  1  0.63286700  0.63286700  0.09830300  1
  Ni  Ni26  1  0.00000000  0.36713300  0.09830300  1
  Ni  Ni27  1  0.63286700  0.00000000  0.59830300  1
  Ni  Ni28  1  0.36713300  0.36713300  0.59830300  1
  Ni  Ni29  1  0.00000000  0.63286700  0.59830300  1
  Ge  Ge30  1  0.00000000  0.00000000  0.27519800  1
  Ge  Ge31  1  0.00000000  0.00000000  0.77519800  1
  Ge  Ge32  1  0.66666700  0.33333300  0.22084400  1
  Ge  Ge33  1  0.33333300  0.66666700  0.22084400  1
  Ge  Ge34  1  0.33333300  0.66666700  0.72084400  1
  Ge  Ge35  1  0.66666700  0.33333300  0.72084400  1
  Ge  Ge36  1  0.33445500  0.00000000  0.50308800  1
  Ge  Ge37  1  0.66554500  0.66554500  0.50308800  1
  Ge  Ge38  1  0.00000000  0.33445500  0.50308800  1
  Ge  Ge39  1  0.66554500  0.00000000  0.00308800  1
  Ge  Ge40  1  0.33445500  0.33445500  0.00308800  1
  Ge  Ge41  1  0.00000000  0.66554500  0.00308800  1
