# generated using pymatgen
data_NaCuMoO5
_symmetry_space_group_name_H-M   'P 1'
_cell_length_a   5.79363800
_cell_length_b   7.87350400
_cell_length_c   9.75805900
_cell_angle_alpha   90.00000000
_cell_angle_beta   90.00000000
_cell_angle_gamma   90.00000000
_symmetry_Int_Tables_number   1
_chemical_formula_structural   NaCuMoO5
_chemical_formula_sum   'Na4 Cu4 Mo4 O20'
_cell_volume   445.12588290
_cell_formula_units_Z   4
loop_
 _symmetry_equiv_pos_site_id
 _symmetry_equiv_pos_as_xyz
  1  'x, y, z'
loop_
 _atom_site_type_symbol
 _atom_site_label
 _atom_site_symmetry_multiplicity
 _atom_site_fract_x
 _atom_site_fract_y
 _atom_site_fract_z
 _atom_site_occupancy
  Na  Na0  1  0.25000000  0.37150300  0.69442200  1
  Na  Na1  1  0.25000000  0.87150300  0.80557800  1
  Na  Na2  1  0.75000000  0.62849700  0.30557800  1
  Na  Na3  1  0.75000000  0.12849700  0.19442200  1
  Cu  Cu4  1  0.00000000  0.50000000  0.00000000  1
  Cu  Cu5  1  0.50000000  0.00000000  0.50000000  1
  Cu  Cu6  1  0.50000000  0.50000000  0.00000000  1
  Cu  Cu7  1  0.00000000  0.00000000  0.50000000  1
  Mo  Mo8  1  0.75000000  0.13535400  0.83972700  1
  Mo  Mo9  1  0.75000000  0.63535400  0.66027300  1
  Mo  Mo10  1  0.25000000  0.86464600  0.16027300  1
  Mo  Mo11  1  0.25000000  0.36464600  0.33972700  1
  O  O12  1  0.75000000  0.33771000  0.94848600  1
  O  O13  1  0.75000000  0.83771000  0.55151400  1
  O  O14  1  0.25000000  0.66229000  0.05151400  1
  O  O15  1  0.25000000  0.16229000  0.44848600  1
  O  O16  1  0.50226400  0.11941600  0.73281400  1
  O  O17  1  0.99773600  0.61941600  0.76718600  1
  O  O18  1  0.00226400  0.88058400  0.26718600  1
  O  O19  1  0.49773600  0.38058400  0.23281400  1
  O  O20  1  0.49773600  0.88058400  0.26718600  1
  O  O21  1  0.00226400  0.38058400  0.23281400  1
  O  O22  1  0.99773600  0.11941600  0.73281400  1
  O  O23  1  0.50226400  0.61941600  0.76718600  1
  O  O24  1  0.75000000  0.96045300  0.95082100  1
  O  O25  1  0.75000000  0.46045300  0.54917900  1
  O  O26  1  0.25000000  0.03954700  0.04917900  1
  O  O27  1  0.25000000  0.53954700  0.45082100  1
  O  O28  1  0.25000000  0.38019300  0.94335600  1
  O  O29  1  0.25000000  0.88019300  0.55664400  1
  O  O30  1  0.75000000  0.61980700  0.05664400  1
  O  O31  1  0.75000000  0.11980700  0.44335600  1
