# generated using pymatgen
data_Ca(BO3)2
_symmetry_space_group_name_H-M   'P 1'
_cell_length_a   12.52681000
_cell_length_b   6.89688400
_cell_length_c   11.36601471
_cell_angle_alpha   59.88857561
_cell_angle_beta   90.00000000
_cell_angle_gamma   90.00000000
_symmetry_Int_Tables_number   1
_chemical_formula_structural   Ca(BO3)2
_chemical_formula_sum   'Ca8 B16 O48'
_cell_volume   849.46119013
_cell_formula_units_Z   8
loop_
 _symmetry_equiv_pos_site_id
 _symmetry_equiv_pos_as_xyz
  1  'x, y, z'
loop_
 _atom_site_type_symbol
 _atom_site_label
 _atom_site_symmetry_multiplicity
 _atom_site_fract_x
 _atom_site_fract_y
 _atom_site_fract_z
 _atom_site_occupancy
  Ca  Ca0  1  0.24208800  0.92622200  0.26062100  1
  Ca  Ca1  1  0.25791200  0.92622200  0.76062100  1
  Ca  Ca2  1  0.75791200  0.07377800  0.73937900  1
  Ca  Ca3  1  0.74208800  0.07377800  0.23937900  1
  Ca  Ca4  1  0.09351400  0.58849600  0.64069300  1
  Ca  Ca5  1  0.40648600  0.58849600  0.14069300  1
  Ca  Ca6  1  0.90648600  0.41150400  0.35930700  1
  Ca  Ca7  1  0.59351400  0.41150400  0.85930700  1
  B  B8  1  0.48623400  0.07753800  0.16101200  1
  B  B9  1  0.01376600  0.07753800  0.66101200  1
  B  B10  1  0.51376600  0.92246200  0.83898800  1
  B  B11  1  0.98623400  0.92246200  0.33898800  1
  B  B12  1  0.34709500  0.35137900  0.98418400  1
  B  B13  1  0.15290500  0.35137900  0.48418400  1
  B  B14  1  0.65290500  0.64862100  0.01581600  1
  B  B15  1  0.84709500  0.64862100  0.51581600  1
  B  B16  1  0.33354500  0.46550600  0.73434200  1
  B  B17  1  0.16645500  0.46550600  0.23434200  1
  B  B18  1  0.66645500  0.53449400  0.26565800  1
  B  B19  1  0.83354500  0.53449400  0.76565800  1
  B  B20  1  0.19610100  0.18221500  0.91834600  1
  B  B21  1  0.30389900  0.18221500  0.41834600  1
  B  B22  1  0.80389900  0.81778500  0.08165400  1
  B  B23  1  0.69610100  0.81778500  0.58165400  1
  O  O24  1  0.42583900  0.28412600  0.09297900  1
  O  O25  1  0.07416100  0.28412600  0.59297900  1
  O  O26  1  0.57416100  0.71587400  0.90702100  1
  O  O27  1  0.92583900  0.71587400  0.40702100  1
  O  O28  1  0.42568700  0.87847800  0.19939500  1
  O  O29  1  0.07431300  0.87847800  0.69939500  1
  O  O30  1  0.57431300  0.12152200  0.80060500  1
  O  O31  1  0.92568700  0.12152200  0.30060500  1
  O  O32  1  0.40083700  0.42079900  0.85152300  1
  O  O33  1  0.09916300  0.42079900  0.35152300  1
  O  O34  1  0.59916300  0.57920100  0.14847700  1
  O  O35  1  0.90083700  0.57920100  0.64847700  1
  O  O36  1  0.39181900  0.45160200  0.62984400  1
  O  O37  1  0.10818100  0.45160200  0.12984400  1
  O  O38  1  0.60818100  0.54839800  0.37015600  1
  O  O39  1  0.89181900  0.54839800  0.87015600  1
  O  O40  1  0.34013400  0.96882600  0.43976400  1
  O  O41  1  0.15986600  0.96882600  0.93976400  1
  O  O42  1  0.65986600  0.03117400  0.56023600  1
  O  O43  1  0.84013400  0.03117400  0.06023600  1
  O  O44  1  0.27640400  0.67410800  0.67154500  1
  O  O45  1  0.22359600  0.67410800  0.17154500  1
  O  O46  1  0.72359600  0.32589200  0.32845500  1
  O  O47  1  0.77640400  0.32589200  0.82845500  1
  O  O48  1  0.26408100  0.18201500  0.02039000  1
  O  O49  1  0.23591900  0.18201500  0.52039000  1
  O  O50  1  0.73591900  0.81798500  0.97961000  1
  O  O51  1  0.76408100  0.81798500  0.47961000  1
  O  O52  1  0.24735600  0.28442500  0.77677900  1
  O  O53  1  0.25264400  0.28442500  0.27677900  1
  O  O54  1  0.75264400  0.71557500  0.22322100  1
  O  O55  1  0.74735600  0.71557500  0.72322100  1
  O  O56  1  0.19843000  0.56917900  0.45192100  1
  O  O57  1  0.30157000  0.56917900  0.95192100  1
  O  O58  1  0.80157000  0.43082100  0.54807900  1
  O  O59  1  0.69843000  0.43082100  0.04807900  1
  O  O60  1  0.10035900  0.31570000  0.88012900  1
  O  O61  1  0.39964100  0.31570000  0.38012900  1
  O  O62  1  0.89964100  0.68430000  0.11987100  1
  O  O63  1  0.60035900  0.68430000  0.61987100  1
  O  O64  1  0.08564900  0.91556900  0.40981600  1
  O  O65  1  0.41435100  0.91556900  0.90981600  1
  O  O66  1  0.91435100  0.08443100  0.59018400  1
  O  O67  1  0.58564900  0.08443100  0.09018400  1
  O  O68  1  0.04456500  0.96504500  0.21615400  1
  O  O69  1  0.45543500  0.96504500  0.71615400  1
  O  O70  1  0.95543500  0.03495500  0.78384600  1
  O  O71  1  0.54456500  0.03495500  0.28384600  1
