# generated using pymatgen
data_PSN(Cl2O)2
_symmetry_space_group_name_H-M   'P 1'
_cell_length_a   15.56035143
_cell_length_b   17.46934800
_cell_length_c   19.44849421
_cell_angle_alpha   90.00000000
_cell_angle_beta   90.00000000
_cell_angle_gamma   91.76882462
_symmetry_Int_Tables_number   1
_chemical_formula_structural   PSN(Cl2O)2
_chemical_formula_sum   'P24 S24 N24 Cl96 O48'
_cell_volume   5284.14942840
_cell_formula_units_Z   24
loop_
 _symmetry_equiv_pos_site_id
 _symmetry_equiv_pos_as_xyz
  1  'x, y, z'
loop_
 _atom_site_type_symbol
 _atom_site_label
 _atom_site_symmetry_multiplicity
 _atom_site_fract_x
 _atom_site_fract_y
 _atom_site_fract_z
 _atom_site_occupancy
  P  P0  1  0.95363598  0.62269372  0.64075096  1
  P  P1  1  0.04636402  0.87730628  0.14075096  1
  P  P2  1  0.04636402  0.37730628  0.35924904  1
  P  P3  1  0.95363598  0.12269372  0.85924904  1
  P  P4  1  0.38054986  0.55858073  0.11242615  1
  P  P5  1  0.61945014  0.94141927  0.61242615  1
  P  P6  1  0.61945014  0.44141927  0.88757385  1
  P  P7  1  0.38054986  0.05858073  0.38757385  1
  P  P8  1  0.27779247  0.75435156  0.88803733  1
  P  P9  1  0.72220753  0.74564844  0.38803733  1
  P  P10  1  0.72220753  0.24564844  0.11196267  1
  P  P11  1  0.27779247  0.25435156  0.61196267  1
  P  P12  1  0.54861506  0.39748427  0.38527302  1
  P  P13  1  0.45138494  0.10251573  0.88527302  1
  P  P14  1  0.45138494  0.60251573  0.61472698  1
  P  P15  1  0.54861506  0.89748427  0.11472698  1
  P  P16  1  0.12264130  0.46754823  0.86817253  1
  P  P17  1  0.87735870  0.03245177  0.36817253  1
  P  P18  1  0.87735870  0.53245177  0.13182747  1
  P  P19  1  0.12264130  0.96754823  0.63182747  1
  P  P20  1  0.77721512  0.26676172  0.63332665  1
  P  P21  1  0.22278488  0.23323828  0.13332665  1
  P  P22  1  0.22278488  0.73323828  0.36667335  1
  P  P23  1  0.77721512  0.76676172  0.86667335  1
  S  S24  1  0.13254154  0.58392021  0.63343501  1
  S  S25  1  0.86745846  0.91607979  0.13343501  1
  S  S26  1  0.86745846  0.41607979  0.36656499  1
  S  S27  1  0.13254154  0.08392021  0.86656499  1
  S  S28  1  0.19509736  0.54500369  0.11233520  1
  S  S29  1  0.80490264  0.95499631  0.61233520  1
  S  S30  1  0.80490264  0.45499631  0.88766480  1
  S  S31  1  0.19509736  0.04500369  0.38766480  1
  S  S32  1  0.46226333  0.75958472  0.87715680  1
  S  S33  1  0.53773667  0.74041528  0.37715680  1
  S  S34  1  0.53773667  0.24041528  0.12284320  1
  S  S35  1  0.46226333  0.25958472  0.62284320  1
  S  S36  1  0.36513364  0.41104490  0.37837977  1
  S  S37  1  0.63486636  0.08895510  0.87837977  1
  S  S38  1  0.63486636  0.58895510  0.62162023  1
  S  S39  1  0.36513364  0.91104490  0.12162023  1
  S  S40  1  0.30693423  0.47353024  0.88648161  1
  S  S41  1  0.69306577  0.02646976  0.38648161  1
  S  S42  1  0.69306577  0.52646976  0.11351839  1
  S  S43  1  0.30693423  0.97353024  0.61351839  1
  S  S44  1  0.96266551  0.26554852  0.63012075  1
  S  S45  1  0.03733449  0.23445148  0.13012075  1
  S  S46  1  0.03733449  0.73445148  0.36987925  1
  S  S47  1  0.96266551  0.76554852  0.86987925  1
  N  N48  1  0.04233362  0.59637283  0.66982272  1
  N  N49  1  0.95766638  0.90362717  0.16982272  1
  N  N50  1  0.95766638  0.40362717  0.33017728  1
  N  N51  1  0.04233362  0.09637283  0.83017728  1
  N  N52  1  0.28681549  0.57919861  0.09020647  1
  N  N53  1  0.71318451  0.92080139  0.59020647  1
  N  N54  1  0.71318451  0.42080139  0.90979353  1
  N  N55  1  0.28681549  0.07919861  0.40979353  1
  N  N56  1  0.37233524  0.74406081  0.91436897  1
  N  N57  1  0.62766476  0.75593919  0.41436897  1
  N  N58  1  0.62766476  0.25593919  0.08563103  1
  N  N59  1  0.37233524  0.24406081  0.58563103  1
  N  N60  1  0.45784001  0.42128919  0.41245887  1
  N  N61  1  0.54215999  0.07871081  0.91245887  1
  N  N62  1  0.54215999  0.57871081  0.58754113  1
  N  N63  1  0.45784001  0.92128919  0.08754113  1
  N  N64  1  0.21575859  0.50506460  0.86625094  1
  N  N65  1  0.78424141  0.99493540  0.36625094  1
  N  N66  1  0.78424141  0.49493540  0.13374906  1
  N  N67  1  0.21575859  0.00506460  0.63374906  1
  N  N68  1  0.86987575  0.25925752  0.66448381  1
  N  N69  1  0.13012425  0.24074248  0.16448381  1
  N  N70  1  0.13012425  0.74074248  0.33551619  1
  N  N71  1  0.86987575  0.75925752  0.83551619  1
  Cl  Cl72  1  0.17784065  0.69623962  0.61312465  1
  Cl  Cl73  1  0.82215935  0.80376038  0.11312465  1
  Cl  Cl74  1  0.82215935  0.30376038  0.38687535  1
  Cl  Cl75  1  0.17784065  0.19623962  0.88687535  1
  Cl  Cl76  1  0.94587470  0.73478914  0.62290439  1
  Cl  Cl77  1  0.05412530  0.76521086  0.12290439  1
  Cl  Cl78  1  0.05412530  0.26521086  0.37709561  1
  Cl  Cl79  1  0.94587470  0.23478914  0.87709561  1
  Cl  Cl80  1  0.86644619  0.59830717  0.71201138  1
  Cl  Cl81  1  0.13355381  0.90169283  0.21201138  1
  Cl  Cl82  1  0.13355381  0.40169283  0.28798862  1
  Cl  Cl83  1  0.86644619  0.09830717  0.78798862  1
  Cl  Cl84  1  0.91247157  0.57259470  0.55446606  1
  Cl  Cl85  1  0.08752843  0.92740530  0.05446606  1
  Cl  Cl86  1  0.08752843  0.42740530  0.44553394  1
  Cl  Cl87  1  0.91247157  0.07259470  0.94553394  1
  Cl  Cl88  1  0.16992005  0.60182285  0.20499354  1
  Cl  Cl89  1  0.83007995  0.89817715  0.70499354  1
  Cl  Cl90  1  0.83007995  0.39817715  0.79500646  1
  Cl  Cl91  1  0.16992005  0.10182285  0.29500646  1
  Cl  Cl92  1  0.41901145  0.60463000  0.20180449  1
  Cl  Cl93  1  0.58098855  0.89537000  0.70180449  1
  Cl  Cl94  1  0.58098855  0.39537000  0.79819551  1
  Cl  Cl95  1  0.41901145  0.10463000  0.29819551  1
  Cl  Cl96  1  0.45932885  0.60304172  0.04214053  1
  Cl  Cl97  1  0.54067115  0.89695828  0.54214053  1
  Cl  Cl98  1  0.54067115  0.39695828  0.95785947  1
  Cl  Cl99  1  0.45932885  0.10304172  0.45785947  1
  Cl  Cl100  1  0.40625224  0.44832782  0.11976664  1
  Cl  Cl101  1  0.59374776  0.05167218  0.61976664  1
  Cl  Cl102  1  0.59374776  0.55167218  0.88023336  1
  Cl  Cl103  1  0.40625224  0.94832782  0.38023336  1
  Cl  Cl104  1  0.48735008  0.87701592  0.89346521  1
  Cl  Cl105  1  0.51264992  0.62298408  0.39346521  1
  Cl  Cl106  1  0.51264992  0.12298408  0.10653479  1
  Cl  Cl107  1  0.48735008  0.37701592  0.60653479  1
  Cl  Cl108  1  0.24202804  0.86318743  0.88224089  1
  Cl  Cl109  1  0.75797196  0.63681257  0.38224089  1
  Cl  Cl110  1  0.75797196  0.13681257  0.11775911  1
  Cl  Cl111  1  0.24202804  0.36318743  0.61775911  1
  Cl  Cl112  1  0.19944956  0.70366095  0.95515031  1
  Cl  Cl113  1  0.80055044  0.79633905  0.45515031  1
  Cl  Cl114  1  0.80055044  0.29633905  0.04484969  1
  Cl  Cl115  1  0.19944956  0.20366095  0.54484969  1
  Cl  Cl116  1  0.24857287  0.70862498  0.79699663  1
  Cl  Cl117  1  0.75142713  0.79137502  0.29699663  1
  Cl  Cl118  1  0.75142713  0.29137502  0.20300337  1
  Cl  Cl119  1  0.24857287  0.20862498  0.70300337  1
  Cl  Cl120  1  0.33059574  0.29602502  0.39792557  1
  Cl  Cl121  1  0.66940426  0.20397498  0.89792557  1
  Cl  Cl122  1  0.66940426  0.70397498  0.60207443  1
  Cl  Cl123  1  0.33059574  0.79602502  0.10207443  1
  Cl  Cl124  1  0.56934082  0.28524425  0.38758703  1
  Cl  Cl125  1  0.43065918  0.21475575  0.88758703  1
  Cl  Cl126  1  0.43065918  0.71475575  0.61241297  1
  Cl  Cl127  1  0.56934082  0.78524425  0.11241297  1
  Cl  Cl128  1  0.63512318  0.44554844  0.44739994  1
  Cl  Cl129  1  0.36487682  0.05445156  0.94739994  1
  Cl  Cl130  1  0.36487682  0.55445156  0.55260006  1
  Cl  Cl131  1  0.63512318  0.94554844  0.05260006  1
  Cl  Cl132  1  0.57948474  0.43006790  0.29025216  1
  Cl  Cl133  1  0.42051526  0.06993210  0.79025216  1
  Cl  Cl134  1  0.42051526  0.56993210  0.70974784  1
  Cl  Cl135  1  0.57948474  0.93006790  0.20974784  1
  Cl  Cl136  1  0.32879437  0.38835903  0.81251299  1
  Cl  Cl137  1  0.67120563  0.11164097  0.31251299  1
  Cl  Cl138  1  0.67120563  0.61164097  0.18748701  1
  Cl  Cl139  1  0.32879437  0.88835903  0.68748701  1
  Cl  Cl140  1  0.09433321  0.39759265  0.78975420  1
  Cl  Cl141  1  0.90566679  0.10240735  0.28975420  1
  Cl  Cl142  1  0.90566679  0.60240735  0.21024580  1
  Cl  Cl143  1  0.09433321  0.89759265  0.71024580  1
  Cl  Cl144  1  0.04111431  0.55173865  0.86190464  1
  Cl  Cl145  1  0.95888569  0.94826135  0.36190464  1
  Cl  Cl146  1  0.95888569  0.44826135  0.13809536  1
  Cl  Cl147  1  0.04111431  0.05173865  0.63809536  1
  Cl  Cl148  1  0.09084156  0.40691116  0.95169761  1
  Cl  Cl149  1  0.90915844  0.09308884  0.45169761  1
  Cl  Cl150  1  0.90915844  0.59308884  0.04830239  1
  Cl  Cl151  1  0.09084156  0.90691116  0.54830239  1
  Cl  Cl152  1  0.98262669  0.38338295  0.61487970  1
  Cl  Cl153  1  0.01737331  0.11661705  0.11487970  1
  Cl  Cl154  1  0.01737331  0.61661705  0.38512030  1
  Cl  Cl155  1  0.98262669  0.88338295  0.88512030  1
  Cl  Cl156  1  0.74559704  0.37390905  0.61130192  1
  Cl  Cl157  1  0.25440296  0.12609095  0.11130192  1
  Cl  Cl158  1  0.25440296  0.62609095  0.38869808  1
  Cl  Cl159  1  0.74559704  0.87390905  0.88869808  1
  Cl  Cl160  1  0.69561029  0.23000123  0.70493508  1
  Cl  Cl161  1  0.30438971  0.26999877  0.20493508  1
  Cl  Cl162  1  0.30438971  0.76999877  0.29506492  1
  Cl  Cl163  1  0.69561029  0.73000123  0.79506492  1
  Cl  Cl164  1  0.74958869  0.20601875  0.54935025  1
  Cl  Cl165  1  0.25041131  0.29398125  0.04935025  1
  Cl  Cl166  1  0.25041131  0.79398125  0.45064975  1
  Cl  Cl167  1  0.74958869  0.70601875  0.95064975  1
  O  O168  1  0.19111687  0.55544576  0.68370746  1
  O  O169  1  0.80888313  0.94455424  0.18370746  1
  O  O170  1  0.80888313  0.44455424  0.31629254  1
  O  O171  1  0.19111687  0.05544576  0.81629254  1
  O  O172  1  0.12599375  0.54729675  0.56720040  1
  O  O173  1  0.87400625  0.95270325  0.06720040  1
  O  O174  1  0.87400625  0.45270325  0.43279960  1
  O  O175  1  0.12599375  0.04729675  0.93279960  1
  O  O176  1  0.13227711  0.57316995  0.06508231  1
  O  O177  1  0.86772289  0.92683005  0.56508231  1
  O  O178  1  0.86772289  0.42683005  0.93491769  1
  O  O179  1  0.13227711  0.07316995  0.43491769  1
  O  O180  1  0.19399693  0.46481906  0.12989182  1
  O  O181  1  0.80600307  0.03518094  0.62989182  1
  O  O182  1  0.80600307  0.53518094  0.87010818  1
  O  O183  1  0.19399693  0.96481906  0.37010818  1
  O  O184  1  0.52753883  0.72263175  0.91648475  1
  O  O185  1  0.47246117  0.77736825  0.41648475  1
  O  O186  1  0.47246117  0.27736825  0.08351525  1
  O  O187  1  0.52753883  0.22263175  0.58351525  1
  O  O188  1  0.45998498  0.75095354  0.80354780  1
  O  O189  1  0.54001502  0.74904646  0.30354780  1
  O  O190  1  0.54001502  0.24904646  0.19645220  1
  O  O191  1  0.45998498  0.25095354  0.69645220  1
  O  O192  1  0.30556755  0.45391779  0.41836894  1
  O  O193  1  0.69443245  0.04608221  0.91836894  1
  O  O194  1  0.69443245  0.54608221  0.58163106  1
  O  O195  1  0.30556755  0.95391779  0.08163106  1
  O  O196  1  0.36512458  0.41799007  0.30445835  1
  O  O197  1  0.63487542  0.08200993  0.80445835  1
  O  O198  1  0.63487542  0.58200993  0.69554165  1
  O  O199  1  0.36512458  0.91799007  0.19554165  1
  O  O200  1  0.37137243  0.53209568  0.87248118  1
  O  O201  1  0.62862757  0.96790432  0.37248118  1
  O  O202  1  0.62862757  0.46790432  0.12751882  1
  O  O203  1  0.37137243  0.03209568  0.62751882  1
  O  O204  1  0.30744671  0.43426859  0.95179204  1
  O  O205  1  0.69255329  0.06573141  0.45179204  1
  O  O206  1  0.69255329  0.56573141  0.04820796  1
  O  O207  1  0.30744671  0.93426859  0.54820796  1
  O  O208  1  0.02511335  0.24600280  0.68120604  1
  O  O209  1  0.97488665  0.25399720  0.18120604  1
  O  O210  1  0.97488665  0.75399720  0.31879396  1
  O  O211  1  0.02511335  0.74600280  0.81879396  1
  O  O212  1  0.96649220  0.23165685  0.56263741  1
  O  O213  1  0.03350780  0.26834315  0.06263741  1
  O  O214  1  0.03350780  0.76834315  0.43736259  1
  O  O215  1  0.96649220  0.73165685  0.93736259  1
