# generated using pymatgen
data_Rb2U3(O5F4)2
_symmetry_space_group_name_H-M   'P 1'
_cell_length_a   8.42297035
_cell_length_b   8.42297035
_cell_length_c   13.44393500
_cell_angle_alpha   90.00000000
_cell_angle_beta   90.00000000
_cell_angle_gamma   119.36371137
_symmetry_Int_Tables_number   1
_chemical_formula_structural   Rb2U3(O5F4)2
_chemical_formula_sum   'Rb4 U6 O20 F16'
_cell_volume   831.25941098
_cell_formula_units_Z   2
loop_
 _symmetry_equiv_pos_site_id
 _symmetry_equiv_pos_as_xyz
  1  'x, y, z'
loop_
 _atom_site_type_symbol
 _atom_site_label
 _atom_site_symmetry_multiplicity
 _atom_site_fract_x
 _atom_site_fract_y
 _atom_site_fract_z
 _atom_site_occupancy
  Rb  Rb0  1  0.93692400  0.94569000  0.25000000  1
  Rb  Rb1  1  0.94569000  0.93692400  0.75000000  1
  Rb  Rb2  1  0.50019000  0.25177500  0.25000000  1
  Rb  Rb3  1  0.25177500  0.50019000  0.75000000  1
  U  U4  1  0.80035800  0.20878600  0.52346700  1
  U  U5  1  0.20878600  0.80035800  0.47653300  1
  U  U6  1  0.80035800  0.20878600  0.97653300  1
  U  U7  1  0.20878600  0.80035800  0.02346700  1
  U  U8  1  0.61216500  0.61216500  0.50000000  1
  U  U9  1  0.61216500  0.61216500  0.00000000  1
  O  O10  1  0.90980500  0.21385700  0.40620800  1
  O  O11  1  0.21385700  0.90980500  0.59379200  1
  O  O12  1  0.90980500  0.21385700  0.09379200  1
  O  O13  1  0.21385700  0.90980500  0.90620800  1
  O  O14  1  0.67414400  0.19185100  0.63518200  1
  O  O15  1  0.19185100  0.67414400  0.36481800  1
  O  O16  1  0.67414400  0.19185100  0.86481800  1
  O  O17  1  0.19185100  0.67414400  0.13518200  1
  O  O18  1  0.56822500  0.64670700  0.37204900  1
  O  O19  1  0.64670700  0.56822500  0.62795100  1
  O  O20  1  0.56822500  0.64670700  0.12795100  1
  O  O21  1  0.64670700  0.56822500  0.87204900  1
  O  O22  1  0.32496900  0.32496900  0.50000000  1
  O  O23  1  0.32496900  0.32496900  0.00000000  1
  O  O24  1  0.20411500  0.38071300  0.25000000  1
  O  O25  1  0.38071300  0.20411500  0.75000000  1
  O  O26  1  0.90652000  0.56065200  0.25000000  1
  O  O27  1  0.56065200  0.90652000  0.75000000  1
  O  O28  1  0.58331000  0.94376100  0.25000000  1
  O  O29  1  0.94376100  0.58331000  0.75000000  1
  F  F30  1  0.65310200  0.37193800  0.45160600  1
  F  F31  1  0.37193800  0.65310200  0.54839400  1
  F  F32  1  0.65310200  0.37193800  0.04839400  1
  F  F33  1  0.37193800  0.65310200  0.95160600  1
  F  F34  1  0.51992700  0.99558300  0.45311500  1
  F  F35  1  0.99558300  0.51992700  0.54688500  1
  F  F36  1  0.51992700  0.99558300  0.04688500  1
  F  F37  1  0.99558300  0.51992700  0.95311500  1
  F  F38  1  0.02152800  0.22935300  0.61712800  1
  F  F39  1  0.22935300  0.02152800  0.38287200  1
  F  F40  1  0.02152800  0.22935300  0.88287200  1
  F  F41  1  0.22935300  0.02152800  0.11712800  1
  F  F42  1  0.74691800  0.90975800  0.54958000  1
  F  F43  1  0.90975800  0.74691800  0.45042000  1
  F  F44  1  0.74691800  0.90975800  0.95042000  1
  F  F45  1  0.90975800  0.74691800  0.04958000  1
