# generated using pymatgen
data_Mo15Pb2Se19
_symmetry_space_group_name_H-M   'P 1'
_cell_length_a   20.03204285
_cell_length_b   20.03204285
_cell_length_c   20.03204233
_cell_angle_alpha   28.44463998
_cell_angle_beta   28.44463998
_cell_angle_gamma   28.44464066
_symmetry_Int_Tables_number   1
_chemical_formula_structural   Mo15Pb2Se19
_chemical_formula_sum   'Mo30 Pb4 Se38'
_cell_volume   1611.77321751
_cell_formula_units_Z   2
loop_
 _symmetry_equiv_pos_site_id
 _symmetry_equiv_pos_as_xyz
  1  'x, y, z'
loop_
 _atom_site_type_symbol
 _atom_site_label
 _atom_site_symmetry_multiplicity
 _atom_site_fract_x
 _atom_site_fract_y
 _atom_site_fract_z
 _atom_site_occupancy
  Mo  Mo0  1  0.81385000  0.00015900  0.12665700  1
  Mo  Mo1  1  0.12665700  0.81385000  0.00015900  1
  Mo  Mo2  1  0.00015900  0.12665700  0.81385000  1
  Mo  Mo3  1  0.62665700  0.50015900  0.31385000  1
  Mo  Mo4  1  0.31385000  0.62665700  0.50015900  1
  Mo  Mo5  1  0.50015900  0.31385000  0.62665700  1
  Mo  Mo6  1  0.18615000  0.99984100  0.87334300  1
  Mo  Mo7  1  0.87334300  0.18615000  0.99984100  1
  Mo  Mo8  1  0.99984100  0.87334300  0.18615000  1
  Mo  Mo9  1  0.37334300  0.49984100  0.68615000  1
  Mo  Mo10  1  0.68615000  0.37334300  0.49984100  1
  Mo  Mo11  1  0.49984100  0.68615000  0.37334300  1
  Mo  Mo12  1  0.64044800  0.77726300  0.95035700  1
  Mo  Mo13  1  0.95035700  0.64044800  0.77726300  1
  Mo  Mo14  1  0.77726300  0.95035700  0.64044800  1
  Mo  Mo15  1  0.45035700  0.27726300  0.14044800  1
  Mo  Mo16  1  0.14044800  0.45035700  0.27726300  1
  Mo  Mo17  1  0.27726300  0.14044800  0.45035700  1
  Mo  Mo18  1  0.35955200  0.22273700  0.04964300  1
  Mo  Mo19  1  0.04964300  0.35955200  0.22273700  1
  Mo  Mo20  1  0.22273700  0.04964300  0.35955200  1
  Mo  Mo21  1  0.54964300  0.72273700  0.85955200  1
  Mo  Mo22  1  0.85955200  0.54964300  0.72273700  1
  Mo  Mo23  1  0.72273700  0.85955200  0.54964300  1
  Mo  Mo24  1  0.59116900  0.90883100  0.75000000  1
  Mo  Mo25  1  0.75000000  0.59116900  0.90883100  1
  Mo  Mo26  1  0.90883100  0.75000000  0.59116900  1
  Mo  Mo27  1  0.25000000  0.40883100  0.09116900  1
  Mo  Mo28  1  0.09116900  0.25000000  0.40883100  1
  Mo  Mo29  1  0.40883100  0.09116900  0.25000000  1
  Pb  Pb30  1  0.88370500  0.88370500  0.88370500  1
  Pb  Pb31  1  0.38370500  0.38370500  0.38370500  1
  Pb  Pb32  1  0.11629500  0.11629500  0.11629500  1
  Pb  Pb33  1  0.61629500  0.61629500  0.61629500  1
  Se  Se34  1  0.94247100  0.69915900  0.30768500  1
  Se  Se35  1  0.30768500  0.94247100  0.69915900  1
  Se  Se36  1  0.69915900  0.30768500  0.94247100  1
  Se  Se37  1  0.80768500  0.19915900  0.44247100  1
  Se  Se38  1  0.44247100  0.80768500  0.19915900  1
  Se  Se39  1  0.19915900  0.44247100  0.80768500  1
  Se  Se40  1  0.05752900  0.30084100  0.69231500  1
  Se  Se41  1  0.69231500  0.05752900  0.30084100  1
  Se  Se42  1  0.30084100  0.69231500  0.05752900  1
  Se  Se43  1  0.19231500  0.80084100  0.55752900  1
  Se  Se44  1  0.55752900  0.19231500  0.80084100  1
  Se  Se45  1  0.80084100  0.55752900  0.19231500  1
  Se  Se46  1  0.45640000  0.07834700  0.82294700  1
  Se  Se47  1  0.82294700  0.45640000  0.07834700  1
  Se  Se48  1  0.07834700  0.82294700  0.45640000  1
  Se  Se49  1  0.32294700  0.57834700  0.95640000  1
  Se  Se50  1  0.95640000  0.32294700  0.57834700  1
  Se  Se51  1  0.57834700  0.95640000  0.32294700  1
  Se  Se52  1  0.54360000  0.92165300  0.17705300  1
  Se  Se53  1  0.17705300  0.54360000  0.92165300  1
  Se  Se54  1  0.92165300  0.17705300  0.54360000  1
  Se  Se55  1  0.67705300  0.42165300  0.04360000  1
  Se  Se56  1  0.04360000  0.67705300  0.42165300  1
  Se  Se57  1  0.42165300  0.04360000  0.67705300  1
  Se  Se58  1  0.05688500  0.44311500  0.75000000  1
  Se  Se59  1  0.75000000  0.05688500  0.44311500  1
  Se  Se60  1  0.44311500  0.75000000  0.05688500  1
  Se  Se61  1  0.25000000  0.94311500  0.55688500  1
  Se  Se62  1  0.55688500  0.25000000  0.94311500  1
  Se  Se63  1  0.94311500  0.55688500  0.25000000  1
  Se  Se64  1  0.94458000  0.94458000  0.94458000  1
  Se  Se65  1  0.44458000  0.44458000  0.44458000  1
  Se  Se66  1  0.05542000  0.05542000  0.05542000  1
  Se  Se67  1  0.55542000  0.55542000  0.55542000  1
  Se  Se68  1  0.82496200  0.82496200  0.82496200  1
  Se  Se69  1  0.32496200  0.32496200  0.32496200  1
  Se  Se70  1  0.17503800  0.17503800  0.17503800  1
  Se  Se71  1  0.67503800  0.67503800  0.67503800  1
