# generated using pymatgen
data_KMgAs(H6O5)2
_symmetry_space_group_name_H-M   'P 1'
_cell_length_a   6.24244700
_cell_length_b   7.22341000
_cell_length_c   11.24913300
_cell_angle_alpha   90.00000000
_cell_angle_beta   90.00000000
_cell_angle_gamma   90.00000000
_symmetry_Int_Tables_number   1
_chemical_formula_structural   KMgAs(H6O5)2
_chemical_formula_sum   'K2 Mg2 As2 H24 O20'
_cell_volume   507.24313890
_cell_formula_units_Z   2
loop_
 _symmetry_equiv_pos_site_id
 _symmetry_equiv_pos_as_xyz
  1  'x, y, z'
loop_
 _atom_site_type_symbol
 _atom_site_label
 _atom_site_symmetry_multiplicity
 _atom_site_fract_x
 _atom_site_fract_y
 _atom_site_fract_z
 _atom_site_occupancy
  K  K0  1  0.38471400  0.50000000  0.20599500  1
  K  K1  1  0.61528600  0.00000000  0.70599500  1
  Mg  Mg2  1  0.62884400  0.00000000  0.37855600  1
  Mg  Mg3  1  0.37115600  0.50000000  0.87855600  1
  As  As4  1  0.99305400  0.50000000  0.49196700  1
  As  As5  1  0.00694600  0.00000000  0.99196700  1
  H  H6  1  0.98886600  0.11209900  0.50339000  1
  H  H7  1  0.98886600  0.88790100  0.50339000  1
  H  H8  1  0.01113400  0.38790100  0.00339000  1
  H  H9  1  0.01113400  0.61209900  0.00339000  1
  H  H10  1  0.29245600  0.89865500  0.23530600  1
  H  H11  1  0.29245600  0.10134500  0.23530600  1
  H  H12  1  0.70754400  0.60134500  0.73530600  1
  H  H13  1  0.70754400  0.39865500  0.73530600  1
  H  H14  1  0.82762200  0.31800900  0.29648600  1
  H  H15  1  0.82762200  0.68199100  0.29648600  1
  H  H16  1  0.17237800  0.18199100  0.79648600  1
  H  H17  1  0.17237800  0.81800900  0.79648600  1
  H  H18  1  0.79426300  0.19603200  0.18126200  1
  H  H19  1  0.79426300  0.80396800  0.18126200  1
  H  H20  1  0.20573700  0.30396800  0.68126200  1
  H  H21  1  0.20573700  0.69603200  0.68126200  1
  H  H22  1  0.59679100  0.32198500  0.50737300  1
  H  H23  1  0.59679100  0.67801500  0.50737300  1
  H  H24  1  0.40320900  0.17801500  0.00737300  1
  H  H25  1  0.40320900  0.82198500  0.00737300  1
  H  H26  1  0.35341800  0.24737500  0.50057700  1
  H  H27  1  0.35341800  0.75262500  0.50057700  1
  H  H28  1  0.64658200  0.25262500  0.00057700  1
  H  H29  1  0.64658200  0.74737500  0.00057700  1
  O  O30  1  0.99153800  0.50000000  0.33897900  1
  O  O31  1  0.00846200  0.00000000  0.83897900  1
  O  O32  1  0.73537900  0.50000000  0.54769300  1
  O  O33  1  0.26462100  0.00000000  0.04769300  1
  O  O34  1  0.11983800  0.30390400  0.54439400  1
  O  O35  1  0.11983800  0.69609600  0.54439400  1
  O  O36  1  0.88016200  0.19609600  0.04439400  1
  O  O37  1  0.88016200  0.80390400  0.04439400  1
  O  O38  1  0.73100400  0.21941000  0.26286100  1
  O  O39  1  0.73100400  0.78059000  0.26286100  1
  O  O40  1  0.26899600  0.28059000  0.76286100  1
  O  O41  1  0.26899600  0.71941000  0.76286100  1
  O  O42  1  0.50776000  0.20873800  0.48805400  1
  O  O43  1  0.50776000  0.79126200  0.48805400  1
  O  O44  1  0.49224000  0.29126200  0.98805400  1
  O  O45  1  0.49224000  0.70873800  0.98805400  1
  O  O46  1  0.32321000  0.00000000  0.28987900  1
  O  O47  1  0.67679000  0.50000000  0.78987900  1
  O  O48  1  0.89613700  0.00000000  0.49054800  1
  O  O49  1  0.10386300  0.50000000  0.99054800  1
