# generated using pymatgen
data_UH2C(OF)3
_symmetry_space_group_name_H-M   'P 1'
_cell_length_a   6.26588400
_cell_length_b   8.63341556
_cell_length_c   9.28440006
_cell_angle_alpha   96.60523463
_cell_angle_beta   109.72107364
_cell_angle_gamma   90.00000000
_symmetry_Int_Tables_number   1
_chemical_formula_structural   UH2C(OF)3
_chemical_formula_sum   'U4 H8 C4 O12 F12'
_cell_volume   469.24703583
_cell_formula_units_Z   4
loop_
 _symmetry_equiv_pos_site_id
 _symmetry_equiv_pos_as_xyz
  1  'x, y, z'
loop_
 _atom_site_type_symbol
 _atom_site_label
 _atom_site_symmetry_multiplicity
 _atom_site_fract_x
 _atom_site_fract_y
 _atom_site_fract_z
 _atom_site_occupancy
  U  U0  1  0.05946400  0.12803700  0.34722100  1
  U  U1  1  0.71224300  0.37196300  0.65277900  1
  U  U2  1  0.94053600  0.87196300  0.65277900  1
  U  U3  1  0.28775700  0.62803700  0.34722100  1
  H  H4  1  0.55758300  0.18637100  0.16204300  1
  H  H5  1  0.39554000  0.31362900  0.83795700  1
  H  H6  1  0.44241700  0.81362900  0.83795700  1
  H  H7  1  0.60446000  0.68637100  0.16204300  1
  H  H8  1  0.66174000  0.33964800  0.27497100  1
  H  H9  1  0.38676900  0.16035200  0.72502900  1
  H  H10  1  0.33826000  0.66035200  0.72502900  1
  H  H11  1  0.61323100  0.83964800  0.27497100  1
  C  C12  1  0.88561400  0.96002600  0.99112800  1
  C  C13  1  0.89448600  0.53997400  0.00887200  1
  C  C14  1  0.11438700  0.03997400  0.00887200  1
  C  C15  1  0.10551400  0.46002600  0.99112800  1
  O  O16  1  0.81522500  0.98486100  0.10355600  1
  O  O17  1  0.71166900  0.51513900  0.89644400  1
  O  O18  1  0.18477500  0.01513900  0.89644400  1
  O  O19  1  0.28833100  0.48486100  0.10355600  1
  O  O20  1  0.21475900  0.12541400  0.13561000  1
  O  O21  1  0.07914900  0.37458600  0.86439000  1
  O  O22  1  0.78524100  0.87458600  0.86439000  1
  O  O23  1  0.92085100  0.62541400  0.13561000  1
  O  O24  1  0.70056400  0.24743200  0.21650000  1
  O  O25  1  0.48406400  0.25256800  0.78350000  1
  O  O26  1  0.29943600  0.75256800  0.78350000  1
  O  O27  1  0.51593600  0.74743200  0.21650000  1
  F  F28  1  0.43030300  0.21013900  0.47125700  1
  F  F29  1  0.95904700  0.28986100  0.52874300  1
  F  F30  1  0.56969700  0.78986100  0.52874300  1
  F  F31  1  0.04095300  0.71013900  0.47125700  1
  F  F32  1  0.80150600  0.97622900  0.40102800  1
  F  F33  1  0.40047900  0.52377100  0.59897200  1
  F  F34  1  0.19849400  0.02377100  0.59897200  1
  F  F35  1  0.59952100  0.47622900  0.40102800  1
  F  F36  1  0.20028300  0.89092900  0.31454600  1
  F  F37  1  0.88573700  0.60907100  0.68545400  1
  F  F38  1  0.79971700  0.10907100  0.68545400  1
  F  F39  1  0.11426300  0.39092900  0.31454600  1
