# generated using pymatgen
data_CaSnP6(HO)12
_symmetry_space_group_name_H-M   'P 1'
_cell_length_a   7.78342439
_cell_length_b   7.78342439
_cell_length_c   7.78342487
_cell_angle_alpha   102.80682345
_cell_angle_beta   102.80682345
_cell_angle_gamma   102.80683188
_symmetry_Int_Tables_number   1
_chemical_formula_structural   CaSnP6(HO)12
_chemical_formula_sum   'Ca1 Sn1 P6 H12 O12'
_cell_volume   429.79695787
_cell_formula_units_Z   1
loop_
 _symmetry_equiv_pos_site_id
 _symmetry_equiv_pos_as_xyz
  1  'x, y, z'
loop_
 _atom_site_type_symbol
 _atom_site_label
 _atom_site_symmetry_multiplicity
 _atom_site_fract_x
 _atom_site_fract_y
 _atom_site_fract_z
 _atom_site_occupancy
  Ca  Ca0  1  0.50000000  0.50000000  0.50000000  1
  Sn  Sn1  1  0.00000000  0.00000000  0.00000000  1
  P  P2  1  0.75407300  0.59524700  0.99160500  1
  P  P3  1  0.99160500  0.75407300  0.59524700  1
  P  P4  1  0.59524700  0.99160500  0.75407300  1
  P  P5  1  0.24592700  0.40475300  0.00839500  1
  P  P6  1  0.00839500  0.24592700  0.40475300  1
  P  P7  1  0.40475300  0.00839500  0.24592700  1
  H  H8  1  0.68165400  0.70063000  0.11428600  1
  H  H9  1  0.11428600  0.68165400  0.70063000  1
  H  H10  1  0.70063000  0.11428600  0.68165400  1
  H  H11  1  0.31834600  0.29937000  0.88571400  1
  H  H12  1  0.88571400  0.31834600  0.29937000  1
  H  H13  1  0.29937000  0.88571400  0.31834600  1
  H  H14  1  0.81258800  0.46930400  0.07957800  1
  H  H15  1  0.07957800  0.81258800  0.46930400  1
  H  H16  1  0.46930400  0.07957800  0.81258800  1
  H  H17  1  0.18741200  0.53069600  0.92042200  1
  H  H18  1  0.92042200  0.18741200  0.53069600  1
  H  H19  1  0.53069600  0.92042200  0.18741200  1
  O  O20  1  0.93855000  0.72456700  0.99061500  1
  O  O21  1  0.99061500  0.93855000  0.72456700  1
  O  O22  1  0.72456700  0.99061500  0.93855000  1
  O  O23  1  0.06145000  0.27543300  0.00938500  1
  O  O24  1  0.00938500  0.06145000  0.27543300  1
  O  O25  1  0.27543300  0.00938500  0.06145000  1
  O  O26  1  0.61292500  0.49600400  0.80866100  1
  O  O27  1  0.80866100  0.61292500  0.49600400  1
  O  O28  1  0.49600400  0.80866100  0.61292500  1
  O  O29  1  0.38707500  0.50399600  0.19133900  1
  O  O30  1  0.19133900  0.38707500  0.50399600  1
  O  O31  1  0.50399600  0.19133900  0.38707500  1
