# generated using pymatgen
data_BaTbMn2O6
_symmetry_space_group_name_H-M   'P 1'
_cell_length_a   5.58259100
_cell_length_b   7.79015800
_cell_length_c   11.14421943
_cell_angle_alpha   89.99825029
_cell_angle_beta   89.89582177
_cell_angle_gamma   89.99908064
_symmetry_Int_Tables_number   1
_chemical_formula_structural   BaTbMn2O6
_chemical_formula_sum   'Ba4 Tb4 Mn8 O24'
_cell_volume   484.65312097
_cell_formula_units_Z   4
loop_
 _symmetry_equiv_pos_site_id
 _symmetry_equiv_pos_as_xyz
  1  'x, y, z'
loop_
 _atom_site_type_symbol
 _atom_site_label
 _atom_site_symmetry_multiplicity
 _atom_site_fract_x
 _atom_site_fract_y
 _atom_site_fract_z
 _atom_site_occupancy
  Ba  Ba0  1  0.74765800  0.99817400  0.12513600  1
  Ba  Ba1  1  0.25234200  0.00182600  0.87486400  1
  Ba  Ba2  1  0.74710800  0.99789800  0.62558200  1
  Ba  Ba3  1  0.25289200  0.00210200  0.37441800  1
  Tb  Tb4  1  0.72988100  0.49669800  0.12940700  1
  Tb  Tb5  1  0.27011900  0.50330200  0.87059300  1
  Tb  Tb6  1  0.77832700  0.49559100  0.62100300  1
  Tb  Tb7  1  0.22167300  0.50440900  0.37899700  1
  Mn  Mn8  1  0.25055000  0.26009600  0.12496100  1
  Mn  Mn9  1  0.74945000  0.73990400  0.87503900  1
  Mn  Mn10  1  0.24885300  0.25530000  0.62378000  1
  Mn  Mn11  1  0.75114700  0.74470000  0.37622000  1
  Mn  Mn12  1  0.24898000  0.74152100  0.12463900  1
  Mn  Mn13  1  0.75102000  0.25847900  0.87536100  1
  Mn  Mn14  1  0.25071500  0.74574700  0.62397900  1
  Mn  Mn15  1  0.74928500  0.25425300  0.37602100  1
  O  O16  1  0.51776000  0.27507000  0.25099400  1
  O  O17  1  0.48224000  0.72493000  0.74900600  1
  O  O18  1  0.48430200  0.27634500  0.74654000  1
  O  O19  1  0.51569800  0.72365500  0.25346000  1
  O  O20  1  0.50808200  0.27016200  0.00240300  1
  O  O21  1  0.49191800  0.72983800  0.99759700  1
  O  O22  1  0.49256000  0.28121800  0.49868000  1
  O  O23  1  0.50744000  0.71878200  0.50132000  1
  O  O24  1  0.23736300  0.00044300  0.12416500  1
  O  O25  1  0.76263700  0.99955700  0.87583500  1
  O  O26  1  0.24513500  0.00016600  0.62706100  1
  O  O27  1  0.75486500  0.99983400  0.37293900  1
  O  O28  1  0.30433000  0.50055400  0.13397100  1
  O  O29  1  0.69567000  0.49944600  0.86602900  1
  O  O30  1  0.20971100  0.50042400  0.60971300  1
  O  O31  1  0.79028900  0.49957600  0.39028700  1
  O  O32  1  0.00672900  0.30176200  0.00046100  1
  O  O33  1  0.99327100  0.69823800  0.99953900  1
  O  O34  1  0.99070900  0.26274500  0.50319600  1
  O  O35  1  0.00929100  0.73725500  0.49680400  1
  O  O36  1  0.00861000  0.28964600  0.24977700  1
  O  O37  1  0.99139000  0.71035400  0.75022300  1
  O  O38  1  0.99291500  0.28897900  0.75062600  1
  O  O39  1  0.00708500  0.71102100  0.24937400  1
