# generated using pymatgen
data_Na2ZrSi3O11
_symmetry_space_group_name_H-M   'P 1'
_cell_length_a   6.71161500
_cell_length_b   11.87321700
_cell_length_c   12.92125600
_cell_angle_alpha   90.00000000
_cell_angle_beta   90.00000000
_cell_angle_gamma   90.00000000
_symmetry_Int_Tables_number   1
_chemical_formula_structural   Na2ZrSi3O11
_chemical_formula_sum   'Na8 Zr4 Si12 O44'
_cell_volume   1029.67500890
_cell_formula_units_Z   4
loop_
 _symmetry_equiv_pos_site_id
 _symmetry_equiv_pos_as_xyz
  1  'x, y, z'
loop_
 _atom_site_type_symbol
 _atom_site_label
 _atom_site_symmetry_multiplicity
 _atom_site_fract_x
 _atom_site_fract_y
 _atom_site_fract_z
 _atom_site_occupancy
  Na  Na0  1  0.06947600  0.74741600  0.65550100  1
  Na  Na1  1  0.93052400  0.24741600  0.34449900  1
  Na  Na2  1  0.56947600  0.24741600  0.84449900  1
  Na  Na3  1  0.43052400  0.74741600  0.15550100  1
  Na  Na4  1  0.16399500  0.99578700  0.89101700  1
  Na  Na5  1  0.83600500  0.49578700  0.10898300  1
  Na  Na6  1  0.66399500  0.49578700  0.60898300  1
  Na  Na7  1  0.33600500  0.99578700  0.39101700  1
  Zr  Zr8  1  0.34790300  0.24874600  0.55307000  1
  Zr  Zr9  1  0.65209700  0.74874600  0.44693000  1
  Zr  Zr10  1  0.84790300  0.74874600  0.94693000  1
  Zr  Zr11  1  0.15209700  0.24874600  0.05307000  1
  Si  Si12  1  0.10756500  0.28229900  0.78756900  1
  Si  Si13  1  0.89243500  0.78229900  0.21243100  1
  Si  Si14  1  0.60756500  0.78229900  0.71243100  1
  Si  Si15  1  0.39243500  0.28229900  0.28756900  1
  Si  Si16  1  0.10947800  0.49787300  0.91556200  1
  Si  Si17  1  0.89052200  0.99787300  0.08443800  1
  Si  Si18  1  0.60947800  0.99787300  0.58443800  1
  Si  Si19  1  0.39052200  0.49787300  0.41556200  1
  Si  Si20  1  0.34983800  0.71245800  0.89103200  1
  Si  Si21  1  0.65016200  0.21245800  0.10896800  1
  Si  Si22  1  0.84983800  0.21245800  0.60896800  1
  Si  Si23  1  0.15016200  0.71245800  0.39103200  1
  O  O24  1  0.13748900  0.20998100  0.89261600  1
  O  O25  1  0.86251100  0.70998100  0.10738400  1
  O  O26  1  0.63748900  0.70998100  0.60738400  1
  O  O27  1  0.36251100  0.20998100  0.39261600  1
  O  O28  1  0.07708100  0.41737600  0.81321300  1
  O  O29  1  0.92291900  0.91737600  0.18678700  1
  O  O30  1  0.57708100  0.91737600  0.68678700  1
  O  O31  1  0.42291900  0.41737600  0.31321300  1
  O  O32  1  0.39647800  0.74384700  0.76819500  1
  O  O33  1  0.60352200  0.24384700  0.23180500  1
  O  O34  1  0.89647800  0.24384700  0.73180500  1
  O  O35  1  0.10352200  0.74384700  0.26819500  1
  O  O36  1  0.30019200  0.26671500  0.71280800  1
  O  O37  1  0.69980800  0.76671500  0.28719200  1
  O  O38  1  0.80019200  0.76671500  0.78719200  1
  O  O39  1  0.19980800  0.26671500  0.21280800  1
  O  O40  1  0.34869700  0.42244000  0.51836600  1
  O  O41  1  0.65130300  0.92244000  0.48163400  1
  O  O42  1  0.84869700  0.92244000  0.98163400  1
  O  O43  1  0.15130300  0.42244000  0.01836600  1
  O  O44  1  0.30598200  0.57610600  0.89185700  1
  O  O45  1  0.69401800  0.07610600  0.10814300  1
  O  O46  1  0.80598200  0.07610600  0.60814300  1
  O  O47  1  0.19401800  0.57610600  0.39185700  1
  O  O48  1  0.41110400  0.07500900  0.56817200  1
  O  O49  1  0.58889600  0.57500900  0.43182800  1
  O  O50  1  0.91110400  0.57500900  0.93182800  1
  O  O51  1  0.08889600  0.07500900  0.06817200  1
  O  O52  1  0.03727400  0.23740500  0.53355300  1
  O  O53  1  0.96272600  0.73740500  0.46644700  1
  O  O54  1  0.53727400  0.73740500  0.96644700  1
  O  O55  1  0.46272600  0.23740500  0.03355300  1
  O  O56  1  0.15382300  0.78314700  0.92407500  1
  O  O57  1  0.84617700  0.28314700  0.07592500  1
  O  O58  1  0.65382300  0.28314700  0.57592500  1
  O  O59  1  0.34617700  0.78314700  0.42407500  1
  O  O60  1  0.02602500  0.54012000  0.63235800  1
  O  O61  1  0.97397500  0.04012000  0.36764200  1
  O  O62  1  0.52602500  0.04012000  0.86764200  1
  O  O63  1  0.47397500  0.54012000  0.13235800  1
  O  O64  1  0.11964100  0.95487700  0.69814200  1
  O  O65  1  0.88035900  0.45487700  0.30185800  1
  O  O66  1  0.61964100  0.45487700  0.80185800  1
  O  O67  1  0.38035900  0.95487700  0.19814200  1
