# generated using pymatgen
data_Na2Ti2Si4O13
_symmetry_space_group_name_H-M   'P 1'
_cell_length_a   13.16932062
_cell_length_b   13.16932062
_cell_length_c   5.26238473
_cell_angle_alpha   80.83178065
_cell_angle_beta   80.83178065
_cell_angle_gamma   38.80590932
_symmetry_Int_Tables_number   1
_chemical_formula_structural   Na2Ti2Si4O13
_chemical_formula_sum   'Na4 Ti4 Si8 O26'
_cell_volume   563.73019322
_cell_formula_units_Z   2
loop_
 _symmetry_equiv_pos_site_id
 _symmetry_equiv_pos_as_xyz
  1  'x, y, z'
loop_
 _atom_site_type_symbol
 _atom_site_label
 _atom_site_symmetry_multiplicity
 _atom_site_fract_x
 _atom_site_fract_y
 _atom_site_fract_z
 _atom_site_occupancy
  Na  Na0  1  0.04900500  0.65267800  0.29999300  1
  Na  Na1  1  0.65267800  0.04900500  0.79999300  1
  Na  Na2  1  0.95099500  0.34732200  0.70000700  1
  Na  Na3  1  0.34732200  0.95099500  0.20000700  1
  Ti  Ti4  1  0.74178500  0.55825400  0.21158800  1
  Ti  Ti5  1  0.55825400  0.74178500  0.71158800  1
  Ti  Ti6  1  0.25821500  0.44174600  0.78841200  1
  Ti  Ti7  1  0.44174600  0.25821500  0.28841200  1
  Si  Si8  1  0.85938800  0.67434200  0.77440300  1
  Si  Si9  1  0.67434200  0.85938800  0.27440300  1
  Si  Si10  1  0.14061200  0.32565800  0.22559700  1
  Si  Si11  1  0.32565800  0.14061200  0.72559700  1
  Si  Si12  1  0.03787800  0.83387400  0.77891500  1
  Si  Si13  1  0.83387400  0.03787800  0.27891500  1
  Si  Si14  1  0.96212200  0.16612600  0.22108500  1
  Si  Si15  1  0.16612600  0.96212200  0.72108500  1
  O  O16  1  0.14833200  0.85166800  0.75000000  1
  O  O17  1  0.85166800  0.14833200  0.25000000  1
  O  O18  1  0.95810100  0.88782800  0.50069700  1
  O  O19  1  0.88782800  0.95810100  0.00069700  1
  O  O20  1  0.04189900  0.11217200  0.49930300  1
  O  O21  1  0.11217200  0.04189900  0.99930300  1
  O  O22  1  0.78847500  0.79582300  0.50758700  1
  O  O23  1  0.79582300  0.78847500  0.00758700  1
  O  O24  1  0.21152500  0.20417700  0.49241300  1
  O  O25  1  0.20417700  0.21152500  0.99241300  1
  O  O26  1  0.68299000  0.55077800  0.54372800  1
  O  O27  1  0.55077800  0.68299000  0.04372800  1
  O  O28  1  0.31701000  0.44922200  0.45627200  1
  O  O29  1  0.44922200  0.31701000  0.95627200  1
  O  O30  1  0.94591300  0.46831100  0.27076100  1
  O  O31  1  0.46831100  0.94591300  0.77076100  1
  O  O32  1  0.05408700  0.53168900  0.72923900  1
  O  O33  1  0.53168900  0.05408700  0.22923900  1
  O  O34  1  0.78273400  0.61788800  0.82942200  1
  O  O35  1  0.61788800  0.78273400  0.32942200  1
  O  O36  1  0.21726600  0.38211200  0.17057800  1
  O  O37  1  0.38211200  0.21726600  0.67057800  1
  O  O38  1  0.86244500  0.34649400  0.12774500  1
  O  O39  1  0.34649400  0.86244500  0.62774500  1
  O  O40  1  0.13755500  0.65350600  0.87225500  1
  O  O41  1  0.65350600  0.13755500  0.37225500  1
