# generated using pymatgen
data_RbPH6C2(NO)4
_symmetry_space_group_name_H-M   'P 1'
_cell_length_a   7.90041959
_cell_length_b   7.90041959
_cell_length_c   8.38984870
_cell_angle_alpha   115.46302656
_cell_angle_beta   115.46302656
_cell_angle_gamma   94.98384955
_symmetry_Int_Tables_number   1
_chemical_formula_structural   RbPH6C2(NO)4
_chemical_formula_sum   'Rb2 P2 H12 C4 N8 O8'
_cell_volume   402.46044138
_cell_formula_units_Z   2
loop_
 _symmetry_equiv_pos_site_id
 _symmetry_equiv_pos_as_xyz
  1  'x, y, z'
loop_
 _atom_site_type_symbol
 _atom_site_label
 _atom_site_symmetry_multiplicity
 _atom_site_fract_x
 _atom_site_fract_y
 _atom_site_fract_z
 _atom_site_occupancy
  Rb  Rb0  1  0.26337600  0.73662400  0.50000000  1
  Rb  Rb1  1  0.01337600  0.98662400  0.00000000  1
  P  P2  1  0.58629900  0.41370100  0.50000000  1
  P  P3  1  0.33629900  0.66370100  0.00000000  1
  H  H4  1  0.09363900  0.11165600  0.47378400  1
  H  H5  1  0.88834400  0.90636100  0.52621600  1
  H  H6  1  0.86985500  0.38787200  0.02621600  1
  H  H7  1  0.61212800  0.13014500  0.97378400  1
  H  H8  1  0.17416100  0.37152200  0.60095600  1
  H  H9  1  0.62847800  0.82583900  0.39904400  1
  H  H10  1  0.82320500  0.52056600  0.89904400  1
  H  H11  1  0.47943400  0.17679500  0.10095600  1
  H  H12  1  0.31189500  0.41858400  0.08638500  1
  H  H13  1  0.58141600  0.68810500  0.91361500  1
  H  H14  1  0.47551000  0.08219900  0.41361500  1
  H  H15  1  0.91780100  0.52449000  0.58638500  1
  C  C16  1  0.20305700  0.24882800  0.77970900  1
  C  C17  1  0.75117200  0.79694300  0.22029100  1
  C  C18  1  0.67334800  0.21911900  0.72029100  1
  C  C19  1  0.78088100  0.32665200  0.27970900  1
  N  N20  1  0.17662500  0.24628900  0.60844600  1
  N  N21  1  0.75371100  0.82337500  0.39155400  1
  N  N22  1  0.81817900  0.38784300  0.89155400  1
  N  N23  1  0.61215700  0.18182100  0.10844600  1
  N  N24  1  0.27914400  0.42976300  0.95900700  1
  N  N25  1  0.57023700  0.72085600  0.04099300  1
  N  N26  1  0.57013800  0.22075600  0.54099300  1
  N  N27  1  0.77924400  0.42986200  0.45900700  1
  O  O28  1  0.16250800  0.08839500  0.77702700  1
  O  O29  1  0.91160500  0.83749200  0.22297300  1
  O  O30  1  0.63548000  0.06136700  0.72297300  1
  O  O31  1  0.93863300  0.36452000  0.27702700  1
  O  O32  1  0.65120400  0.60634300  0.69620800  1
  O  O33  1  0.39365700  0.34879600  0.30379200  1
  O  O34  1  0.20499600  0.66013600  0.80379200  1
  O  O35  1  0.33986400  0.79500400  0.19620800  1
