# generated using pymatgen
data_Ga4H12C15O31
_symmetry_space_group_name_H-M   'P 1'
_cell_length_a   10.15757386
_cell_length_b   10.15757386
_cell_length_c   10.15757386
_cell_angle_alpha   109.47122063
_cell_angle_beta   109.47122063
_cell_angle_gamma   109.47122063
_symmetry_Int_Tables_number   1
_chemical_formula_structural   Ga4H12C15O31
_chemical_formula_sum   'Ga4 H12 C15 O31'
_cell_volume   806.76690720
_cell_formula_units_Z   1
loop_
 _symmetry_equiv_pos_site_id
 _symmetry_equiv_pos_as_xyz
  1  'x, y, z'
loop_
 _atom_site_type_symbol
 _atom_site_label
 _atom_site_symmetry_multiplicity
 _atom_site_fract_x
 _atom_site_fract_y
 _atom_site_fract_z
 _atom_site_occupancy
  Ga  Ga0  1  0.00000000  0.00000000  0.50000000  1
  Ga  Ga1  1  0.50000000  0.00000000  0.00000000  1
  Ga  Ga2  1  0.00000000  0.50000000  0.00000000  1
  Ga  Ga3  1  0.50000000  0.50000000  0.50000000  1
  H  H4  1  0.67593700  0.78355500  0.45949200  1
  H  H5  1  0.67593700  0.21644500  0.89238100  1
  H  H6  1  0.32406300  0.78355500  0.10761900  1
  H  H7  1  0.32406300  0.21644500  0.54050800  1
  H  H8  1  0.78355500  0.45949200  0.67593700  1
  H  H9  1  0.21644500  0.89238100  0.67593700  1
  H  H10  1  0.78355500  0.10761900  0.32406300  1
  H  H11  1  0.21644500  0.54050800  0.32406300  1
  H  H12  1  0.45949200  0.67593700  0.78355500  1
  H  H13  1  0.89238100  0.67593700  0.21644500  1
  H  H14  1  0.10761900  0.32406300  0.78355500  1
  H  H15  1  0.54050800  0.32406300  0.21644500  1
  C  C16  1  0.75749100  0.73690900  0.49440100  1
  C  C17  1  0.75749100  0.26309100  0.02058200  1
  C  C18  1  0.24250900  0.73690900  0.97941800  1
  C  C19  1  0.24250900  0.26309100  0.50559900  1
  C  C20  1  0.73690900  0.49440100  0.75749100  1
  C  C21  1  0.26309100  0.02058200  0.75749100  1
  C  C22  1  0.73690900  0.97941800  0.24250900  1
  C  C23  1  0.26309100  0.50559900  0.24250900  1
  C  C24  1  0.49440100  0.75749100  0.73690900  1
  C  C25  1  0.02058200  0.75749100  0.26309100  1
  C  C26  1  0.97941800  0.24250900  0.73690900  1
  C  C27  1  0.50559900  0.24250900  0.26309100  1
  C  C28  1  0.50000000  0.00000000  0.50000000  1
  C  C29  1  0.00000000  0.50000000  0.50000000  1
  C  C30  1  0.50000000  0.50000000  0.00000000  1
  O  O31  1  0.89818500  0.80432800  0.51419800  1
  O  O32  1  0.70986900  0.19567200  0.09385700  1
  O  O33  1  0.10181500  0.61601200  0.90614300  1
  O  O34  1  0.29013100  0.38398800  0.48580200  1
  O  O35  1  0.80432800  0.51419800  0.89818500  1
  O  O36  1  0.19567200  0.09385700  0.70986900  1
  O  O37  1  0.61601200  0.90614300  0.10181500  1
  O  O38  1  0.38398800  0.48580200  0.29013100  1
  O  O39  1  0.51419800  0.89818500  0.80432800  1
  O  O40  1  0.09385700  0.70986900  0.19567200  1
  O  O41  1  0.90614300  0.10181500  0.61601200  1
  O  O42  1  0.48580200  0.29013100  0.38398800  1
  O  O43  1  0.10181500  0.19567200  0.48580200  1
  O  O44  1  0.29013100  0.80432800  0.90614300  1
  O  O45  1  0.89818500  0.38398800  0.09385700  1
  O  O46  1  0.70986900  0.61601200  0.51419800  1
  O  O47  1  0.19567200  0.48580200  0.10181500  1
  O  O48  1  0.80432800  0.90614300  0.29013100  1
  O  O49  1  0.38398800  0.09385700  0.89818500  1
  O  O50  1  0.61601200  0.51419800  0.70986900  1
  O  O51  1  0.48580200  0.10181500  0.19567200  1
  O  O52  1  0.90614300  0.29013100  0.80432800  1
  O  O53  1  0.09385700  0.89818500  0.38398800  1
  O  O54  1  0.51419800  0.70986900  0.61601200  1
  O  O55  1  0.50000000  0.89966800  0.39966800  1
  O  O56  1  0.50000000  0.10033200  0.60033200  1
  O  O57  1  0.89966800  0.39966800  0.50000000  1
  O  O58  1  0.10033200  0.60033200  0.50000000  1
  O  O59  1  0.39966800  0.50000000  0.89966800  1
  O  O60  1  0.60033200  0.50000000  0.10033200  1
  O  O61  1  0.00000000  0.00000000  0.00000000  1
