# generated using pymatgen
data_Ta3(Bi2O7)2
_symmetry_space_group_name_H-M   'P 1'
_cell_length_a   7.65332979
_cell_length_b   7.65332979
_cell_length_c   12.08565627
_cell_angle_alpha   79.96211708
_cell_angle_beta   79.96211708
_cell_angle_gamma   60.02152790
_symmetry_Int_Tables_number   1
_chemical_formula_structural   Ta3(Bi2O7)2
_chemical_formula_sum   'Ta6 Bi8 O28'
_cell_volume   600.64078089
_cell_formula_units_Z   2
loop_
 _symmetry_equiv_pos_site_id
 _symmetry_equiv_pos_as_xyz
  1  'x, y, z'
loop_
 _atom_site_type_symbol
 _atom_site_label
 _atom_site_symmetry_multiplicity
 _atom_site_fract_x
 _atom_site_fract_y
 _atom_site_fract_z
 _atom_site_occupancy
  Ta  Ta0  1  0.13942900  0.35805600  0.75867100  1
  Ta  Ta1  1  0.64194400  0.86057100  0.74132900  1
  Ta  Ta2  1  0.86057100  0.64194400  0.24132900  1
  Ta  Ta3  1  0.35805600  0.13942900  0.25867100  1
  Ta  Ta4  1  0.15060300  0.84939700  0.75000000  1
  Ta  Ta5  1  0.84939700  0.15060300  0.25000000  1
  Bi  Bi6  1  0.02676500  0.74409300  0.46864900  1
  Bi  Bi7  1  0.25590700  0.97323500  0.03135100  1
  Bi  Bi8  1  0.97323500  0.25590700  0.53135100  1
  Bi  Bi9  1  0.74409300  0.02676500  0.96864900  1
  Bi  Bi10  1  0.49178700  0.27211800  0.50700000  1
  Bi  Bi11  1  0.72788200  0.50821300  0.99300000  1
  Bi  Bi12  1  0.50821300  0.72788200  0.49300000  1
  Bi  Bi13  1  0.27211800  0.49178700  0.00700000  1
  O  O14  1  0.84735500  0.56531700  0.78275100  1
  O  O15  1  0.43468300  0.15264500  0.71724900  1
  O  O16  1  0.15264500  0.43468300  0.21724900  1
  O  O17  1  0.56531700  0.84735500  0.28275100  1
  O  O18  1  0.21162100  0.56624200  0.78143000  1
  O  O19  1  0.43375800  0.78837900  0.71857000  1
  O  O20  1  0.78837900  0.43375800  0.21857000  1
  O  O21  1  0.56624200  0.21162100  0.28143000  1
  O  O22  1  0.13025300  0.86153500  0.91577100  1
  O  O23  1  0.13846500  0.86974700  0.58422900  1
  O  O24  1  0.86974700  0.13846500  0.08422900  1
  O  O25  1  0.86153500  0.13025300  0.41577100  1
  O  O26  1  0.14266000  0.44462100  0.58648200  1
  O  O27  1  0.55537900  0.85734000  0.91351800  1
  O  O28  1  0.85734000  0.55537900  0.41351800  1
  O  O29  1  0.44462100  0.14266000  0.08648200  1
  O  O30  1  0.14665500  0.27216700  0.91829000  1
  O  O31  1  0.72783300  0.85334500  0.58171000  1
  O  O32  1  0.85334500  0.72783300  0.08171000  1
  O  O33  1  0.27216700  0.14665500  0.41829000  1
  O  O34  1  0.63072200  0.41513500  0.58027200  1
  O  O35  1  0.58486500  0.36927800  0.91972800  1
  O  O36  1  0.36927800  0.58486500  0.41972800  1
  O  O37  1  0.41513500  0.63072200  0.08027200  1
  O  O38  1  0.06772600  0.15253000  0.72762800  1
  O  O39  1  0.84747000  0.93227400  0.77237200  1
  O  O40  1  0.93227400  0.84747000  0.27237200  1
  O  O41  1  0.15253000  0.06772600  0.22762800  1
