# generated using pymatgen
data_MnH44C12N8(ClO5)2
_symmetry_space_group_name_H-M   'P 1'
_cell_length_a   9.55911500
_cell_length_b   9.65818709
_cell_length_c   9.73181096
_cell_angle_alpha   119.66261681
_cell_angle_beta   105.18703889
_cell_angle_gamma   86.08004102
_symmetry_Int_Tables_number   1
_chemical_formula_structural   MnH44C12N8(ClO5)2
_chemical_formula_sum   'Mn1 H44 C12 N8 Cl2 O10'
_cell_volume   751.45448415
_cell_formula_units_Z   1
loop_
 _symmetry_equiv_pos_site_id
 _symmetry_equiv_pos_as_xyz
  1  'x, y, z'
loop_
 _atom_site_type_symbol
 _atom_site_label
 _atom_site_symmetry_multiplicity
 _atom_site_fract_x
 _atom_site_fract_y
 _atom_site_fract_z
 _atom_site_occupancy
  Mn  Mn0  1  0.50000000  0.00000000  0.50000000  1
  H  H1  1  0.71217000  0.75608400  0.40247900  1
  H  H2  1  0.28783000  0.24391600  0.59752100  1
  H  H3  1  0.63082500  0.77661000  0.24800100  1
  H  H4  1  0.36917500  0.22339000  0.75199900  1
  H  H5  1  0.62709900  0.94611900  0.77038100  1
  H  H6  1  0.37290100  0.05388100  0.22961900  1
  H  H7  1  0.69174600  0.12036300  0.82707500  1
  H  H8  1  0.30825400  0.87963700  0.17292500  1
  H  H9  1  0.69416600  0.18988500  0.45324100  1
  H  H10  1  0.30583400  0.81011500  0.54675900  1
  H  H11  1  0.63547800  0.30985300  0.60578500  1
  H  H12  1  0.36452200  0.69014700  0.39421500  1
  H  H13  1  0.79904500  0.26795400  0.09492700  1
  H  H14  1  0.20095500  0.73204600  0.90507300  1
  H  H15  1  0.90882400  0.27561600  0.00357400  1
  H  H16  1  0.09117600  0.72438400  0.99642600  1
  H  H17  1  0.83576000  0.52869700  0.40824600  1
  H  H18  1  0.16424000  0.47130300  0.59175400  1
  H  H19  1  0.94773800  0.67950800  0.51860800  1
  H  H20  1  0.05226200  0.32049200  0.48139200  1
  H  H21  1  0.65105200  0.95673000  0.08865200  1
  H  H22  1  0.34894800  0.04327000  0.91134800  1
  H  H23  1  0.49315000  0.82444700  0.94893600  1
  H  H24  1  0.50685000  0.17555300  0.05106400  1
  H  H25  1  0.65062800  0.46898200  0.94495000  1
  H  H26  1  0.34937200  0.53101800  0.05505000  1
  H  H27  1  0.49289500  0.54731300  0.86705600  1
  H  H28  1  0.50710500  0.45268700  0.13294400  1
  H  H29  1  0.65968800  0.61737300  0.60881000  1
  H  H30  1  0.34031200  0.38262700  0.39119000  1
  H  H31  1  0.49774000  0.63188300  0.67513500  1
  H  H32  1  0.50226000  0.36811700  0.32486500  1
  H  H33  1  0.86252000  0.85348800  0.19390000  1
  H  H34  1  0.13748000  0.14651200  0.80610000  1
  H  H35  1  0.86166500  0.64527400  0.13283200  1
  H  H36  1  0.13833500  0.35472600  0.86716800  1
  H  H37  1  0.87105400  0.79480700  0.79650500  1
  H  H38  1  0.12894600  0.20519300  0.20349500  1
  H  H39  1  0.86550100  0.93838600  0.00224600  1
  H  H40  1  0.13449900  0.06161400  0.99775400  1
  H  H41  1  0.87007000  0.51327500  0.71281300  1
  H  H42  1  0.12993000  0.48672500  0.28718700  1
  H  H43  1  0.86615600  0.45058100  0.85703400  1
  H  H44  1  0.13384400  0.54941900  0.14296600  1
  C  C45  1  0.61247900  0.83538800  0.98743000  1
  C  C46  1  0.38752100  0.16461200  0.01257000  1
  C  C47  1  0.61224000  0.55677800  0.90569600  1
  C  C48  1  0.38776000  0.44322200  0.09430400  1
  C  C49  1  0.61717000  0.64078700  0.71218600  1
  C  C50  1  0.38283000  0.35921300  0.28781400  1
  C  C51  1  0.82421200  0.73236200  0.09213800  1
  C  C52  1  0.17578800  0.26763800  0.90786200  1
  C  C53  1  0.82857100  0.81718400  0.89966600  1
  C  C54  1  0.17142900  0.18281600  0.10033400  1
  C  C55  1  0.82863300  0.53835000  0.81742200  1
  C  C56  1  0.17136700  0.46165000  0.18257800  1
  N  N57  1  0.66785500  0.80523900  0.84706200  1
  N  N58  1  0.33214500  0.19476100  0.15293800  1
  N  N59  1  0.66327300  0.71968200  0.04433000  1
  N  N60  1  0.33672700  0.28031800  0.95567000  1
  N  N61  1  0.66775500  0.52132900  0.76389700  1
  N  N62  1  0.33224500  0.47867100  0.23610300  1
  N  N63  1  0.88430100  0.70073400  0.95445500  1
  N  N64  1  0.11569900  0.29926600  0.04554500  1
  Cl  Cl65  1  0.81653600  0.26955800  0.32502800  1
  Cl  Cl66  1  0.18346400  0.73044200  0.67497200  1
  O  O67  1  0.62999000  0.80634200  0.36140600  1
  O  O68  1  0.37001000  0.19365800  0.63859400  1
  O  O69  1  0.62107400  0.02997700  0.73771800  1
  O  O70  1  0.37892600  0.97002300  0.26228200  1
  O  O71  1  0.63778000  0.19382800  0.52623100  1
  O  O72  1  0.36222000  0.80617200  0.47376900  1
  O  O73  1  0.80316400  0.27349500  0.99707800  1
  O  O74  1  0.19683600  0.72650500  0.00292200  1
  O  O75  1  0.84583400  0.64551000  0.45321000  1
  O  O76  1  0.15416600  0.35449000  0.54679000  1
