# generated using pymatgen
data_MnH36(C5N)12
_symmetry_space_group_name_H-M   'P 1'
_cell_length_a   10.07922100
_cell_length_b   10.35637217
_cell_length_c   10.69351050
_cell_angle_alpha   77.78801423
_cell_angle_beta   79.67446037
_cell_angle_gamma   79.17209481
_symmetry_Int_Tables_number   1
_chemical_formula_structural   MnH36(C5N)12
_chemical_formula_sum   'Mn1 H36 C60 N12'
_cell_volume   1060.17597040
_cell_formula_units_Z   1
loop_
 _symmetry_equiv_pos_site_id
 _symmetry_equiv_pos_as_xyz
  1  'x, y, z'
loop_
 _atom_site_type_symbol
 _atom_site_label
 _atom_site_symmetry_multiplicity
 _atom_site_fract_x
 _atom_site_fract_y
 _atom_site_fract_z
 _atom_site_occupancy
  Mn  Mn0  1  0.00000000  0.00000000  0.00000000  1
  H  H1  1  0.11408700  0.72783300  0.08561600  1
  H  H2  1  0.88591300  0.27216700  0.91438400  1
  H  H3  1  0.03623000  0.73167800  0.96058100  1
  H  H4  1  0.96377000  0.26832200  0.03941900  1
  H  H5  1  0.19074600  0.77273100  0.93875200  1
  H  H6  1  0.80925400  0.22726900  0.06124800  1
  H  H7  1  0.06266800  0.14983200  0.74148500  1
  H  H8  1  0.93733200  0.85016800  0.25851500  1
  H  H9  1  0.17568800  0.01431600  0.75668200  1
  H  H10  1  0.82431200  0.98568400  0.24331800  1
  H  H11  1  0.02150100  0.00664300  0.72776000  1
  H  H12  1  0.97849900  0.99335700  0.27224000  1
  H  H13  1  0.80540000  0.98058700  0.85649800  1
  H  H14  1  0.19460000  0.01941300  0.14350200  1
  H  H15  1  0.80694200  0.84958700  0.97317000  1
  H  H16  1  0.19305800  0.15041300  0.02683000  1
  H  H17  1  0.71907300  0.99741300  0.00258300  1
  H  H18  1  0.28092700  0.00258700  0.99741700  1
  H  H19  1  0.94637400  0.57831200  0.83769300  1
  H  H20  1  0.05362600  0.42168800  0.16230700  1
  H  H21  1  0.79170200  0.65193800  0.87657900  1
  H  H22  1  0.20829800  0.34806200  0.12342100  1
  H  H23  1  0.87297600  0.55759700  0.98899800  1
  H  H24  1  0.12702400  0.44240300  0.01100200  1
  H  H25  1  0.52681000  0.19376100  0.06478300  1
  H  H26  1  0.47319000  0.80623900  0.93521700  1
  H  H27  1  0.53908200  0.07334600  0.19139800  1
  H  H28  1  0.46091800  0.92665400  0.80860200  1
  H  H29  1  0.46817000  0.05540300  0.07184200  1
  H  H30  1  0.53183000  0.94459700  0.92815800  1
  H  H31  1  0.95658500  0.89987800  0.55565500  1
  H  H32  1  0.04341500  0.10012200  0.44434500  1
  H  H33  1  0.91061300  0.80537700  0.69264500  1
  H  H34  1  0.08938700  0.19462300  0.30735500  1
  H  H35  1  0.80114000  0.92887100  0.62975600  1
  H  H36  1  0.19886000  0.07112900  0.37024400  1
  C  C37  1  0.79741600  0.46712700  0.64808800  1
  C  C38  1  0.20258400  0.53287300  0.35191200  1
  C  C39  1  0.84784200  0.39187100  0.54462500  1
  C  C40  1  0.15215800  0.60812900  0.45537500  1
  C  C41  1  0.76097700  0.60741000  0.61761500  1
  C  C42  1  0.23902300  0.39259000  0.38238500  1
  C  C43  1  0.71239500  0.38884900  0.74800400  1
  C  C44  1  0.28760500  0.61115100  0.25199600  1
  C  C45  1  0.86082500  0.45863900  0.41497400  1
  C  C46  1  0.13917500  0.54136100  0.58502600  1
  C  C47  1  0.79409100  0.26657600  0.58033300  1
  C  C48  1  0.20590900  0.73342400  0.41966700  1
  C  C49  1  0.77433600  0.67606500  0.48426100  1
  C  C50  1  0.22566400  0.32393500  0.51573900  1
  C  C51  1  0.82412300  0.60327700  0.38373500  1
  C  C52  1  0.17587700  0.39672300  0.61626500  1
  C  C53  1  0.63800200  0.67267200  0.68629200  1
  C  C54  1  0.36199800  0.32732800  0.31370800  1
  C  C55  1  0.70966400  0.26465400  0.70595300  1
  C  C56  1  0.29033600  0.73534600  0.29404700  1
  C  C57  1  0.59259500  0.45249700  0.81483400  1
  C  C58  1  0.40740500  0.54750300  0.18516600  1
  C  C59  1  0.55520800  0.59694600  0.78316500  1
  C  C60  1  0.44479200  0.40305400  0.21683500  1
  C  C61  1  0.82043400  0.40222400  0.31744900  1
  C  C62  1  0.17956600  0.59777600  0.68255100  1
  C  C63  1  0.66037600  0.78451800  0.47043600  1
  C  C64  1  0.33962400  0.21548200  0.52956400  1
  C  C65  1  0.75426800  0.21215800  0.48559600  1
  C  C66  1  0.24573200  0.78784200  0.51440400  1
  C  C67  1  0.57607700  0.78292400  0.59536000  1
  C  C68  1  0.42392300  0.21707600  0.40464000  1
  C  C69  1  0.76775100  0.28110400  0.35190700  1
  C  C70  1  0.23224900  0.71889600  0.64809300  1
  C  C71  1  0.58876600  0.20876800  0.73209900  1
  C  C72  1  0.41123400  0.79123200  0.26790100  1
  C  C73  1  0.46824900  0.39461400  0.84201500  1
  C  C74  1  0.53175100  0.60538600  0.15798500  1
  C  C75  1  0.76163100  0.63643200  0.26676800  1
  C  C76  1  0.23836900  0.36356800  0.73323200  1
  C  C77  1  0.40779600  0.62838900  0.79214000  1
  C  C78  1  0.59220400  0.37161100  0.20786000  1
  C  C79  1  0.46558100  0.27444100  0.80138700  1
  C  C80  1  0.53441900  0.72555900  0.19861300  1
  C  C81  1  0.75859500  0.51213100  0.22582200  1
  C  C82  1  0.24140500  0.48786900  0.77417800  1
  C  C83  1  0.59932700  0.81680100  0.35686100  1
  C  C84  1  0.40067300  0.18319900  0.64313900  1
  C  C85  1  0.43319000  0.81331300  0.60399000  1
  C  C86  1  0.56681000  0.18668700  0.39601000  1
  C  C87  1  0.63002100  0.15367400  0.51287800  1
  C  C88  1  0.36997900  0.84632600  0.48712200  1
  C  C89  1  0.35395600  0.50338200  0.82741600  1
  C  C90  1  0.64604400  0.49661800  0.17258400  1
  C  C91  1  0.65025500  0.74166600  0.25341300  1
  C  C92  1  0.34974500  0.25833400  0.74658700  1
  C  C93  1  0.54820700  0.15219800  0.63424400  1
  C  C94  1  0.45179300  0.84780200  0.36575600  1
  C  C95  1  0.34767500  0.73506100  0.70360000  1
  C  C96  1  0.65232500  0.26493900  0.29640000  1
  N  N97  1  0.09750600  0.78077100  0.99587500  1
  N  N98  1  0.90249400  0.21922900  0.00412500  1
  N  N99  1  0.07386900  0.04958200  0.77895700  1
  N  N100  1  0.92613100  0.95041800  0.22104300  1
  N  N101  1  0.80755200  0.95070400  0.95389200  1
  N  N102  1  0.19244800  0.04929600  0.04610800  1
  N  N103  1  0.88590400  0.62762300  0.90599800  1
  N  N104  1  0.11409600  0.37237700  0.09400200  1
  N  N105  1  0.54735200  0.09218300  0.09273200  1
  N  N106  1  0.45264800  0.90781700  0.90726800  1
  N  N107  1  0.90075500  0.90269100  0.64533900  1
  N  N108  1  0.09924500  0.09730900  0.35466100  1
