# generated using pymatgen
data_BaCu2Ge3(HO5)2
_symmetry_space_group_name_H-M   'P 1'
_cell_length_a   5.64773900
_cell_length_b   6.28989984
_cell_length_c   13.83174600
_cell_angle_alpha   90.00000000
_cell_angle_beta   90.00000000
_cell_angle_gamma   116.67652522
_symmetry_Int_Tables_number   1
_chemical_formula_structural   BaCu2Ge3(HO5)2
_chemical_formula_sum   'Ba2 Cu4 Ge6 H4 O20'
_cell_volume   439.05288940
_cell_formula_units_Z   2
loop_
 _symmetry_equiv_pos_site_id
 _symmetry_equiv_pos_as_xyz
  1  'x, y, z'
loop_
 _atom_site_type_symbol
 _atom_site_label
 _atom_site_symmetry_multiplicity
 _atom_site_fract_x
 _atom_site_fract_y
 _atom_site_fract_z
 _atom_site_occupancy
  Ba  Ba0  1  0.33890700  0.67781400  0.75000000  1
  Ba  Ba1  1  0.66109300  0.32218600  0.25000000  1
  Cu  Cu2  1  0.00000000  0.50000000  0.00000000  1
  Cu  Cu3  1  0.50000000  0.50000000  0.00000000  1
  Cu  Cu4  1  0.00000000  0.50000000  0.50000000  1
  Cu  Cu5  1  0.50000000  0.50000000  0.50000000  1
  Ge  Ge6  1  0.03019100  0.06038200  0.87724000  1
  Ge  Ge7  1  0.96980900  0.93961800  0.12276000  1
  Ge  Ge8  1  0.03019100  0.06038200  0.62276000  1
  Ge  Ge9  1  0.96980900  0.93961800  0.37724000  1
  Ge  Ge10  1  0.50000000  0.00000000  0.00000000  1
  Ge  Ge11  1  0.50000000  0.00000000  0.50000000  1
  H  H12  1  0.30444500  0.60889000  0.19066500  1
  H  H13  1  0.69555500  0.39111000  0.80933500  1
  H  H14  1  0.30444500  0.60889000  0.30933500  1
  H  H15  1  0.69555500  0.39111000  0.69066500  1
  O  O16  1  0.18282100  0.36564100  0.91171600  1
  O  O17  1  0.81717900  0.63435900  0.08828400  1
  O  O18  1  0.18282100  0.36564100  0.58828400  1
  O  O19  1  0.81717900  0.63435900  0.41171600  1
  O  O20  1  0.34644500  0.69289000  0.05487900  1
  O  O21  1  0.65355500  0.30711000  0.94512100  1
  O  O22  1  0.34644500  0.69289000  0.44512100  1
  O  O23  1  0.65355500  0.30711000  0.55487900  1
  O  O24  1  0.20781000  0.89736500  0.90657400  1
  O  O25  1  0.31044500  0.10263500  0.09342600  1
  O  O26  1  0.20781000  0.89736500  0.59342600  1
  O  O27  1  0.31044500  0.10263500  0.40657400  1
  O  O28  1  0.79219000  0.10263500  0.09342600  1
  O  O29  1  0.68955500  0.89736500  0.90657400  1
  O  O30  1  0.79219000  0.10263500  0.40657400  1
  O  O31  1  0.68955500  0.89736500  0.59342600  1
  O  O32  1  0.04106800  0.08213600  0.75000000  1
  O  O33  1  0.95893200  0.91786400  0.25000000  1
  O  O34  1  0.25379700  0.50759500  0.25000000  1
  O  O35  1  0.74620300  0.49240500  0.75000000  1
