# generated using pymatgen
data_UH12N5F4
_symmetry_space_group_name_H-M   'P 1'
_cell_length_a   9.52740500
_cell_length_b   9.52740500
_cell_length_c   11.38183400
_cell_angle_alpha   90.00000000
_cell_angle_beta   90.00000000
_cell_angle_gamma   90.00000000
_symmetry_Int_Tables_number   1
_chemical_formula_structural   UH12N5F4
_chemical_formula_sum   'U4 H48 N20 F16'
_cell_volume   1033.14553070
_cell_formula_units_Z   4
loop_
 _symmetry_equiv_pos_site_id
 _symmetry_equiv_pos_as_xyz
  1  'x, y, z'
loop_
 _atom_site_type_symbol
 _atom_site_label
 _atom_site_symmetry_multiplicity
 _atom_site_fract_x
 _atom_site_fract_y
 _atom_site_fract_z
 _atom_site_occupancy
  U  U0  1  0.75000000  0.25000000  0.25000000  1
  U  U1  1  0.75000000  0.25000000  0.75000000  1
  U  U2  1  0.25000000  0.75000000  0.75000000  1
  U  U3  1  0.25000000  0.75000000  0.25000000  1
  H  H4  1  0.51022500  0.04731100  0.35437200  1
  H  H5  1  0.98977500  0.04731100  0.85437200  1
  H  H6  1  0.51022500  0.45268900  0.85437200  1
  H  H7  1  0.98977500  0.45268900  0.35437200  1
  H  H8  1  0.04731100  0.51022500  0.85437200  1
  H  H9  1  0.45268900  0.51022500  0.35437200  1
  H  H10  1  0.04731100  0.98977500  0.35437200  1
  H  H11  1  0.45268900  0.98977500  0.85437200  1
  H  H12  1  0.48977500  0.95268900  0.64562800  1
  H  H13  1  0.01022500  0.95268900  0.14562800  1
  H  H14  1  0.48977500  0.54731100  0.14562800  1
  H  H15  1  0.01022500  0.54731100  0.64562800  1
  H  H16  1  0.95268900  0.48977500  0.14562800  1
  H  H17  1  0.54731100  0.48977500  0.64562800  1
  H  H18  1  0.95268900  0.01022500  0.64562800  1
  H  H19  1  0.54731100  0.01022500  0.14562800  1
  H  H20  1  0.43510600  0.19965700  0.32966600  1
  H  H21  1  0.06489400  0.19965700  0.82966600  1
  H  H22  1  0.43510600  0.30034300  0.82966600  1
  H  H23  1  0.06489400  0.30034300  0.32966600  1
  H  H24  1  0.19965700  0.43510600  0.82966600  1
  H  H25  1  0.30034300  0.43510600  0.32966600  1
  H  H26  1  0.19965700  0.06489400  0.32966600  1
  H  H27  1  0.30034300  0.06489400  0.82966600  1
  H  H28  1  0.56489400  0.80034300  0.67033400  1
  H  H29  1  0.93510600  0.80034300  0.17033400  1
  H  H30  1  0.56489400  0.69965700  0.17033400  1
  H  H31  1  0.93510600  0.69965700  0.67033400  1
  H  H32  1  0.80034300  0.56489400  0.17033400  1
  H  H33  1  0.69965700  0.56489400  0.67033400  1
  H  H34  1  0.80034300  0.93510600  0.67033400  1
  H  H35  1  0.69965700  0.93510600  0.17033400  1
  H  H36  1  0.53206000  0.17570600  0.44841800  1
  H  H37  1  0.96794000  0.17570600  0.94841800  1
  H  H38  1  0.53206000  0.32429400  0.94841800  1
  H  H39  1  0.96794000  0.32429400  0.44841800  1
  H  H40  1  0.17570600  0.53206000  0.94841800  1
  H  H41  1  0.32429400  0.53206000  0.44841800  1
  H  H42  1  0.17570600  0.96794000  0.44841800  1
  H  H43  1  0.32429400  0.96794000  0.94841800  1
  H  H44  1  0.46794000  0.82429400  0.55158200  1
  H  H45  1  0.03206000  0.82429400  0.05158200  1
  H  H46  1  0.46794000  0.67570600  0.05158200  1
  H  H47  1  0.03206000  0.67570600  0.55158200  1
  H  H48  1  0.82429400  0.46794000  0.05158200  1
  H  H49  1  0.67570600  0.46794000  0.55158200  1
  H  H50  1  0.82429400  0.03206000  0.55158200  1
  H  H51  1  0.67570600  0.03206000  0.05158200  1
  N  N52  1  0.52550100  0.15367300  0.36019500  1
  N  N53  1  0.97449900  0.15367300  0.86019500  1
  N  N54  1  0.52550100  0.34632700  0.86019500  1
  N  N55  1  0.97449900  0.34632700  0.36019500  1
  N  N56  1  0.15367300  0.52550100  0.86019500  1
  N  N57  1  0.34632700  0.52550100  0.36019500  1
  N  N58  1  0.15367300  0.97449900  0.36019500  1
  N  N59  1  0.34632700  0.97449900  0.86019500  1
  N  N60  1  0.47449900  0.84632700  0.63980500  1
  N  N61  1  0.02550100  0.84632700  0.13980500  1
  N  N62  1  0.47449900  0.65367300  0.13980500  1
  N  N63  1  0.02550100  0.65367300  0.63980500  1
  N  N64  1  0.84632700  0.47449900  0.13980500  1
  N  N65  1  0.65367300  0.47449900  0.63980500  1
  N  N66  1  0.84632700  0.02550100  0.63980500  1
  N  N67  1  0.65367300  0.02550100  0.13980500  1
  N  N68  1  0.75000000  0.75000000  0.31826800  1
  N  N69  1  0.75000000  0.75000000  0.81826800  1
  N  N70  1  0.25000000  0.25000000  0.68173200  1
  N  N71  1  0.25000000  0.25000000  0.18173200  1
  F  F72  1  0.67595500  0.40782900  0.36817900  1
  F  F73  1  0.82404500  0.40782900  0.86817900  1
  F  F74  1  0.67595500  0.09217100  0.86817900  1
  F  F75  1  0.82404500  0.09217100  0.36817900  1
  F  F76  1  0.40782900  0.67595500  0.86817900  1
  F  F77  1  0.09217100  0.67595500  0.36817900  1
  F  F78  1  0.40782900  0.82404500  0.36817900  1
  F  F79  1  0.09217100  0.82404500  0.86817900  1
  F  F80  1  0.32404500  0.59217100  0.63182100  1
  F  F81  1  0.17595500  0.59217100  0.13182100  1
  F  F82  1  0.32404500  0.90782900  0.13182100  1
  F  F83  1  0.17595500  0.90782900  0.63182100  1
  F  F84  1  0.59217100  0.32404500  0.13182100  1
  F  F85  1  0.90782900  0.32404500  0.63182100  1
  F  F86  1  0.59217100  0.17595500  0.63182100  1
  F  F87  1  0.90782900  0.17595500  0.13182100  1
