# generated using pymatgen
data_U(H2O3)2
_symmetry_space_group_name_H-M   'P 1'
_cell_length_a   6.71738300
_cell_length_b   8.48081600
_cell_length_c   8.87395600
_cell_angle_alpha   90.00000000
_cell_angle_beta   90.00000000
_cell_angle_gamma   90.00000000
_symmetry_Int_Tables_number   1
_chemical_formula_structural   U(H2O3)2
_chemical_formula_sum   'U4 H16 O24'
_cell_volume   505.53941635
_cell_formula_units_Z   4
loop_
 _symmetry_equiv_pos_site_id
 _symmetry_equiv_pos_as_xyz
  1  'x, y, z'
loop_
 _atom_site_type_symbol
 _atom_site_label
 _atom_site_symmetry_multiplicity
 _atom_site_fract_x
 _atom_site_fract_y
 _atom_site_fract_z
 _atom_site_occupancy
  U  U0  1  0.74791800  0.65118100  0.25000000  1
  U  U1  1  0.75208200  0.15118100  0.25000000  1
  U  U2  1  0.25208200  0.34881900  0.75000000  1
  U  U3  1  0.24791800  0.84881900  0.75000000  1
  H  H4  1  0.61338400  0.62810500  0.58302400  1
  H  H5  1  0.88661600  0.12810500  0.91697600  1
  H  H6  1  0.38661600  0.37189500  0.08302400  1
  H  H7  1  0.11338400  0.87189500  0.41697600  1
  H  H8  1  0.38661600  0.37189500  0.41697600  1
  H  H9  1  0.11338400  0.87189500  0.08302400  1
  H  H10  1  0.61338400  0.62810500  0.91697600  1
  H  H11  1  0.88661600  0.12810500  0.58302400  1
  H  H12  1  0.83691700  0.68885000  0.59749700  1
  H  H13  1  0.66308300  0.18885000  0.90250300  1
  H  H14  1  0.16308300  0.31115000  0.09749700  1
  H  H15  1  0.33691700  0.81115000  0.40250300  1
  H  H16  1  0.16308300  0.31115000  0.40250300  1
  H  H17  1  0.33691700  0.81115000  0.09749700  1
  H  H18  1  0.83691700  0.68885000  0.90250300  1
  H  H19  1  0.66308300  0.18885000  0.59749700  1
  O  O20  1  0.12101400  0.09966800  0.83176100  1
  O  O21  1  0.37898600  0.59966800  0.66823900  1
  O  O22  1  0.87898600  0.90033200  0.33176100  1
  O  O23  1  0.62101400  0.40033200  0.16823900  1
  O  O24  1  0.87898600  0.90033200  0.16823900  1
  O  O25  1  0.62101400  0.40033200  0.33176100  1
  O  O26  1  0.12101400  0.09966800  0.66823900  1
  O  O27  1  0.37898600  0.59966800  0.83176100  1
  O  O28  1  0.73673900  0.65057800  0.97532900  1
  O  O29  1  0.76326100  0.15057800  0.52467100  1
  O  O30  1  0.26326100  0.34942200  0.47532900  1
  O  O31  1  0.23673900  0.84942200  0.02467100  1
  O  O32  1  0.26326100  0.34942200  0.02467100  1
  O  O33  1  0.23673900  0.84942200  0.47532900  1
  O  O34  1  0.73673900  0.65057800  0.52467100  1
  O  O35  1  0.76326100  0.15057800  0.97532900  1
  O  O36  1  0.48985400  0.72578900  0.25000000  1
  O  O37  1  0.01014600  0.22578900  0.25000000  1
  O  O38  1  0.51014600  0.27421100  0.75000000  1
  O  O39  1  0.98985400  0.77421100  0.75000000  1
  O  O40  1  0.00201700  0.58248200  0.25000000  1
  O  O41  1  0.49798300  0.08248200  0.25000000  1
  O  O42  1  0.99798300  0.41751800  0.75000000  1
  O  O43  1  0.50201700  0.91751800  0.75000000  1
