# generated using pymatgen
data_Pr4In8Ni7
_symmetry_space_group_name_H-M   'P 1'
_cell_length_a   14.11377343
_cell_length_b   14.11377343
_cell_length_c   4.35683100
_cell_angle_alpha   90.00000000
_cell_angle_beta   90.00000000
_cell_angle_gamma   117.15619984
_symmetry_Int_Tables_number   1
_chemical_formula_structural   Pr4In8Ni7
_chemical_formula_sum   'Pr8 In16 Ni14'
_cell_volume   772.20494988
_cell_formula_units_Z   2
loop_
 _symmetry_equiv_pos_site_id
 _symmetry_equiv_pos_as_xyz
  1  'x, y, z'
loop_
 _atom_site_type_symbol
 _atom_site_label
 _atom_site_symmetry_multiplicity
 _atom_site_fract_x
 _atom_site_fract_y
 _atom_site_fract_z
 _atom_site_occupancy
  Pr  Pr0  1  0.18410400  0.18410400  0.00000000  1
  Pr  Pr1  1  0.81589600  0.81589600  0.00000000  1
  Pr  Pr2  1  0.34872100  0.99482500  0.00000000  1
  Pr  Pr3  1  0.65127900  0.00517500  0.00000000  1
  Pr  Pr4  1  0.99482500  0.34872100  0.00000000  1
  Pr  Pr5  1  0.00517500  0.65127900  0.00000000  1
  Pr  Pr6  1  0.60599800  0.39400200  0.50000000  1
  Pr  Pr7  1  0.39400200  0.60599800  0.50000000  1
  In  In8  1  0.18977500  0.81022500  0.50000000  1
  In  In9  1  0.81022500  0.18977500  0.50000000  1
  In  In10  1  0.08654600  0.91345400  0.00000000  1
  In  In11  1  0.91345400  0.08654600  0.00000000  1
  In  In12  1  0.87417700  0.44225200  0.50000000  1
  In  In13  1  0.12582300  0.55774800  0.50000000  1
  In  In14  1  0.44225200  0.87417700  0.50000000  1
  In  In15  1  0.55774800  0.12582300  0.50000000  1
  In  In16  1  0.00000000  0.00000000  0.50000000  1
  In  In17  1  0.50000000  0.50000000  0.00000000  1
  In  In18  1  0.63077500  0.81870500  0.50000000  1
  In  In19  1  0.36922500  0.18129500  0.50000000  1
  In  In20  1  0.81870500  0.63077500  0.50000000  1
  In  In21  1  0.18129500  0.36922500  0.50000000  1
  In  In22  1  0.72282600  0.27717400  0.00000000  1
  In  In23  1  0.27717400  0.72282600  0.00000000  1
  Ni  Ni24  1  0.19022300  0.00060100  0.50000000  1
  Ni  Ni25  1  0.80977700  0.99939900  0.50000000  1
  Ni  Ni26  1  0.00060100  0.19022300  0.50000000  1
  Ni  Ni27  1  0.99939900  0.80977700  0.50000000  1
  Ni  Ni28  1  0.69774700  0.58922000  0.00000000  1
  Ni  Ni29  1  0.30225300  0.41078000  0.00000000  1
  Ni  Ni30  1  0.58922000  0.69774700  0.00000000  1
  Ni  Ni31  1  0.41078000  0.30225300  0.00000000  1
  Ni  Ni32  1  0.62214700  0.62214700  0.50000000  1
  Ni  Ni33  1  0.37785300  0.37785300  0.50000000  1
  Ni  Ni34  1  0.48413200  0.79171100  0.00000000  1
  Ni  Ni35  1  0.51586800  0.20828900  0.00000000  1
  Ni  Ni36  1  0.79171100  0.48413200  0.00000000  1
  Ni  Ni37  1  0.20828900  0.51586800  0.00000000  1
