# generated using pymatgen
data_V4Cd9O19
_symmetry_space_group_name_H-M   'P 1'
_cell_length_a   8.74566000
_cell_length_b   8.76980585
_cell_length_c   13.16380228
_cell_angle_alpha   95.59100795
_cell_angle_beta   102.51467110
_cell_angle_gamma   108.48391949
_symmetry_Int_Tables_number   1
_chemical_formula_structural   V4Cd9O19
_chemical_formula_sum   'V8 Cd18 O38'
_cell_volume   919.62852181
_cell_formula_units_Z   2
loop_
 _symmetry_equiv_pos_site_id
 _symmetry_equiv_pos_as_xyz
  1  'x, y, z'
loop_
 _atom_site_type_symbol
 _atom_site_label
 _atom_site_symmetry_multiplicity
 _atom_site_fract_x
 _atom_site_fract_y
 _atom_site_fract_z
 _atom_site_occupancy
  V  V0  1  0.47372400  0.23171300  0.35200500  1
  V  V1  1  0.53018500  0.77809600  0.64628100  1
  V  V2  1  0.01039300  0.25830800  0.56790100  1
  V  V3  1  0.99369200  0.76211800  0.43469000  1
  V  V4  1  0.36942200  0.00502100  0.84514900  1
  V  V5  1  0.62842200  0.98514900  0.14243800  1
  V  V6  1  0.08178100  0.37722100  0.11469900  1
  V  V7  1  0.93578400  0.62077400  0.88018400  1
  Cd  Cd8  1  0.20602100  0.02664500  0.08209800  1
  Cd  Cd9  1  0.79416300  0.97476300  0.91737800  1
  Cd  Cd10  1  0.86231600  0.72539900  0.12192300  1
  Cd  Cd11  1  0.15306700  0.27419100  0.87755900  1
  Cd  Cd12  1  0.26883100  0.80239100  0.26771200  1
  Cd  Cd13  1  0.73654000  0.22332300  0.73887500  1
  Cd  Cd14  1  0.04754100  0.10313800  0.31860600  1
  Cd  Cd15  1  0.94692200  0.91430200  0.68070000  1
  Cd  Cd16  1  0.25213700  0.50599400  0.42373400  1
  Cd  Cd17  1  0.73602700  0.50360600  0.56641000  1
  Cd  Cd18  1  0.59927800  0.34560700  0.99867200  1
  Cd  Cd19  1  0.37260600  0.66091800  0.99034500  1
  Cd  Cd20  1  0.65068700  0.89766100  0.42734300  1
  Cd  Cd21  1  0.35051500  0.12260600  0.57466500  1
  Cd  Cd22  1  0.51867700  0.54642000  0.24639700  1
  Cd  Cd23  1  0.49164300  0.47293100  0.76121800  1
  Cd  Cd24  1  0.83341400  0.39694500  0.26357100  1
  Cd  Cd25  1  0.14522800  0.63507400  0.70298500  1
  O  O26  1  0.67446000  0.38604400  0.38938400  1
  O  O27  1  0.32761000  0.62717700  0.60359800  1
  O  O28  1  0.34347700  0.28719900  0.42148000  1
  O  O29  1  0.65890000  0.72959800  0.57230000  1
  O  O30  1  0.39652300  0.23151800  0.22028600  1
  O  O31  1  0.61093200  0.76429100  0.77638800  1
  O  O32  1  0.47843500  0.04257800  0.37980100  1
  O  O33  1  0.52771200  0.96988900  0.62795500  1
  O  O34  1  0.93294300  0.38802400  0.63767200  1
  O  O35  1  0.05990900  0.63146000  0.35729600  1
  O  O36  1  0.01793100  0.30476300  0.44280700  1
  O  O37  1  0.98713700  0.70920400  0.55992400  1
  O  O38  1  0.20571900  0.28542400  0.64564400  1
  O  O39  1  0.79812900  0.74499900  0.36670200  1
  O  O40  1  0.87653600  0.05599200  0.55161400  1
  O  O41  1  0.12922200  0.96376900  0.45066900  1
  O  O42  1  0.42279400  0.67874000  0.34940400  1
  O  O43  1  0.57442900  0.33673600  0.64818800  1
  O  O44  1  0.09280200  0.92008000  0.20766500  1
  O  O45  1  0.90986200  0.09678400  0.79530800  1
  O  O46  1  0.41054100  0.88320300  0.12660900  1
  O  O47  1  0.58499600  0.11372400  0.86686700  1
  O  O48  1  0.06826300  0.33145200  0.24202200  1
  O  O49  1  0.92468900  0.68657400  0.75732900  1
  O  O50  1  0.74816700  0.99710600  0.26745800  1
  O  O51  1  0.24734100  0.00853300  0.72338200  1
  O  O52  1  0.03657500  0.19135100  0.02654300  1
  O  O53  1  0.97120800  0.79504900  0.97480700  1
  O  O54  1  0.68271000  0.86481800  0.04746800  1
  O  O55  1  0.30588100  0.09925500  0.94460200  1
  O  O56  1  0.94551200  0.47628600  0.07997000  1
  O  O57  1  0.08890100  0.53050700  0.89344500  1
  O  O58  1  0.67310800  0.18146400  0.11785600  1
  O  O59  1  0.33314600  0.79913300  0.85215400  1
  O  O60  1  0.28068000  0.51090700  0.11677700  1
  O  O61  1  0.74566800  0.47048900  0.87282800  1
  O  O62  1  0.68266700  0.51640000  0.15372600  1
  O  O63  1  0.40664200  0.44567900  0.90478000  1
