# generated using pymatgen
data_Bi2Se5Cl7
_symmetry_space_group_name_H-M   'P 1'
_cell_length_a   12.08292500
_cell_length_b   12.32859000
_cell_length_c   22.58204100
_cell_angle_alpha   90.00000000
_cell_angle_beta   90.00000000
_cell_angle_gamma   90.00000000
_symmetry_Int_Tables_number   1
_chemical_formula_structural   Bi2Se5Cl7
_chemical_formula_sum   'Bi16 Se40 Cl56'
_cell_volume   3363.94341003
_cell_formula_units_Z   8
loop_
 _symmetry_equiv_pos_site_id
 _symmetry_equiv_pos_as_xyz
  1  'x, y, z'
loop_
 _atom_site_type_symbol
 _atom_site_label
 _atom_site_symmetry_multiplicity
 _atom_site_fract_x
 _atom_site_fract_y
 _atom_site_fract_z
 _atom_site_occupancy
  Bi  Bi0  1  0.80761300  0.32556400  0.56979100  1
  Bi  Bi1  1  0.69238700  0.67443600  0.06979100  1
  Bi  Bi2  1  0.30761300  0.17443600  0.43020900  1
  Bi  Bi3  1  0.19238700  0.82556400  0.93020900  1
  Bi  Bi4  1  0.47503400  0.47368000  0.51631700  1
  Bi  Bi5  1  0.02496600  0.52632000  0.01631700  1
  Bi  Bi6  1  0.97503400  0.02632000  0.48368300  1
  Bi  Bi7  1  0.52496600  0.97368000  0.98368300  1
  Bi  Bi8  1  0.10886600  0.53598700  0.48119600  1
  Bi  Bi9  1  0.39113400  0.46401300  0.98119600  1
  Bi  Bi10  1  0.60886600  0.96401300  0.51880400  1
  Bi  Bi11  1  0.89113400  0.03598700  0.01880400  1
  Bi  Bi12  1  0.77023600  0.66252200  0.43148500  1
  Bi  Bi13  1  0.72976400  0.33747800  0.93148500  1
  Bi  Bi14  1  0.27023600  0.83747800  0.56851500  1
  Bi  Bi15  1  0.22976400  0.16252200  0.06851500  1
  Se  Se16  1  0.09505600  0.63493900  0.24104800  1
  Se  Se17  1  0.40494400  0.36506100  0.74104800  1
  Se  Se18  1  0.59505600  0.86506100  0.75895200  1
  Se  Se19  1  0.90494400  0.13493900  0.25895200  1
  Se  Se20  1  0.10816500  0.77866200  0.16415700  1
  Se  Se21  1  0.39183500  0.22133800  0.66415700  1
  Se  Se22  1  0.60816500  0.72133800  0.83584300  1
  Se  Se23  1  0.89183500  0.27866200  0.33584300  1
  Se  Se24  1  0.29329100  0.79529700  0.15674100  1
  Se  Se25  1  0.20670900  0.20470300  0.65674100  1
  Se  Se26  1  0.79329100  0.70470300  0.84325900  1
  Se  Se27  1  0.70670900  0.29529700  0.34325900  1
  Se  Se28  1  0.32773500  0.93538500  0.23573100  1
  Se  Se29  1  0.17226500  0.06461500  0.73573100  1
  Se  Se30  1  0.82773500  0.56461500  0.76426900  1
  Se  Se31  1  0.67226500  0.43538500  0.26426900  1
  Se  Se32  1  0.15555600  0.91710500  0.29023300  1
  Se  Se33  1  0.34444400  0.08289500  0.79023300  1
  Se  Se34  1  0.65555600  0.58289500  0.70976700  1
  Se  Se35  1  0.84444400  0.41710500  0.20976700  1
  Se  Se36  1  0.16461800  0.74253100  0.32494300  1
  Se  Se37  1  0.33538200  0.25746900  0.82494300  1
  Se  Se38  1  0.66461800  0.75746900  0.67505700  1
  Se  Se39  1  0.83538200  0.24253100  0.17505700  1
  Se  Se40  1  0.25629100  0.52057500  0.21746200  1
  Se  Se41  1  0.24370900  0.47942500  0.71746200  1
  Se  Se42  1  0.75629100  0.97942500  0.78253800  1
  Se  Se43  1  0.74370900  0.02057500  0.28253800  1
  Se  Se44  1  0.37702700  0.55835000  0.29335900  1
  Se  Se45  1  0.12297300  0.44165000  0.79335900  1
  Se  Se46  1  0.87702700  0.94165000  0.70664100  1
  Se  Se47  1  0.62297300  0.05835000  0.20664100  1
  Se  Se48  1  0.50000000  0.68834100  0.24932800  1
  Se  Se49  1  0.00000000  0.31165900  0.74932800  1
  Se  Se50  1  0.00000000  0.81165900  0.75067200  1
  Se  Se51  1  0.50000000  0.18834100  0.25067200  1
  Se  Se52  1  0.45787400  0.84157300  0.30250000  1
  Se  Se53  1  0.04212600  0.15842700  0.80250000  1
  Se  Se54  1  0.95787400  0.65842700  0.69750000  1
  Se  Se55  1  0.54212600  0.34157300  0.19750000  1
  Cl  Cl56  1  0.72006100  0.31883700  0.67140100  1
  Cl  Cl57  1  0.77993900  0.68116300  0.17140100  1
  Cl  Cl58  1  0.22006100  0.18116300  0.32859900  1
  Cl  Cl59  1  0.27993900  0.81883700  0.82859900  1
  Cl  Cl60  1  0.96702300  0.44519200  0.60548000  1
  Cl  Cl61  1  0.53297700  0.55480800  0.10548000  1
  Cl  Cl62  1  0.46702300  0.05480800  0.39452000  1
  Cl  Cl63  1  0.03297700  0.94519200  0.89452000  1
  Cl  Cl64  1  0.92574500  0.15653600  0.60295800  1
  Cl  Cl65  1  0.57425500  0.84346400  0.10295800  1
  Cl  Cl66  1  0.42574500  0.34346400  0.39704200  1
  Cl  Cl67  1  0.07425500  0.65653600  0.89704200  1
  Cl  Cl68  1  0.44080900  0.52988300  0.62581600  1
  Cl  Cl69  1  0.05919100  0.47011700  0.12581600  1
  Cl  Cl70  1  0.94080900  0.97011700  0.37418400  1
  Cl  Cl71  1  0.55919100  0.02988300  0.87418400  1
  Cl  Cl72  1  0.55593700  0.28494300  0.53492300  1
  Cl  Cl73  1  0.94406300  0.71505700  0.03492300  1
  Cl  Cl74  1  0.05593700  0.21505700  0.46507700  1
  Cl  Cl75  1  0.44406300  0.78494300  0.96507700  1
  Cl  Cl76  1  0.68702200  0.53788800  0.54868000  1
  Cl  Cl77  1  0.81297800  0.46211200  0.04868000  1
  Cl  Cl78  1  0.18702200  0.96211200  0.45132000  1
  Cl  Cl79  1  0.31297800  0.03788800  0.95132000  1
  Cl  Cl80  1  0.27154000  0.37210100  0.52796600  1
  Cl  Cl81  1  0.22846000  0.62789900  0.02796600  1
  Cl  Cl82  1  0.77154000  0.12789900  0.47203400  1
  Cl  Cl83  1  0.72846000  0.87210100  0.97203400  1
  Cl  Cl84  1  0.13174300  0.48294200  0.37234800  1
  Cl  Cl85  1  0.36825700  0.51705800  0.87234800  1
  Cl  Cl86  1  0.63174300  0.01705800  0.62765200  1
  Cl  Cl87  1  0.86825700  0.98294200  0.12765200  1
  Cl  Cl88  1  0.29695600  0.64077900  0.46423500  1
  Cl  Cl89  1  0.20304400  0.35922100  0.96423500  1
  Cl  Cl90  1  0.79695600  0.85922100  0.53576500  1
  Cl  Cl91  1  0.70304400  0.14077900  0.03576500  1
  Cl  Cl92  1  0.01053100  0.72040700  0.46327700  1
  Cl  Cl93  1  0.48946900  0.27959300  0.96327700  1
  Cl  Cl94  1  0.51053100  0.77959300  0.53672300  1
  Cl  Cl95  1  0.98946900  0.22040700  0.03672300  1
  Cl  Cl96  1  0.88578000  0.45691500  0.45033000  1
  Cl  Cl97  1  0.61422000  0.54308500  0.95033000  1
  Cl  Cl98  1  0.38578000  0.04308500  0.54967000  1
  Cl  Cl99  1  0.11422000  0.95691500  0.04967000  1
  Cl  Cl100  1  0.83970700  0.64781300  0.32664800  1
  Cl  Cl101  1  0.66029300  0.35218700  0.82664800  1
  Cl  Cl102  1  0.33970700  0.85218700  0.67335200  1
  Cl  Cl103  1  0.16029300  0.14781300  0.17335200  1
  Cl  Cl104  1  0.59028200  0.56266100  0.40190400  1
  Cl  Cl105  1  0.90971800  0.43733900  0.90190400  1
  Cl  Cl106  1  0.09028200  0.93733900  0.59809600  1
  Cl  Cl107  1  0.40971800  0.06266100  0.09809600  1
  Cl  Cl108  1  0.66346400  0.84507400  0.39990400  1
  Cl  Cl109  1  0.83653600  0.15492600  0.89990400  1
  Cl  Cl110  1  0.16346400  0.65492600  0.60009600  1
  Cl  Cl111  1  0.33653600  0.34507400  0.10009600  1
