# generated using pymatgen
data_K3Pt2(SO4)6
_symmetry_space_group_name_H-M   'P 1'
_cell_length_a   10.46763863
_cell_length_b   10.46763863
_cell_length_c   12.89974724
_cell_angle_alpha   74.86394502
_cell_angle_beta   74.86394502
_cell_angle_gamma   55.96406388
_symmetry_Int_Tables_number   1
_chemical_formula_structural   K3Pt2(SO4)6
_chemical_formula_sum   'K6 Pt4 S12 O48'
_cell_volume   1118.93052703
_cell_formula_units_Z   2
loop_
 _symmetry_equiv_pos_site_id
 _symmetry_equiv_pos_as_xyz
  1  'x, y, z'
loop_
 _atom_site_type_symbol
 _atom_site_label
 _atom_site_symmetry_multiplicity
 _atom_site_fract_x
 _atom_site_fract_y
 _atom_site_fract_z
 _atom_site_occupancy
  K  K0  1  0.89191800  0.45389900  0.41035100  1
  K  K1  1  0.54610100  0.10808200  0.08964900  1
  K  K2  1  0.10808200  0.54610100  0.58964900  1
  K  K3  1  0.45389900  0.89191800  0.91035100  1
  K  K4  1  0.30482200  0.69517800  0.75000000  1
  K  K5  1  0.69517800  0.30482200  0.25000000  1
  Pt  Pt6  1  0.05778000  0.55006000  0.04141000  1
  Pt  Pt7  1  0.44994000  0.94222000  0.45859000  1
  Pt  Pt8  1  0.94222000  0.44994000  0.95859000  1
  Pt  Pt9  1  0.55006000  0.05778000  0.54141000  1
  S  S10  1  0.23031800  0.72202800  0.08040100  1
  S  S11  1  0.27797200  0.76968200  0.41959900  1
  S  S12  1  0.76968200  0.27797200  0.91959900  1
  S  S13  1  0.72202800  0.23031800  0.58040100  1
  S  S14  1  0.70649600  0.67282000  0.12906400  1
  S  S15  1  0.32718000  0.29350400  0.37093600  1
  S  S16  1  0.29350400  0.32718000  0.87093600  1
  S  S17  1  0.67282000  0.70649600  0.62906400  1
  S  S18  1  0.91167700  0.76281100  0.83327000  1
  S  S19  1  0.23718900  0.08832300  0.66673000  1
  S  S20  1  0.08832300  0.23718900  0.16673000  1
  S  S21  1  0.76281100  0.91167700  0.33327000  1
  O  O22  1  0.28931600  0.72201600  0.96399500  1
  O  O23  1  0.27798400  0.71068400  0.53600500  1
  O  O24  1  0.71068400  0.27798400  0.03600500  1
  O  O25  1  0.72201600  0.28931600  0.46399500  1
  O  O26  1  0.36006400  0.65740100  0.14296400  1
  O  O27  1  0.34259900  0.63993600  0.35703600  1
  O  O28  1  0.63993600  0.34259900  0.85703600  1
  O  O29  1  0.65740100  0.36006400  0.64296400  1
  O  O30  1  0.11797100  0.88099500  0.10897000  1
  O  O31  1  0.11900500  0.88202900  0.39103000  1
  O  O32  1  0.88202900  0.11900500  0.89103000  1
  O  O33  1  0.88099500  0.11797100  0.60897000  1
  O  O34  1  0.15848500  0.62321500  0.12207400  1
  O  O35  1  0.37678500  0.84151500  0.37792600  1
  O  O36  1  0.84151500  0.37678500  0.87792600  1
  O  O37  1  0.62321500  0.15848500  0.62207400  1
  O  O38  1  0.84209400  0.70183400  0.11129100  1
  O  O39  1  0.29816600  0.15790600  0.38870900  1
  O  O40  1  0.15790600  0.29816600  0.88870900  1
  O  O41  1  0.70183400  0.84209400  0.61129100  1
  O  O42  1  0.72710300  0.60113900  0.02881200  1
  O  O43  1  0.39886100  0.27289700  0.47118800  1
  O  O44  1  0.27289700  0.39886100  0.97118800  1
  O  O45  1  0.60113900  0.72710300  0.52881200  1
  O  O46  1  0.56396900  0.82385000  0.12303700  1
  O  O47  1  0.17615000  0.43603100  0.37696300  1
  O  O48  1  0.43603100  0.17615000  0.87696300  1
  O  O49  1  0.82385000  0.56396900  0.62303700  1
  O  O50  1  0.71709000  0.56339400  0.22717500  1
  O  O51  1  0.43660600  0.28291000  0.27282500  1
  O  O52  1  0.28291000  0.43660600  0.77282500  1
  O  O53  1  0.56339400  0.71709000  0.72717500  1
  O  O54  1  0.91941500  0.61085800  0.82558100  1
  O  O55  1  0.38914200  0.08058500  0.67441900  1
  O  O56  1  0.08058500  0.38914200  0.17441900  1
  O  O57  1  0.61085800  0.91941500  0.32558200  1
  O  O58  1  0.03247200  0.71181300  0.90934100  1
  O  O59  1  0.28818700  0.96752800  0.59065900  1
  O  O60  1  0.96752800  0.28818700  0.09065900  1
  O  O61  1  0.71181300  0.03247200  0.40934100  1
  O  O62  1  0.97313100  0.80890900  0.72688000  1
  O  O63  1  0.19109100  0.02686900  0.77312000  1
  O  O64  1  0.02686900  0.19109100  0.27312000  1
  O  O65  1  0.80890900  0.97313100  0.22688000  1
  O  O66  1  0.75646000  0.87142500  0.88143600  1
  O  O67  1  0.12857500  0.24354000  0.61856400  1
  O  O68  1  0.24354000  0.12857500  0.11856400  1
  O  O69  1  0.87142500  0.75646000  0.38143600  1
