# generated using pymatgen
data_Pb4C2SO12
_symmetry_space_group_name_H-M   'P 1'
_cell_length_a   9.17864907
_cell_length_b   9.17864907
_cell_length_c   11.84391800
_cell_angle_alpha   90.00000000
_cell_angle_beta   90.00000000
_cell_angle_gamma   119.99999331
_symmetry_Int_Tables_number   1
_chemical_formula_structural   Pb4C2SO12
_chemical_formula_sum   'Pb12 C6 S3 O36'
_cell_volume   864.13895699
_cell_formula_units_Z   3
loop_
 _symmetry_equiv_pos_site_id
 _symmetry_equiv_pos_as_xyz
  1  'x, y, z'
loop_
 _atom_site_type_symbol
 _atom_site_label
 _atom_site_symmetry_multiplicity
 _atom_site_fract_x
 _atom_site_fract_y
 _atom_site_fract_z
 _atom_site_occupancy
  Pb  Pb0  1  0.68144900  0.01409100  0.97950800  1
  Pb  Pb1  1  0.98590900  0.66735800  0.97950800  1
  Pb  Pb2  1  0.33264200  0.31855100  0.97950800  1
  Pb  Pb3  1  0.33697700  0.98630700  0.19465600  1
  Pb  Pb4  1  0.01369300  0.35067000  0.19465600  1
  Pb  Pb5  1  0.64933000  0.66302300  0.19465600  1
  Pb  Pb6  1  0.72914600  0.04964600  0.42363500  1
  Pb  Pb7  1  0.95035400  0.67950100  0.42363500  1
  Pb  Pb8  1  0.32049900  0.27085400  0.42363500  1
  Pb  Pb9  1  0.05082900  0.38621000  0.75222700  1
  Pb  Pb10  1  0.61379000  0.66461900  0.75222700  1
  Pb  Pb11  1  0.33538100  0.94917100  0.75222700  1
  C  C12  1  0.00000000  0.00000000  0.92839800  1
  C  C13  1  0.66666700  0.33333300  0.93104000  1
  C  C14  1  0.33333300  0.66666700  0.95400900  1
  C  C15  1  0.66666700  0.33333300  0.23284700  1
  C  C16  1  0.00000000  0.00000000  0.23303000  1
  C  C17  1  0.33333300  0.66666700  0.24547500  1
  S  S18  1  0.33333300  0.66666700  0.57456100  1
  S  S19  1  0.66666700  0.33333300  0.58813200  1
  S  S20  1  0.00000000  0.00000000  0.59106200  1
  O  O21  1  0.60394800  0.94111500  0.79611900  1
  O  O22  1  0.05888500  0.66283300  0.79611900  1
  O  O23  1  0.33716700  0.39605200  0.79611900  1
  O  O24  1  0.29148600  0.00218100  0.38189500  1
  O  O25  1  0.99781900  0.28930500  0.38189500  1
  O  O26  1  0.71069500  0.70851400  0.38189500  1
  O  O27  1  0.99274700  0.13771700  0.93022700  1
  O  O28  1  0.86228300  0.85503000  0.93022700  1
  O  O29  1  0.14497000  0.00725300  0.93022700  1
  O  O30  1  0.80340200  0.32301600  0.93267100  1
  O  O31  1  0.67698400  0.48038600  0.93267100  1
  O  O32  1  0.51961400  0.19659800  0.93267100  1
  O  O33  1  0.18830700  0.52809200  0.95521500  1
  O  O34  1  0.47190800  0.66021500  0.95521500  1
  O  O35  1  0.33978500  0.81169300  0.95521500  1
  O  O36  1  0.65590200  0.18624500  0.23099900  1
  O  O37  1  0.81375500  0.46965700  0.23099900  1
  O  O38  1  0.53034300  0.34409800  0.23099900  1
  O  O39  1  0.14399800  0.13887100  0.23141000  1
  O  O40  1  0.86112900  0.00512700  0.23141000  1
  O  O41  1  0.99487300  0.85600200  0.23141000  1
  O  O42  1  0.18832700  0.65978700  0.24329300  1
  O  O43  1  0.34021300  0.52854000  0.24329300  1
  O  O44  1  0.47146000  0.81167300  0.24329300  1
  O  O45  1  0.33333300  0.66666700  0.70511800  1
  O  O46  1  0.44292000  0.59879000  0.53962000  1
  O  O47  1  0.40121000  0.84413100  0.53962000  1
  O  O48  1  0.15586900  0.55708000  0.53962000  1
  O  O49  1  0.66666700  0.33333300  0.46056400  1
  O  O50  1  0.75668800  0.24439200  0.62773600  1
  O  O51  1  0.75560800  0.51229600  0.62773600  1
  O  O52  1  0.48770400  0.24331200  0.62773600  1
  O  O53  1  0.00000000  0.00000000  0.46218700  1
  O  O54  1  0.05730200  0.88193200  0.62770800  1
  O  O55  1  0.11806800  0.17537000  0.62770800  1
  O  O56  1  0.82463000  0.94269800  0.62770800  1
