# generated using pymatgen
data_Cu2Si2Pb7(S2O13)2
_symmetry_space_group_name_H-M   'P 1'
_cell_length_a   10.82025029
_cell_length_b   10.82025029
_cell_length_c   9.61396085
_cell_angle_alpha   89.39119739
_cell_angle_beta   89.39119739
_cell_angle_gamma   30.78191207
_symmetry_Int_Tables_number   1
_chemical_formula_structural   Cu2Si2Pb7(S2O13)2
_chemical_formula_sum   'Cu2 Si2 Pb7 S4 O26'
_cell_volume   576.00576398
_cell_formula_units_Z   1
loop_
 _symmetry_equiv_pos_site_id
 _symmetry_equiv_pos_as_xyz
  1  'x, y, z'
loop_
 _atom_site_type_symbol
 _atom_site_label
 _atom_site_symmetry_multiplicity
 _atom_site_fract_x
 _atom_site_fract_y
 _atom_site_fract_z
 _atom_site_occupancy
  Cu  Cu0  1  0.00000000  0.50000000  0.00000000  1
  Cu  Cu1  1  0.50000000  0.00000000  0.00000000  1
  Si  Si2  1  0.39463400  0.39463400  0.00827400  1
  Si  Si3  1  0.60536600  0.60536600  0.99172600  1
  Pb  Pb4  1  0.14707100  0.14707100  0.74516400  1
  Pb  Pb5  1  0.85292900  0.85292900  0.25483600  1
  Pb  Pb6  1  0.47467900  0.47467900  0.28813300  1
  Pb  Pb7  1  0.52532100  0.52532100  0.71186700  1
  Pb  Pb8  1  0.34338000  0.34338000  0.66968700  1
  Pb  Pb9  1  0.65662000  0.65662000  0.33031300  1
  Pb  Pb10  1  0.00000000  0.00000000  0.00000000  1
  S  S11  1  0.26755100  0.26755100  0.34462200  1
  S  S12  1  0.73244900  0.73244900  0.65537800  1
  S  S13  1  0.93236700  0.93236700  0.65460200  1
  S  S14  1  0.06763300  0.06763300  0.34539800  1
  O  O15  1  0.31423400  0.31423400  0.97503700  1
  O  O16  1  0.68576600  0.68576600  0.02496300  1
  O  O17  1  0.33668700  0.33668700  0.38706700  1
  O  O18  1  0.66331300  0.66331300  0.61293300  1
  O  O19  1  0.19089300  0.63938200  0.10551800  1
  O  O20  1  0.63938200  0.19089300  0.10551800  1
  O  O21  1  0.80910700  0.36061800  0.89448200  1
  O  O22  1  0.36061800  0.80910700  0.89448200  1
  O  O23  1  0.22424800  0.22424800  0.46525000  1
  O  O24  1  0.77575200  0.77575200  0.53475000  1
  O  O25  1  0.88366700  0.88366700  0.76629800  1
  O  O26  1  0.11633300  0.11633300  0.23370200  1
  O  O27  1  0.43085600  0.43085600  0.85635100  1
  O  O28  1  0.56914400  0.56914400  0.14364900  1
  O  O29  1  0.04374200  0.46945300  0.25527500  1
  O  O30  1  0.46945300  0.04374200  0.25527500  1
  O  O31  1  0.95625800  0.53054700  0.74472500  1
  O  O32  1  0.53054700  0.95625800  0.74472500  1
  O  O33  1  0.14135900  0.71183000  0.56584600  1
  O  O34  1  0.71183000  0.14135900  0.56584600  1
  O  O35  1  0.85864100  0.28817000  0.43415400  1
  O  O36  1  0.28817000  0.85864100  0.43415400  1
  O  O37  1  0.00106200  0.00106200  0.28262000  1
  O  O38  1  0.99893800  0.99893800  0.71738000  1
  O  O39  1  0.80346200  0.80346200  0.02814600  1
  O  O40  1  0.19653800  0.19653800  0.97185400  1
