# generated using pymatgen
data_KIO3
_symmetry_space_group_name_H-M   'P 1'
_cell_length_a   9.08149413
_cell_length_b   9.08149413
_cell_length_c   9.08149406
_cell_angle_alpha   89.11829996
_cell_angle_beta   89.11829996
_cell_angle_gamma   89.11830035
_symmetry_Int_Tables_number   1
_chemical_formula_structural   KIO3
_chemical_formula_sum   'K8 I8 O24'
_cell_volume   748.71958037
_cell_formula_units_Z   8
loop_
 _symmetry_equiv_pos_site_id
 _symmetry_equiv_pos_as_xyz
  1  'x, y, z'
loop_
 _atom_site_type_symbol
 _atom_site_label
 _atom_site_symmetry_multiplicity
 _atom_site_fract_x
 _atom_site_fract_y
 _atom_site_fract_z
 _atom_site_occupancy
  K  K0  1  0.47255600  0.48775700  0.98246700  1
  K  K1  1  0.48775700  0.98246700  0.47255600  1
  K  K2  1  0.98246700  0.47255600  0.48775700  1
  K  K3  1  0.97143300  0.98962500  0.48378900  1
  K  K4  1  0.98962500  0.48378900  0.97143300  1
  K  K5  1  0.48378900  0.97143300  0.98962500  1
  K  K6  1  0.48040000  0.48040000  0.48040000  1
  K  K7  1  0.97913400  0.97913400  0.97913400  1
  I  I8  1  0.22901300  0.22901300  0.22901300  1
  I  I9  1  0.72493800  0.72493800  0.72493800  1
  I  I10  1  0.23551300  0.21994500  0.73048800  1
  I  I11  1  0.21994500  0.73048800  0.23551300  1
  I  I12  1  0.73048800  0.23551300  0.21994500  1
  I  I13  1  0.72157100  0.22516500  0.73802400  1
  I  I14  1  0.22516500  0.73802400  0.72157100  1
  I  I15  1  0.73802400  0.72157100  0.22516500  1
  O  O16  1  0.27080200  0.02497700  0.77565200  1
  O  O17  1  0.02497700  0.77565200  0.27080200  1
  O  O18  1  0.77565200  0.27080200  0.02497700  1
  O  O19  1  0.52527100  0.26708900  0.77417400  1
  O  O20  1  0.26708900  0.77417400  0.52527100  1
  O  O21  1  0.77417400  0.52527100  0.26708900  1
  O  O22  1  0.03333700  0.22114800  0.72626500  1
  O  O23  1  0.22114800  0.72626500  0.03333700  1
  O  O24  1  0.72626500  0.03333700  0.22114800  1
  O  O25  1  0.72083200  0.22033200  0.53521300  1
  O  O26  1  0.22033200  0.53521300  0.72083200  1
  O  O27  1  0.53521300  0.72083200  0.22033200  1
  O  O28  1  0.27664700  0.22203100  0.53121600  1
  O  O29  1  0.22203100  0.53121600  0.27664700  1
  O  O30  1  0.53121600  0.27664700  0.22203100  1
  O  O31  1  0.72728400  0.02656600  0.77928400  1
  O  O32  1  0.02656600  0.77928400  0.72728400  1
  O  O33  1  0.77928400  0.72728400  0.02656600  1
  O  O34  1  0.52557500  0.72331900  0.76523800  1
  O  O35  1  0.72331900  0.76523800  0.52557500  1
  O  O36  1  0.76523800  0.52557500  0.72331900  1
  O  O37  1  0.03260100  0.21509300  0.27800600  1
  O  O38  1  0.21509300  0.27800600  0.03260100  1
  O  O39  1  0.27800600  0.03260100  0.21509300  1
