# generated using pymatgen
data_Ca3(AsO9)2
_symmetry_space_group_name_H-M   'P 1'
_cell_length_a   5.95747700
_cell_length_b   10.33190182
_cell_length_c   12.05065637
_cell_angle_alpha   107.60543179
_cell_angle_beta   96.45289998
_cell_angle_gamma   101.98825790
_symmetry_Int_Tables_number   1
_chemical_formula_structural   Ca3(AsO9)2
_chemical_formula_sum   'Ca6 As4 O36'
_cell_volume   679.26064425
_cell_formula_units_Z   2
loop_
 _symmetry_equiv_pos_site_id
 _symmetry_equiv_pos_as_xyz
  1  'x, y, z'
loop_
 _atom_site_type_symbol
 _atom_site_label
 _atom_site_symmetry_multiplicity
 _atom_site_fract_x
 _atom_site_fract_y
 _atom_site_fract_z
 _atom_site_occupancy
  Ca  Ca0  1  0.56681400  0.78010100  0.42495400  1
  Ca  Ca1  1  0.43318600  0.21989900  0.57504600  1
  Ca  Ca2  1  0.16685100  0.86137800  0.66828200  1
  Ca  Ca3  1  0.83314900  0.13862200  0.33171800  1
  Ca  Ca4  1  0.37681500  0.80381100  0.08588800  1
  Ca  Ca5  1  0.62318500  0.19618900  0.91411200  1
  As  As6  1  0.64422100  0.71091100  0.75572300  1
  As  As7  1  0.35577900  0.28908900  0.24427700  1
  As  As8  1  0.15392400  0.90983100  0.36741800  1
  As  As9  1  0.84607600  0.09016900  0.63258200  1
  O  O10  1  0.93460900  0.75145300  0.77251800  1
  O  O11  1  0.06539100  0.24854700  0.22748200  1
  O  O12  1  0.54230900  0.82982700  0.88456200  1
  O  O13  1  0.45769100  0.17017300  0.11543800  1
  O  O14  1  0.45016600  0.68500600  0.63564200  1
  O  O15  1  0.54983400  0.31499400  0.36435800  1
  O  O16  1  0.58793000  0.56428700  0.82951500  1
  O  O17  1  0.41207000  0.43571300  0.17048500  1
  O  O18  1  0.18554900  0.08552000  0.39199000  1
  O  O19  1  0.81445100  0.91448000  0.60801000  1
  O  O20  1  0.27751400  0.89594200  0.49985500  1
  O  O21  1  0.72248600  0.10405800  0.50014500  1
  O  O22  1  0.33120000  0.83961600  0.27437700  1
  O  O23  1  0.66880000  0.16038400  0.72562300  1
  O  O24  1  0.86367900  0.82454100  0.32205400  1
  O  O25  1  0.13632100  0.17545900  0.67794600  1
  O  O26  1  0.41550700  0.56330200  0.23595100  1
  O  O27  1  0.58449300  0.43669800  0.76404900  1
  O  O28  1  0.15799300  0.61172700  0.44148200  1
  O  O29  1  0.84200700  0.38827300  0.55851800  1
  O  O30  1  0.81332200  0.63655400  0.47904500  1
  O  O31  1  0.18667800  0.36344600  0.52095500  1
  O  O32  1  0.52809500  0.94691600  0.84843500  1
  O  O33  1  0.47190500  0.05308400  0.15156500  1
  O  O34  1  0.23737400  0.06855800  0.83832900  1
  O  O35  1  0.76262600  0.93144200  0.16167100  1
  O  O36  1  0.98642100  0.94816000  0.01575000  1
  O  O37  1  0.01357900  0.05184000  0.98425000  1
  O  O38  1  0.27157300  0.54001300  0.96870400  1
  O  O39  1  0.72842700  0.45998700  0.03129600  1
  O  O40  1  0.96188600  0.65932500  0.03236100  1
  O  O41  1  0.03811400  0.34067500  0.96763900  1
  O  O42  1  0.85717700  0.58644700  0.09457000  1
  O  O43  1  0.14282300  0.41355300  0.90543000  1
  O  O44  1  0.05875000  0.40431800  0.60323400  1
  O  O45  1  0.94125000  0.59568200  0.39676600  1
