# generated using pymatgen
data_DyH9C5(NO4)2
_symmetry_space_group_name_H-M   'P 1'
_cell_length_a   6.78906400
_cell_length_b   8.68721700
_cell_length_c   9.83412929
_cell_angle_alpha   90.00000000
_cell_angle_beta   110.19270489
_cell_angle_gamma   90.00000000
_symmetry_Int_Tables_number   1
_chemical_formula_structural   DyH9C5(NO4)2
_chemical_formula_sum   'Dy2 H18 C10 N4 O16'
_cell_volume   544.34955907
_cell_formula_units_Z   2
loop_
 _symmetry_equiv_pos_site_id
 _symmetry_equiv_pos_as_xyz
  1  'x, y, z'
loop_
 _atom_site_type_symbol
 _atom_site_label
 _atom_site_symmetry_multiplicity
 _atom_site_fract_x
 _atom_site_fract_y
 _atom_site_fract_z
 _atom_site_occupancy
  Dy  Dy0  1  0.14270800  0.75000000  0.28541500  1
  Dy  Dy1  1  0.85729200  0.25000000  0.71458500  1
  H  H2  1  0.65435300  0.25000000  0.30870600  1
  H  H3  1  0.34564700  0.75000000  0.69129400  1
  H  H4  1  0.66188000  0.17248700  0.01385500  1
  H  H5  1  0.64802500  0.82751300  0.98614500  1
  H  H6  1  0.33812000  0.67248700  0.98614500  1
  H  H7  1  0.35197500  0.32751300  0.01385500  1
  H  H8  1  0.82305400  0.10281300  0.18709000  1
  H  H9  1  0.63596400  0.89718700  0.81291000  1
  H  H10  1  0.17694600  0.60281300  0.81291000  1
  H  H11  1  0.36403600  0.39718700  0.18709000  1
  H  H12  1  0.68558000  0.75000000  0.37115900  1
  H  H13  1  0.31442000  0.25000000  0.62884100  1
  H  H14  1  0.23525300  0.00000000  0.00000000  1
  H  H15  1  0.76474700  0.50000000  0.00000000  1
  H  H16  1  0.91794400  0.44543100  0.41990300  1
  H  H17  1  0.49804100  0.55456900  0.58009700  1
  H  H18  1  0.08205600  0.94543100  0.58009700  1
  H  H19  1  0.50195900  0.05456900  0.41990300  1
  C  C20  1  0.62568400  0.75000000  0.25136700  1
  C  C21  1  0.37431600  0.25000000  0.74863300  1
  C  C22  1  0.07190700  0.00000000  0.00000000  1
  C  C23  1  0.92809300  0.50000000  0.00000000  1
  C  C24  1  0.99129500  0.52532700  0.51135100  1
  C  C25  1  0.47994400  0.47467300  0.48864900  1
  C  C26  1  0.00870500  0.02532700  0.48864900  1
  C  C27  1  0.52005600  0.97467300  0.51135100  1
  C  C28  1  0.59500200  0.25000000  0.19000400  1
  C  C29  1  0.40499800  0.75000000  0.80999600  1
  N  N30  1  0.69839700  0.16771600  0.12445600  1
  N  N31  1  0.57394100  0.83228400  0.87554400  1
  N  N32  1  0.30160300  0.66771600  0.87554400  1
  N  N33  1  0.42605900  0.33228400  0.12445600  1
  O  O34  1  0.42906500  0.76535300  0.18747600  1
  O  O35  1  0.24158900  0.23464700  0.81252400  1
  O  O36  1  0.57093500  0.26535300  0.81252400  1
  O  O37  1  0.75841100  0.73464700  0.18747600  1
  O  O38  1  0.03305400  0.92614300  0.09861700  1
  O  O39  1  0.93443700  0.07385700  0.90138300  1
  O  O40  1  0.96694600  0.42614300  0.90138300  1
  O  O41  1  0.06556300  0.57385700  0.09861700  1
  O  O42  1  0.06580700  0.65097800  0.48375800  1
  O  O43  1  0.58204900  0.34902200  0.51624300  1
  O  O44  1  0.93419300  0.15097800  0.51624300  1
  O  O45  1  0.41795100  0.84902200  0.48375800  1
  O  O46  1  0.00426100  0.98402100  0.36408700  1
  O  O47  1  0.64017300  0.01597900  0.63591300  1
  O  O48  1  0.99573900  0.48402100  0.63591300  1
  O  O49  1  0.35982700  0.51597900  0.36408700  1
