# generated using pymatgen
data_U2V2NiO16
_symmetry_space_group_name_H-M   'P 1'
_cell_length_a   10.61851800
_cell_length_b   15.58722200
_cell_length_c   8.35338100
_cell_angle_alpha   90.00000000
_cell_angle_beta   90.00000000
_cell_angle_gamma   90.00000000
_symmetry_Int_Tables_number   1
_chemical_formula_structural   U2V2NiO16
_chemical_formula_sum   'U8 V8 Ni4 O64'
_cell_volume   1382.59479822
_cell_formula_units_Z   4
loop_
 _symmetry_equiv_pos_site_id
 _symmetry_equiv_pos_as_xyz
  1  'x, y, z'
loop_
 _atom_site_type_symbol
 _atom_site_label
 _atom_site_symmetry_multiplicity
 _atom_site_fract_x
 _atom_site_fract_y
 _atom_site_fract_z
 _atom_site_occupancy
  U  U0  1  0.31985700  0.00146700  0.48594700  1
  U  U1  1  0.81985700  0.49853300  0.01405300  1
  U  U2  1  0.68014300  0.50146700  0.51405300  1
  U  U3  1  0.18014300  0.99853300  0.98594700  1
  U  U4  1  0.68014300  0.99853300  0.51405300  1
  U  U5  1  0.18014300  0.50146700  0.98594700  1
  U  U6  1  0.31985700  0.49853300  0.48594700  1
  U  U7  1  0.81985700  0.00146700  0.01405300  1
  V  V8  1  0.45967100  0.94849600  0.14275000  1
  V  V9  1  0.95967100  0.55150400  0.35725000  1
  V  V10  1  0.54032900  0.44849600  0.85725000  1
  V  V11  1  0.04032900  0.05150400  0.64275000  1
  V  V12  1  0.54032900  0.05150400  0.85725000  1
  V  V13  1  0.04032900  0.44849600  0.64275000  1
  V  V14  1  0.45967100  0.55150400  0.14275000  1
  V  V15  1  0.95967100  0.94849600  0.35725000  1
  Ni  Ni16  1  0.31195000  0.75000000  0.54374000  1
  Ni  Ni17  1  0.81195000  0.75000000  0.95626000  1
  Ni  Ni18  1  0.68805000  0.25000000  0.45626000  1
  Ni  Ni19  1  0.18805000  0.25000000  0.04374000  1
  O  O20  1  0.39415700  0.99597600  0.94515300  1
  O  O21  1  0.89415700  0.50402400  0.55484700  1
  O  O22  1  0.60584300  0.49597600  0.05484700  1
  O  O23  1  0.10584300  0.00402400  0.44515300  1
  O  O24  1  0.60584300  0.00402400  0.05484700  1
  O  O25  1  0.10584300  0.49597600  0.44515300  1
  O  O26  1  0.39415700  0.50402400  0.94515300  1
  O  O27  1  0.89415700  0.99597600  0.55484700  1
  O  O28  1  0.47994600  0.84629400  0.12041900  1
  O  O29  1  0.97994600  0.65370600  0.37958100  1
  O  O30  1  0.52005400  0.34629400  0.87958100  1
  O  O31  1  0.02005400  0.15370600  0.62041900  1
  O  O32  1  0.52005400  0.15370600  0.87958100  1
  O  O33  1  0.02005400  0.34629400  0.62041900  1
  O  O34  1  0.47994600  0.65370600  0.12041900  1
  O  O35  1  0.97994600  0.84629400  0.37958100  1
  O  O36  1  0.50974500  0.97738400  0.34925500  1
  O  O37  1  0.00974500  0.52261600  0.15074500  1
  O  O38  1  0.49025500  0.47738400  0.65074500  1
  O  O39  1  0.99025500  0.02261600  0.84925500  1
  O  O40  1  0.49025500  0.02261600  0.65074500  1
  O  O41  1  0.99025500  0.47738400  0.84925500  1
  O  O42  1  0.50974500  0.52261600  0.34925500  1
  O  O43  1  0.00974500  0.97738400  0.15074500  1
  O  O44  1  0.29404700  0.96408800  0.21448700  1
  O  O45  1  0.79404700  0.53591200  0.28551300  1
  O  O46  1  0.70595300  0.46408800  0.78551300  1
  O  O47  1  0.20595300  0.03591200  0.71448700  1
  O  O48  1  0.70595300  0.03591200  0.78551300  1
  O  O49  1  0.20595300  0.46408800  0.71448700  1
  O  O50  1  0.29404700  0.53591200  0.21448700  1
  O  O51  1  0.79404700  0.96408800  0.28551300  1
  O  O52  1  0.32347600  0.11335400  0.42933800  1
  O  O53  1  0.82347600  0.38664600  0.07066200  1
  O  O54  1  0.67652400  0.61335400  0.57066200  1
  O  O55  1  0.17652400  0.88664600  0.92933800  1
  O  O56  1  0.67652400  0.88664600  0.57066200  1
  O  O57  1  0.17652400  0.61335400  0.92933800  1
  O  O58  1  0.32347600  0.38664600  0.42933800  1
  O  O59  1  0.82347600  0.11335400  0.07066200  1
  O  O60  1  0.31254400  0.88489000  0.54219200  1
  O  O61  1  0.81254400  0.61511000  0.95780800  1
  O  O62  1  0.68745600  0.38489000  0.45780800  1
  O  O63  1  0.18745600  0.11511000  0.04219200  1
  O  O64  1  0.68745600  0.11511000  0.45780800  1
  O  O65  1  0.18745600  0.38489000  0.04219200  1
  O  O66  1  0.31254400  0.61511000  0.54219200  1
  O  O67  1  0.81254400  0.88489000  0.95780800  1
  O  O68  1  0.47094400  0.75000000  0.48319800  1
  O  O69  1  0.97094400  0.75000000  0.01680200  1
  O  O70  1  0.52905600  0.25000000  0.51680200  1
  O  O71  1  0.02905600  0.25000000  0.98319800  1
  O  O72  1  0.28643600  0.75000000  0.33509600  1
  O  O73  1  0.78643600  0.75000000  0.16490400  1
  O  O74  1  0.71356400  0.25000000  0.66490400  1
  O  O75  1  0.21356400  0.25000000  0.83509600  1
  O  O76  1  0.15489200  0.75000000  0.62034100  1
  O  O77  1  0.65489200  0.75000000  0.87965900  1
  O  O78  1  0.84510800  0.25000000  0.37965900  1
  O  O79  1  0.34510800  0.25000000  0.12034100  1
  O  O80  1  0.32738400  0.75000000  0.75626100  1
  O  O81  1  0.82738400  0.75000000  0.74373900  1
  O  O82  1  0.67261600  0.25000000  0.24373900  1
  O  O83  1  0.17261600  0.25000000  0.25626100  1
