# generated using pymatgen
data_H14C5SN3ClO2
_symmetry_space_group_name_H-M   'P 1'
_cell_length_a   10.06227479
_cell_length_b   14.63719475
_cell_length_c   16.44934643
_cell_angle_alpha   90.00000000
_cell_angle_beta   90.00000000
_cell_angle_gamma   90.00000000
_symmetry_Int_Tables_number   1
_chemical_formula_structural   H14C5SN3ClO2
_chemical_formula_sum   'H112 C40 S8 N24 Cl8 O16'
_cell_volume   2422.71691568
_cell_formula_units_Z   8
loop_
 _symmetry_equiv_pos_site_id
 _symmetry_equiv_pos_as_xyz
  1  'x, y, z'
loop_
 _atom_site_type_symbol
 _atom_site_label
 _atom_site_symmetry_multiplicity
 _atom_site_fract_x
 _atom_site_fract_y
 _atom_site_fract_z
 _atom_site_occupancy
  H  H0  1  0.64247566  0.35376107  0.43300821  1
  H  H1  1  0.85752434  0.85376107  0.06699179  1
  H  H2  1  0.85752434  0.64623893  0.93300821  1
  H  H3  1  0.64247566  0.14623893  0.56699179  1
  H  H4  1  0.35752434  0.64623893  0.56699179  1
  H  H5  1  0.14247566  0.14623893  0.93300821  1
  H  H6  1  0.14247566  0.35376107  0.06699179  1
  H  H7  1  0.35752434  0.85376107  0.43300821  1
  H  H8  1  0.65413509  0.37146424  0.53732527  1
  H  H9  1  0.84586491  0.87146424  0.96267473  1
  H  H10  1  0.84586491  0.62853576  0.03732527  1
  H  H11  1  0.65413509  0.12853576  0.46267473  1
  H  H12  1  0.34586491  0.62853576  0.46267473  1
  H  H13  1  0.15413509  0.12853576  0.03732527  1
  H  H14  1  0.15413509  0.37146424  0.96267473  1
  H  H15  1  0.34586491  0.87146424  0.53732527  1
  H  H16  1  0.86817663  0.41444101  0.56856997  1
  H  H17  1  0.63182337  0.91444101  0.93143003  1
  H  H18  1  0.63182337  0.58555899  0.06856997  1
  H  H19  1  0.86817663  0.08555899  0.43143003  1
  H  H20  1  0.13182337  0.58555899  0.43143003  1
  H  H21  1  0.36817663  0.08555899  0.06856997  1
  H  H22  1  0.36817663  0.41444101  0.93143003  1
  H  H23  1  0.13182337  0.91444101  0.56856997  1
  H  H24  1  0.91894165  0.52159239  0.61081915  1
  H  H25  1  0.58105835  0.02159239  0.88918085  1
  H  H26  1  0.58105835  0.47840761  0.11081915  1
  H  H27  1  0.91894165  0.97840761  0.38918085  1
  H  H28  1  0.08105835  0.47840761  0.38918085  1
  H  H29  1  0.41894165  0.97840761  0.11081915  1
  H  H30  1  0.41894165  0.52159239  0.88918085  1
  H  H31  1  0.08105835  0.02159239  0.61081915  1
  H  H32  1  0.76874066  0.46890079  0.64422624  1
  H  H33  1  0.73125934  0.96890079  0.85577376  1
  H  H34  1  0.73125934  0.53109921  0.14422624  1
  H  H35  1  0.76874066  0.03109921  0.35577376  1
  H  H36  1  0.23125934  0.53109921  0.35577376  1
  H  H37  1  0.26874066  0.03109921  0.14422624  1
  H  H38  1  0.26874066  0.46890079  0.85577376  1
  H  H39  1  0.23125934  0.96890079  0.64422624  1
  H  H40  1  0.49424940  0.45648031  0.37430221  1
  H  H41  1  0.00575060  0.95648031  0.12569779  1
  H  H42  1  0.00575060  0.54351969  0.87430221  1
  H  H43  1  0.49424940  0.04351969  0.62569779  1
  H  H44  1  0.50575060  0.54351969  0.62569779  1
  H  H45  1  0.99424940  0.04351969  0.87430221  1
  H  H46  1  0.99424940  0.45648031  0.12569779  1
  H  H47  1  0.50575060  0.95648031  0.37430221  1
  H  H48  1  0.52855457  0.54942268  0.30741526  1
  H  H49  1  0.97144543  0.04942268  0.19258474  1
  H  H50  1  0.97144543  0.45057732  0.80741526  1
  H  H51  1  0.52855457  0.95057732  0.69258474  1
  H  H52  1  0.47144543  0.45057732  0.69258474  1
  H  H53  1  0.02855457  0.95057732  0.80741526  1
  H  H54  1  0.02855457  0.54942268  0.19258474  1
  H  H55  1  0.47144543  0.04942268  0.30741526  1
  H  H56  1  0.61592280  0.44303728  0.29649825  1
  H  H57  1  0.88407720  0.94303728  0.20350175  1
  H  H58  1  0.88407720  0.55696272  0.79649825  1
  H  H59  1  0.61592280  0.05696272  0.70350175  1
  H  H60  1  0.38407720  0.55696272  0.70350175  1
  H  H61  1  0.11592280  0.05696272  0.79649825  1
  H  H62  1  0.11592280  0.44303728  0.20350175  1
  H  H63  1  0.38407720  0.94303728  0.29649825  1
  H  H64  1  0.84927065  0.60591281  0.39736824  1
  H  H65  1  0.65072935  0.10591281  0.10263176  1
  H  H66  1  0.65072935  0.39408719  0.89736824  1
  H  H67  1  0.84927065  0.89408719  0.60263176  1
  H  H68  1  0.15072935  0.39408719  0.60263176  1
  H  H69  1  0.34927065  0.89408719  0.89736824  1
  H  H70  1  0.34927065  0.60591281  0.10263176  1
  H  H71  1  0.15072935  0.10591281  0.39736824  1
  H  H72  1  0.79054626  0.57363183  0.29973983  1
  H  H73  1  0.70945374  0.07363183  0.20026017  1
  H  H74  1  0.70945374  0.42636817  0.79973983  1
  H  H75  1  0.79054626  0.92636817  0.70026017  1
  H  H76  1  0.20945374  0.42636817  0.70026017  1
  H  H77  1  0.29054626  0.92636817  0.79973983  1
  H  H78  1  0.29054626  0.57363183  0.20026017  1
  H  H79  1  0.20945374  0.07363183  0.29973983  1
  H  H80  1  0.70749205  0.66177479  0.35457420  1
  H  H81  1  0.79250795  0.16177479  0.14542580  1
  H  H82  1  0.79250795  0.33822521  0.85457420  1
  H  H83  1  0.70749205  0.83822521  0.64542580  1
  H  H84  1  0.29250795  0.33822521  0.64542580  1
  H  H85  1  0.20749205  0.83822521  0.85457420  1
  H  H86  1  0.20749205  0.66177479  0.14542580  1
  H  H87  1  0.29250795  0.16177479  0.35457420  1
  H  H88  1  0.67028898  0.65517230  0.50028578  1
  H  H89  1  0.82971102  0.15517230  0.99971422  1
  H  H90  1  0.82971102  0.34482770  0.00028578  1
  H  H91  1  0.67028898  0.84482770  0.49971422  1
  H  H92  1  0.32971102  0.34482770  0.49971422  1
  H  H93  1  0.17028898  0.84482770  0.00028578  1
  H  H94  1  0.17028898  0.65517230  0.99971422  1
  H  H95  1  0.32971102  0.15517230  0.50028578  1
  H  H96  1  0.71643531  0.63921409  0.60384490  1
  H  H97  1  0.78356469  0.13921409  0.89615510  1
  H  H98  1  0.78356469  0.36078591  0.10384490  1
  H  H99  1  0.71643531  0.86078591  0.39615510  1
  H  H100  1  0.28356469  0.36078591  0.39615510  1
  H  H101  1  0.21643531  0.86078591  0.10384490  1
  H  H102  1  0.21643531  0.63921409  0.89615510  1
  H  H103  1  0.28356469  0.13921409  0.60384490  1
  H  H104  1  0.84115807  0.66553567  0.53048015  1
  H  H105  1  0.65884193  0.16553567  0.96951985  1
  H  H106  1  0.65884193  0.33446433  0.03048015  1
  H  H107  1  0.84115807  0.83446433  0.46951985  1
  H  H108  1  0.15884193  0.33446433  0.46951985  1
  H  H109  1  0.34115807  0.83446433  0.03048015  1
  H  H110  1  0.34115807  0.66553567  0.96951985  1
  H  H111  1  0.15884193  0.16553567  0.53048015  1
  C  C112  1  0.69844488  0.48501431  0.46726395  1
  C  C113  1  0.80155512  0.98501431  0.03273605  1
  C  C114  1  0.80155512  0.51498569  0.96726395  1
  C  C115  1  0.69844488  0.01498569  0.53273605  1
  C  C116  1  0.30155512  0.51498569  0.53273605  1
  C  C117  1  0.19844488  0.01498569  0.96726395  1
  C  C118  1  0.19844488  0.48501431  0.03273605  1
  C  C119  1  0.30155512  0.98501431  0.46726395  1
  C  C120  1  0.83335095  0.48063859  0.59114009  1
  C  C121  1  0.66664905  0.98063859  0.90885991  1
  C  C122  1  0.66664905  0.51936141  0.09114009  1
  C  C123  1  0.83335095  0.01936141  0.40885991  1
  C  C124  1  0.16664905  0.51936141  0.40885991  1
  C  C125  1  0.33335095  0.01936141  0.09114009  1
  C  C126  1  0.33335095  0.48063859  0.90885991  1
  C  C127  1  0.16664905  0.98063859  0.59114009  1
  C  C128  1  0.57243346  0.49143729  0.34014876  1
  C  C129  1  0.92756654  0.99143729  0.15985124  1
  C  C130  1  0.92756654  0.50856271  0.84014876  1
  C  C131  1  0.57243346  0.00856271  0.65985124  1
  C  C132  1  0.42756654  0.50856271  0.65985124  1
  C  C133  1  0.07243346  0.00856271  0.84014876  1
  C  C134  1  0.07243346  0.49143729  0.15985124  1
  C  C135  1  0.42756654  0.99143729  0.34014876  1
  C  C136  1  0.75992152  0.59623606  0.36064785  1
  C  C137  1  0.74007848  0.09623606  0.13935215  1
  C  C138  1  0.74007848  0.40376394  0.86064785  1
  C  C139  1  0.75992152  0.90376394  0.63935215  1
  C  C140  1  0.24007848  0.40376394  0.63935215  1
  C  C141  1  0.25992152  0.90376394  0.86064785  1
  C  C142  1  0.25992152  0.59623606  0.13935215  1
  C  C143  1  0.24007848  0.09623606  0.36064785  1
  C  C144  1  0.74769788  0.62827924  0.54044876  1
  C  C145  1  0.75230212  0.12827924  0.95955124  1
  C  C146  1  0.75230212  0.37172076  0.04044876  1
  C  C147  1  0.74769788  0.87172076  0.45955124  1
  C  C148  1  0.25230212  0.37172076  0.45955124  1
  C  C149  1  0.24769788  0.87172076  0.04044876  1
  C  C150  1  0.24769788  0.62827924  0.95955124  1
  C  C151  1  0.25230212  0.12827924  0.54044876  1
  S  S152  1  0.62524919  0.77559956  0.19773717  1
  S  S153  1  0.87475081  0.27559956  0.30226283  1
  S  S154  1  0.87475081  0.22440044  0.69773717  1
  S  S155  1  0.62524919  0.72440044  0.80226283  1
  S  S156  1  0.37475081  0.22440044  0.80226283  1
  S  S157  1  0.12524919  0.72440044  0.69773717  1
  S  S158  1  0.12524919  0.77559956  0.30226283  1
  S  S159  1  0.37475081  0.27559956  0.19773717  1
  N  N160  1  0.65703159  0.39942807  0.48016424  1
  N  N161  1  0.84296841  0.89942807  0.01983576  1
  N  N162  1  0.84296841  0.60057193  0.98016424  1
  N  N163  1  0.65703159  0.10057193  0.51983576  1
  N  N164  1  0.34296841  0.60057193  0.51983576  1
  N  N165  1  0.15703159  0.10057193  0.98016424  1
  N  N166  1  0.15703159  0.39942807  0.01983576  1
  N  N167  1  0.34296841  0.89942807  0.48016424  1
  N  N168  1  0.67277469  0.52692688  0.39582821  1
  N  N169  1  0.82722531  0.02692688  0.10417179  1
  N  N170  1  0.82722531  0.47307312  0.89582821  1
  N  N171  1  0.67277469  0.97307312  0.60417179  1
  N  N172  1  0.32722531  0.47307312  0.60417179  1
  N  N173  1  0.17277469  0.97307312  0.89582821  1
  N  N174  1  0.17277469  0.52692688  0.10417179  1
  N  N175  1  0.32722531  0.02692688  0.39582821  1
  N  N176  1  0.76453740  0.53033678  0.52678437  1
  N  N177  1  0.73546260  0.03033678  0.97321563  1
  N  N178  1  0.73546260  0.46966322  0.02678437  1
  N  N179  1  0.76453740  0.96966322  0.47321563  1
  N  N180  1  0.23546260  0.46966322  0.47321563  1
  N  N181  1  0.26453740  0.96966322  0.02678437  1
  N  N182  1  0.26453740  0.53033678  0.97321563  1
  N  N183  1  0.23546260  0.03033678  0.52678437  1
  Cl  Cl184  1  0.87555958  0.73424804  0.14449886  1
  Cl  Cl185  1  0.62444042  0.23424804  0.35550114  1
  Cl  Cl186  1  0.62444042  0.26575196  0.64449886  1
  Cl  Cl187  1  0.87555958  0.76575196  0.85550114  1
  Cl  Cl188  1  0.12444042  0.26575196  0.85550114  1
  Cl  Cl189  1  0.37555958  0.76575196  0.64449886  1
  Cl  Cl190  1  0.37555958  0.73424804  0.35550114  1
  Cl  Cl191  1  0.12444042  0.23424804  0.14449886  1
  O  O192  1  0.63369804  0.87482301  0.20861701  1
  O  O193  1  0.86630196  0.37482301  0.29138299  1
  O  O194  1  0.86630196  0.12517699  0.70861701  1
  O  O195  1  0.63369804  0.62517699  0.79138299  1
  O  O196  1  0.36630196  0.12517699  0.79138299  1
  O  O197  1  0.13369804  0.62517699  0.70861701  1
  O  O198  1  0.13369804  0.87482301  0.29138299  1
  O  O199  1  0.36630196  0.37482301  0.20861701  1
  O  O200  1  0.54616211  0.74547073  0.12830002  1
  O  O201  1  0.95383789  0.24547073  0.37169998  1
  O  O202  1  0.95383789  0.25452927  0.62830002  1
  O  O203  1  0.54616211  0.75452927  0.87169998  1
  O  O204  1  0.45383789  0.25452927  0.87169998  1
  O  O205  1  0.04616211  0.75452927  0.62830002  1
  O  O206  1  0.04616211  0.74547073  0.37169998  1
  O  O207  1  0.45383789  0.24547073  0.12830002  1
