# generated using pymatgen
data_Cs2Mo7O22
_symmetry_space_group_name_H-M   'P 1'
_cell_length_a   11.39091633
_cell_length_b   11.39091633
_cell_length_c   19.42768799
_cell_angle_alpha   58.31173170
_cell_angle_beta   58.31173170
_cell_angle_gamma   28.84643193
_symmetry_Int_Tables_number   1
_chemical_formula_structural   Cs2Mo7O22
_chemical_formula_sum   'Cs4 Mo14 O44'
_cell_volume   1021.75580587
_cell_formula_units_Z   2
loop_
 _symmetry_equiv_pos_site_id
 _symmetry_equiv_pos_as_xyz
  1  'x, y, z'
loop_
 _atom_site_type_symbol
 _atom_site_label
 _atom_site_symmetry_multiplicity
 _atom_site_fract_x
 _atom_site_fract_y
 _atom_site_fract_z
 _atom_site_occupancy
  Cs  Cs0  1  0.81142800  0.49721800  0.82370300  1
  Cs  Cs1  1  0.50278200  0.18857200  0.67629700  1
  Cs  Cs2  1  0.18857200  0.50278200  0.17629700  1
  Cs  Cs3  1  0.49721800  0.81142800  0.32370300  1
  Mo  Mo4  1  0.61489200  0.38510800  0.75000000  1
  Mo  Mo5  1  0.38510800  0.61489200  0.25000000  1
  Mo  Mo6  1  0.99758800  0.62333400  0.52661200  1
  Mo  Mo7  1  0.37666600  0.00241200  0.97338800  1
  Mo  Mo8  1  0.00241200  0.37666600  0.47338800  1
  Mo  Mo9  1  0.62333400  0.99758800  0.02661200  1
  Mo  Mo10  1  0.21386800  0.71464400  0.90600800  1
  Mo  Mo11  1  0.28535600  0.78613200  0.59399200  1
  Mo  Mo12  1  0.78613200  0.28535600  0.09399200  1
  Mo  Mo13  1  0.71464400  0.21386800  0.40600800  1
  Mo  Mo14  1  0.97918100  0.69524900  0.86312900  1
  Mo  Mo15  1  0.30475100  0.02081900  0.63687100  1
  Mo  Mo16  1  0.02081900  0.30475100  0.13687100  1
  Mo  Mo17  1  0.69524900  0.97918100  0.36312900  1
  O  O18  1  0.99882500  0.94975700  0.64171200  1
  O  O19  1  0.05024300  0.00117500  0.85828800  1
  O  O20  1  0.00117500  0.05024300  0.35828800  1
  O  O21  1  0.94975700  0.99882500  0.14171200  1
  O  O22  1  0.53096200  0.50242400  0.83465200  1
  O  O23  1  0.49757600  0.46903800  0.66534800  1
  O  O24  1  0.46903800  0.49757600  0.16534800  1
  O  O25  1  0.50242400  0.53096200  0.33465200  1
  O  O26  1  0.70985800  0.54961600  0.52062000  1
  O  O27  1  0.45038400  0.29014200  0.97938000  1
  O  O28  1  0.29014200  0.45038400  0.47938000  1
  O  O29  1  0.54961600  0.70985800  0.02062000  1
  O  O30  1  0.94316400  0.79675300  0.95671800  1
  O  O31  1  0.20324700  0.05683600  0.54328200  1
  O  O32  1  0.05683600  0.20324700  0.04328200  1
  O  O33  1  0.79675300  0.94316400  0.45671800  1
  O  O34  1  0.92990800  0.72084100  0.78233700  1
  O  O35  1  0.27915900  0.07009200  0.71766300  1
  O  O36  1  0.07009200  0.27915900  0.21766300  1
  O  O37  1  0.72084100  0.92990800  0.28233700  1
  O  O38  1  0.96098600  0.65417300  0.61737400  1
  O  O39  1  0.34582700  0.03901400  0.88262600  1
  O  O40  1  0.03901400  0.34582700  0.38262600  1
  O  O41  1  0.65417300  0.96098600  0.11737400  1
  O  O42  1  0.22395100  0.62525800  0.82079100  1
  O  O43  1  0.37474200  0.77604900  0.67920900  1
  O  O44  1  0.77604900  0.37474200  0.17920900  1
  O  O45  1  0.62525800  0.22395100  0.32079100  1
  O  O46  1  0.26170500  0.67059000  0.99289100  1
  O  O47  1  0.32941000  0.73829500  0.50710900  1
  O  O48  1  0.73829500  0.32941000  0.00710900  1
  O  O49  1  0.67059000  0.26170500  0.49289100  1
  O  O50  1  0.87896500  0.26994400  0.69742300  1
  O  O51  1  0.73005600  0.12103500  0.80257700  1
  O  O52  1  0.12103500  0.73005600  0.30257700  1
  O  O53  1  0.26994400  0.87896500  0.19742300  1
  O  O54  1  0.14120400  0.40801000  0.91880800  1
  O  O55  1  0.59199000  0.85879600  0.58119200  1
  O  O56  1  0.85879600  0.59199000  0.08119200  1
  O  O57  1  0.40801000  0.14120400  0.41880800  1
  O  O58  1  0.08299400  0.35610800  0.56634400  1
  O  O59  1  0.64389200  0.91700600  0.93365600  1
  O  O60  1  0.91700600  0.64389200  0.43365600  1
  O  O61  1  0.35610800  0.08299400  0.06634400  1
