# generated using pymatgen
data_CrCuPPb2O9
_symmetry_space_group_name_H-M   'P 1'
_cell_length_a   5.86710700
_cell_length_b   9.64701100
_cell_length_c   13.90057096
_cell_angle_alpha   88.45476974
_cell_angle_beta   90.00000000
_cell_angle_gamma   90.00000000
_symmetry_Int_Tables_number   1
_chemical_formula_structural   CrCuPPb2O9
_chemical_formula_sum   'Cr4 Cu4 P4 Pb8 O36'
_cell_volume   786.48684156
_cell_formula_units_Z   4
loop_
 _symmetry_equiv_pos_site_id
 _symmetry_equiv_pos_as_xyz
  1  'x, y, z'
loop_
 _atom_site_type_symbol
 _atom_site_label
 _atom_site_symmetry_multiplicity
 _atom_site_fract_x
 _atom_site_fract_y
 _atom_site_fract_z
 _atom_site_occupancy
  Cr  Cr0  1  0.24540300  0.31762600  0.36564200  1
  Cr  Cr1  1  0.25459700  0.81762600  0.86564200  1
  Cr  Cr2  1  0.75459700  0.68237400  0.63435800  1
  Cr  Cr3  1  0.74540300  0.18237400  0.13435800  1
  Cu  Cu4  1  0.50000000  0.00000000  0.50000000  1
  Cu  Cu5  1  0.00000000  0.50000000  0.00000000  1
  Cu  Cu6  1  0.00000000  0.00000000  0.50000000  1
  Cu  Cu7  1  0.50000000  0.50000000  0.00000000  1
  P  P8  1  0.23604800  0.17589000  0.65506800  1
  P  P9  1  0.26395200  0.67589000  0.15506800  1
  P  P10  1  0.76395200  0.82411000  0.34493200  1
  P  P11  1  0.73604800  0.32411000  0.84493200  1
  Pb  Pb12  1  0.26155700  0.01692200  0.23095900  1
  Pb  Pb13  1  0.23844300  0.51692200  0.73095900  1
  Pb  Pb14  1  0.73844300  0.98307800  0.76904100  1
  Pb  Pb15  1  0.76155700  0.48307800  0.26904100  1
  Pb  Pb16  1  0.73680200  0.32539900  0.54631600  1
  Pb  Pb17  1  0.76319800  0.82539900  0.04631600  1
  Pb  Pb18  1  0.26319800  0.67460100  0.45368400  1
  Pb  Pb19  1  0.23680200  0.17460100  0.95368400  1
  O  O20  1  0.46207300  0.10827700  0.61419800  1
  O  O21  1  0.03792700  0.60827700  0.11419800  1
  O  O22  1  0.53792700  0.89172300  0.38580200  1
  O  O23  1  0.96207300  0.39172300  0.88580200  1
  O  O24  1  0.01508900  0.10671200  0.61167700  1
  O  O25  1  0.48491100  0.60671200  0.11167700  1
  O  O26  1  0.98491100  0.89328800  0.38832300  1
  O  O27  1  0.51508900  0.39328800  0.88832300  1
  O  O28  1  0.23551600  0.33033000  0.62111400  1
  O  O29  1  0.26448400  0.83033000  0.12111400  1
  O  O30  1  0.76448400  0.66967000  0.37888600  1
  O  O31  1  0.73551600  0.16967000  0.87888600  1
  O  O32  1  0.22468200  0.15292800  0.76377300  1
  O  O33  1  0.27531800  0.65292800  0.26377300  1
  O  O34  1  0.77531800  0.84707200  0.23622700  1
  O  O35  1  0.72468200  0.34707200  0.73622700  1
  O  O36  1  0.48592200  0.40526300  0.39647900  1
  O  O37  1  0.01407800  0.90526300  0.89647900  1
  O  O38  1  0.51407800  0.59473700  0.60352100  1
  O  O39  1  0.98592200  0.09473700  0.10352100  1
  O  O40  1  0.01256900  0.40280500  0.40626200  1
  O  O41  1  0.48743100  0.90280500  0.90626200  1
  O  O42  1  0.98743100  0.59719500  0.59373800  1
  O  O43  1  0.51256900  0.09719500  0.09373800  1
  O  O44  1  0.25493700  0.15690000  0.41030200  1
  O  O45  1  0.24506300  0.65690000  0.91030200  1
  O  O46  1  0.74506300  0.84310000  0.58969800  1
  O  O47  1  0.75493700  0.34310000  0.08969800  1
  O  O48  1  0.22305300  0.30846700  0.24872100  1
  O  O49  1  0.27694700  0.80846700  0.74872100  1
  O  O50  1  0.77694700  0.69153300  0.75127900  1
  O  O51  1  0.72305300  0.19153300  0.25127900  1
  O  O52  1  0.74897500  0.10465800  0.46549700  1
  O  O53  1  0.75102500  0.60465800  0.96549700  1
  O  O54  1  0.25102500  0.89534200  0.53450300  1
  O  O55  1  0.24897500  0.39534200  0.03450300  1
