# generated using pymatgen
data_Al2Si2PbO10
_symmetry_space_group_name_H-M   'P 1'
_cell_length_a   5.91082800
_cell_length_b   9.05596000
_cell_length_c   13.24572200
_cell_angle_alpha   90.00000000
_cell_angle_beta   90.00000000
_cell_angle_gamma   90.00000000
_symmetry_Int_Tables_number   1
_chemical_formula_structural   Al2Si2PbO10
_chemical_formula_sum   'Al8 Si8 Pb4 O40'
_cell_volume   709.01994690
_cell_formula_units_Z   4
loop_
 _symmetry_equiv_pos_site_id
 _symmetry_equiv_pos_as_xyz
  1  'x, y, z'
loop_
 _atom_site_type_symbol
 _atom_site_label
 _atom_site_symmetry_multiplicity
 _atom_site_fract_x
 _atom_site_fract_y
 _atom_site_fract_z
 _atom_site_occupancy
  Al  Al0  1  0.25844500  0.75190700  0.99914100  1
  Al  Al1  1  0.24155500  0.25190700  0.50085900  1
  Al  Al2  1  0.74155500  0.24809300  0.49914100  1
  Al  Al3  1  0.75844500  0.74809300  0.00085900  1
  Al  Al4  1  0.74155500  0.24809300  0.00085900  1
  Al  Al5  1  0.75844500  0.74809300  0.49914100  1
  Al  Al6  1  0.25844500  0.75190700  0.50085900  1
  Al  Al7  1  0.24155500  0.25190700  0.99914100  1
  Si  Si8  1  0.51093200  0.51422500  0.87010400  1
  Si  Si9  1  0.98906800  0.01422500  0.62989600  1
  Si  Si10  1  0.48906800  0.48577500  0.37010400  1
  Si  Si11  1  0.01093200  0.98577500  0.12989600  1
  Si  Si12  1  0.48906800  0.48577500  0.12989600  1
  Si  Si13  1  0.01093200  0.98577500  0.37010400  1
  Si  Si14  1  0.51093200  0.51422500  0.62989600  1
  Si  Si15  1  0.98906800  0.01422500  0.87010400  1
  Pb  Pb16  1  0.51617600  0.86727800  0.25000000  1
  Pb  Pb17  1  0.98382400  0.36727800  0.25000000  1
  Pb  Pb18  1  0.48382400  0.13272200  0.75000000  1
  Pb  Pb19  1  0.01617600  0.63272200  0.75000000  1
  O  O20  1  0.47514900  0.52702400  0.25000000  1
  O  O21  1  0.02485100  0.02702400  0.25000000  1
  O  O22  1  0.52485100  0.47297600  0.75000000  1
  O  O23  1  0.97514900  0.97297600  0.75000000  1
  O  O24  1  0.78306700  0.88552300  0.39208200  1
  O  O25  1  0.71693300  0.38552300  0.10791800  1
  O  O26  1  0.21693300  0.11447700  0.89208200  1
  O  O27  1  0.28306700  0.61447700  0.60791800  1
  O  O28  1  0.21693300  0.11447700  0.60791800  1
  O  O29  1  0.28306700  0.61447700  0.89208200  1
  O  O30  1  0.78306700  0.88552300  0.10791800  1
  O  O31  1  0.71693300  0.38552300  0.39208200  1
  O  O32  1  0.49608500  0.35490400  0.92979300  1
  O  O33  1  0.00391500  0.85490400  0.57020700  1
  O  O34  1  0.50391500  0.64509600  0.42979300  1
  O  O35  1  0.99608500  0.14509600  0.07020700  1
  O  O36  1  0.50391500  0.64509600  0.07020700  1
  O  O37  1  0.99608500  0.14509600  0.42979300  1
  O  O38  1  0.49608500  0.35490400  0.57020700  1
  O  O39  1  0.00391500  0.85490400  0.92979300  1
  O  O40  1  0.50978500  0.84350500  0.93748100  1
  O  O41  1  0.99021500  0.34350500  0.56251900  1
  O  O42  1  0.49021500  0.15649500  0.43748100  1
  O  O43  1  0.00978500  0.65649500  0.06251900  1
  O  O44  1  0.49021500  0.15649500  0.06251900  1
  O  O45  1  0.00978500  0.65649500  0.43748100  1
  O  O46  1  0.50978500  0.84350500  0.56251900  1
  O  O47  1  0.99021500  0.34350500  0.93748100  1
  O  O48  1  0.55561100  0.11732000  0.25000000  1
  O  O49  1  0.94438900  0.61732000  0.25000000  1
  O  O50  1  0.44438900  0.88268000  0.75000000  1
  O  O51  1  0.05561100  0.38268000  0.75000000  1
  O  O52  1  0.24168600  0.89118000  0.10387900  1
  O  O53  1  0.25831400  0.39118000  0.39612100  1
  O  O54  1  0.75831400  0.10882000  0.60387900  1
  O  O55  1  0.74168600  0.60882000  0.89612100  1
  O  O56  1  0.75831400  0.10882000  0.89612100  1
  O  O57  1  0.74168600  0.60882000  0.60387900  1
  O  O58  1  0.24168600  0.89118000  0.39612100  1
  O  O59  1  0.25831400  0.39118000  0.10387900  1
