# generated using pymatgen
data_YbH7C4O11
_symmetry_space_group_name_H-M   'P 1'
_cell_length_a   8.88828100
_cell_length_b   8.88828100
_cell_length_c   12.99625200
_cell_angle_alpha   90.00000000
_cell_angle_beta   90.00000000
_cell_angle_gamma   90.00000000
_symmetry_Int_Tables_number   1
_chemical_formula_structural   YbH7C4O11
_chemical_formula_sum   'Yb4 H28 C16 O44'
_cell_volume   1026.72391099
_cell_formula_units_Z   4
loop_
 _symmetry_equiv_pos_site_id
 _symmetry_equiv_pos_as_xyz
  1  'x, y, z'
loop_
 _atom_site_type_symbol
 _atom_site_label
 _atom_site_symmetry_multiplicity
 _atom_site_fract_x
 _atom_site_fract_y
 _atom_site_fract_z
 _atom_site_occupancy
  Yb  Yb0  1  0.00000000  0.50000000  0.96028700  1
  Yb  Yb1  1  0.00000000  0.50000000  0.46028700  1
  Yb  Yb2  1  0.50000000  0.00000000  0.53971300  1
  Yb  Yb3  1  0.50000000  0.00000000  0.03971300  1
  H  H4  1  0.00000000  0.00000000  0.72819400  1
  H  H5  1  0.50000000  0.50000000  0.22819400  1
  H  H6  1  0.50000000  0.50000000  0.77180600  1
  H  H7  1  0.00000000  0.00000000  0.27180600  1
  H  H8  1  0.00828300  0.19483000  0.67490600  1
  H  H9  1  0.99171700  0.80517000  0.67490600  1
  H  H10  1  0.69483000  0.49171700  0.17490600  1
  H  H11  1  0.30517000  0.50828300  0.17490600  1
  H  H12  1  0.49171700  0.30517000  0.82509400  1
  H  H13  1  0.50828300  0.69483000  0.82509400  1
  H  H14  1  0.80517000  0.00828300  0.32509400  1
  H  H15  1  0.19483000  0.99171700  0.32509400  1
  H  H16  1  0.93634000  0.18168100  0.79175100  1
  H  H17  1  0.06366000  0.81831900  0.79175100  1
  H  H18  1  0.68168100  0.56366000  0.29175100  1
  H  H19  1  0.31831900  0.43634000  0.29175100  1
  H  H20  1  0.56366000  0.31831900  0.70824900  1
  H  H21  1  0.43634000  0.68168100  0.70824900  1
  H  H22  1  0.81831900  0.93634000  0.20824900  1
  H  H23  1  0.18168100  0.06366000  0.20824900  1
  H  H24  1  0.08134300  0.53280700  0.72450000  1
  H  H25  1  0.91865700  0.46719300  0.72450000  1
  H  H26  1  0.03280700  0.41865700  0.22450000  1
  H  H27  1  0.96719300  0.58134300  0.22450000  1
  H  H28  1  0.41865700  0.96719300  0.77550000  1
  H  H29  1  0.58134300  0.03280700  0.77550000  1
  H  H30  1  0.46719300  0.08134300  0.27550000  1
  H  H31  1  0.53280700  0.91865700  0.27550000  1
  C  C32  1  0.28594600  0.27647100  0.94754700  1
  C  C33  1  0.71405400  0.72352900  0.94754700  1
  C  C34  1  0.77647100  0.21405400  0.44754700  1
  C  C35  1  0.22352900  0.78594600  0.44754700  1
  C  C36  1  0.21405400  0.22352900  0.55245300  1
  C  C37  1  0.78594600  0.77647100  0.55245300  1
  C  C38  1  0.72352900  0.28594600  0.05245300  1
  C  C39  1  0.27647100  0.71405400  0.05245300  1
  C  C40  1  0.20303900  0.22504000  0.05513300  1
  C  C41  1  0.79696100  0.77496000  0.05513300  1
  C  C42  1  0.72504000  0.29696100  0.55513300  1
  C  C43  1  0.27496000  0.70303900  0.55513300  1
  C  C44  1  0.29696100  0.27496000  0.44486700  1
  C  C45  1  0.70303900  0.72504000  0.44486700  1
  C  C46  1  0.77496000  0.20303900  0.94486700  1
  C  C47  1  0.22504000  0.79696100  0.94486700  1
  O  O48  1  0.95347100  0.12810800  0.72445300  1
  O  O49  1  0.04652900  0.87189200  0.72445300  1
  O  O50  1  0.62810800  0.54652900  0.22445300  1
  O  O51  1  0.37189200  0.45347100  0.22445300  1
  O  O52  1  0.54652900  0.37189200  0.77554700  1
  O  O53  1  0.45347100  0.62810800  0.77554700  1
  O  O54  1  0.87189200  0.95347100  0.27554700  1
  O  O55  1  0.12810800  0.04652900  0.27554700  1
  O  O56  1  0.00000000  0.50000000  0.76978300  1
  O  O57  1  0.00000000  0.50000000  0.26978300  1
  O  O58  1  0.50000000  0.00000000  0.73021700  1
  O  O59  1  0.50000000  0.00000000  0.23021700  1
  O  O60  1  0.21498000  0.37104800  0.89641300  1
  O  O61  1  0.78502000  0.62895200  0.89641300  1
  O  O62  1  0.87104800  0.28502000  0.39641300  1
  O  O63  1  0.12895200  0.71498000  0.39641300  1
  O  O64  1  0.28502000  0.12895200  0.60358700  1
  O  O65  1  0.71498000  0.87104800  0.60358700  1
  O  O66  1  0.62895200  0.21498000  0.10358700  1
  O  O67  1  0.37104800  0.78502000  0.10358700  1
  O  O68  1  0.41173300  0.21617100  0.93153600  1
  O  O69  1  0.58826700  0.78382900  0.93153600  1
  O  O70  1  0.71617100  0.08826700  0.43153600  1
  O  O71  1  0.28382900  0.91173300  0.43153600  1
  O  O72  1  0.08826700  0.28382900  0.56846400  1
  O  O73  1  0.91173300  0.71617100  0.56846400  1
  O  O74  1  0.78382900  0.41173300  0.06846400  1
  O  O75  1  0.21617100  0.58826700  0.06846400  1
  O  O76  1  0.26281500  0.11292000  0.09785100  1
  O  O77  1  0.73718500  0.88708000  0.09785100  1
  O  O78  1  0.61292000  0.23718500  0.59785100  1
  O  O79  1  0.38708000  0.76281500  0.59785100  1
  O  O80  1  0.23718500  0.38708000  0.40214900  1
  O  O81  1  0.76281500  0.61292000  0.40214900  1
  O  O82  1  0.88708000  0.26281500  0.90214900  1
  O  O83  1  0.11292000  0.73718500  0.90214900  1
  O  O84  1  0.09335700  0.30381300  0.08133100  1
  O  O85  1  0.90664300  0.69618700  0.08133100  1
  O  O86  1  0.80381300  0.40664300  0.58133100  1
  O  O87  1  0.19618700  0.59335700  0.58133100  1
  O  O88  1  0.40664300  0.19618700  0.41866900  1
  O  O89  1  0.59335700  0.80381300  0.41866900  1
  O  O90  1  0.69618700  0.09335700  0.91866900  1
  O  O91  1  0.30381300  0.90664300  0.91866900  1
