# generated using pymatgen
data_KB6S4(Cl3O4)2
_symmetry_space_group_name_H-M   'P 1'
_cell_length_a   20.73249100
_cell_length_b   9.84267100
_cell_length_c   10.54402364
_cell_angle_alpha   79.37372503
_cell_angle_beta   90.00000000
_cell_angle_gamma   90.00000000
_symmetry_Int_Tables_number   1
_chemical_formula_structural   KB6S4(Cl3O4)2
_chemical_formula_sum   'K4 B24 S16 Cl24 O32'
_cell_volume   2114.74720496
_cell_formula_units_Z   4
loop_
 _symmetry_equiv_pos_site_id
 _symmetry_equiv_pos_as_xyz
  1  'x, y, z'
loop_
 _atom_site_type_symbol
 _atom_site_label
 _atom_site_symmetry_multiplicity
 _atom_site_fract_x
 _atom_site_fract_y
 _atom_site_fract_z
 _atom_site_occupancy
  K  K0  1  0.34543200  0.85105700  0.14534800  1
  K  K1  1  0.84543200  0.14894300  0.35465200  1
  K  K2  1  0.65456800  0.14894300  0.85465200  1
  K  K3  1  0.15456800  0.85105700  0.64534800  1
  B  B4  1  0.49782700  0.36733900  0.62835000  1
  B  B5  1  0.99782700  0.63266100  0.87165000  1
  B  B6  1  0.50217300  0.63266100  0.37165000  1
  B  B7  1  0.00217300  0.36733900  0.12835000  1
  B  B8  1  0.55929300  0.37893500  0.50757300  1
  B  B9  1  0.05929300  0.62106500  0.99242700  1
  B  B10  1  0.44070700  0.62106500  0.49242700  1
  B  B11  1  0.94070700  0.37893500  0.00757300  1
  B  B12  1  0.47750200  0.34158500  0.46934800  1
  B  B13  1  0.97750200  0.65841500  0.03065200  1
  B  B14  1  0.52249800  0.65841500  0.53065200  1
  B  B15  1  0.02249800  0.34158500  0.96934800  1
  B  B16  1  0.42514700  0.44124100  0.55336100  1
  B  B17  1  0.92514700  0.55875900  0.94663900  1
  B  B18  1  0.57485300  0.55875900  0.44663900  1
  B  B19  1  0.07485300  0.44124100  0.05336100  1
  B  B20  1  0.47485400  0.53917700  0.64311300  1
  B  B21  1  0.97485400  0.46082300  0.85688700  1
  B  B22  1  0.52514600  0.46082300  0.35688700  1
  B  B23  1  0.02514600  0.53917700  0.14311300  1
  B  B24  1  0.55756600  0.50100700  0.61442100  1
  B  B25  1  0.05756600  0.49899300  0.88557900  1
  B  B26  1  0.44243400  0.49899300  0.38557900  1
  B  B27  1  0.94243400  0.50100700  0.11442100  1
  S  S28  1  0.22708400  0.11888000  0.88616800  1
  S  S29  1  0.72708400  0.88112000  0.61383200  1
  S  S30  1  0.77291600  0.88112000  0.11383200  1
  S  S31  1  0.27291600  0.11888000  0.38616800  1
  S  S32  1  0.22065500  0.59534600  0.38007500  1
  S  S33  1  0.72065500  0.40465400  0.11992500  1
  S  S34  1  0.77934500  0.40465400  0.61992500  1
  S  S35  1  0.27934500  0.59534600  0.88007500  1
  S  S36  1  0.41320300  0.24985800  0.05042400  1
  S  S37  1  0.91320300  0.75014200  0.44957600  1
  S  S38  1  0.58679700  0.75014200  0.94957600  1
  S  S39  1  0.08679700  0.24985800  0.55042400  1
  S  S40  1  0.40137000  0.94186700  0.75695200  1
  S  S41  1  0.90137000  0.05813300  0.74304800  1
  S  S42  1  0.59863000  0.05813300  0.24304800  1
  S  S43  1  0.09863000  0.94186700  0.25695200  1
  Cl  Cl44  1  0.49779400  0.22692300  0.76556400  1
  Cl  Cl45  1  0.99779400  0.77307700  0.73443600  1
  Cl  Cl46  1  0.50220600  0.77307700  0.23443600  1
  Cl  Cl47  1  0.00220600  0.22692300  0.26556400  1
  Cl  Cl48  1  0.62205700  0.25109700  0.51785200  1
  Cl  Cl49  1  0.12205700  0.74890300  0.98214800  1
  Cl  Cl50  1  0.37794300  0.74890300  0.48214800  1
  Cl  Cl51  1  0.87794300  0.25109700  0.01785200  1
  Cl  Cl52  1  0.45425600  0.17645000  0.43623200  1
  Cl  Cl53  1  0.95425600  0.82355000  0.06376800  1
  Cl  Cl54  1  0.54574400  0.82355000  0.56376800  1
  Cl  Cl55  1  0.04574400  0.17645000  0.93623200  1
  Cl  Cl56  1  0.34621900  0.38238200  0.60769500  1
  Cl  Cl57  1  0.84621900  0.61761800  0.89230500  1
  Cl  Cl58  1  0.65378100  0.61761800  0.39230500  1
  Cl  Cl59  1  0.15378100  0.38238200  0.10769500  1
  Cl  Cl60  1  0.44908200  0.57872200  0.79484500  1
  Cl  Cl61  1  0.94908200  0.42127800  0.70515500  1
  Cl  Cl62  1  0.55091800  0.42127800  0.20515500  1
  Cl  Cl63  1  0.05091800  0.57872200  0.29484500  1
  Cl  Cl64  1  0.61834800  0.50051100  0.73625700  1
  Cl  Cl65  1  0.11834800  0.49948900  0.76374300  1
  Cl  Cl66  1  0.38165200  0.49948900  0.26374300  1
  Cl  Cl67  1  0.88165200  0.50051100  0.23625700  1
  O  O68  1  0.25454700  0.00835600  0.98069900  1
  O  O69  1  0.75454700  0.99164400  0.51930100  1
  O  O70  1  0.74545300  0.99164400  0.01930100  1
  O  O71  1  0.24545300  0.00835600  0.48069900  1
  O  O72  1  0.19180900  0.07871800  0.78030500  1
  O  O73  1  0.69180900  0.92128200  0.71969500  1
  O  O74  1  0.80819100  0.92128200  0.21969500  1
  O  O75  1  0.30819100  0.07871800  0.28030500  1
  O  O76  1  0.23490200  0.70652300  0.27247300  1
  O  O77  1  0.73490200  0.29347700  0.22752700  1
  O  O78  1  0.76509800  0.29347700  0.72752700  1
  O  O79  1  0.26509800  0.70652300  0.77247300  1
  O  O80  1  0.19619700  0.63553700  0.49645600  1
  O  O81  1  0.69619700  0.36446300  0.00354400  1
  O  O82  1  0.80380300  0.36446300  0.50354400  1
  O  O83  1  0.30380300  0.63553700  0.99645600  1
  O  O84  1  0.42536300  0.10296200  0.09252900  1
  O  O85  1  0.92536300  0.89703800  0.40747100  1
  O  O86  1  0.57463700  0.89703800  0.90747100  1
  O  O87  1  0.07463700  0.10296200  0.59252900  1
  O  O88  1  0.35067700  0.28845500  0.99347100  1
  O  O89  1  0.85067700  0.71154500  0.50652900  1
  O  O90  1  0.64932300  0.71154500  0.00652900  1
  O  O91  1  0.14932300  0.28845500  0.49347100  1
  O  O92  1  0.40559300  0.89300000  0.89557900  1
  O  O93  1  0.90559300  0.10700000  0.60442100  1
  O  O94  1  0.59440700  0.10700000  0.10442100  1
  O  O95  1  0.09440700  0.89300000  0.39557900  1
  O  O96  1  0.34388100  0.01884800  0.71000400  1
  O  O97  1  0.84388100  0.98115200  0.78999600  1
  O  O98  1  0.65611900  0.98115200  0.28999600  1
  O  O99  1  0.15611900  0.01884800  0.21000400  1
