# generated using pymatgen
data_Ga4Ge(PbS3)4
_symmetry_space_group_name_H-M   'P 1'
_cell_length_a   12.84567200
_cell_length_b   12.84567200
_cell_length_c   6.21316800
_cell_angle_alpha   90.00000000
_cell_angle_beta   90.00000000
_cell_angle_gamma   90.00000000
_symmetry_Int_Tables_number   1
_chemical_formula_structural   Ga4Ge(PbS3)4
_chemical_formula_sum   'Ga8 Ge2 Pb8 S24'
_cell_volume   1025.24286127
_cell_formula_units_Z   2
loop_
 _symmetry_equiv_pos_site_id
 _symmetry_equiv_pos_as_xyz
  1  'x, y, z'
loop_
 _atom_site_type_symbol
 _atom_site_label
 _atom_site_symmetry_multiplicity
 _atom_site_fract_x
 _atom_site_fract_y
 _atom_site_fract_z
 _atom_site_occupancy
  Ga  Ga0  1  0.26368400  0.64797300  0.45172600  1
  Ga  Ga1  1  0.76368400  0.85202700  0.04827400  1
  Ga  Ga2  1  0.73631600  0.35202700  0.45172600  1
  Ga  Ga3  1  0.23631600  0.14797300  0.04827400  1
  Ga  Ga4  1  0.35202700  0.26368400  0.54827400  1
  Ga  Ga5  1  0.14797300  0.76368400  0.95172600  1
  Ga  Ga6  1  0.64797300  0.73631600  0.54827400  1
  Ga  Ga7  1  0.85202700  0.23631600  0.95172600  1
  Ge  Ge8  1  0.50000000  0.50000000  0.50000000  1
  Ge  Ge9  1  0.00000000  0.00000000  0.00000000  1
  Pb  Pb10  1  0.49064500  0.81486700  0.08988000  1
  Pb  Pb11  1  0.99064500  0.68513300  0.41012000  1
  Pb  Pb12  1  0.50935500  0.18513300  0.08988000  1
  Pb  Pb13  1  0.00935500  0.31486700  0.41012000  1
  Pb  Pb14  1  0.18513300  0.49064500  0.91012000  1
  Pb  Pb15  1  0.31486700  0.99064500  0.58988000  1
  Pb  Pb16  1  0.81486700  0.50935500  0.91012000  1
  Pb  Pb17  1  0.68513300  0.00935500  0.58988000  1
  S  S18  1  0.14013800  0.51873200  0.46474500  1
  S  S19  1  0.64013800  0.98126800  0.03525500  1
  S  S20  1  0.85986200  0.48126800  0.46474500  1
  S  S21  1  0.35986200  0.01873100  0.03525500  1
  S  S22  1  0.48126800  0.14013800  0.53525500  1
  S  S23  1  0.01873100  0.64013800  0.96474500  1
  S  S24  1  0.51873200  0.85986200  0.53525500  1
  S  S25  1  0.98126800  0.35986200  0.96474500  1
  S  S26  1  0.40742100  0.59497300  0.26384500  1
  S  S27  1  0.90742100  0.90502700  0.23615500  1
  S  S28  1  0.59257900  0.40502700  0.26384500  1
  S  S29  1  0.09257900  0.09497300  0.23615500  1
  S  S30  1  0.40502700  0.40742100  0.73615500  1
  S  S31  1  0.09497300  0.90742100  0.76384500  1
  S  S32  1  0.59497300  0.59257900  0.73615500  1
  S  S33  1  0.90502700  0.09257900  0.76384500  1
  S  S34  1  0.19071900  0.79588000  0.30567400  1
  S  S35  1  0.69071900  0.70412000  0.19432600  1
  S  S36  1  0.80928100  0.20412000  0.30567400  1
  S  S37  1  0.30928100  0.29588000  0.19432600  1
  S  S38  1  0.20412000  0.19071900  0.69432600  1
  S  S39  1  0.29588000  0.69071900  0.80567400  1
  S  S40  1  0.79588000  0.80928100  0.69432600  1
  S  S41  1  0.70412000  0.30928100  0.80567400  1
