# generated using pymatgen
data_K6Na2Pt(WO6)6
_symmetry_space_group_name_H-M   'P 1'
_cell_length_a   9.59696066
_cell_length_b   9.59696066
_cell_length_c   9.59696069
_cell_angle_alpha   81.53596045
_cell_angle_beta   81.53596045
_cell_angle_gamma   81.53596228
_symmetry_Int_Tables_number   1
_chemical_formula_structural   K6Na2Pt(WO6)6
_chemical_formula_sum   'K6 Na2 Pt1 W6 O36'
_cell_volume   857.59958620
_cell_formula_units_Z   1
loop_
 _symmetry_equiv_pos_site_id
 _symmetry_equiv_pos_as_xyz
  1  'x, y, z'
loop_
 _atom_site_type_symbol
 _atom_site_label
 _atom_site_symmetry_multiplicity
 _atom_site_fract_x
 _atom_site_fract_y
 _atom_site_fract_z
 _atom_site_occupancy
  K  K0  1  0.32464100  0.87710400  0.32464100  1
  K  K1  1  0.87710400  0.32464100  0.32464100  1
  K  K2  1  0.32464100  0.32464100  0.87710400  1
  K  K3  1  0.67535900  0.12289600  0.67535900  1
  K  K4  1  0.12289600  0.67535900  0.67535900  1
  K  K5  1  0.67535900  0.67535900  0.12289600  1
  Na  Na6  1  0.60160900  0.60160900  0.60160900  1
  Na  Na7  1  0.39839100  0.39839100  0.39839100  1
  Pt  Pt8  1  0.00000000  0.00000000  0.00000000  1
  W  W9  1  0.26101900  0.00000000  0.73898100  1
  W  W10  1  0.73898100  0.00000000  0.26101900  1
  W  W11  1  0.00000000  0.73898100  0.26101900  1
  W  W12  1  0.00000000  0.26101900  0.73898100  1
  W  W13  1  0.73898100  0.26101900  0.00000000  1
  W  W14  1  0.26101900  0.73898100  0.00000000  1
  O  O15  1  0.90170500  0.35702600  0.90170500  1
  O  O16  1  0.35702600  0.90170500  0.90170500  1
  O  O17  1  0.90170500  0.90170500  0.35702600  1
  O  O18  1  0.09829500  0.64297400  0.09829500  1
  O  O19  1  0.64297400  0.09829500  0.09829500  1
  O  O20  1  0.09829500  0.09829500  0.64297400  1
  O  O21  1  0.13478900  0.88771400  0.13478900  1
  O  O22  1  0.88771400  0.13478900  0.13478900  1
  O  O23  1  0.13478900  0.13478900  0.88771400  1
  O  O24  1  0.86521100  0.11228600  0.86521100  1
  O  O25  1  0.11228600  0.86521100  0.86521100  1
  O  O26  1  0.86521100  0.86521100  0.11228600  1
  O  O27  1  0.68528100  0.38477100  0.13021400  1
  O  O28  1  0.13021400  0.38477100  0.68528100  1
  O  O29  1  0.38477100  0.13021400  0.68528100  1
  O  O30  1  0.38477100  0.68528100  0.13021400  1
  O  O31  1  0.13021400  0.68528100  0.38477100  1
  O  O32  1  0.68528100  0.13021400  0.38477100  1
  O  O33  1  0.31471900  0.61522900  0.86978600  1
  O  O34  1  0.86978600  0.61522900  0.31471900  1
  O  O35  1  0.61522900  0.86978600  0.31471900  1
  O  O36  1  0.61522900  0.31471900  0.86978600  1
  O  O37  1  0.86978600  0.31471900  0.61522900  1
  O  O38  1  0.31471900  0.86978600  0.61522900  1
  O  O39  1  0.80375300  0.61903700  0.80375300  1
  O  O40  1  0.61903700  0.80375300  0.80375300  1
  O  O41  1  0.80375300  0.80375300  0.61903700  1
  O  O42  1  0.19624700  0.38096300  0.19624700  1
  O  O43  1  0.38096300  0.19624700  0.19624700  1
  O  O44  1  0.19624700  0.19624700  0.38096300  1
  O  O45  1  0.64950200  0.83231700  0.64950200  1
  O  O46  1  0.83231700  0.64950200  0.64950200  1
  O  O47  1  0.64950200  0.64950200  0.83231700  1
  O  O48  1  0.35049800  0.16768300  0.35049800  1
  O  O49  1  0.16768300  0.35049800  0.35049800  1
  O  O50  1  0.35049800  0.35049800  0.16768300  1
