# generated using pymatgen
data_HgC4N6(ClO2)2
_symmetry_space_group_name_H-M   'P 1'
_cell_length_a   16.58364700
_cell_length_b   4.92732600
_cell_length_c   11.93835596
_cell_angle_alpha   71.42527035
_cell_angle_beta   90.00000000
_cell_angle_gamma   90.00000000
_symmetry_Int_Tables_number   1
_chemical_formula_structural   HgC4N6(ClO2)2
_chemical_formula_sum   'Hg2 C8 N12 Cl4 O8'
_cell_volume   924.70351818
_cell_formula_units_Z   2
loop_
 _symmetry_equiv_pos_site_id
 _symmetry_equiv_pos_as_xyz
  1  'x, y, z'
loop_
 _atom_site_type_symbol
 _atom_site_label
 _atom_site_symmetry_multiplicity
 _atom_site_fract_x
 _atom_site_fract_y
 _atom_site_fract_z
 _atom_site_occupancy
  Hg  Hg0  1  0.50000000  0.00000000  0.50000000  1
  Hg  Hg1  1  0.00000000  0.00000000  0.00000000  1
  C  C2  1  0.38663300  0.27327100  0.69777000  1
  C  C3  1  0.88663300  0.72672900  0.80223000  1
  C  C4  1  0.61336700  0.72672900  0.30223000  1
  C  C5  1  0.11336700  0.27327100  0.19777000  1
  C  C6  1  0.25686200  0.86197200  0.98008100  1
  C  C7  1  0.75686200  0.13802800  0.51991900  1
  C  C8  1  0.74313800  0.13802800  0.01991900  1
  C  C9  1  0.24313800  0.86197200  0.48008100  1
  N  N10  1  0.35318900  0.12371200  0.78799800  1
  N  N11  1  0.85318900  0.87628800  0.71200200  1
  N  N12  1  0.64681100  0.87628800  0.21200200  1
  N  N13  1  0.14681100  0.12371200  0.28799800  1
  N  N14  1  0.34231700  0.83154200  0.82339500  1
  N  N15  1  0.84231700  0.16845800  0.67660500  1
  N  N16  1  0.65768300  0.16845800  0.17660500  1
  N  N17  1  0.15768300  0.83154200  0.32339500  1
  N  N18  1  0.29457100  0.74635400  0.91850000  1
  N  N19  1  0.79457100  0.25364600  0.58150000  1
  N  N20  1  0.70542900  0.25364600  0.08150000  1
  N  N21  1  0.20542900  0.74635400  0.41850000  1
  Cl  Cl22  1  0.56309100  0.85682800  0.68124400  1
  Cl  Cl23  1  0.06309100  0.14317200  0.81875600  1
  Cl  Cl24  1  0.43690900  0.14317200  0.31875600  1
  Cl  Cl25  1  0.93690900  0.85682800  0.18124400  1
  O  O26  1  0.41516300  0.44250600  0.61347400  1
  O  O27  1  0.91516300  0.55749400  0.88652600  1
  O  O28  1  0.58483700  0.55749400  0.38652600  1
  O  O29  1  0.08483700  0.44250600  0.11347400  1
  O  O30  1  0.21739200  0.92706800  0.04976300  1
  O  O31  1  0.71739200  0.07293200  0.45023700  1
  O  O32  1  0.78260800  0.07293200  0.95023700  1
  O  O33  1  0.28260800  0.92706800  0.54976300  1
