# generated using pymatgen
data_Zn3P2(H2O3)4
_symmetry_space_group_name_H-M   'P 1'
_cell_length_a   5.08063600
_cell_length_b   10.82573000
_cell_length_c   18.69309700
_cell_angle_alpha   90.00000000
_cell_angle_beta   90.00000000
_cell_angle_gamma   90.00000000
_symmetry_Int_Tables_number   1
_chemical_formula_structural   Zn3P2(H2O3)4
_chemical_formula_sum   'Zn12 P8 H32 O48'
_cell_volume   1028.15012365
_cell_formula_units_Z   4
loop_
 _symmetry_equiv_pos_site_id
 _symmetry_equiv_pos_as_xyz
  1  'x, y, z'
loop_
 _atom_site_type_symbol
 _atom_site_label
 _atom_site_symmetry_multiplicity
 _atom_site_fract_x
 _atom_site_fract_y
 _atom_site_fract_z
 _atom_site_occupancy
  Zn  Zn0  1  0.28375300  0.64437600  0.99791200  1
  Zn  Zn1  1  0.21624700  0.14437600  0.50208800  1
  Zn  Zn2  1  0.71624700  0.35562400  0.49791200  1
  Zn  Zn3  1  0.78375300  0.85562400  0.00208800  1
  Zn  Zn4  1  0.71624700  0.35562400  0.00208800  1
  Zn  Zn5  1  0.78375300  0.85562400  0.49791200  1
  Zn  Zn6  1  0.28375300  0.64437600  0.50208800  1
  Zn  Zn7  1  0.21624700  0.14437600  0.99791200  1
  Zn  Zn8  1  0.91933500  0.73376500  0.25000000  1
  Zn  Zn9  1  0.58066500  0.23376500  0.25000000  1
  Zn  Zn10  1  0.08066500  0.26623500  0.75000000  1
  Zn  Zn11  1  0.41933500  0.76623500  0.75000000  1
  P  P12  1  0.76997300  0.60298200  0.09490700  1
  P  P13  1  0.73002700  0.10298200  0.40509300  1
  P  P14  1  0.23002700  0.39701800  0.59490700  1
  P  P15  1  0.26997300  0.89701800  0.90509300  1
  P  P16  1  0.23002700  0.39701800  0.90509300  1
  P  P17  1  0.26997300  0.89701800  0.59490700  1
  P  P18  1  0.76997300  0.60298200  0.40509300  1
  P  P19  1  0.73002700  0.10298200  0.09490700  1
  H  H20  1  0.37326800  0.61050500  0.29061700  1
  H  H21  1  0.12673200  0.11050500  0.20938300  1
  H  H22  1  0.62673200  0.38949500  0.79061700  1
  H  H23  1  0.87326800  0.88949500  0.70938300  1
  H  H24  1  0.62673200  0.38949500  0.70938300  1
  H  H25  1  0.87326800  0.88949500  0.79061700  1
  H  H26  1  0.37326800  0.61050500  0.20938300  1
  H  H27  1  0.12673200  0.11050500  0.29061700  1
  H  H28  1  0.46283100  0.86983600  0.25000000  1
  H  H29  1  0.03716900  0.36983600  0.25000000  1
  H  H30  1  0.53716900  0.13016400  0.75000000  1
  H  H31  1  0.96283100  0.63016400  0.75000000  1
  H  H32  1  0.68429500  0.97054600  0.25000000  1
  H  H33  1  0.81570500  0.47054600  0.25000000  1
  H  H34  1  0.31570500  0.02945400  0.75000000  1
  H  H35  1  0.18429500  0.52945400  0.75000000  1
  H  H36  1  0.04524600  0.88955300  0.14183500  1
  H  H37  1  0.45475400  0.38955300  0.35816500  1
  H  H38  1  0.95475400  0.11044700  0.64183500  1
  H  H39  1  0.54524600  0.61044700  0.85816500  1
  H  H40  1  0.95475400  0.11044700  0.85816500  1
  H  H41  1  0.54524600  0.61044700  0.64183500  1
  H  H42  1  0.04524600  0.88955300  0.35816500  1
  H  H43  1  0.45475400  0.38955300  0.14183500  1
  H  H44  1  0.17306400  0.75820400  0.13441800  1
  H  H45  1  0.32693600  0.25820400  0.36558200  1
  H  H46  1  0.82693600  0.24179600  0.63441800  1
  H  H47  1  0.67306400  0.74179600  0.86558200  1
  H  H48  1  0.82693600  0.24179600  0.86558200  1
  H  H49  1  0.67306400  0.74179600  0.63441800  1
  H  H50  1  0.17306400  0.75820400  0.36558200  1
  H  H51  1  0.32693600  0.25820400  0.13441800  1
  O  O52  1  0.63182100  0.69626500  0.04043700  1
  O  O53  1  0.86817900  0.19626500  0.45956300  1
  O  O54  1  0.36817900  0.30373500  0.54043700  1
  O  O55  1  0.13182100  0.80373500  0.95956300  1
  O  O56  1  0.36817900  0.30373500  0.95956300  1
  O  O57  1  0.13182100  0.80373500  0.54043700  1
  O  O58  1  0.63182100  0.69626500  0.45956300  1
  O  O59  1  0.86817900  0.19626500  0.04043700  1
  O  O60  1  0.34423900  0.52691500  0.92206000  1
  O  O61  1  0.15576100  0.02691500  0.57794000  1
  O  O62  1  0.65576100  0.47308500  0.42206000  1
  O  O63  1  0.84423900  0.97308500  0.07794000  1
  O  O64  1  0.65576100  0.47308500  0.07794000  1
  O  O65  1  0.84423900  0.97308500  0.42206000  1
  O  O66  1  0.34423900  0.52691500  0.57794000  1
  O  O67  1  0.15576100  0.02691500  0.92206000  1
  O  O68  1  0.07066200  0.61251000  0.08208800  1
  O  O69  1  0.42933800  0.11251000  0.41791200  1
  O  O70  1  0.92933800  0.38749000  0.58208800  1
  O  O71  1  0.57066200  0.88749000  0.91791200  1
  O  O72  1  0.92933800  0.38749000  0.91791200  1
  O  O73  1  0.57066200  0.88749000  0.58208800  1
  O  O74  1  0.07066200  0.61251000  0.41791200  1
  O  O75  1  0.42933800  0.11251000  0.08208800  1
  O  O76  1  0.70372700  0.63543500  0.17249200  1
  O  O77  1  0.79627300  0.13543500  0.32750800  1
  O  O78  1  0.29627300  0.36456500  0.67249200  1
  O  O79  1  0.20372700  0.86456500  0.82750800  1
  O  O80  1  0.29627300  0.36456500  0.82750800  1
  O  O81  1  0.20372700  0.86456500  0.67249200  1
  O  O82  1  0.70372700  0.63543500  0.32750800  1
  O  O83  1  0.79627300  0.13543500  0.17249200  1
  O  O84  1  0.24836700  0.60309600  0.25000000  1
  O  O85  1  0.25163300  0.10309600  0.25000000  1
  O  O86  1  0.75163300  0.39690400  0.75000000  1
  O  O87  1  0.74836700  0.89690400  0.75000000  1
  O  O88  1  0.65324000  0.88148000  0.25000000  1
  O  O89  1  0.84676000  0.38148000  0.25000000  1
  O  O90  1  0.34676000  0.11852000  0.75000000  1
  O  O91  1  0.15324000  0.61852000  0.75000000  1
  O  O92  1  0.14797200  0.82667400  0.16859000  1
  O  O93  1  0.35202800  0.32667400  0.33141000  1
  O  O94  1  0.85202800  0.17332600  0.66859000  1
  O  O95  1  0.64797200  0.67332600  0.83141000  1
  O  O96  1  0.85202800  0.17332600  0.83141000  1
  O  O97  1  0.64797200  0.67332600  0.66859000  1
  O  O98  1  0.14797200  0.82667400  0.33141000  1
  O  O99  1  0.35202800  0.32667400  0.16859000  1
