# generated using pymatgen
data_Er2HfS5
_symmetry_space_group_name_H-M   'P 1'
_cell_length_a   7.21373400
_cell_length_b   7.67936700
_cell_length_c   11.51738400
_cell_angle_alpha   90.00000000
_cell_angle_beta   90.00000000
_cell_angle_gamma   90.00000000
_symmetry_Int_Tables_number   1
_chemical_formula_structural   Er2HfS5
_chemical_formula_sum   'Er8 Hf4 S20'
_cell_volume   638.02749440
_cell_formula_units_Z   4
loop_
 _symmetry_equiv_pos_site_id
 _symmetry_equiv_pos_as_xyz
  1  'x, y, z'
loop_
 _atom_site_type_symbol
 _atom_site_label
 _atom_site_symmetry_multiplicity
 _atom_site_fract_x
 _atom_site_fract_y
 _atom_site_fract_z
 _atom_site_occupancy
  Er  Er0  1  0.52379200  0.00275600  0.32150800  1
  Er  Er1  1  0.97620800  0.49724400  0.82150800  1
  Er  Er2  1  0.47620800  0.50275600  0.67849200  1
  Er  Er3  1  0.02379200  0.99724400  0.17849200  1
  Er  Er4  1  0.47620800  0.99724400  0.67849200  1
  Er  Er5  1  0.02379200  0.50275600  0.17849200  1
  Er  Er6  1  0.52379200  0.49724400  0.32150800  1
  Er  Er7  1  0.97620800  0.00275600  0.82150800  1
  Hf  Hf8  1  0.07544000  0.75000000  0.49416700  1
  Hf  Hf9  1  0.42456000  0.75000000  0.99416700  1
  Hf  Hf10  1  0.92456000  0.25000000  0.50583300  1
  Hf  Hf11  1  0.57544000  0.25000000  0.00583300  1
  S  S12  1  0.83854300  0.53634500  0.59536400  1
  S  S13  1  0.66145700  0.96365500  0.09536400  1
  S  S14  1  0.16145700  0.03634500  0.40463600  1
  S  S15  1  0.33854300  0.46365500  0.90463600  1
  S  S16  1  0.16145700  0.46365500  0.40463600  1
  S  S17  1  0.33854300  0.03634500  0.90463600  1
  S  S18  1  0.83854300  0.96365500  0.59536400  1
  S  S19  1  0.66145700  0.53634500  0.09536400  1
  S  S20  1  0.83213400  0.75000000  0.31890800  1
  S  S21  1  0.66786600  0.75000000  0.81890800  1
  S  S22  1  0.16786600  0.25000000  0.68109200  1
  S  S23  1  0.33213400  0.25000000  0.18109200  1
  S  S24  1  0.44761300  0.75000000  0.49721500  1
  S  S25  1  0.05238700  0.75000000  0.99721500  1
  S  S26  1  0.55238700  0.25000000  0.50278500  1
  S  S27  1  0.94761300  0.25000000  0.00278500  1
  S  S28  1  0.18883900  0.75000000  0.70746600  1
  S  S29  1  0.31116100  0.75000000  0.20746600  1
  S  S30  1  0.81116100  0.25000000  0.29253400  1
  S  S31  1  0.68883900  0.25000000  0.79253400  1
