# generated using pymatgen
data_SrCdB2O5
_symmetry_space_group_name_H-M   'P 1'
_cell_length_a   5.85879100
_cell_length_b   12.17964600
_cell_length_c   12.81698200
_cell_angle_alpha   90.00000000
_cell_angle_beta   90.00000000
_cell_angle_gamma   90.00000000
_symmetry_Int_Tables_number   1
_chemical_formula_structural   SrCdB2O5
_chemical_formula_sum   'Sr8 Cd8 B16 O40'
_cell_volume   914.59420627
_cell_formula_units_Z   8
loop_
 _symmetry_equiv_pos_site_id
 _symmetry_equiv_pos_as_xyz
  1  'x, y, z'
loop_
 _atom_site_type_symbol
 _atom_site_label
 _atom_site_symmetry_multiplicity
 _atom_site_fract_x
 _atom_site_fract_y
 _atom_site_fract_z
 _atom_site_occupancy
  Sr  Sr0  1  0.88574100  0.61940300  0.41226900  1
  Sr  Sr1  1  0.61425900  0.11940300  0.58773100  1
  Sr  Sr2  1  0.38574100  0.38059700  0.08773100  1
  Sr  Sr3  1  0.11425900  0.88059700  0.91226900  1
  Sr  Sr4  1  0.11425900  0.38059700  0.58773100  1
  Sr  Sr5  1  0.38574100  0.88059700  0.41226900  1
  Sr  Sr6  1  0.61425900  0.61940300  0.91226900  1
  Sr  Sr7  1  0.88574100  0.11940300  0.08773100  1
  Cd  Cd8  1  0.12891400  0.63261800  0.73534200  1
  Cd  Cd9  1  0.37108600  0.13261800  0.26465800  1
  Cd  Cd10  1  0.62891400  0.36738200  0.76465800  1
  Cd  Cd11  1  0.87108600  0.86738200  0.23534200  1
  Cd  Cd12  1  0.87108600  0.36738200  0.26465800  1
  Cd  Cd13  1  0.62891400  0.86738200  0.73534200  1
  Cd  Cd14  1  0.37108600  0.63261800  0.23534200  1
  Cd  Cd15  1  0.12891400  0.13261800  0.76465800  1
  B  B16  1  0.62614500  0.61153200  0.67320400  1
  B  B17  1  0.87385500  0.11153200  0.32679600  1
  B  B18  1  0.12614500  0.38846800  0.82679600  1
  B  B19  1  0.37385500  0.88846800  0.17320400  1
  B  B20  1  0.37385500  0.38846800  0.32679600  1
  B  B21  1  0.12614500  0.88846800  0.67320400  1
  B  B22  1  0.87385500  0.61153200  0.17320400  1
  B  B23  1  0.62614500  0.11153200  0.82679600  1
  B  B24  1  0.37787000  0.62192200  0.51153300  1
  B  B25  1  0.12213000  0.12192200  0.48846700  1
  B  B26  1  0.87787000  0.37807800  0.98846700  1
  B  B27  1  0.62213000  0.87807800  0.01153300  1
  B  B28  1  0.62213000  0.37807800  0.48846700  1
  B  B29  1  0.87787000  0.87807800  0.51153300  1
  B  B30  1  0.12213000  0.62192200  0.01153300  1
  B  B31  1  0.37787000  0.12192200  0.98846700  1
  O  O32  1  0.17585900  0.59181600  0.55747400  1
  O  O33  1  0.32414100  0.09181600  0.44252600  1
  O  O34  1  0.67585900  0.40818400  0.94252600  1
  O  O35  1  0.82414100  0.90818400  0.05747400  1
  O  O36  1  0.82414100  0.40818400  0.44252600  1
  O  O37  1  0.67585900  0.90818400  0.55747400  1
  O  O38  1  0.32414100  0.59181600  0.05747400  1
  O  O39  1  0.17585900  0.09181600  0.94252600  1
  O  O40  1  0.58974700  0.60216400  0.56495200  1
  O  O41  1  0.91025300  0.10216400  0.43504800  1
  O  O42  1  0.08974700  0.39783600  0.93504800  1
  O  O43  1  0.41025300  0.89783600  0.06495200  1
  O  O44  1  0.41025300  0.39783600  0.43504800  1
  O  O45  1  0.08974700  0.89783600  0.56495200  1
  O  O46  1  0.91025300  0.60216400  0.06495200  1
  O  O47  1  0.58974700  0.10216400  0.93504800  1
  O  O48  1  0.50342600  0.68770200  0.72964600  1
  O  O49  1  0.99657400  0.18770200  0.27035400  1
  O  O50  1  0.00342600  0.31229800  0.77035400  1
  O  O51  1  0.49657400  0.81229800  0.22964600  1
  O  O52  1  0.49657400  0.31229800  0.27035400  1
  O  O53  1  0.00342600  0.81229800  0.72964600  1
  O  O54  1  0.99657400  0.68770200  0.22964600  1
  O  O55  1  0.50342600  0.18770200  0.77035400  1
  O  O56  1  0.78390000  0.54537700  0.72192300  1
  O  O57  1  0.71610000  0.04537700  0.27807700  1
  O  O58  1  0.28390000  0.45462300  0.77807700  1
  O  O59  1  0.21610000  0.95462300  0.22192300  1
  O  O60  1  0.21610000  0.45462300  0.27807700  1
  O  O61  1  0.28390000  0.95462300  0.72192300  1
  O  O62  1  0.71610000  0.54537700  0.22192300  1
  O  O63  1  0.78390000  0.04537700  0.77807700  1
  O  O64  1  0.10313800  0.66981600  0.91563700  1
  O  O65  1  0.39686200  0.16981600  0.08436300  1
  O  O66  1  0.60313800  0.33018400  0.58436300  1
  O  O67  1  0.89686200  0.83018400  0.41563700  1
  O  O68  1  0.89686200  0.33018400  0.08436300  1
  O  O69  1  0.60313800  0.83018400  0.91563700  1
  O  O70  1  0.39686200  0.66981600  0.41563700  1
  O  O71  1  0.10313800  0.16981600  0.58436300  1
