# generated using pymatgen
data_HgSN3
_symmetry_space_group_name_H-M   'P 1'
_cell_length_a   5.61210000
_cell_length_b   10.30385900
_cell_length_c   15.41939000
_cell_angle_alpha   90.00000000
_cell_angle_beta   90.00000000
_cell_angle_gamma   90.00000000
_symmetry_Int_Tables_number   1
_chemical_formula_structural   HgSN3
_chemical_formula_sum   'Hg8 S8 N24'
_cell_volume   891.64607295
_cell_formula_units_Z   8
loop_
 _symmetry_equiv_pos_site_id
 _symmetry_equiv_pos_as_xyz
  1  'x, y, z'
loop_
 _atom_site_type_symbol
 _atom_site_label
 _atom_site_symmetry_multiplicity
 _atom_site_fract_x
 _atom_site_fract_y
 _atom_site_fract_z
 _atom_site_occupancy
  Hg  Hg0  1  0.54997800  0.12363400  0.44993800  1
  Hg  Hg1  1  0.04997800  0.37636600  0.55006200  1
  Hg  Hg2  1  0.45002200  0.62363400  0.05006200  1
  Hg  Hg3  1  0.95002200  0.87636600  0.94993800  1
  Hg  Hg4  1  0.45002200  0.87636600  0.55006200  1
  Hg  Hg5  1  0.95002200  0.62363400  0.44993800  1
  Hg  Hg6  1  0.54997800  0.37636600  0.94993800  1
  Hg  Hg7  1  0.04997800  0.12363400  0.05006200  1
  S  S8  1  0.15665200  0.92796200  0.37555400  1
  S  S9  1  0.65665200  0.57203800  0.62444600  1
  S  S10  1  0.84334800  0.42796200  0.12444600  1
  S  S11  1  0.34334800  0.07203800  0.87555400  1
  S  S12  1  0.84334800  0.07203800  0.62444600  1
  S  S13  1  0.34334800  0.42796200  0.37555400  1
  S  S14  1  0.15665200  0.57203800  0.87555400  1
  S  S15  1  0.65665200  0.92796200  0.12444600  1
  N  N16  1  0.30272400  0.05049800  0.35854900  1
  N  N17  1  0.80272400  0.44950200  0.64145100  1
  N  N18  1  0.69727600  0.55049800  0.14145100  1
  N  N19  1  0.19727600  0.94950200  0.85854900  1
  N  N20  1  0.69727600  0.94950200  0.64145100  1
  N  N21  1  0.19727600  0.55049800  0.35854900  1
  N  N22  1  0.30272400  0.44950200  0.85854900  1
  N  N23  1  0.80272400  0.05049800  0.14145100  1
  N  N24  1  0.18054500  0.83916400  0.45641100  1
  N  N25  1  0.68054500  0.66083600  0.54358900  1
  N  N26  1  0.81945500  0.33916400  0.04358900  1
  N  N27  1  0.31945500  0.16083600  0.95641100  1
  N  N28  1  0.81945500  0.16083600  0.54358900  1
  N  N29  1  0.31945500  0.33916400  0.45641100  1
  N  N30  1  0.18054500  0.66083600  0.95641100  1
  N  N31  1  0.68054500  0.83916400  0.04358900  1
  N  N32  1  0.82406600  0.21955200  0.32551500  1
  N  N33  1  0.32406600  0.28044800  0.67448500  1
  N  N34  1  0.17593400  0.71955200  0.17448500  1
  N  N35  1  0.67593400  0.78044800  0.82551500  1
  N  N36  1  0.17593400  0.78044800  0.67448500  1
  N  N37  1  0.67593400  0.71955200  0.32551500  1
  N  N38  1  0.82406600  0.28044800  0.82551500  1
  N  N39  1  0.32406600  0.21955200  0.17448500  1
