# generated using pymatgen
data_Y3Ge13Pt4
_symmetry_space_group_name_H-M   'P 1'
_cell_length_a   9.10970153
_cell_length_b   9.10970153
_cell_length_c   9.17047569
_cell_angle_alpha   89.65004786
_cell_angle_beta   89.65004786
_cell_angle_gamma   89.92926009
_symmetry_Int_Tables_number   1
_chemical_formula_structural   Y3Ge13Pt4
_chemical_formula_sum   'Y6 Ge26 Pt8'
_cell_volume   760.99823065
_cell_formula_units_Z   2
loop_
 _symmetry_equiv_pos_site_id
 _symmetry_equiv_pos_as_xyz
  1  'x, y, z'
loop_
 _atom_site_type_symbol
 _atom_site_label
 _atom_site_symmetry_multiplicity
 _atom_site_fract_x
 _atom_site_fract_y
 _atom_site_fract_z
 _atom_site_occupancy
  Y  Y0  1  0.00034300  0.00084600  0.50047200  1
  Y  Y1  1  0.00084600  0.00034300  0.00047200  1
  Y  Y2  1  0.74661000  0.49846300  0.74886000  1
  Y  Y3  1  0.49846300  0.74661000  0.24886000  1
  Y  Y4  1  0.25679700  0.50137600  0.75041800  1
  Y  Y5  1  0.50137600  0.25679700  0.25041800  1
  Ge  Ge6  1  0.49606400  0.00710500  0.75345300  1
  Ge  Ge7  1  0.00710500  0.49606400  0.25345300  1
  Ge  Ge8  1  0.14751000  0.17411300  0.75336100  1
  Ge  Ge9  1  0.17411300  0.14751000  0.25336100  1
  Ge  Ge10  1  0.84631900  0.16650500  0.75090000  1
  Ge  Ge11  1  0.16650500  0.84631900  0.25090000  1
  Ge  Ge12  1  0.50256900  0.68179900  0.61214900  1
  Ge  Ge13  1  0.68179900  0.50256900  0.11214900  1
  Ge  Ge14  1  0.00413800  0.38714300  0.51462100  1
  Ge  Ge15  1  0.38714300  0.00413800  0.01462100  1
  Ge  Ge16  1  0.00010200  0.66991500  0.60342600  1
  Ge  Ge17  1  0.66991500  0.00010200  0.10342600  1
  Ge  Ge18  1  0.26541700  0.50429800  0.14209000  1
  Ge  Ge19  1  0.50429800  0.26541700  0.64209000  1
  Ge  Ge20  1  0.00140000  0.66742600  0.90047700  1
  Ge  Ge21  1  0.66742600  0.00140000  0.40047700  1
  Ge  Ge22  1  0.21993300  0.88023800  0.75078800  1
  Ge  Ge23  1  0.88023800  0.21993300  0.25078800  1
  Ge  Ge24  1  0.99731000  0.38510500  0.98579100  1
  Ge  Ge25  1  0.38510500  0.99731000  0.48579100  1
  Ge  Ge26  1  0.50167800  0.66385100  0.91338500  1
  Ge  Ge27  1  0.66385100  0.50167800  0.41338500  1
  Ge  Ge28  1  0.74960100  0.88848900  0.75121000  1
  Ge  Ge29  1  0.88848900  0.74960100  0.25121000  1
  Ge  Ge30  1  0.35226600  0.49681700  0.42075100  1
  Ge  Ge31  1  0.49681700  0.35226600  0.92075100  1
  Pt  Pt32  1  0.75048000  0.25090800  0.00203900  1
  Pt  Pt33  1  0.25090800  0.75048000  0.50203900  1
  Pt  Pt34  1  0.75052800  0.25187200  0.50100500  1
  Pt  Pt35  1  0.25187200  0.75052800  0.00100500  1
  Pt  Pt36  1  0.75402300  0.75637500  0.50006900  1
  Pt  Pt37  1  0.75637500  0.75402300  0.00006900  1
  Pt  Pt38  1  0.25217100  0.24809700  0.50513500  1
  Pt  Pt39  1  0.24809700  0.25217100  0.00513500  1
