# generated using pymatgen
data_SmBiW2O9
_symmetry_space_group_name_H-M   'P 1'
_cell_length_a   3.93670100
_cell_length_b   5.81326800
_cell_length_c   33.34176900
_cell_angle_alpha   90.00000000
_cell_angle_beta   90.00000000
_cell_angle_gamma   90.00000000
_symmetry_Int_Tables_number   1
_chemical_formula_structural   SmBiW2O9
_chemical_formula_sum   'Sm4 Bi4 W8 O36'
_cell_volume   763.02964935
_cell_formula_units_Z   4
loop_
 _symmetry_equiv_pos_site_id
 _symmetry_equiv_pos_as_xyz
  1  'x, y, z'
loop_
 _atom_site_type_symbol
 _atom_site_label
 _atom_site_symmetry_multiplicity
 _atom_site_fract_x
 _atom_site_fract_y
 _atom_site_fract_z
 _atom_site_occupancy
  Sm  Sm0  1  0.73895900  0.25000000  0.33377700  1
  Sm  Sm1  1  0.76104100  0.25000000  0.83377700  1
  Sm  Sm2  1  0.26104100  0.75000000  0.66622300  1
  Sm  Sm3  1  0.23895900  0.75000000  0.16622300  1
  Bi  Bi4  1  0.71698000  0.75000000  0.52591800  1
  Bi  Bi5  1  0.78302000  0.75000000  0.02591800  1
  Bi  Bi6  1  0.28302000  0.25000000  0.47408200  1
  Bi  Bi7  1  0.21698000  0.25000000  0.97408200  1
  W  W8  1  0.27117700  0.75000000  0.29320200  1
  W  W9  1  0.22882300  0.75000000  0.79320200  1
  W  W10  1  0.72882300  0.25000000  0.70679800  1
  W  W11  1  0.77117700  0.25000000  0.20679800  1
  W  W12  1  0.76637200  0.75000000  0.42159500  1
  W  W13  1  0.73362800  0.75000000  0.92159500  1
  W  W14  1  0.23362800  0.25000000  0.57840500  1
  W  W15  1  0.26637200  0.25000000  0.07840500  1
  O  O16  1  0.74308600  0.52135700  0.47116700  1
  O  O17  1  0.75691400  0.97864300  0.97116700  1
  O  O18  1  0.25691400  0.02135700  0.52883300  1
  O  O19  1  0.24308600  0.47864300  0.02883300  1
  O  O20  1  0.25691400  0.47864300  0.52883300  1
  O  O21  1  0.24308600  0.02135700  0.02883300  1
  O  O22  1  0.74308600  0.97864300  0.47116700  1
  O  O23  1  0.75691400  0.52135700  0.97116700  1
  O  O24  1  0.74181400  0.50408000  0.38787900  1
  O  O25  1  0.75818600  0.99592000  0.88787900  1
  O  O26  1  0.25818600  0.00408000  0.61212100  1
  O  O27  1  0.24181400  0.49592000  0.11212100  1
  O  O28  1  0.25818600  0.49592000  0.61212100  1
  O  O29  1  0.24181400  0.00408000  0.11212100  1
  O  O30  1  0.74181400  0.99592000  0.38787900  1
  O  O31  1  0.75818600  0.50408000  0.88787900  1
  O  O32  1  0.23821100  0.02620000  0.32088400  1
  O  O33  1  0.26178900  0.47380000  0.82088400  1
  O  O34  1  0.76178900  0.52620000  0.67911600  1
  O  O35  1  0.73821100  0.97380000  0.17911600  1
  O  O36  1  0.76178900  0.97380000  0.67911600  1
  O  O37  1  0.73821100  0.52620000  0.17911600  1
  O  O38  1  0.23821100  0.47380000  0.32088400  1
  O  O39  1  0.26178900  0.02620000  0.82088400  1
  O  O40  1  0.24760700  0.75000000  0.42807700  1
  O  O41  1  0.25239300  0.75000000  0.92807700  1
  O  O42  1  0.75239300  0.25000000  0.57192300  1
  O  O43  1  0.74760700  0.25000000  0.07192300  1
  O  O44  1  0.73627200  0.25000000  0.26063800  1
  O  O45  1  0.76372800  0.25000000  0.76063800  1
  O  O46  1  0.26372800  0.75000000  0.73936200  1
  O  O47  1  0.23627200  0.75000000  0.23936200  1
  O  O48  1  0.74777500  0.75000000  0.29748000  1
  O  O49  1  0.75222500  0.75000000  0.79748000  1
  O  O50  1  0.25222500  0.25000000  0.70252000  1
  O  O51  1  0.24777500  0.25000000  0.20252000  1
