# generated using pymatgen
data_Zr3Si
_symmetry_space_group_name_H-M   'P 1'
_cell_length_a   11.04320800
_cell_length_b   11.04320800
_cell_length_c   5.45120900
_cell_angle_alpha   90.00000000
_cell_angle_beta   90.00000000
_cell_angle_gamma   90.00000000
_symmetry_Int_Tables_number   1
_chemical_formula_structural   Zr3Si
_chemical_formula_sum   'Zr24 Si8'
_cell_volume   664.78825448
_cell_formula_units_Z   8
loop_
 _symmetry_equiv_pos_site_id
 _symmetry_equiv_pos_as_xyz
  1  'x, y, z'
loop_
 _atom_site_type_symbol
 _atom_site_label
 _atom_site_symmetry_multiplicity
 _atom_site_fract_x
 _atom_site_fract_y
 _atom_site_fract_z
 _atom_site_occupancy
  Zr  Zr0  1  0.91742500  0.60804500  0.53512800  1
  Zr  Zr1  1  0.08257500  0.39195500  0.53512800  1
  Zr  Zr2  1  0.89195500  0.41742500  0.03512800  1
  Zr  Zr3  1  0.10804500  0.58257500  0.03512800  1
  Zr  Zr4  1  0.58257500  0.89195500  0.96487200  1
  Zr  Zr5  1  0.41742500  0.10804500  0.96487200  1
  Zr  Zr6  1  0.60804500  0.08257500  0.46487200  1
  Zr  Zr7  1  0.39195500  0.91742500  0.46487200  1
  Zr  Zr8  1  0.86183700  0.97238500  0.72152700  1
  Zr  Zr9  1  0.13816300  0.02761500  0.72152700  1
  Zr  Zr10  1  0.52761500  0.36183700  0.22152700  1
  Zr  Zr11  1  0.47238500  0.63816300  0.22152700  1
  Zr  Zr12  1  0.63816300  0.52761500  0.77847300  1
  Zr  Zr13  1  0.36183700  0.47238500  0.77847300  1
  Zr  Zr14  1  0.97238500  0.13816300  0.27847300  1
  Zr  Zr15  1  0.02761500  0.86183700  0.27847300  1
  Zr  Zr16  1  0.82111300  0.71559600  0.01003600  1
  Zr  Zr17  1  0.17888700  0.28440400  0.01003600  1
  Zr  Zr18  1  0.78440400  0.32111300  0.51003600  1
  Zr  Zr19  1  0.21559600  0.67888700  0.51003600  1
  Zr  Zr20  1  0.67888700  0.78440400  0.48996400  1
  Zr  Zr21  1  0.32111300  0.21559600  0.48996400  1
  Zr  Zr22  1  0.71559600  0.17888700  0.98996400  1
  Zr  Zr23  1  0.28440400  0.82111300  0.98996400  1
  Si  Si24  1  0.79483800  0.95769500  0.21206000  1
  Si  Si25  1  0.20516200  0.04230500  0.21206000  1
  Si  Si26  1  0.54230500  0.29483800  0.71206000  1
  Si  Si27  1  0.45769500  0.70516200  0.71206000  1
  Si  Si28  1  0.70516200  0.54230500  0.28794000  1
  Si  Si29  1  0.29483800  0.45769500  0.28794000  1
  Si  Si30  1  0.95769500  0.20516200  0.78794000  1
  Si  Si31  1  0.04230500  0.79483800  0.78794000  1
