# generated using pymatgen
data_KB5(H2O3)4
_symmetry_space_group_name_H-M   'P 1'
_cell_length_a   7.43762618
_cell_length_b   7.43762618
_cell_length_c   10.80177600
_cell_angle_alpha   90.00000000
_cell_angle_beta   90.00000000
_cell_angle_gamma   94.34082198
_symmetry_Int_Tables_number   1
_chemical_formula_structural   KB5(H2O3)4
_chemical_formula_sum   'K2 B10 H16 O24'
_cell_volume   595.82164838
_cell_formula_units_Z   2
loop_
 _symmetry_equiv_pos_site_id
 _symmetry_equiv_pos_as_xyz
  1  'x, y, z'
loop_
 _atom_site_type_symbol
 _atom_site_label
 _atom_site_symmetry_multiplicity
 _atom_site_fract_x
 _atom_site_fract_y
 _atom_site_fract_z
 _atom_site_occupancy
  K  K0  1  0.57958200  0.57958200  0.50000000  1
  K  K1  1  0.07958200  0.07958200  0.00000000  1
  B  B2  1  0.91322300  0.91322300  0.50000000  1
  B  B3  1  0.41322300  0.41322300  0.00000000  1
  B  B4  1  0.92530500  0.74277600  0.69973300  1
  B  B5  1  0.74277600  0.92530500  0.30026700  1
  B  B6  1  0.42530500  0.24277600  0.80026700  1
  B  B7  1  0.24277600  0.42530500  0.19973300  1
  B  B8  1  0.92961000  0.06656300  0.70780700  1
  B  B9  1  0.06656300  0.92961000  0.29219300  1
  B  B10  1  0.42961000  0.56656300  0.79219300  1
  B  B11  1  0.56656300  0.42961000  0.20780700  1
  H  H12  1  0.27294100  0.02317300  0.47350100  1
  H  H13  1  0.02317300  0.27294100  0.52649900  1
  H  H14  1  0.77294100  0.52317300  0.02649900  1
  H  H15  1  0.52317300  0.77294100  0.97350100  1
  H  H16  1  0.43574000  0.15986900  0.43440200  1
  H  H17  1  0.15986900  0.43574000  0.56559800  1
  H  H18  1  0.93574000  0.65986900  0.06559800  1
  H  H19  1  0.65986900  0.93574000  0.93440200  1
  H  H20  1  0.42525100  0.09276600  0.64602800  1
  H  H21  1  0.09276600  0.42525100  0.35397200  1
  H  H22  1  0.92525100  0.59276600  0.85397200  1
  H  H23  1  0.59276600  0.92525100  0.14602800  1
  H  H24  1  0.92960400  0.33592800  0.75067100  1
  H  H25  1  0.33592800  0.92960400  0.24932900  1
  H  H26  1  0.42960400  0.83592800  0.74932900  1
  H  H27  1  0.83592800  0.42960400  0.25067100  1
  O  O28  1  0.90860400  0.74804300  0.57479200  1
  O  O29  1  0.74804300  0.90860400  0.42520800  1
  O  O30  1  0.40860400  0.24804300  0.92520800  1
  O  O31  1  0.24804300  0.40860400  0.07479200  1
  O  O32  1  0.92483300  0.07628600  0.58181300  1
  O  O33  1  0.07628600  0.92483300  0.41818700  1
  O  O34  1  0.42483300  0.57628600  0.91818700  1
  O  O35  1  0.57628600  0.42483300  0.08181300  1
  O  O36  1  0.93392300  0.90224300  0.77037400  1
  O  O37  1  0.90224300  0.93392300  0.22962600  1
  O  O38  1  0.43392300  0.40224300  0.72962600  1
  O  O39  1  0.40224300  0.43392300  0.27037400  1
  O  O40  1  0.92788700  0.58097100  0.76073400  1
  O  O41  1  0.58097100  0.92788700  0.23926600  1
  O  O42  1  0.42788700  0.08097100  0.73926600  1
  O  O43  1  0.08097100  0.42788700  0.26073400  1
  O  O44  1  0.93425900  0.21312900  0.78515900  1
  O  O45  1  0.21312900  0.93425900  0.21484100  1
  O  O46  1  0.43425900  0.71312900  0.71484100  1
  O  O47  1  0.71312900  0.43425900  0.28515900  1
  O  O48  1  0.39327400  0.07811500  0.49998900  1
  O  O49  1  0.07811500  0.39327400  0.50001100  1
  O  O50  1  0.89327400  0.57811500  0.00001100  1
  O  O51  1  0.57811500  0.89327400  0.99998900  1
