# generated using pymatgen
data_Ba2GaSbTe5
_symmetry_space_group_name_H-M   'P 1'
_cell_length_a   9.78547600
_cell_length_b   9.99410000
_cell_length_c   13.67356200
_cell_angle_alpha   90.00000000
_cell_angle_beta   90.00000000
_cell_angle_gamma   90.00000000
_symmetry_Int_Tables_number   1
_chemical_formula_structural   Ba2GaSbTe5
_chemical_formula_sum   'Ba8 Ga4 Sb4 Te20'
_cell_volume   1337.23369421
_cell_formula_units_Z   4
loop_
 _symmetry_equiv_pos_site_id
 _symmetry_equiv_pos_as_xyz
  1  'x, y, z'
loop_
 _atom_site_type_symbol
 _atom_site_label
 _atom_site_symmetry_multiplicity
 _atom_site_fract_x
 _atom_site_fract_y
 _atom_site_fract_z
 _atom_site_occupancy
  Ba  Ba0  1  0.00716800  0.12222400  0.82590400  1
  Ba  Ba1  1  0.49283200  0.37777600  0.32590400  1
  Ba  Ba2  1  0.50716800  0.87777600  0.17409600  1
  Ba  Ba3  1  0.99283200  0.62222400  0.67409600  1
  Ba  Ba4  1  0.99283200  0.87777600  0.17409600  1
  Ba  Ba5  1  0.50716800  0.62222400  0.67409600  1
  Ba  Ba6  1  0.49283200  0.12222400  0.82590400  1
  Ba  Ba7  1  0.00716800  0.37777600  0.32590400  1
  Ga  Ga8  1  0.25000000  0.33524500  0.60003000  1
  Ga  Ga9  1  0.25000000  0.16475500  0.10003000  1
  Ga  Ga10  1  0.75000000  0.66475500  0.39997000  1
  Ga  Ga11  1  0.75000000  0.83524500  0.89997000  1
  Sb  Sb12  1  0.25000000  0.98288100  0.52881800  1
  Sb  Sb13  1  0.25000000  0.51711900  0.02881800  1
  Sb  Sb14  1  0.75000000  0.01711900  0.47118200  1
  Sb  Sb15  1  0.75000000  0.48288100  0.97118200  1
  Te  Te16  1  0.03455000  0.17693200  0.56061400  1
  Te  Te17  1  0.46545000  0.32306800  0.06061400  1
  Te  Te18  1  0.53455000  0.82306800  0.43938600  1
  Te  Te19  1  0.96545000  0.67693200  0.93938600  1
  Te  Te20  1  0.96545000  0.82306800  0.43938600  1
  Te  Te21  1  0.53455000  0.67693200  0.93938600  1
  Te  Te22  1  0.46545000  0.17693200  0.56061400  1
  Te  Te23  1  0.03455000  0.32306800  0.06061400  1
  Te  Te24  1  0.25000000  0.88121000  0.72449400  1
  Te  Te25  1  0.25000000  0.61879000  0.22449400  1
  Te  Te26  1  0.75000000  0.11879000  0.27550600  1
  Te  Te27  1  0.75000000  0.38121000  0.77550600  1
  Te  Te28  1  0.25000000  0.39725100  0.78791100  1
  Te  Te29  1  0.25000000  0.10274900  0.28791100  1
  Te  Te30  1  0.75000000  0.60274900  0.21208900  1
  Te  Te31  1  0.75000000  0.89725100  0.71208900  1
  Te  Te32  1  0.25000000  0.95239400  0.98981900  1
  Te  Te33  1  0.25000000  0.54760600  0.48981900  1
  Te  Te34  1  0.75000000  0.04760600  0.01018100  1
  Te  Te35  1  0.75000000  0.45239400  0.51018100  1
