# generated using pymatgen
data_H8CBrN5O3
_symmetry_space_group_name_H-M   'P 1'
_cell_length_a   8.21402200
_cell_length_b   12.95387800
_cell_length_c   8.08433541
_cell_angle_alpha   90.00000000
_cell_angle_beta   118.37185579
_cell_angle_gamma   90.00000000
_symmetry_Int_Tables_number   1
_chemical_formula_structural   H8CBrN5O3
_chemical_formula_sum   'H32 C4 Br4 N20 O12'
_cell_volume   756.87553844
_cell_formula_units_Z   4
loop_
 _symmetry_equiv_pos_site_id
 _symmetry_equiv_pos_as_xyz
  1  'x, y, z'
loop_
 _atom_site_type_symbol
 _atom_site_label
 _atom_site_symmetry_multiplicity
 _atom_site_fract_x
 _atom_site_fract_y
 _atom_site_fract_z
 _atom_site_occupancy
  H  H0  1  0.46884300  0.62504900  0.39345300  1
  H  H1  1  0.53115700  0.12504900  0.10654700  1
  H  H2  1  0.53115700  0.37495100  0.60654700  1
  H  H3  1  0.46884300  0.87495100  0.89345300  1
  H  H4  1  0.26044100  0.66740400  0.37431000  1
  H  H5  1  0.73955900  0.16740400  0.12569000  1
  H  H6  1  0.73955900  0.33259600  0.62569000  1
  H  H7  1  0.26044100  0.83259600  0.87431000  1
  H  H8  1  0.01376900  0.27923100  0.23657300  1
  H  H9  1  0.98623100  0.77923100  0.26342700  1
  H  H10  1  0.98623100  0.72076900  0.76342700  1
  H  H11  1  0.01376900  0.22076900  0.73657300  1
  H  H12  1  0.25505300  0.43984900  0.83925700  1
  H  H13  1  0.74494700  0.93984900  0.66074300  1
  H  H14  1  0.74494700  0.56015100  0.16074300  1
  H  H15  1  0.25505300  0.06015100  0.33925700  1
  H  H16  1  0.31686800  0.54083400  0.40824900  1
  H  H17  1  0.68313200  0.04083400  0.09175100  1
  H  H18  1  0.68313200  0.45916600  0.59175100  1
  H  H19  1  0.31686800  0.95916600  0.90824900  1
  H  H20  1  0.99003500  0.19987100  0.07794900  1
  H  H21  1  0.00996500  0.69987100  0.42205100  1
  H  H22  1  0.00996500  0.80012900  0.92205100  1
  H  H23  1  0.99003500  0.30012900  0.57794900  1
  H  H24  1  0.10124800  0.54357000  0.80266400  1
  H  H25  1  0.89875200  0.04357000  0.69733600  1
  H  H26  1  0.89875200  0.45643000  0.19733600  1
  H  H27  1  0.10124800  0.95643000  0.30266400  1
  H  H28  1  0.18787700  0.65749700  0.06339100  1
  H  H29  1  0.81212300  0.15749700  0.43660900  1
  H  H30  1  0.81212300  0.34250300  0.93660900  1
  H  H31  1  0.18787700  0.84250300  0.56339100  1
  C  C32  1  0.29231000  0.50977200  0.07788000  1
  C  C33  1  0.70769000  0.00977200  0.42212000  1
  C  C34  1  0.70769000  0.49022800  0.92212000  1
  C  C35  1  0.29231000  0.99022800  0.57788000  1
  Br  Br36  1  0.18195300  0.11241900  0.97094700  1
  Br  Br37  1  0.81804700  0.61241900  0.52905300  1
  Br  Br38  1  0.81804700  0.88758100  0.02905300  1
  Br  Br39  1  0.18195300  0.38758100  0.47094700  1
  N  N40  1  0.42420200  0.45138600  0.21260600  1
  N  N41  1  0.57579800  0.95138600  0.28739400  1
  N  N42  1  0.57579800  0.54861400  0.78739400  1
  N  N43  1  0.42420200  0.04861400  0.71260600  1
  N  N44  1  0.49071500  0.36876300  0.16114100  1
  N  N45  1  0.50928500  0.86876300  0.33885900  1
  N  N46  1  0.50928500  0.63123700  0.83885900  1
  N  N47  1  0.49071500  0.13123700  0.66114100  1
  N  N48  1  0.23353700  0.59107100  0.14522600  1
  N  N49  1  0.76646300  0.09107100  0.35477400  1
  N  N50  1  0.76646300  0.40892900  0.85477400  1
  N  N51  1  0.23353700  0.90892900  0.64522600  1
  N  N52  1  0.32878800  0.60777000  0.34239000  1
  N  N53  1  0.67121200  0.10777000  0.15761000  1
  N  N54  1  0.67121200  0.39223000  0.65761000  1
  N  N55  1  0.32878800  0.89223000  0.84239000  1
  N  N56  1  0.20945100  0.49810800  0.89211200  1
  N  N57  1  0.79054900  0.99810800  0.60788800  1
  N  N58  1  0.79054900  0.50189200  0.10788800  1
  N  N59  1  0.20945100  0.00189200  0.39211200  1
  O  O60  1  0.44291100  0.34612100  0.99266400  1
  O  O61  1  0.55708900  0.84612100  0.50733600  1
  O  O62  1  0.55708900  0.65387900  0.00733600  1
  O  O63  1  0.44291100  0.15387900  0.49266400  1
  O  O64  1  0.60877200  0.31650100  0.29465000  1
  O  O65  1  0.39122800  0.81650100  0.20535000  1
  O  O66  1  0.39122800  0.68349900  0.70535000  1
  O  O67  1  0.60877200  0.18349900  0.79465000  1
  O  O68  1  0.91903800  0.24377200  0.12125000  1
  O  O69  1  0.08096200  0.74377200  0.37875000  1
  O  O70  1  0.08096200  0.75622800  0.87875000  1
  O  O71  1  0.91903800  0.25622800  0.62125000  1
