# generated using pymatgen
data_Y5(NiTe)2
_symmetry_space_group_name_H-M   'P 1'
_cell_length_a   4.04513400
_cell_length_b   14.46063400
_cell_length_c   15.81205100
_cell_angle_alpha   90.00000000
_cell_angle_beta   90.00000000
_cell_angle_gamma   90.00000000
_symmetry_Int_Tables_number   1
_chemical_formula_structural   Y5(NiTe)2
_chemical_formula_sum   'Y20 Ni8 Te8'
_cell_volume   924.92912131
_cell_formula_units_Z   4
loop_
 _symmetry_equiv_pos_site_id
 _symmetry_equiv_pos_as_xyz
  1  'x, y, z'
loop_
 _atom_site_type_symbol
 _atom_site_label
 _atom_site_symmetry_multiplicity
 _atom_site_fract_x
 _atom_site_fract_y
 _atom_site_fract_z
 _atom_site_occupancy
  Y  Y0  1  0.25000000  0.14958000  0.25936400  1
  Y  Y1  1  0.25000000  0.64958000  0.24063600  1
  Y  Y2  1  0.75000000  0.85042000  0.74063600  1
  Y  Y3  1  0.75000000  0.35042000  0.75936400  1
  Y  Y4  1  0.25000000  0.88512400  0.18974900  1
  Y  Y5  1  0.25000000  0.38512400  0.31025100  1
  Y  Y6  1  0.75000000  0.11487600  0.81025100  1
  Y  Y7  1  0.75000000  0.61487600  0.68974900  1
  Y  Y8  1  0.25000000  0.88177000  0.55325400  1
  Y  Y9  1  0.25000000  0.38177000  0.94674600  1
  Y  Y10  1  0.75000000  0.11823000  0.44674600  1
  Y  Y11  1  0.75000000  0.61823000  0.05325400  1
  Y  Y12  1  0.25000000  0.20785300  0.62544700  1
  Y  Y13  1  0.25000000  0.70785300  0.87455300  1
  Y  Y14  1  0.75000000  0.79214700  0.37455300  1
  Y  Y15  1  0.75000000  0.29214700  0.12544700  1
  Y  Y16  1  0.25000000  0.13854900  0.99738500  1
  Y  Y17  1  0.25000000  0.63854900  0.50261500  1
  Y  Y18  1  0.75000000  0.86145100  0.00261500  1
  Y  Y19  1  0.75000000  0.36145100  0.49738500  1
  Ni  Ni20  1  0.25000000  0.74030900  0.67784200  1
  Ni  Ni21  1  0.25000000  0.24030900  0.82215800  1
  Ni  Ni22  1  0.75000000  0.25969100  0.32215800  1
  Ni  Ni23  1  0.75000000  0.75969100  0.17784200  1
  Ni  Ni24  1  0.25000000  0.24729000  0.43392400  1
  Ni  Ni25  1  0.25000000  0.74729000  0.06607600  1
  Ni  Ni26  1  0.75000000  0.75271000  0.56607600  1
  Ni  Ni27  1  0.75000000  0.25271000  0.93392400  1
  Te  Te28  1  0.25000000  0.96594400  0.37226500  1
  Te  Te29  1  0.25000000  0.46594400  0.12773500  1
  Te  Te30  1  0.75000000  0.03405600  0.62773500  1
  Te  Te31  1  0.75000000  0.53405600  0.87226500  1
  Te  Te32  1  0.25000000  0.95282000  0.87102200  1
  Te  Te33  1  0.25000000  0.45282000  0.62897800  1
  Te  Te34  1  0.75000000  0.04718000  0.12897800  1
  Te  Te35  1  0.75000000  0.54718000  0.37102200  1
