# generated using pymatgen
data_KNaAl6Si6(HO6)4
_symmetry_space_group_name_H-M   'P 1'
_cell_length_a   5.20574224
_cell_length_b   18.07767223
_cell_length_c   19.89041691
_cell_angle_alpha   89.99487630
_cell_angle_beta   95.49118677
_cell_angle_gamma   90.00000802
_symmetry_Int_Tables_number   1
_chemical_formula_structural   KNaAl6Si6(HO6)4
_chemical_formula_sum   'K4 Na4 Al24 Si24 H16 O96'
_cell_volume   1863.25140810
_cell_formula_units_Z   4
loop_
 _symmetry_equiv_pos_site_id
 _symmetry_equiv_pos_as_xyz
  1  'x, y, z'
loop_
 _atom_site_type_symbol
 _atom_site_label
 _atom_site_symmetry_multiplicity
 _atom_site_fract_x
 _atom_site_fract_y
 _atom_site_fract_z
 _atom_site_occupancy
  K  K0  1  0.99991163  0.45147611  0.75001552  1
  K  K1  1  0.00000714  0.04577622  0.25004002  1
  K  K2  1  0.49991851  0.80117984  0.25006618  1
  K  K3  1  0.99996261  0.95228564  0.75003906  1
  Na  Na4  1  0.49962222  0.21378882  0.75019806  1
  Na  Na5  1  0.49978533  0.28826335  0.25009442  1
  Na  Na6  1  0.49954454  0.71067618  0.75020117  1
  Na  Na7  1  0.99995536  0.55994451  0.25006260  1
  Al  Al8  1  0.25033776  0.45673221  0.49972325  1
  Al  Al9  1  0.46459471  0.36923825  0.63716896  1
  Al  Al10  1  0.74955318  0.45674923  0.00036933  1
  Al  Al11  1  0.53536369  0.36932034  0.86290669  1
  Al  Al12  1  0.75450954  0.04317386  0.49928567  1
  Al  Al13  1  0.53854303  0.13164438  0.36155742  1
  Al  Al14  1  0.24535738  0.04320059  0.00079935  1
  Al  Al15  1  0.46139127  0.13164409  0.13850528  1
  Al  Al16  1  0.75033786  0.20805348  0.49864678  1
  Al  Al17  1  0.24956715  0.20807334  0.00142566  1
  Al  Al18  1  0.25401758  0.29240966  0.49952050  1
  Al  Al19  1  0.74590207  0.29242439  0.00055856  1
  Al  Al20  1  0.25293728  0.95637304  0.50232642  1
  Al  Al21  1  0.46825929  0.86885563  0.63894916  1
  Al  Al22  1  0.74698521  0.95640600  0.99776812  1
  Al  Al23  1  0.53167205  0.86892647  0.86115725  1
  Al  Al24  1  0.75233721  0.54221390  0.49766962  1
  Al  Al25  1  0.54268542  0.62754729  0.36034849  1
  Al  Al26  1  0.24759779  0.54222927  0.00244671  1
  Al  Al27  1  0.45721740  0.62753619  0.13974318  1
  Al  Al28  1  0.75362911  0.70633412  0.49870464  1
  Al  Al29  1  0.24624951  0.70636395  0.00140265  1
  Al  Al30  1  0.25906452  0.79104219  0.50127932  1
  Al  Al31  1  0.74082257  0.79106157  0.99883305  1
  Si  Si32  1  0.46150044  0.03552450  0.63821011  1
  Si  Si33  1  0.53835095  0.03557900  0.86186735  1
  Si  Si34  1  0.54217654  0.46385440  0.35982590  1
  Si  Si35  1  0.45766543  0.46384260  0.14025697  1
  Si  Si36  1  0.98386218  0.28429272  0.63830342  1
  Si  Si37  1  0.94989848  0.12230301  0.63748010  1
  Si  Si38  1  0.01612393  0.28435391  0.86178676  1
  Si  Si39  1  0.04995005  0.12234227  0.86259654  1
  Si  Si40  1  0.02033111  0.21665256  0.35997610  1
  Si  Si41  1  0.05289780  0.37861205  0.36058849  1
  Si  Si42  1  0.97958350  0.21664883  0.14010212  1
  Si  Si43  1  0.94690302  0.37859450  0.13950153  1
  Si  Si44  1  0.46077744  0.53513031  0.63686768  1
  Si  Si45  1  0.53907038  0.53519367  0.86322339  1
  Si  Si46  1  0.54799662  0.96501406  0.36352256  1
  Si  Si47  1  0.45190087  0.96502413  0.13656524  1
  Si  Si48  1  0.98745264  0.78353931  0.63890630  1
  Si  Si49  1  0.94951719  0.62171580  0.63684519  1
  Si  Si50  1  0.01248579  0.78360418  0.86121481  1
  Si  Si51  1  0.05033485  0.62176144  0.86326331  1
  Si  Si52  1  0.02362923  0.71265577  0.36123091  1
  Si  Si53  1  0.05963599  0.87672956  0.36424577  1
  Si  Si54  1  0.97626841  0.71265787  0.13888318  1
  Si  Si55  1  0.94026406  0.87673240  0.13585785  1
  H  H56  1  0.36347216  0.17128813  0.55477518  1
  H  H57  1  0.63653014  0.17128673  0.94537646  1
  H  H58  1  0.63700361  0.32744450  0.43966207  1
  H  H59  1  0.36295463  0.32742055  0.06046482  1
  H  H60  1  0.87433717  0.42559838  0.56641403  1
  H  H61  1  0.12553992  0.42564240  0.93367398  1
  H  H62  1  0.12799081  0.07164403  0.43119354  1
  H  H63  1  0.87193944  0.07166276  0.06890505  1
  H  H64  1  0.36775794  0.66989278  0.55480604  1
  H  H65  1  0.63216252  0.66990907  0.94535567  1
  H  H66  1  0.64944391  0.82975483  0.44905888  1
  H  H67  1  0.35040766  0.82979071  0.05104313  1
  H  H68  1  0.88061197  0.92797423  0.57119586  1
  H  H69  1  0.11929475  0.92798755  0.92892196  1
  H  H70  1  0.12899884  0.57324395  0.43143911  1
  H  H71  1  0.87090208  0.57322628  0.06867538  1
  O  O72  1  0.46399441  0.02890194  0.55577380  1
  O  O73  1  0.37726293  0.37447633  0.54992843  1
  O  O74  1  0.45593924  0.21715406  0.54852756  1
  O  O75  1  0.40852242  0.45701687  0.67157241  1
  O  O76  1  0.24911046  0.09689386  0.66144871  1
  O  O77  1  0.74664519  0.06651265  0.67034450  1
  O  O78  1  0.53587703  0.02893769  0.94429885  1
  O  O79  1  0.62262978  0.37450754  0.95015480  1
  O  O80  1  0.54401048  0.21716289  0.95153964  1
  O  O81  1  0.59141874  0.45709916  0.82851313  1
  O  O82  1  0.75068824  0.09697013  0.83862821  1
  O  O83  1  0.25318714  0.06655750  0.82972693  1
  O  O84  1  0.53905718  0.47143141  0.44237158  1
  O  O85  1  0.62853599  0.12537409  0.44864840  1
  O  O86  1  0.54666210  0.28226938  0.44956225  1
  O  O87  1  0.59028773  0.04320546  0.32791669  1
  O  O88  1  0.74780511  0.39964694  0.33806717  1
  O  O89  1  0.25037062  0.43667081  0.32756849  1
  O  O90  1  0.46082122  0.47143968  0.05770954  1
  O  O91  1  0.37136414  0.12538571  0.05141660  1
  O  O92  1  0.45327655  0.28226454  0.05050485  1
  O  O93  1  0.40957486  0.04320877  0.17216299  1
  O  O94  1  0.25201227  0.39962702  0.16200442  1
  O  O95  1  0.74942709  0.43664408  0.17251225  1
  O  O96  1  0.96937370  0.27482683  0.55532475  1
  O  O97  1  0.89598272  0.12430890  0.55556738  1
  O  O98  1  0.95334448  0.46934153  0.54866015  1
  O  O99  1  0.90098312  0.20369131  0.67040171  1
  O  O100  1  0.78998729  0.34829825  0.65895423  1
  O  O101  1  0.27273590  0.30225228  0.67260299  1
  O  O102  1  0.03061079  0.27486643  0.94475807  1
  O  O103  1  0.10385515  0.12433445  0.94450958  1
  O  O104  1  0.04652479  0.46937999  0.95142751  1
  O  O105  1  0.09893790  0.20373995  0.82968670  1
  O  O106  1  0.21005618  0.34832991  0.84110431  1
  O  O107  1  0.72726939  0.30233223  0.82749068  1
  O  O108  1  0.03377108  0.22610294  0.44296319  1
  O  O109  1  0.11135453  0.37630692  0.44243942  1
  O  O110  1  0.04925880  0.02834584  0.44987142  1
  O  O111  1  0.10685302  0.29715384  0.32802097  1
  O  O112  1  0.21283659  0.15208832  0.33970333  1
  O  O113  1  0.73077857  0.19865673  0.32612489  1
  O  O114  1  0.96615138  0.22611128  0.05710872  1
  O  O115  1  0.88850918  0.37630849  0.05764777  1
  O  O116  1  0.95062236  0.02837391  0.05020335  1
  O  O117  1  0.89297192  0.29712319  0.17205731  1
  O  O118  1  0.78713071  0.15205092  0.16034675  1
  O  O119  1  0.26915973  0.19865849  0.17394684  1
  O  O120  1  0.46264233  0.52836040  0.55438518  1
  O  O121  1  0.38092773  0.87392469  0.55185940  1
  O  O122  1  0.46064203  0.71583460  0.54920308  1
  O  O123  1  0.41207840  0.95705311  0.67277279  1
  O  O124  1  0.24944529  0.59673138  0.66039113  1
  O  O125  1  0.74612377  0.56574977  0.66944086  1
  O  O126  1  0.53722562  0.52839754  0.94570515  1
  O  O127  1  0.61896847  0.87396543  0.94824729  1
  O  O128  1  0.53926659  0.71586104  0.95090649  1
  O  O129  1  0.58785737  0.95711544  0.82730977  1
  O  O130  1  0.75036057  0.59682488  0.83972155  1
  O  O131  1  0.25370060  0.56580656  0.83065304  1
  O  O132  1  0.54313760  0.97110802  0.44577857  1
  O  O133  1  0.62504101  0.62448142  0.44798178  1
  O  O134  1  0.55518440  0.78340623  0.45103661  1
  O  O135  1  0.61174713  0.54082779  0.32509856  1
  O  O136  1  0.76663356  0.90608363  0.34028638  1
  O  O137  1  0.26820064  0.93057652  0.33096891  1
  O  O138  1  0.45673016  0.97112528  0.05430848  1
  O  O139  1  0.37483824  0.62449417  0.05212368  1
  O  O140  1  0.44468183  0.78343816  0.04908968  1
  O  O141  1  0.38811670  0.54080585  0.17498486  1
  O  O142  1  0.23327443  0.90608429  0.15980917  1
  O  O143  1  0.73170116  0.93058476  0.16912399  1
  O  O144  1  0.97440638  0.77356945  0.55599062  1
  O  O145  1  0.89477403  0.62336581  0.55500172  1
  O  O146  1  0.95818204  0.97074223  0.55130395  1
  O  O147  1  0.90192686  0.70292588  0.67044262  1
  O  O148  1  0.79478569  0.84808841  0.65937338  1
  O  O149  1  0.27615341  0.80135570  0.67368851  1
  O  O150  1  0.02551210  0.77361320  0.94412706  1
  O  O151  1  0.10507566  0.62339597  0.94510753  1
  O  O152  1  0.04171431  0.97076681  0.94878697  1
  O  O153  1  0.09807388  0.70298721  0.82967932  1
  O  O154  1  0.20518779  0.84813815  0.84073846  1
  O  O155  1  0.72377880  0.80141736  0.82643387  1
  O  O156  1  0.04215215  0.72205007  0.44428862  1
  O  O157  1  0.11203304  0.87440120  0.44595927  1
  O  O158  1  0.04909940  0.52972178  0.44929192  1
  O  O159  1  0.09619874  0.79505714  0.33089674  1
  O  O160  1  0.21576599  0.64867723  0.33814018  1
  O  O161  1  0.73750084  0.69383197  0.32686934  1
  O  O162  1  0.95772736  0.72206703  0.05582311  1
  O  O163  1  0.88783914  0.87442687  0.05414307  1
  O  O164  1  0.95077499  0.52971620  0.05080143  1
  O  O165  1  0.90367962  0.79505149  0.16920052  1
  O  O166  1  0.78412365  0.64866502  0.16196091  1
  O  O167  1  0.26241393  0.69382559  0.17323442  1
