# generated using pymatgen
data_CaMg5P3CO16
_symmetry_space_group_name_H-M   'P 1'
_cell_length_a   6.36529100
_cell_length_b   8.81042671
_cell_length_c   10.94957525
_cell_angle_alpha   95.21107219
_cell_angle_beta   101.15154397
_cell_angle_gamma   93.30388468
_symmetry_Int_Tables_number   1
_chemical_formula_structural   CaMg5P3CO16
_chemical_formula_sum   'Ca2 Mg10 P6 C2 O32'
_cell_volume   598.19864937
_cell_formula_units_Z   2
loop_
 _symmetry_equiv_pos_site_id
 _symmetry_equiv_pos_as_xyz
  1  'x, y, z'
loop_
 _atom_site_type_symbol
 _atom_site_label
 _atom_site_symmetry_multiplicity
 _atom_site_fract_x
 _atom_site_fract_y
 _atom_site_fract_z
 _atom_site_occupancy
  Ca  Ca0  1  0.87602300  0.68367700  0.93671600  1
  Ca  Ca1  1  0.12397700  0.31632300  0.06328400  1
  Mg  Mg2  1  0.30981900  0.03620400  0.90073100  1
  Mg  Mg3  1  0.69018100  0.96379600  0.09926900  1
  Mg  Mg4  1  0.65571600  0.47010800  0.38046800  1
  Mg  Mg5  1  0.34428400  0.52989200  0.61953200  1
  Mg  Mg6  1  0.08505700  0.82119200  0.67170600  1
  Mg  Mg7  1  0.91494300  0.17880800  0.32829400  1
  Mg  Mg8  1  0.58926700  0.35110300  0.81830200  1
  Mg  Mg9  1  0.41073300  0.64889700  0.18169800  1
  Mg  Mg10  1  0.66951600  0.13167800  0.54937800  1
  Mg  Mg11  1  0.33048400  0.86832200  0.45062200  1
  P  P12  1  0.20165300  0.96821500  0.17046800  1
  P  P13  1  0.79834700  0.03178500  0.82953200  1
  P  P14  1  0.78818900  0.84122100  0.39137500  1
  P  P15  1  0.21181100  0.15877900  0.60862500  1
  P  P16  1  0.36883700  0.66918200  0.92541300  1
  P  P17  1  0.63116300  0.33081800  0.07458700  1
  C  C18  1  0.85125700  0.51505900  0.66152700  1
  C  C19  1  0.14874300  0.48494100  0.33847300  1
  O  O20  1  0.36841600  0.00435200  0.08858400  1
  O  O21  1  0.63158400  0.99564800  0.91141600  1
  O  O22  1  0.99070200  0.88954300  0.08784100  1
  O  O23  1  0.00929800  0.11045700  0.91215900  1
  O  O24  1  0.15965800  0.12267300  0.23820200  1
  O  O25  1  0.84034200  0.87732700  0.76179800  1
  O  O26  1  0.29918200  0.85137700  0.26123600  1
  O  O27  1  0.70081800  0.14862300  0.73876400  1
  O  O28  1  0.01552100  0.82314000  0.46725000  1
  O  O29  1  0.98447900  0.17686000  0.53275000  1
  O  O30  1  0.65516000  0.90924400  0.48452700  1
  O  O31  1  0.34484000  0.09075600  0.51547300  1
  O  O32  1  0.79564000  0.95117300  0.28970300  1
  O  O33  1  0.20436000  0.04882700  0.71029700  1
  O  O34  1  0.67391900  0.68439600  0.32905100  1
  O  O35  1  0.32608100  0.31560400  0.67094900  1
  O  O36  1  0.56032600  0.73359500  0.03527100  1
  O  O37  1  0.43967400  0.26640500  0.96472900  1
  O  O38  1  0.23768500  0.79416000  0.86312700  1
  O  O39  1  0.76231500  0.20584000  0.13687300  1
  O  O40  1  0.46545600  0.57230400  0.82740000  1
  O  O41  1  0.53454400  0.42769600  0.17260000  1
  O  O42  1  0.21884100  0.57746800  0.99455500  1
  O  O43  1  0.78115900  0.42253200  0.00544500  1
  O  O44  1  0.64718600  0.24429500  0.39458100  1
  O  O45  1  0.35281400  0.75570500  0.60541900  1
  O  O46  1  0.84602900  0.48071300  0.77324500  1
  O  O47  1  0.15397100  0.51928700  0.22675500  1
  O  O48  1  0.02391900  0.58172100  0.63749300  1
  O  O49  1  0.97608100  0.41827900  0.36250700  1
  O  O50  1  0.67882500  0.48627600  0.57530800  1
  O  O51  1  0.32117500  0.51372400  0.42469200  1
