# generated using pymatgen
data_Y4Ga21Ni10
_symmetry_space_group_name_H-M   'P 1'
_cell_length_a   10.63320482
_cell_length_b   10.63320482
_cell_length_c   15.50686931
_cell_angle_alpha   56.95088262
_cell_angle_beta   56.95088262
_cell_angle_gamma   22.11660149
_symmetry_Int_Tables_number   1
_chemical_formula_structural   Y4Ga21Ni10
_chemical_formula_sum   'Y4 Ga21 Ni10'
_cell_volume   548.80589668
_cell_formula_units_Z   1
loop_
 _symmetry_equiv_pos_site_id
 _symmetry_equiv_pos_as_xyz
  1  'x, y, z'
loop_
 _atom_site_type_symbol
 _atom_site_label
 _atom_site_symmetry_multiplicity
 _atom_site_fract_x
 _atom_site_fract_y
 _atom_site_fract_z
 _atom_site_occupancy
  Y  Y0  1  0.87987400  0.87987400  0.33390600  1
  Y  Y1  1  0.12012600  0.12012600  0.66609400  1
  Y  Y2  1  0.23005600  0.23005600  0.17528100  1
  Y  Y3  1  0.76994400  0.76994400  0.82471900  1
  Ga  Ga4  1  0.46092500  0.46092500  0.36752600  1
  Ga  Ga5  1  0.53907500  0.53907500  0.63247400  1
  Ga  Ga6  1  0.79847900  0.79847900  0.00341200  1
  Ga  Ga7  1  0.20152100  0.20152100  0.99658800  1
  Ga  Ga8  1  0.70257900  0.70257900  0.49675000  1
  Ga  Ga9  1  0.29742100  0.29742100  0.50325000  1
  Ga  Ga10  1  0.88361500  0.88361500  0.55178400  1
  Ga  Ga11  1  0.11638500  0.11638500  0.44821600  1
  Ga  Ga12  1  0.61389500  0.61389500  0.29743400  1
  Ga  Ga13  1  0.38610500  0.38610500  0.70256600  1
  Ga  Ga14  1  0.75278100  0.75278100  0.29416100  1
  Ga  Ga15  1  0.24721900  0.24721900  0.70583900  1
  Ga  Ga16  1  0.60181700  0.60181700  0.00303200  1
  Ga  Ga17  1  0.39818300  0.39818300  0.99696800  1
  Ga  Ga18  1  0.99387900  0.99387900  0.09033400  1
  Ga  Ga19  1  0.00612100  0.00612100  0.90966600  1
  Ga  Ga20  1  0.93528600  0.93528600  0.79588600  1
  Ga  Ga21  1  0.06471400  0.06471400  0.20411400  1
  Ga  Ga22  1  0.50000000  0.50000000  0.50000000  1
  Ga  Ga23  1  0.37282100  0.37282100  0.19559800  1
  Ga  Ga24  1  0.62717900  0.62717900  0.80440200  1
  Ni  Ni25  1  0.49861100  0.49861100  0.18445600  1
  Ni  Ni26  1  0.50138900  0.50138900  0.81554400  1
  Ni  Ni27  1  0.86667200  0.86667200  0.10521900  1
  Ni  Ni28  1  0.13332800  0.13332800  0.89478100  1
  Ni  Ni29  1  0.75089400  0.75089400  0.61428000  1
  Ni  Ni30  1  0.24910600  0.24910600  0.38572000  1
  Ni  Ni31  1  0.65268700  0.65268700  0.11348300  1
  Ni  Ni32  1  0.34731300  0.34731300  0.88651700  1
  Ni  Ni33  1  0.97564100  0.97564100  0.60665200  1
  Ni  Ni34  1  0.02435900  0.02435900  0.39334800  1
