# generated using pymatgen
data_NaSrPH18SO12
_symmetry_space_group_name_H-M   'P 1'
_cell_length_a   10.99482900
_cell_length_b   10.99482900
_cell_length_c   10.99482900
_cell_angle_alpha   90.00000000
_cell_angle_beta   90.00000000
_cell_angle_gamma   90.00000000
_symmetry_Int_Tables_number   1
_chemical_formula_structural   NaSrPH18SO12
_chemical_formula_sum   'Na4 Sr4 P4 H72 S4 O48'
_cell_volume   1329.12380926
_cell_formula_units_Z   4
loop_
 _symmetry_equiv_pos_site_id
 _symmetry_equiv_pos_as_xyz
  1  'x, y, z'
loop_
 _atom_site_type_symbol
 _atom_site_label
 _atom_site_symmetry_multiplicity
 _atom_site_fract_x
 _atom_site_fract_y
 _atom_site_fract_z
 _atom_site_occupancy
  Na  Na0  1  0.43447000  0.93447000  0.56553000  1
  Na  Na1  1  0.93447000  0.56553000  0.43447000  1
  Na  Na2  1  0.56553000  0.43447000  0.93447000  1
  Na  Na3  1  0.06553000  0.06553000  0.06553000  1
  Sr  Sr4  1  0.18856600  0.81143400  0.31143400  1
  Sr  Sr5  1  0.68856600  0.68856600  0.68856600  1
  Sr  Sr6  1  0.31143400  0.18856600  0.81143400  1
  Sr  Sr7  1  0.81143400  0.31143400  0.18856600  1
  P  P8  1  0.69191800  0.80808200  0.19191800  1
  P  P9  1  0.80808200  0.19191800  0.69191800  1
  P  P10  1  0.30808200  0.30808200  0.30808200  1
  P  P11  1  0.19191800  0.69191800  0.80808200  1
  H  H12  1  0.26815900  0.82615400  0.02200200  1
  H  H13  1  0.97799800  0.76815900  0.67384600  1
  H  H14  1  0.32615400  0.47799800  0.73184100  1
  H  H15  1  0.76815900  0.67384600  0.97799800  1
  H  H16  1  0.47799800  0.73184100  0.32615400  1
  H  H17  1  0.82615400  0.02200200  0.26815900  1
  H  H18  1  0.73184100  0.32615400  0.47799800  1
  H  H19  1  0.02200200  0.26815900  0.82615400  1
  H  H20  1  0.67384600  0.97799800  0.76815900  1
  H  H21  1  0.23184100  0.17384600  0.52200200  1
  H  H22  1  0.52200200  0.23184100  0.17384600  1
  H  H23  1  0.17384600  0.52200200  0.23184100  1
  H  H24  1  0.38958100  0.84623200  0.09976400  1
  H  H25  1  0.90023600  0.88958100  0.65376800  1
  H  H26  1  0.34623200  0.40023600  0.61041900  1
  H  H27  1  0.88958100  0.65376800  0.90023600  1
  H  H28  1  0.40023600  0.61041900  0.34623200  1
  H  H29  1  0.84623200  0.09976400  0.38958100  1
  H  H30  1  0.61041900  0.34623200  0.40023600  1
  H  H31  1  0.09976400  0.38958100  0.84623200  1
  H  H32  1  0.65376800  0.90023600  0.88958100  1
  H  H33  1  0.11041900  0.15376800  0.59976400  1
  H  H34  1  0.59976400  0.11041900  0.15376800  1
  H  H35  1  0.15376800  0.59976400  0.11041900  1
  H  H36  1  0.40042900  0.68285300  0.67035800  1
  H  H37  1  0.32964200  0.90042900  0.81714700  1
  H  H38  1  0.18285300  0.82964200  0.59957100  1
  H  H39  1  0.90042900  0.81714700  0.32964200  1
  H  H40  1  0.82964200  0.59957100  0.18285300  1
  H  H41  1  0.68285300  0.67035800  0.40042900  1
  H  H42  1  0.59957100  0.18285300  0.82964200  1
  H  H43  1  0.67035800  0.40042900  0.68285300  1
  H  H44  1  0.81714700  0.32964200  0.90042900  1
  H  H45  1  0.09957100  0.31714700  0.17035800  1
  H  H46  1  0.17035800  0.09957100  0.31714700  1
  H  H47  1  0.31714700  0.17035800  0.09957100  1
  H  H48  1  0.43521900  0.69375300  0.52861300  1
  H  H49  1  0.47138700  0.93521900  0.80624700  1
  H  H50  1  0.19375300  0.97138700  0.56478100  1
  H  H51  1  0.93521900  0.80624700  0.47138700  1
  H  H52  1  0.97138700  0.56478100  0.19375300  1
  H  H53  1  0.69375300  0.52861300  0.43521900  1
  H  H54  1  0.56478100  0.19375300  0.97138700  1
  H  H55  1  0.52861300  0.43521900  0.69375300  1
  H  H56  1  0.80624700  0.47138700  0.93521900  1
  H  H57  1  0.06478100  0.30624700  0.02861300  1
  H  H58  1  0.02861300  0.06478100  0.30624700  1
  H  H59  1  0.30624700  0.02861300  0.06478100  1
  H  H60  1  0.04362300  0.79196600  0.04104100  1
  H  H61  1  0.95895900  0.54362300  0.70803400  1
  H  H62  1  0.29196600  0.45895900  0.95637700  1
  H  H63  1  0.54362300  0.70803400  0.95895900  1
  H  H64  1  0.45895900  0.95637700  0.29196600  1
  H  H65  1  0.79196600  0.04104100  0.04362300  1
  H  H66  1  0.95637700  0.29196600  0.45895900  1
  H  H67  1  0.04104100  0.04362300  0.79196600  1
  H  H68  1  0.70803400  0.95895900  0.54362300  1
  H  H69  1  0.45637700  0.20803400  0.54104100  1
  H  H70  1  0.54104100  0.45637700  0.20803400  1
  H  H71  1  0.20803400  0.54104100  0.45637700  1
  H  H72  1  0.94563500  0.84833000  0.13180700  1
  H  H73  1  0.86819300  0.44563500  0.65167000  1
  H  H74  1  0.34833000  0.36819300  0.05436500  1
  H  H75  1  0.44563500  0.65167000  0.86819300  1
  H  H76  1  0.36819300  0.05436500  0.34833000  1
  H  H77  1  0.84833000  0.13180700  0.94563500  1
  H  H78  1  0.05436500  0.34833000  0.36819300  1
  H  H79  1  0.13180700  0.94563500  0.84833000  1
  H  H80  1  0.65167000  0.86819300  0.44563500  1
  H  H81  1  0.55436500  0.15167000  0.63180700  1
  H  H82  1  0.63180700  0.55436500  0.15167000  1
  H  H83  1  0.15167000  0.63180700  0.55436500  1
  S  S84  1  0.58371300  0.91628700  0.08371300  1
  S  S85  1  0.91628700  0.08371300  0.58371300  1
  S  S86  1  0.41628700  0.41628700  0.41628700  1
  S  S87  1  0.08371300  0.58371300  0.91628700  1
  O  O88  1  0.30007000  0.85271500  0.10336500  1
  O  O89  1  0.89663500  0.80007000  0.64728500  1
  O  O90  1  0.35271500  0.39663500  0.69993000  1
  O  O91  1  0.80007000  0.64728500  0.89663500  1
  O  O92  1  0.39663500  0.69993000  0.35271500  1
  O  O93  1  0.85271500  0.10336500  0.30007000  1
  O  O94  1  0.69993000  0.35271500  0.39663500  1
  O  O95  1  0.10336500  0.30007000  0.85271500  1
  O  O96  1  0.64728500  0.89663500  0.80007000  1
  O  O97  1  0.19993000  0.14728500  0.60336500  1
  O  O98  1  0.60336500  0.19993000  0.14728500  1
  O  O99  1  0.14728500  0.60336500  0.19993000  1
  O  O100  1  0.46225500  0.71491700  0.61144900  1
  O  O101  1  0.38855100  0.96225500  0.78508300  1
  O  O102  1  0.21491700  0.88855100  0.53774500  1
  O  O103  1  0.96225500  0.78508300  0.38855100  1
  O  O104  1  0.88855100  0.53774500  0.21491700  1
  O  O105  1  0.71491700  0.61144900  0.46225500  1
  O  O106  1  0.53774500  0.21491700  0.88855100  1
  O  O107  1  0.61144900  0.46225500  0.71491700  1
  O  O108  1  0.78508300  0.38855100  0.96225500  1
  O  O109  1  0.03774500  0.28508300  0.11144900  1
  O  O110  1  0.11144900  0.03774500  0.28508300  1
  O  O111  1  0.28508300  0.11144900  0.03774500  1
  O  O112  1  0.03311200  0.85028700  0.10741000  1
  O  O113  1  0.89259000  0.53311200  0.64971300  1
  O  O114  1  0.35028700  0.39259000  0.96688800  1
  O  O115  1  0.53311200  0.64971300  0.89259000  1
  O  O116  1  0.39259000  0.96688800  0.35028700  1
  O  O117  1  0.85028700  0.10741000  0.03311200  1
  O  O118  1  0.96688800  0.35028700  0.39259000  1
  O  O119  1  0.10741000  0.03311200  0.85028700  1
  O  O120  1  0.64971300  0.89259000  0.53311200  1
  O  O121  1  0.46688800  0.14971300  0.60741000  1
  O  O122  1  0.60741000  0.46688800  0.14971300  1
  O  O123  1  0.14971300  0.60741000  0.46688800  1
  O  O124  1  0.21558500  0.81401700  0.87530100  1
  O  O125  1  0.12469900  0.71558500  0.68598300  1
  O  O126  1  0.31401700  0.62469900  0.78441500  1
  O  O127  1  0.71558500  0.68598300  0.12469900  1
  O  O128  1  0.62469900  0.78441500  0.31401700  1
  O  O129  1  0.81401700  0.87530100  0.21558500  1
  O  O130  1  0.78441500  0.31401700  0.62469900  1
  O  O131  1  0.87530100  0.21558500  0.81401700  1
  O  O132  1  0.68598300  0.12469900  0.71558500  1
  O  O133  1  0.28441500  0.18598300  0.37530100  1
  O  O134  1  0.37530100  0.28441500  0.18598300  1
  O  O135  1  0.18598300  0.37530100  0.28441500  1
