# generated using pymatgen
data_Re4Ge7
_symmetry_space_group_name_H-M   'P 1'
_cell_length_a   6.02333300
_cell_length_b   6.02333300
_cell_length_c   19.18122600
_cell_angle_alpha   90.00000000
_cell_angle_beta   90.00000000
_cell_angle_gamma   90.00000000
_symmetry_Int_Tables_number   1
_chemical_formula_structural   Re4Ge7
_chemical_formula_sum   'Re16 Ge28'
_cell_volume   695.90524537
_cell_formula_units_Z   4
loop_
 _symmetry_equiv_pos_site_id
 _symmetry_equiv_pos_as_xyz
  1  'x, y, z'
loop_
 _atom_site_type_symbol
 _atom_site_label
 _atom_site_symmetry_multiplicity
 _atom_site_fract_x
 _atom_site_fract_y
 _atom_site_fract_z
 _atom_site_occupancy
  Re  Re0  1  0.00000000  0.00000000  0.25000000  1
  Re  Re1  1  0.00000000  0.00000000  0.75000000  1
  Re  Re2  1  0.00000000  0.00000000  0.50000000  1
  Re  Re3  1  0.00000000  0.00000000  0.00000000  1
  Re  Re4  1  0.50000000  0.50000000  0.37003200  1
  Re  Re5  1  0.50000000  0.50000000  0.87003200  1
  Re  Re6  1  0.50000000  0.50000000  0.62996800  1
  Re  Re7  1  0.50000000  0.50000000  0.12996800  1
  Re  Re8  1  0.50000000  0.00000000  0.43556200  1
  Re  Re9  1  0.50000000  0.00000000  0.93556200  1
  Re  Re10  1  0.00000000  0.50000000  0.56443800  1
  Re  Re11  1  0.00000000  0.50000000  0.06443800  1
  Re  Re12  1  0.50000000  0.00000000  0.19257700  1
  Re  Re13  1  0.50000000  0.00000000  0.69257700  1
  Re  Re14  1  0.00000000  0.50000000  0.80742300  1
  Re  Re15  1  0.00000000  0.50000000  0.30742300  1
  Ge  Ge16  1  0.76826900  0.34904000  0.46158300  1
  Ge  Ge17  1  0.23173100  0.65096000  0.46158300  1
  Ge  Ge18  1  0.76826900  0.65096000  0.96158300  1
  Ge  Ge19  1  0.23173100  0.34904000  0.96158300  1
  Ge  Ge20  1  0.34904000  0.23173100  0.53841700  1
  Ge  Ge21  1  0.65096000  0.76826900  0.53841700  1
  Ge  Ge22  1  0.65096000  0.23173100  0.03841700  1
  Ge  Ge23  1  0.34904000  0.76826900  0.03841700  1
  Ge  Ge24  1  0.15151700  0.19997700  0.38769300  1
  Ge  Ge25  1  0.84848300  0.80002300  0.38769300  1
  Ge  Ge26  1  0.15151700  0.80002300  0.88769300  1
  Ge  Ge27  1  0.84848300  0.19997700  0.88769300  1
  Ge  Ge28  1  0.19997700  0.84848300  0.61230700  1
  Ge  Ge29  1  0.80002300  0.15151700  0.61230700  1
  Ge  Ge30  1  0.80002300  0.84848300  0.11230700  1
  Ge  Ge31  1  0.19997700  0.15151700  0.11230700  1
  Ge  Ge32  1  0.67800200  0.15540100  0.31770800  1
  Ge  Ge33  1  0.32199800  0.84459900  0.31770800  1
  Ge  Ge34  1  0.67800200  0.84459900  0.81770800  1
  Ge  Ge35  1  0.32199800  0.15540100  0.81770800  1
  Ge  Ge36  1  0.15540100  0.32199800  0.68229200  1
  Ge  Ge37  1  0.84459900  0.67800200  0.68229200  1
  Ge  Ge38  1  0.84459900  0.32199800  0.18229200  1
  Ge  Ge39  1  0.15540100  0.67800200  0.18229200  1
  Ge  Ge40  1  0.33593300  0.33593300  0.25000000  1
  Ge  Ge41  1  0.66406700  0.66406700  0.25000000  1
  Ge  Ge42  1  0.33593300  0.66406700  0.75000000  1
  Ge  Ge43  1  0.66406700  0.33593300  0.75000000  1
