# generated using pymatgen
data_TiC7(NO)12
_symmetry_space_group_name_H-M   'P 1'
_cell_length_a   13.84114000
_cell_length_b   9.56625400
_cell_length_c   10.32177796
_cell_angle_alpha   70.60501669
_cell_angle_beta   90.00000000
_cell_angle_gamma   90.00000000
_symmetry_Int_Tables_number   1
_chemical_formula_structural   TiC7(NO)12
_chemical_formula_sum   'Ti2 C14 N24 O24'
_cell_volume   1289.12756790
_cell_formula_units_Z   2
loop_
 _symmetry_equiv_pos_site_id
 _symmetry_equiv_pos_as_xyz
  1  'x, y, z'
loop_
 _atom_site_type_symbol
 _atom_site_label
 _atom_site_symmetry_multiplicity
 _atom_site_fract_x
 _atom_site_fract_y
 _atom_site_fract_z
 _atom_site_occupancy
  Ti  Ti0  1  0.99740100  0.15917200  0.87385500  1
  Ti  Ti1  1  0.49740100  0.84082800  0.12614500  1
  C  C2  1  0.01466500  0.16257100  0.62413100  1
  C  C3  1  0.51466500  0.83742900  0.37586900  1
  C  C4  1  0.05070100  0.98591800  0.11376100  1
  C  C5  1  0.55070100  0.01408200  0.88623900  1
  C  C6  1  0.10600100  0.39156800  0.85947700  1
  C  C7  1  0.60600100  0.60843200  0.14052300  1
  C  C8  1  0.87742900  0.69024300  0.92407500  1
  C  C9  1  0.37742900  0.30975700  0.07592500  1
  C  C10  1  0.77608500  0.13124600  0.25819900  1
  C  C11  1  0.27608500  0.86875400  0.74180100  1
  C  C12  1  0.09241300  0.50137500  0.22906600  1
  C  C13  1  0.59241300  0.49862500  0.77093400  1
  C  C14  1  0.81014200  0.58014100  0.46093800  1
  C  C15  1  0.31014200  0.41985900  0.53906200  1
  N  N16  1  0.82513500  0.79726400  0.95118800  1
  N  N17  1  0.32513500  0.20273600  0.04881200  1
  N  N18  1  0.85502600  0.54629800  0.98785000  1
  N  N19  1  0.35502600  0.45370200  0.01215000  1
  N  N20  1  0.95188900  0.72711800  0.83342500  1
  N  N21  1  0.45188900  0.27288200  0.16657500  1
  N  N22  1  0.86424200  0.19097900  0.26415200  1
  N  N23  1  0.36424200  0.80902100  0.73584800  1
  N  N24  1  0.74869300  0.10108500  0.14309300  1
  N  N25  1  0.24869300  0.89891500  0.85690700  1
  N  N26  1  0.71510200  0.10027200  0.36694900  1
  N  N27  1  0.21510200  0.89972800  0.63305100  1
  N  N28  1  0.11165200  0.60815200  0.10686700  1
  N  N29  1  0.61165200  0.39184800  0.89313300  1
  N  N30  1  0.10477500  0.35673100  0.24155500  1
  N  N31  1  0.60477500  0.64326900  0.75844500  1
  N  N32  1  0.06140200  0.53928300  0.33765000  1
  N  N33  1  0.56140200  0.46071700  0.66235000  1
  N  N34  1  0.79257400  0.71941100  0.37645700  1
  N  N35  1  0.29257400  0.28058900  0.62354300  1
  N  N36  1  0.77437300  0.46248800  0.43142900  1
  N  N37  1  0.27437300  0.53751200  0.56857100  1
  N  N38  1  0.86427500  0.56108000  0.57498800  1
  N  N39  1  0.36427500  0.43892000  0.42501200  1
  O  O40  1  0.87960800  0.13705000  0.88811700  1
  O  O41  1  0.37960800  0.86295000  0.11188300  1
  O  O42  1  0.99508900  0.28522000  0.64372000  1
  O  O43  1  0.49508900  0.71478000  0.35628000  1
  O  O44  1  0.03374700  0.05018900  0.73110400  1
  O  O45  1  0.53374700  0.94981100  0.26889600  1
  O  O46  1  0.01384200  0.15590000  0.50241200  1
  O  O47  1  0.51384200  0.84410000  0.49758800  1
  O  O48  1  0.02523900  0.11912500  0.10016100  1
  O  O49  1  0.52523900  0.88087500  0.89983900  1
  O  O50  1  0.05619400  0.95288900  0.00253300  1
  O  O51  1  0.55619400  0.04711100  0.99746700  1
  O  O52  1  0.06780900  0.89260600  0.23295800  1
  O  O53  1  0.56780900  0.10739400  0.76704200  1
  O  O54  1  0.01320200  0.37692900  0.87332000  1
  O  O55  1  0.51320200  0.62307100  0.12668000  1
  O  O56  1  0.15488800  0.28100700  0.85034800  1
  O  O57  1  0.65488800  0.71899300  0.14965200  1
  O  O58  1  0.15281900  0.50745900  0.85517900  1
  O  O59  1  0.65281900  0.49254100  0.14482100  1
  O  O60  1  0.76257000  0.15761200  0.64189800  1
  O  O61  1  0.26257000  0.84238800  0.35810200  1
  O  O62  1  0.96431800  0.86036900  0.48267100  1
  O  O63  1  0.46431800  0.13963100  0.51732900  1
