# generated using pymatgen
data_CuH32W6(Cl6O11)2
_symmetry_space_group_name_H-M   'P 1'
_cell_length_a   8.86131600
_cell_length_b   9.61233978
_cell_length_c   13.04827001
_cell_angle_alpha   104.44230982
_cell_angle_beta   103.74905994
_cell_angle_gamma   94.93337582
_symmetry_Int_Tables_number   1
_chemical_formula_structural   CuH32W6(Cl6O11)2
_chemical_formula_sum   'Cu1 H32 W6 Cl12 O22'
_cell_volume   1032.91982001
_cell_formula_units_Z   1
loop_
 _symmetry_equiv_pos_site_id
 _symmetry_equiv_pos_as_xyz
  1  'x, y, z'
loop_
 _atom_site_type_symbol
 _atom_site_label
 _atom_site_symmetry_multiplicity
 _atom_site_fract_x
 _atom_site_fract_y
 _atom_site_fract_z
 _atom_site_occupancy
  Cu  Cu0  1  0.50000000  0.00000000  0.50000000  1
  H  H1  1  0.44351000  0.16921600  0.37056300  1
  H  H2  1  0.55649000  0.83078400  0.62943700  1
  H  H3  1  0.62386600  0.13986900  0.39224000  1
  H  H4  1  0.37613400  0.86013100  0.60776000  1
  H  H5  1  0.19741500  0.94234300  0.39859400  1
  H  H6  1  0.80258500  0.05765700  0.60140600  1
  H  H7  1  0.22358900  0.08466000  0.50340800  1
  H  H8  1  0.77641100  0.91534000  0.49659200  1
  H  H9  1  0.94347900  0.82124400  0.39495100  1
  H  H10  1  0.05652100  0.17875600  0.60504900  1
  H  H11  1  0.79590300  0.71134900  0.36581300  1
  H  H12  1  0.20409700  0.28865100  0.63418700  1
  H  H13  1  0.96915500  0.89420200  0.82997900  1
  H  H14  1  0.03084500  0.10579800  0.17002100  1
  H  H15  1  0.08485600  0.84256900  0.75756500  1
  H  H16  1  0.91514400  0.15743100  0.24243500  1
  H  H17  1  0.67618500  0.67280100  0.72760600  1
  H  H18  1  0.32381500  0.32719900  0.27239400  1
  H  H19  1  0.69370200  0.62944900  0.60618200  1
  H  H20  1  0.30629800  0.37055100  0.39381800  1
  H  H21  1  0.21795600  0.66310400  0.58524800  1
  H  H22  1  0.78204400  0.33689600  0.41475200  1
  H  H23  1  0.10250800  0.77125400  0.56041800  1
  H  H24  1  0.89749200  0.22874600  0.43958200  1
  H  H25  1  0.99953300  0.05637200  0.73470500  1
  H  H26  1  0.00046700  0.94362800  0.26529500  1
  H  H27  1  0.98974300  0.22531600  0.76262500  1
  H  H28  1  0.01025700  0.77468400  0.23737500  1
  H  H29  1  0.77596200  0.58712900  0.45824900  1
  H  H30  1  0.22403800  0.41287100  0.54175100  1
  H  H31  1  0.60640500  0.50210400  0.42583500  1
  H  H32  1  0.39359500  0.49789600  0.57416500  1
  W  W33  1  0.64646100  0.71271000  0.98303500  1
  W  W34  1  0.35353900  0.28729000  0.01696500  1
  W  W35  1  0.53907400  0.38523300  0.82630900  1
  W  W36  1  0.46092600  0.61476700  0.17369100  1
  W  W37  1  0.74914500  0.47192100  0.10648100  1
  W  W38  1  0.25085500  0.52807900  0.89351900  1
  Cl  Cl39  1  0.61748800  0.23221900  0.11267100  1
  Cl  Cl40  1  0.38251200  0.76778100  0.88732900  1
  Cl  Cl41  1  0.58436600  0.85278200  0.15565500  1
  Cl  Cl42  1  0.41563400  0.14721800  0.84434500  1
  Cl  Cl43  1  0.78960000  0.32223700  0.92816800  1
  Cl  Cl44  1  0.21040000  0.67776300  0.07183200  1
  Cl  Cl45  1  0.56977600  0.28935800  0.64604100  1
  Cl  Cl46  1  0.43022400  0.71064200  0.35395900  1
  Cl  Cl47  1  0.78352000  0.91353400  0.95033100  1
  Cl  Cl48  1  0.21648000  0.08646600  0.04966900  1
  Cl  Cl49  1  0.99543100  0.44694900  0.21560000  1
  Cl  Cl50  1  0.00456900  0.55305100  0.78440000  1
  O  O51  1  0.64453300  0.57977300  0.84067000  1
  O  O52  1  0.35546700  0.42022700  0.15933000  1
  O  O53  1  0.67583700  0.57712800  0.23181200  1
  O  O54  1  0.32416300  0.42287200  0.76818800  1
  O  O55  1  0.82388900  0.65056000  0.07393400  1
  O  O56  1  0.17611100  0.34944000  0.92606600  1
  O  O57  1  0.51426500  0.09579800  0.38550400  1
  O  O58  1  0.48573500  0.90420200  0.61449600  1
  O  O59  1  0.26921900  0.99739300  0.47215600  1
  O  O60  1  0.73078100  0.00260700  0.52784400  1
  O  O61  1  0.87181700  0.77827300  0.43179600  1
  O  O62  1  0.12818300  0.22172700  0.56820400  1
  O  O63  1  0.02797800  0.92167700  0.78140500  1
  O  O64  1  0.97202200  0.07832300  0.21859500  1
  O  O65  1  0.65699900  0.70169000  0.65909400  1
  O  O66  1  0.34300100  0.29831000  0.34090600  1
  O  O67  1  0.19821000  0.76370500  0.61322800  1
  O  O68  1  0.80179000  0.23629500  0.38677200  1
  O  O69  1  0.96880700  0.13748600  0.70102200  1
  O  O70  1  0.03119300  0.86251400  0.29897800  1
  O  O71  1  0.71265900  0.50959100  0.47325600  1
  O  O72  1  0.28734100  0.49040900  0.52674400  1
