# generated using pymatgen
data_H6CSN2O
_symmetry_space_group_name_H-M   'P 1'
_cell_length_a   6.04109682
_cell_length_b   8.32702734
_cell_length_c   9.45999300
_cell_angle_alpha   90.00000000
_cell_angle_beta   90.00000000
_cell_angle_gamma   98.70905569
_symmetry_Int_Tables_number   1
_chemical_formula_structural   H6CSN2O
_chemical_formula_sum   'H24 C4 S4 N8 O4'
_cell_volume   470.39216600
_cell_formula_units_Z   4
loop_
 _symmetry_equiv_pos_site_id
 _symmetry_equiv_pos_as_xyz
  1  'x, y, z'
loop_
 _atom_site_type_symbol
 _atom_site_label
 _atom_site_symmetry_multiplicity
 _atom_site_fract_x
 _atom_site_fract_y
 _atom_site_fract_z
 _atom_site_occupancy
  H  H0  1  0.02419200  0.08818500  0.76744400  1
  H  H1  1  0.97580800  0.41181500  0.26744400  1
  H  H2  1  0.97580800  0.91181500  0.23255600  1
  H  H3  1  0.02419200  0.58818500  0.73255600  1
  H  H4  1  0.93687400  0.12012900  0.61455500  1
  H  H5  1  0.06312600  0.37987100  0.11455500  1
  H  H6  1  0.06312600  0.87987100  0.38544500  1
  H  H7  1  0.93687400  0.62012900  0.88544500  1
  H  H8  1  0.77936000  0.81532100  0.62589900  1
  H  H9  1  0.22064000  0.68467900  0.12589900  1
  H  H10  1  0.22064000  0.18467900  0.37410100  1
  H  H11  1  0.77936000  0.31532100  0.87410100  1
  H  H12  1  0.67160400  0.63527400  0.53588500  1
  H  H13  1  0.32839600  0.86472600  0.03588500  1
  H  H14  1  0.32839600  0.36472600  0.46411500  1
  H  H15  1  0.67160400  0.13527400  0.96411500  1
  H  H16  1  0.54911100  0.98105600  0.71396000  1
  H  H17  1  0.45088900  0.51894400  0.21396000  1
  H  H18  1  0.45088900  0.01894400  0.28604000  1
  H  H19  1  0.54911100  0.48105600  0.78604000  1
  H  H20  1  0.26220000  0.95245600  0.66818300  1
  H  H21  1  0.73780000  0.54754400  0.16818300  1
  H  H22  1  0.73780000  0.04754400  0.33181700  1
  H  H23  1  0.26220000  0.45245600  0.83181700  1
  C  C24  1  0.43897300  0.77731700  0.59728500  1
  C  C25  1  0.56102700  0.72268300  0.09728500  1
  C  C26  1  0.56102700  0.22268300  0.40271500  1
  C  C27  1  0.43897300  0.27731700  0.90271500  1
  S  S28  1  0.21327100  0.66120500  0.51895300  1
  S  S29  1  0.78672900  0.83879500  0.01895300  1
  S  S30  1  0.78672900  0.33879500  0.48104700  1
  S  S31  1  0.21327100  0.16120500  0.98104700  1
  N  N32  1  0.64447400  0.73554200  0.59115100  1
  N  N33  1  0.35552600  0.76445800  0.09115100  1
  N  N34  1  0.35552600  0.26445800  0.40884900  1
  N  N35  1  0.64447400  0.23554200  0.90884900  1
  N  N36  1  0.41430600  0.91235500  0.66808000  1
  N  N37  1  0.58569400  0.58764500  0.16808000  1
  N  N38  1  0.58569400  0.08764500  0.33192000  1
  N  N39  1  0.41430600  0.41235500  0.83192000  1
  O  O40  1  0.97351900  0.03352500  0.67753600  1
  O  O41  1  0.02648100  0.46647500  0.17753600  1
  O  O42  1  0.02648100  0.96647500  0.32246400  1
  O  O43  1  0.97351900  0.53352500  0.82246400  1
