# generated using pymatgen
data_Na4Ni(PO4)6
_symmetry_space_group_name_H-M   'P 1'
_cell_length_a   6.89717900
_cell_length_b   7.97472681
_cell_length_c   9.09775451
_cell_angle_alpha   78.33454956
_cell_angle_beta   72.75885905
_cell_angle_gamma   84.52413395
_symmetry_Int_Tables_number   1
_chemical_formula_structural   Na4Ni(PO4)6
_chemical_formula_sum   'Na4 Ni1 P6 O24'
_cell_volume   467.71092511
_cell_formula_units_Z   1
loop_
 _symmetry_equiv_pos_site_id
 _symmetry_equiv_pos_as_xyz
  1  'x, y, z'
loop_
 _atom_site_type_symbol
 _atom_site_label
 _atom_site_symmetry_multiplicity
 _atom_site_fract_x
 _atom_site_fract_y
 _atom_site_fract_z
 _atom_site_occupancy
  Na  Na0  1  0.36476300  0.70921400  0.41731700  1
  Na  Na1  1  0.63523700  0.29078600  0.58268300  1
  Na  Na2  1  0.78439400  0.51125500  0.17834000  1
  Na  Na3  1  0.21560600  0.48874500  0.82166000  1
  Ni  Ni4  1  0.00000000  0.00000000  0.00000000  1
  P  P5  1  0.16453800  0.27986900  0.52132100  1
  P  P6  1  0.83546200  0.72013100  0.47867900  1
  P  P7  1  0.51500900  0.86460200  0.71911500  1
  P  P8  1  0.48499100  0.13539800  0.28088500  1
  P  P9  1  0.27456900  0.45046200  0.19675800  1
  P  P10  1  0.72543100  0.54953800  0.80324200  1
  O  O11  1  0.71379800  0.61494400  0.42082300  1
  O  O12  1  0.28620200  0.38505600  0.57917700  1
  O  O13  1  0.03107700  0.79738900  0.37357500  1
  O  O14  1  0.96892300  0.20261100  0.62642500  1
  O  O15  1  0.31252900  0.12595900  0.44796200  1
  O  O16  1  0.68747100  0.87404100  0.55203800  1
  O  O17  1  0.10848400  0.39053900  0.36728500  1
  O  O18  1  0.89151600  0.60946100  0.63271500  1
  O  O19  1  0.50473600  0.95803000  0.24358600  1
  O  O20  1  0.49526400  0.04197000  0.75641400  1
  O  O21  1  0.67083500  0.21585600  0.29206400  1
  O  O22  1  0.32916500  0.78414400  0.70793600  1
  O  O23  1  0.37884500  0.26335000  0.16311600  1
  O  O24  1  0.62115500  0.73665000  0.83688400  1
  O  O25  1  0.15095300  0.51209300  0.08445700  1
  O  O26  1  0.84904700  0.48790700  0.91554300  1
  O  O27  1  0.43039200  0.55721400  0.21321200  1
  O  O28  1  0.56960800  0.44278600  0.78678800  1
  O  O29  1  0.79895100  0.85448900  0.07477200  1
  O  O30  1  0.20104900  0.14551100  0.92522800  1
  O  O31  1  0.79575800  0.15012500  0.98007500  1
  O  O32  1  0.20424200  0.84987500  0.01992500  1
  O  O33  1  0.97894500  0.06600200  0.21519600  1
  O  O34  1  0.02105500  0.93399800  0.78480400  1
