# generated using pymatgen
data_MnFe2(PO8)2
_symmetry_space_group_name_H-M   'P 1'
_cell_length_a   7.80774000
_cell_length_b   9.53107934
_cell_length_c   10.13651915
_cell_angle_alpha   66.13733505
_cell_angle_beta   84.11033934
_cell_angle_gamma   82.53898853
_symmetry_Int_Tables_number   1
_chemical_formula_structural   MnFe2(PO8)2
_chemical_formula_sum   'Mn2 Fe4 P4 O32'
_cell_volume   682.95544699
_cell_formula_units_Z   2
loop_
 _symmetry_equiv_pos_site_id
 _symmetry_equiv_pos_as_xyz
  1  'x, y, z'
loop_
 _atom_site_type_symbol
 _atom_site_label
 _atom_site_symmetry_multiplicity
 _atom_site_fract_x
 _atom_site_fract_y
 _atom_site_fract_z
 _atom_site_occupancy
  Mn  Mn0  1  0.66069700  0.13615300  0.41173200  1
  Mn  Mn1  1  0.33930300  0.86384700  0.58826800  1
  Fe  Fe2  1  0.86407500  0.70622900  0.27693300  1
  Fe  Fe3  1  0.13592500  0.29377100  0.72306700  1
  Fe  Fe4  1  0.63763700  0.22715400  0.79623300  1
  Fe  Fe5  1  0.36236300  0.77284600  0.20376700  1
  P  P6  1  0.88473300  0.32636300  0.48975600  1
  P  P7  1  0.11526700  0.67363700  0.51024400  1
  P  P8  1  0.60415700  0.03113700  0.15979000  1
  P  P9  1  0.39584300  0.96886300  0.84021000  1
  O  O10  1  0.85626700  0.22248600  0.40528000  1
  O  O11  1  0.14373300  0.77751400  0.59472000  1
  O  O12  1  0.90815300  0.48654300  0.37239400  1
  O  O13  1  0.09184700  0.51345700  0.62760600  1
  O  O14  1  0.72942900  0.32683900  0.59650400  1
  O  O15  1  0.27057100  0.67316100  0.40349600  1
  O  O16  1  0.05149600  0.25350400  0.57066300  1
  O  O17  1  0.94850400  0.74649600  0.42933700  1
  O  O18  1  0.76548500  0.91496100  0.17922500  1
  O  O19  1  0.23451500  0.08503900  0.82077500  1
  O  O20  1  0.58400100  0.13867700  0.00137800  1
  O  O21  1  0.41599900  0.86132300  0.99862200  1
  O  O22  1  0.63227300  0.14367200  0.23371400  1
  O  O23  1  0.36772700  0.85632800  0.76628600  1
  O  O24  1  0.44058200  0.94671000  0.22752800  1
  O  O25  1  0.55941800  0.05329000  0.77247200  1
  O  O26  1  0.59918600  0.64391900  0.24477200  1
  O  O27  1  0.40081400  0.35608100  0.75522800  1
  O  O28  1  0.90488600  0.24847400  0.84741600  1
  O  O29  1  0.09511400  0.75152600  0.15258400  1
  O  O30  1  0.99575000  0.21046100  0.11516200  1
  O  O31  1  0.00425000  0.78953900  0.88483800  1
  O  O32  1  0.49338800  0.75562300  0.54989800  1
  O  O33  1  0.50661200  0.24437700  0.45010200  1
  O  O34  1  0.68804400  0.96254600  0.52764300  1
  O  O35  1  0.31195600  0.03745400  0.47235700  1
  O  O36  1  0.92136400  0.33957000  0.08853300  1
  O  O37  1  0.07863600  0.66043000  0.91146700  1
  O  O38  1  0.79365200  0.37080900  0.83894000  1
  O  O39  1  0.20634800  0.62919100  0.16106000  1
  O  O40  1  0.71593400  0.65908500  0.13603700  1
  O  O41  1  0.28406600  0.34091500  0.86396300  1
