# generated using pymatgen
data_KMoPO7
_symmetry_space_group_name_H-M   'P 1'
_cell_length_a   8.64439900
_cell_length_b   5.91181600
_cell_length_c   12.20059845
_cell_angle_alpha   80.90221662
_cell_angle_beta   90.00000000
_cell_angle_gamma   90.00000000
_symmetry_Int_Tables_number   1
_chemical_formula_structural   KMoPO7
_chemical_formula_sum   'K4 Mo4 P4 O28'
_cell_volume   615.65687422
_cell_formula_units_Z   4
loop_
 _symmetry_equiv_pos_site_id
 _symmetry_equiv_pos_as_xyz
  1  'x, y, z'
loop_
 _atom_site_type_symbol
 _atom_site_label
 _atom_site_symmetry_multiplicity
 _atom_site_fract_x
 _atom_site_fract_y
 _atom_site_fract_z
 _atom_site_occupancy
  K  K0  1  0.61146100  0.17163800  0.32920100  1
  K  K1  1  0.88853900  0.67163800  0.82920100  1
  K  K2  1  0.38853900  0.82836200  0.67079900  1
  K  K3  1  0.11146100  0.32836200  0.17079900  1
  Mo  Mo4  1  0.75734300  0.81215600  0.11047200  1
  Mo  Mo5  1  0.74265700  0.31215600  0.61047200  1
  Mo  Mo6  1  0.24265700  0.18784400  0.88952800  1
  Mo  Mo7  1  0.25734300  0.68784400  0.38952800  1
  P  P8  1  0.86828500  0.64456400  0.37098300  1
  P  P9  1  0.63171500  0.14456400  0.87098300  1
  P  P10  1  0.13171500  0.35543600  0.62901700  1
  P  P11  1  0.36828500  0.85543600  0.12901700  1
  O  O12  1  0.84647100  0.05100100  0.14877400  1
  O  O13  1  0.65352900  0.55100100  0.64877400  1
  O  O14  1  0.15352900  0.94899900  0.85122600  1
  O  O15  1  0.34647100  0.44899900  0.35122600  1
  O  O16  1  0.90765400  0.65185400  0.06744600  1
  O  O17  1  0.59234600  0.15185400  0.56744600  1
  O  O18  1  0.09234600  0.34814600  0.93255400  1
  O  O19  1  0.40765400  0.84814600  0.43255400  1
  O  O20  1  0.81112300  0.43574200  0.45735300  1
  O  O21  1  0.68887700  0.93574200  0.95735300  1
  O  O22  1  0.18887700  0.56425800  0.54264700  1
  O  O23  1  0.31112300  0.06425800  0.04264700  1
  O  O24  1  0.75874900  0.63343500  0.26938500  1
  O  O25  1  0.74125100  0.13343500  0.76938500  1
  O  O26  1  0.24125100  0.36656500  0.73061500  1
  O  O27  1  0.25874900  0.86656500  0.23061500  1
  O  O28  1  0.03449500  0.59293900  0.33698100  1
  O  O29  1  0.46550500  0.09293900  0.83698100  1
  O  O30  1  0.96550500  0.40706100  0.66301900  1
  O  O31  1  0.53449500  0.90706100  0.16301900  1
  O  O32  1  0.85162900  0.87385200  0.41355000  1
  O  O33  1  0.64837100  0.37385200  0.91355000  1
  O  O34  1  0.14837100  0.12614800  0.58645000  1
  O  O35  1  0.35162900  0.62614800  0.08645000  1
  O  O36  1  0.60277700  0.49546600  0.10724500  1
  O  O37  1  0.89722300  0.99546600  0.60724500  1
  O  O38  1  0.39722300  0.50453400  0.89275500  1
  O  O39  1  0.10277700  0.00453400  0.39275500  1
