# generated using pymatgen
data_Cs2Cd3(B4O7)4
_symmetry_space_group_name_H-M   'P 1'
_cell_length_a   11.62192106
_cell_length_b   11.62192106
_cell_length_c   13.59844949
_cell_angle_alpha   89.26564968
_cell_angle_beta   89.26564968
_cell_angle_gamma   39.19504250
_symmetry_Int_Tables_number   1
_chemical_formula_structural   Cs2Cd3(B4O7)4
_chemical_formula_sum   'Cs4 Cd6 B32 O56'
_cell_volume   1160.63637113
_cell_formula_units_Z   2
loop_
 _symmetry_equiv_pos_site_id
 _symmetry_equiv_pos_as_xyz
  1  'x, y, z'
loop_
 _atom_site_type_symbol
 _atom_site_label
 _atom_site_symmetry_multiplicity
 _atom_site_fract_x
 _atom_site_fract_y
 _atom_site_fract_z
 _atom_site_occupancy
  Cs  Cs0  1  0.74132200  0.76162700  0.09243700  1
  Cs  Cs1  1  0.23837300  0.25867800  0.40756300  1
  Cs  Cs2  1  0.25867800  0.23837300  0.90756300  1
  Cs  Cs3  1  0.76162700  0.74132200  0.59243700  1
  Cd  Cd4  1  0.75595800  0.24243300  0.39952800  1
  Cd  Cd5  1  0.75756700  0.24404200  0.10047200  1
  Cd  Cd6  1  0.24404200  0.75756700  0.60047200  1
  Cd  Cd7  1  0.24243300  0.75595800  0.89952800  1
  Cd  Cd8  1  0.74273200  0.25726800  0.75000000  1
  Cd  Cd9  1  0.25726800  0.74273200  0.25000000  1
  B  B10  1  0.82209900  0.00340100  0.91921900  1
  B  B11  1  0.99659900  0.17790100  0.58078100  1
  B  B12  1  0.17790100  0.99659900  0.08078100  1
  B  B13  1  0.00340100  0.82209900  0.41921900  1
  B  B14  1  0.48746600  0.32872800  0.58583400  1
  B  B15  1  0.67127200  0.51253400  0.91416600  1
  B  B16  1  0.51253400  0.67127200  0.41416600  1
  B  B17  1  0.32872800  0.48746600  0.08583400  1
  B  B18  1  0.83003000  0.98074700  0.25738200  1
  B  B19  1  0.01925300  0.16997000  0.24261800  1
  B  B20  1  0.16997000  0.01925300  0.74261800  1
  B  B21  1  0.98074700  0.83003000  0.75738200  1
  B  B22  1  0.65096100  0.48905300  0.57877600  1
  B  B23  1  0.51094700  0.34903900  0.92122400  1
  B  B24  1  0.34903900  0.51094700  0.42122400  1
  B  B25  1  0.48905300  0.65096100  0.07877600  1
  B  B26  1  0.84161300  0.00673600  0.58612000  1
  B  B27  1  0.99326400  0.15838700  0.91388000  1
  B  B28  1  0.15838700  0.99326400  0.41388000  1
  B  B29  1  0.00673600  0.84161300  0.08612000  1
  B  B30  1  0.67649500  0.51209500  0.24975700  1
  B  B31  1  0.48790500  0.32350500  0.25024300  1
  B  B32  1  0.32350500  0.48790500  0.75024300  1
  B  B33  1  0.51209500  0.67649500  0.74975700  1
  B  B34  1  0.70555400  0.67246500  0.34012000  1
  B  B35  1  0.32753500  0.29444600  0.15988000  1
  B  B36  1  0.29444600  0.32753500  0.65988000  1
  B  B37  1  0.67246500  0.70555400  0.84012000  1
  B  B38  1  0.84605000  0.77987500  0.34432700  1
  B  B39  1  0.22012500  0.15395000  0.15567300  1
  B  B40  1  0.15395000  0.22012500  0.65567300  1
  B  B41  1  0.77987500  0.84605000  0.84432700  1
  O  O42  1  0.80709100  0.31616100  0.54239900  1
  O  O43  1  0.68383900  0.19290900  0.95760100  1
  O  O44  1  0.19290900  0.68383900  0.45760100  1
  O  O45  1  0.31616100  0.80709100  0.04239900  1
  O  O46  1  0.82890900  0.32137000  0.87702500  1
  O  O47  1  0.67863000  0.17109100  0.62297500  1
  O  O48  1  0.17109100  0.67863000  0.12297500  1
  O  O49  1  0.32137000  0.82890900  0.37702500  1
  O  O50  1  0.02240000  0.13179800  0.34965200  1
  O  O51  1  0.86820200  0.97760000  0.15034800  1
  O  O52  1  0.97760000  0.86820200  0.65034800  1
  O  O53  1  0.13179800  0.02240000  0.84965200  1
  O  O54  1  0.88999100  0.98636500  0.82122500  1
  O  O55  1  0.01363500  0.11000900  0.67877500  1
  O  O56  1  0.11000900  0.01363500  0.17877500  1
  O  O57  1  0.98636500  0.88999100  0.32122500  1
  O  O58  1  0.48994300  0.37370100  0.48360600  1
  O  O59  1  0.62629900  0.51005700  0.01639400  1
  O  O60  1  0.51005700  0.62629900  0.51639400  1
  O  O61  1  0.37370100  0.48994300  0.98360600  1
  O  O62  1  0.60893300  0.52057500  0.34614200  1
  O  O63  1  0.47942500  0.39106700  0.15385800  1
  O  O64  1  0.39106700  0.47942500  0.65385800  1
  O  O65  1  0.52057500  0.60893300  0.84614200  1
  O  O66  1  0.78840100  0.88872700  0.26602100  1
  O  O67  1  0.11127300  0.21159900  0.23397900  1
  O  O68  1  0.21159900  0.11127300  0.73397900  1
  O  O69  1  0.88872700  0.78840100  0.76602100  1
  O  O70  1  0.87794300  0.98413800  0.48653400  1
  O  O71  1  0.01586200  0.12205700  0.01346600  1
  O  O72  1  0.12205700  0.01586200  0.51346600  1
  O  O73  1  0.98413800  0.87794300  0.98653400  1
  O  O74  1  0.73123800  0.59131800  0.25641700  1
  O  O75  1  0.40868200  0.26876200  0.24358300  1
  O  O76  1  0.26876200  0.40868200  0.74358300  1
  O  O77  1  0.59131800  0.73123800  0.75641700  1
  O  O78  1  0.62974300  0.51557400  0.67895100  1
  O  O79  1  0.48442600  0.37025700  0.82104900  1
  O  O80  1  0.37025700  0.48442600  0.32104900  1
  O  O81  1  0.51557400  0.62974300  0.17895100  1
  O  O82  1  0.74044900  0.95121700  0.91904700  1
  O  O83  1  0.04878300  0.25955100  0.58095300  1
  O  O84  1  0.25955100  0.04878300  0.08095300  1
  O  O85  1  0.95121700  0.74044900  0.41904700  1
  O  O86  1  0.40444400  0.27720800  0.58342500  1
  O  O87  1  0.72279200  0.59555600  0.91657500  1
  O  O88  1  0.59555600  0.72279200  0.41657500  1
  O  O89  1  0.27720800  0.40444400  0.08342500  1
  O  O90  1  0.80235600  0.69857900  0.35300800  1
  O  O91  1  0.30142100  0.19764400  0.14699200  1
  O  O92  1  0.19764400  0.30142100  0.64699200  1
  O  O93  1  0.69857900  0.80235600  0.85300800  1
  O  O94  1  0.67519000  0.17515000  0.28595500  1
  O  O95  1  0.82485000  0.32481000  0.21404500  1
  O  O96  1  0.32481000  0.82485000  0.71404500  1
  O  O97  1  0.17515000  0.67519000  0.78595500  1
