# generated using pymatgen
data_Ba3CCl4O3
_symmetry_space_group_name_H-M   'P 1'
_cell_length_a   8.51362400
_cell_length_b   9.65519900
_cell_length_c   12.58736300
_cell_angle_alpha   90.00000000
_cell_angle_beta   90.00000000
_cell_angle_gamma   90.00000000
_symmetry_Int_Tables_number   1
_chemical_formula_structural   Ba3CCl4O3
_chemical_formula_sum   'Ba12 C4 Cl16 O12'
_cell_volume   1034.69047686
_cell_formula_units_Z   4
loop_
 _symmetry_equiv_pos_site_id
 _symmetry_equiv_pos_as_xyz
  1  'x, y, z'
loop_
 _atom_site_type_symbol
 _atom_site_label
 _atom_site_symmetry_multiplicity
 _atom_site_fract_x
 _atom_site_fract_y
 _atom_site_fract_z
 _atom_site_occupancy
  Ba  Ba0  1  0.45538100  0.75000000  0.53380700  1
  Ba  Ba1  1  0.95538100  0.75000000  0.96619300  1
  Ba  Ba2  1  0.54461900  0.25000000  0.46619300  1
  Ba  Ba3  1  0.04461900  0.25000000  0.03380700  1
  Ba  Ba4  1  0.55200300  0.99135000  0.17994300  1
  Ba  Ba5  1  0.05200300  0.50865000  0.32005700  1
  Ba  Ba6  1  0.44799700  0.49135000  0.82005700  1
  Ba  Ba7  1  0.94799700  0.00865000  0.67994300  1
  Ba  Ba8  1  0.44799700  0.00865000  0.82005700  1
  Ba  Ba9  1  0.94799700  0.49135000  0.67994300  1
  Ba  Ba10  1  0.55200300  0.50865000  0.17994300  1
  Ba  Ba11  1  0.05200300  0.99135000  0.32005700  1
  C  C12  1  0.22125900  0.75000000  0.78733100  1
  C  C13  1  0.72125900  0.75000000  0.71266900  1
  C  C14  1  0.77874100  0.25000000  0.21266900  1
  C  C15  1  0.27874100  0.25000000  0.28733100  1
  Cl  Cl16  1  0.54611400  0.75000000  0.98619900  1
  Cl  Cl17  1  0.04611400  0.75000000  0.51380100  1
  Cl  Cl18  1  0.45388600  0.25000000  0.01380100  1
  Cl  Cl19  1  0.95388600  0.25000000  0.48619900  1
  Cl  Cl20  1  0.33944500  0.75000000  0.29502500  1
  Cl  Cl21  1  0.83944500  0.75000000  0.20497500  1
  Cl  Cl22  1  0.66055500  0.25000000  0.70497500  1
  Cl  Cl23  1  0.16055500  0.25000000  0.79502500  1
  Cl  Cl24  1  0.69772100  0.54081800  0.42276800  1
  Cl  Cl25  1  0.19772100  0.95918200  0.07723200  1
  Cl  Cl26  1  0.30227900  0.04081800  0.57723200  1
  Cl  Cl27  1  0.80227900  0.45918200  0.92276800  1
  Cl  Cl28  1  0.30227900  0.45918200  0.57723200  1
  Cl  Cl29  1  0.80227900  0.04081800  0.92276800  1
  Cl  Cl30  1  0.69772100  0.95918200  0.42276800  1
  Cl  Cl31  1  0.19772100  0.54081800  0.07723200  1
  O  O32  1  0.15639100  0.63244200  0.81263600  1
  O  O33  1  0.65639100  0.86755800  0.68736400  1
  O  O34  1  0.84360900  0.13244200  0.18736400  1
  O  O35  1  0.34360900  0.36755800  0.31263600  1
  O  O36  1  0.84360900  0.36755800  0.18736400  1
  O  O37  1  0.34360900  0.13244200  0.31263600  1
  O  O38  1  0.15639100  0.86755800  0.81263600  1
  O  O39  1  0.65639100  0.63244200  0.68736400  1
  O  O40  1  0.35803500  0.75000000  0.74173800  1
  O  O41  1  0.85803500  0.75000000  0.75826200  1
  O  O42  1  0.64196500  0.25000000  0.25826200  1
  O  O43  1  0.14196500  0.25000000  0.24173800  1
