# generated using pymatgen
data_Eu2Ni17
_symmetry_space_group_name_H-M   'P 1'
_cell_length_a   8.15378600
_cell_length_b   8.36285920
_cell_length_c   8.36285920
_cell_angle_alpha   120.20045490
_cell_angle_beta   90.00000000
_cell_angle_gamma   90.00000000
_symmetry_Int_Tables_number   1
_chemical_formula_structural   Eu2Ni17
_chemical_formula_sum   'Eu4 Ni34'
_cell_volume   492.85449644
_cell_formula_units_Z   2
loop_
 _symmetry_equiv_pos_site_id
 _symmetry_equiv_pos_as_xyz
  1  'x, y, z'
loop_
 _atom_site_type_symbol
 _atom_site_label
 _atom_site_symmetry_multiplicity
 _atom_site_fract_x
 _atom_site_fract_y
 _atom_site_fract_z
 _atom_site_occupancy
  Eu  Eu0  1  0.75000000  0.00056100  0.99943900  1
  Eu  Eu1  1  0.25000000  0.99943900  0.00056100  1
  Eu  Eu2  1  0.25000000  0.66687600  0.33312400  1
  Eu  Eu3  1  0.75000000  0.33312400  0.66687600  1
  Ni  Ni4  1  0.60568100  0.66629500  0.33370500  1
  Ni  Ni5  1  0.39431900  0.33370500  0.66629500  1
  Ni  Ni6  1  0.10568100  0.33370500  0.66629500  1
  Ni  Ni7  1  0.89431900  0.66629500  0.33370500  1
  Ni  Ni8  1  0.50000000  0.50000000  0.00000000  1
  Ni  Ni9  1  0.50000000  0.50000000  0.50000000  1
  Ni  Ni10  1  0.50000000  0.00000000  0.50000000  1
  Ni  Ni11  1  0.00000000  0.50000000  0.00000000  1
  Ni  Ni12  1  0.00000000  0.50000000  0.50000000  1
  Ni  Ni13  1  0.00000000  0.00000000  0.50000000  1
  Ni  Ni14  1  0.75000000  0.66934800  0.04266100  1
  Ni  Ni15  1  0.75000000  0.37354800  0.33090500  1
  Ni  Ni16  1  0.75000000  0.95813900  0.62703100  1
  Ni  Ni17  1  0.75000000  0.37296900  0.04186100  1
  Ni  Ni18  1  0.75000000  0.95733900  0.33065200  1
  Ni  Ni19  1  0.75000000  0.66909500  0.62645200  1
  Ni  Ni20  1  0.25000000  0.33065200  0.95733900  1
  Ni  Ni21  1  0.25000000  0.62645200  0.66909500  1
  Ni  Ni22  1  0.25000000  0.04186100  0.37296900  1
  Ni  Ni23  1  0.25000000  0.62703100  0.95813900  1
  Ni  Ni24  1  0.25000000  0.04266100  0.66934800  1
  Ni  Ni25  1  0.25000000  0.33090500  0.37354800  1
  Ni  Ni26  1  0.48717800  0.83233500  0.66483700  1
  Ni  Ni27  1  0.48771100  0.83252800  0.16747200  1
  Ni  Ni28  1  0.48717800  0.33516300  0.16766500  1
  Ni  Ni29  1  0.51282200  0.16766500  0.33516300  1
  Ni  Ni30  1  0.51228900  0.16747200  0.83252800  1
  Ni  Ni31  1  0.51282200  0.66483700  0.83233500  1
  Ni  Ni32  1  0.98717800  0.16766500  0.33516300  1
  Ni  Ni33  1  0.98771100  0.16747200  0.83252800  1
  Ni  Ni34  1  0.98717800  0.66483700  0.83233500  1
  Ni  Ni35  1  0.01282200  0.83233500  0.66483700  1
  Ni  Ni36  1  0.01228900  0.83252800  0.16747200  1
  Ni  Ni37  1  0.01282200  0.33516300  0.16766500  1
