# generated using pymatgen
data_Rb2CuC2O7
_symmetry_space_group_name_H-M   'P 1'
_cell_length_a   14.97562900
_cell_length_b   6.66299400
_cell_length_c   7.97428745
_cell_angle_alpha   87.87178276
_cell_angle_beta   90.00000000
_cell_angle_gamma   90.00000000
_symmetry_Int_Tables_number   1
_chemical_formula_structural   Rb2CuC2O7
_chemical_formula_sum   'Rb8 Cu4 C8 O28'
_cell_volume   795.14569740
_cell_formula_units_Z   4
loop_
 _symmetry_equiv_pos_site_id
 _symmetry_equiv_pos_as_xyz
  1  'x, y, z'
loop_
 _atom_site_type_symbol
 _atom_site_label
 _atom_site_symmetry_multiplicity
 _atom_site_fract_x
 _atom_site_fract_y
 _atom_site_fract_z
 _atom_site_occupancy
  Rb  Rb0  1  0.39561400  0.73358900  0.91713900  1
  Rb  Rb1  1  0.89561400  0.76641100  0.08286100  1
  Rb  Rb2  1  0.60438600  0.26641100  0.08286100  1
  Rb  Rb3  1  0.10438600  0.23358900  0.91713900  1
  Rb  Rb4  1  0.39951900  0.24469600  0.59180400  1
  Rb  Rb5  1  0.89951900  0.25530400  0.40819600  1
  Rb  Rb6  1  0.60048100  0.75530400  0.40819600  1
  Rb  Rb7  1  0.10048100  0.74469600  0.59180400  1
  Cu  Cu8  1  0.76462400  0.57148600  0.75176000  1
  Cu  Cu9  1  0.26462400  0.92851400  0.24824000  1
  Cu  Cu10  1  0.23537600  0.42851400  0.24824000  1
  Cu  Cu11  1  0.73537600  0.07148600  0.75176000  1
  C  C12  1  0.86150200  0.73746900  0.55411100  1
  C  C13  1  0.36150200  0.76253100  0.44588900  1
  C  C14  1  0.13849800  0.26253100  0.44588900  1
  C  C15  1  0.63849800  0.23746900  0.55411100  1
  C  C16  1  0.85626000  0.26346500  0.93995000  1
  C  C17  1  0.35626000  0.23653500  0.06005000  1
  C  C18  1  0.14374000  0.73653500  0.06005000  1
  C  C19  1  0.64374000  0.76346500  0.93995000  1
  O  O20  1  0.25592300  0.96915200  0.74411400  1
  O  O21  1  0.75592300  0.53084800  0.25588600  1
  O  O22  1  0.74407700  0.03084800  0.25588600  1
  O  O23  1  0.24407700  0.46915200  0.74411400  1
  O  O24  1  0.08547200  0.18038100  0.54740500  1
  O  O25  1  0.58547200  0.31961900  0.45259500  1
  O  O26  1  0.91452800  0.81961900  0.45259500  1
  O  O27  1  0.41452800  0.68038100  0.54740500  1
  O  O28  1  0.88383500  0.58425500  0.65721600  1
  O  O29  1  0.38383500  0.91574500  0.34278400  1
  O  O30  1  0.11616500  0.41574500  0.34278400  1
  O  O31  1  0.61616500  0.08425500  0.65721600  1
  O  O32  1  0.77692700  0.78881400  0.57636500  1
  O  O33  1  0.27692700  0.71118600  0.42363500  1
  O  O34  1  0.22307300  0.21118600  0.42363500  1
  O  O35  1  0.72307300  0.28881400  0.57636500  1
  O  O36  1  0.78797600  0.38916300  0.94264600  1
  O  O37  1  0.28797600  0.11083700  0.05735400  1
  O  O38  1  0.21202400  0.61083700  0.05735400  1
  O  O39  1  0.71202400  0.88916300  0.94264600  1
  O  O40  1  0.85403800  0.11858700  0.83117700  1
  O  O41  1  0.35403800  0.38141300  0.16882300  1
  O  O42  1  0.14596200  0.88141300  0.16882300  1
  O  O43  1  0.64596200  0.61858700  0.83117700  1
  O  O44  1  0.42129500  0.22258200  0.96119800  1
  O  O45  1  0.92129500  0.27741800  0.03880200  1
  O  O46  1  0.57870500  0.77741800  0.03880200  1
  O  O47  1  0.07870500  0.72258200  0.96119800  1
