# generated using pymatgen
data_U2Ni(PO11)2
_symmetry_space_group_name_H-M   'P 1'
_cell_length_a   18.78057500
_cell_length_b   6.99234000
_cell_length_c   9.68247023
_cell_angle_alpha   46.27038248
_cell_angle_beta   90.00000000
_cell_angle_gamma   90.00000000
_symmetry_Int_Tables_number   1
_chemical_formula_structural   U2Ni(PO11)2
_chemical_formula_sum   'U4 Ni2 P4 O44'
_cell_volume   918.80110669
_cell_formula_units_Z   2
loop_
 _symmetry_equiv_pos_site_id
 _symmetry_equiv_pos_as_xyz
  1  'x, y, z'
loop_
 _atom_site_type_symbol
 _atom_site_label
 _atom_site_symmetry_multiplicity
 _atom_site_fract_x
 _atom_site_fract_y
 _atom_site_fract_z
 _atom_site_occupancy
  U  U0  1  0.69729400  0.58387000  0.44351300  1
  U  U1  1  0.80270600  0.58387000  0.94351300  1
  U  U2  1  0.30270600  0.41613000  0.55648700  1
  U  U3  1  0.19729400  0.41613000  0.05648700  1
  Ni  Ni4  1  0.50000000  0.00000000  0.50000000  1
  Ni  Ni5  1  0.00000000  0.00000000  0.00000000  1
  P  P6  1  0.74905600  0.08275000  0.94511800  1
  P  P7  1  0.75094400  0.08275000  0.44511800  1
  P  P8  1  0.25094400  0.91725000  0.05488200  1
  P  P9  1  0.24905600  0.91725000  0.55488200  1
  O  O10  1  0.69908000  0.92809200  0.11937800  1
  O  O11  1  0.80092000  0.92809200  0.61937800  1
  O  O12  1  0.30092000  0.07190800  0.88062200  1
  O  O13  1  0.19908000  0.07190800  0.38062200  1
  O  O14  1  0.70364900  0.88715700  0.46138200  1
  O  O15  1  0.79635100  0.88715700  0.96138200  1
  O  O16  1  0.29635100  0.11284300  0.53861800  1
  O  O17  1  0.20364900  0.11284300  0.03861800  1
  O  O18  1  0.70148500  0.27110000  0.43319200  1
  O  O19  1  0.79851500  0.27110000  0.93319200  1
  O  O20  1  0.29851500  0.72890000  0.56680800  1
  O  O21  1  0.20148500  0.72890000  0.06680800  1
  O  O22  1  0.60078500  0.61634700  0.42346400  1
  O  O23  1  0.89921500  0.61634700  0.92346400  1
  O  O24  1  0.39921500  0.38365300  0.57653600  1
  O  O25  1  0.10078500  0.38365300  0.07653600  1
  O  O26  1  0.79371400  0.57570700  0.44648900  1
  O  O27  1  0.70628600  0.57570700  0.94648900  1
  O  O28  1  0.20628600  0.42429300  0.55351100  1
  O  O29  1  0.29371400  0.42429300  0.05351100  1
  O  O30  1  0.70188200  0.24732600  0.76296000  1
  O  O31  1  0.79811800  0.24732600  0.26296000  1
  O  O32  1  0.29811800  0.75267400  0.23704000  1
  O  O33  1  0.20188200  0.75267400  0.73704000  1
  O  O34  1  0.54854800  0.28514800  0.29277100  1
  O  O35  1  0.95145200  0.28514800  0.79277100  1
  O  O36  1  0.45145200  0.71485200  0.70722900  1
  O  O37  1  0.04854800  0.71485200  0.20722900  1
  O  O38  1  0.53640000  0.09730800  0.66843700  1
  O  O39  1  0.96360000  0.09730800  0.16843700  1
  O  O40  1  0.46360000  0.90269200  0.33156300  1
  O  O41  1  0.03640000  0.90269200  0.83156300  1
  O  O42  1  0.95672300  0.17289200  0.60147400  1
  O  O43  1  0.54327700  0.17289200  0.10147400  1
  O  O44  1  0.04327700  0.82710800  0.39852600  1
  O  O45  1  0.45672300  0.82710800  0.89852600  1
  O  O46  1  0.98669400  0.96309000  0.34267200  1
  O  O47  1  0.51330600  0.96309000  0.84267200  1
  O  O48  1  0.01330600  0.03691000  0.65732800  1
  O  O49  1  0.48669400  0.03691000  0.15732800  1
  O  O50  1  0.56118600  0.73278000  0.66648000  1
  O  O51  1  0.93881400  0.73278000  0.16648000  1
  O  O52  1  0.43881400  0.26722000  0.33352000  1
  O  O53  1  0.06118600  0.26722000  0.83352000  1
