# generated using pymatgen
data_K2ZrSi3O10
_symmetry_space_group_name_H-M   'P 1'
_cell_length_a   11.86530500
_cell_length_b   6.67879000
_cell_length_c   13.37149652
_cell_angle_alpha   74.58652696
_cell_angle_beta   90.00000000
_cell_angle_gamma   90.00000000
_symmetry_Int_Tables_number   1
_chemical_formula_structural   K2ZrSi3O10
_chemical_formula_sum   'K8 Zr4 Si12 O40'
_cell_volume   1021.52401354
_cell_formula_units_Z   4
loop_
 _symmetry_equiv_pos_site_id
 _symmetry_equiv_pos_as_xyz
  1  'x, y, z'
loop_
 _atom_site_type_symbol
 _atom_site_label
 _atom_site_symmetry_multiplicity
 _atom_site_fract_x
 _atom_site_fract_y
 _atom_site_fract_z
 _atom_site_occupancy
  K  K0  1  0.95062800  0.17769600  0.59454900  1
  K  K1  1  0.45062800  0.82230400  0.90545100  1
  K  K2  1  0.04937200  0.82230400  0.40545100  1
  K  K3  1  0.54937200  0.17769600  0.09454900  1
  K  K4  1  0.61412300  0.32511600  0.37671300  1
  K  K5  1  0.11412300  0.67488400  0.12328700  1
  K  K6  1  0.38587700  0.67488400  0.62328700  1
  K  K7  1  0.88587700  0.32511600  0.87671300  1
  Zr  Zr8  1  0.71357500  0.87144300  0.72136200  1
  Zr  Zr9  1  0.21357500  0.12855700  0.77863800  1
  Zr  Zr10  1  0.28642500  0.12855700  0.27863800  1
  Zr  Zr11  1  0.78642500  0.87144300  0.22136200  1
  Si  Si12  1  0.47184700  0.16037100  0.65428100  1
  Si  Si13  1  0.97184700  0.83962900  0.84571900  1
  Si  Si14  1  0.52815300  0.83962900  0.34571900  1
  Si  Si15  1  0.02815300  0.16037100  0.15428100  1
  Si  Si16  1  0.68581300  0.40754000  0.65166300  1
  Si  Si17  1  0.18581300  0.59246000  0.84833700  1
  Si  Si18  1  0.31418700  0.59246000  0.34833700  1
  Si  Si19  1  0.81418700  0.40754000  0.15166300  1
  Si  Si20  1  0.26249200  0.21176800  0.51698300  1
  Si  Si21  1  0.76249200  0.78823200  0.98301700  1
  Si  Si22  1  0.73750800  0.78823200  0.48301700  1
  Si  Si23  1  0.23750800  0.21176800  0.01698300  1
  O  O24  1  0.75239200  0.19234000  0.70072600  1
  O  O25  1  0.25239200  0.80766000  0.79927400  1
  O  O26  1  0.24760800  0.80766000  0.29927400  1
  O  O27  1  0.74760800  0.19234000  0.20072600  1
  O  O28  1  0.54261400  0.94603800  0.69252100  1
  O  O29  1  0.04261400  0.05396200  0.80747900  1
  O  O30  1  0.45738600  0.05396200  0.30747900  1
  O  O31  1  0.95738600  0.94603800  0.19252100  1
  O  O32  1  0.68045200  0.55863200  0.72921000  1
  O  O33  1  0.18045200  0.44136800  0.77079000  1
  O  O34  1  0.31954800  0.44136800  0.27079000  1
  O  O35  1  0.81954800  0.55863200  0.22921000  1
  O  O36  1  0.68371000  0.83256800  0.88054200  1
  O  O37  1  0.18371000  0.16743200  0.61945800  1
  O  O38  1  0.31629000  0.16743200  0.11945800  1
  O  O39  1  0.81629000  0.83256800  0.38054200  1
  O  O40  1  0.88728400  0.79984000  0.75694700  1
  O  O41  1  0.38728400  0.20016000  0.74305300  1
  O  O42  1  0.11271600  0.20016000  0.24305300  1
  O  O43  1  0.61271600  0.79984000  0.25694700  1
  O  O44  1  0.76720200  0.92113300  0.56475300  1
  O  O45  1  0.26720200  0.07886700  0.93524700  1
  O  O46  1  0.23279800  0.07886700  0.43524700  1
  O  O47  1  0.73279800  0.92113300  0.06475300  1
  O  O48  1  0.55629300  0.36198900  0.61644000  1
  O  O49  1  0.05629300  0.63801100  0.88356000  1
  O  O50  1  0.44370700  0.63801100  0.38356000  1
  O  O51  1  0.94370700  0.36198900  0.11644000  1
  O  O52  1  0.39593700  0.15234000  0.55179400  1
  O  O53  1  0.89593700  0.84766000  0.94820600  1
  O  O54  1  0.60406300  0.84766000  0.44820600  1
  O  O55  1  0.10406300  0.15234000  0.05179400  1
  O  O56  1  0.74583500  0.53401400  0.54024500  1
  O  O57  1  0.24583500  0.46598600  0.95975500  1
  O  O58  1  0.25416500  0.46598600  0.45975500  1
  O  O59  1  0.75416500  0.53401400  0.04024500  1
  O  O60  1  0.00603100  0.60162600  0.64486800  1
  O  O61  1  0.50603100  0.39837400  0.85513200  1
  O  O62  1  0.99396900  0.39837400  0.35513200  1
  O  O63  1  0.49396900  0.60162600  0.14486800  1
