# generated using pymatgen
data_Th6Al43Mo4
_symmetry_space_group_name_H-M   'P 1'
_cell_length_a   11.12197981
_cell_length_b   11.12197981
_cell_length_c   17.96687800
_cell_angle_alpha   90.00000000
_cell_angle_beta   90.00000000
_cell_angle_gamma   119.99999886
_symmetry_Int_Tables_number   1
_chemical_formula_structural   Th6Al43Mo4
_chemical_formula_sum   'Th12 Al86 Mo8'
_cell_volume   1924.71956126
_cell_formula_units_Z   2
loop_
 _symmetry_equiv_pos_site_id
 _symmetry_equiv_pos_as_xyz
  1  'x, y, z'
loop_
 _atom_site_type_symbol
 _atom_site_label
 _atom_site_symmetry_multiplicity
 _atom_site_fract_x
 _atom_site_fract_y
 _atom_site_fract_z
 _atom_site_occupancy
  Th  Th0  1  0.47195600  0.47195600  0.90462300  1
  Th  Th1  1  0.52804400  0.00000000  0.90462300  1
  Th  Th2  1  0.00000000  0.52804400  0.90462300  1
  Th  Th3  1  0.52804400  0.52804400  0.09537700  1
  Th  Th4  1  0.47195600  0.00000000  0.09537700  1
  Th  Th5  1  0.00000000  0.47195600  0.09537700  1
  Th  Th6  1  0.52804400  0.52804400  0.40462300  1
  Th  Th7  1  0.47195600  0.00000000  0.40462300  1
  Th  Th8  1  0.00000000  0.47195600  0.40462300  1
  Th  Th9  1  0.47195600  0.47195600  0.59537700  1
  Th  Th10  1  0.52804400  0.00000000  0.59537700  1
  Th  Th11  1  0.00000000  0.52804400  0.59537700  1
  Al  Al12  1  0.84071300  0.23363500  0.83433500  1
  Al  Al13  1  0.76636500  0.60707700  0.83433500  1
  Al  Al14  1  0.39292300  0.15928700  0.83433500  1
  Al  Al15  1  0.23363500  0.84071300  0.83433500  1
  Al  Al16  1  0.60707700  0.76636500  0.83433500  1
  Al  Al17  1  0.15928700  0.39292300  0.83433500  1
  Al  Al18  1  0.15928700  0.76636500  0.16566500  1
  Al  Al19  1  0.23363500  0.39292300  0.16566500  1
  Al  Al20  1  0.60707700  0.84071300  0.16566500  1
  Al  Al21  1  0.76636500  0.15928700  0.16566500  1
  Al  Al22  1  0.39292300  0.23363500  0.16566500  1
  Al  Al23  1  0.84071300  0.60707700  0.16566500  1
  Al  Al24  1  0.15928700  0.76636500  0.33433500  1
  Al  Al25  1  0.23363500  0.39292300  0.33433500  1
  Al  Al26  1  0.60707700  0.84071300  0.33433500  1
  Al  Al27  1  0.76636500  0.15928700  0.33433500  1
  Al  Al28  1  0.39292300  0.23363500  0.33433500  1
  Al  Al29  1  0.84071300  0.60707700  0.33433500  1
  Al  Al30  1  0.84071300  0.23363500  0.66566500  1
  Al  Al31  1  0.76636500  0.60707700  0.66566500  1
  Al  Al32  1  0.39292300  0.15928700  0.66566500  1
  Al  Al33  1  0.23363500  0.84071300  0.66566500  1
  Al  Al34  1  0.60707700  0.76636500  0.66566500  1
  Al  Al35  1  0.15928700  0.39292300  0.66566500  1
  Al  Al36  1  0.84174200  0.84174200  0.38512800  1
  Al  Al37  1  0.15825800  0.00000000  0.38512800  1
  Al  Al38  1  0.00000000  0.15825800  0.38512800  1
  Al  Al39  1  0.15825800  0.15825800  0.61487200  1
  Al  Al40  1  0.84174200  0.00000000  0.61487200  1
  Al  Al41  1  0.00000000  0.84174200  0.61487200  1
  Al  Al42  1  0.15825800  0.15825800  0.88512800  1
  Al  Al43  1  0.84174200  0.00000000  0.88512800  1
  Al  Al44  1  0.00000000  0.84174200  0.88512800  1
  Al  Al45  1  0.84174200  0.84174200  0.11487200  1
  Al  Al46  1  0.15825800  0.00000000  0.11487200  1
  Al  Al47  1  0.00000000  0.15825800  0.11487200  1
  Al  Al48  1  0.74878500  0.74878500  0.96890200  1
  Al  Al49  1  0.25121500  0.00000000  0.96890200  1
  Al  Al50  1  0.00000000  0.25121500  0.96890200  1
  Al  Al51  1  0.25121500  0.25121500  0.03109800  1
  Al  Al52  1  0.74878500  0.00000000  0.03109800  1
  Al  Al53  1  0.00000000  0.74878500  0.03109800  1
  Al  Al54  1  0.25121500  0.25121500  0.46890200  1
  Al  Al55  1  0.74878500  0.00000000  0.46890200  1
  Al  Al56  1  0.00000000  0.74878500  0.46890200  1
  Al  Al57  1  0.74878500  0.74878500  0.53109800  1
  Al  Al58  1  0.25121500  0.00000000  0.53109800  1
  Al  Al59  1  0.00000000  0.25121500  0.53109800  1
  Al  Al60  1  0.85173300  0.44713800  0.75000000  1
  Al  Al61  1  0.55286200  0.40459500  0.75000000  1
  Al  Al62  1  0.59540500  0.14826700  0.75000000  1
  Al  Al63  1  0.44713800  0.85173300  0.75000000  1
  Al  Al64  1  0.40459500  0.55286200  0.75000000  1
  Al  Al65  1  0.14826700  0.59540500  0.75000000  1
  Al  Al66  1  0.14826700  0.55286200  0.25000000  1
  Al  Al67  1  0.44713800  0.59540500  0.25000000  1
  Al  Al68  1  0.40459500  0.85173300  0.25000000  1
  Al  Al69  1  0.55286200  0.14826700  0.25000000  1
  Al  Al70  1  0.59540500  0.44713800  0.25000000  1
  Al  Al71  1  0.85173300  0.40459500  0.25000000  1
  Al  Al72  1  0.75322600  0.24677400  0.00000000  1
  Al  Al73  1  0.75322600  0.50645300  0.00000000  1
  Al  Al74  1  0.49354700  0.24677400  0.00000000  1
  Al  Al75  1  0.24677400  0.75322600  0.00000000  1
  Al  Al76  1  0.50645300  0.75322600  0.00000000  1
  Al  Al77  1  0.24677400  0.49354700  0.00000000  1
  Al  Al78  1  0.24677400  0.75322600  0.50000000  1
  Al  Al79  1  0.24677400  0.49354700  0.50000000  1
  Al  Al80  1  0.50645300  0.75322600  0.50000000  1
  Al  Al81  1  0.75322600  0.24677400  0.50000000  1
  Al  Al82  1  0.49354700  0.24677400  0.50000000  1
  Al  Al83  1  0.75322600  0.50645300  0.50000000  1
  Al  Al84  1  0.66666700  0.33333300  0.87213000  1
  Al  Al85  1  0.33333300  0.66666700  0.87213000  1
  Al  Al86  1  0.33333300  0.66666700  0.12787000  1
  Al  Al87  1  0.66666700  0.33333300  0.12787000  1
  Al  Al88  1  0.33333300  0.66666700  0.37213000  1
  Al  Al89  1  0.66666700  0.33333300  0.37213000  1
  Al  Al90  1  0.66666700  0.33333300  0.62787000  1
  Al  Al91  1  0.33333300  0.66666700  0.62787000  1
  Al  Al92  1  0.85353900  0.85353900  0.75000000  1
  Al  Al93  1  0.14646100  0.00000000  0.75000000  1
  Al  Al94  1  0.00000000  0.14646100  0.75000000  1
  Al  Al95  1  0.14646100  0.14646100  0.25000000  1
  Al  Al96  1  0.85353900  0.00000000  0.25000000  1
  Al  Al97  1  0.00000000  0.85353900  0.25000000  1
  Mo  Mo98  1  0.26853300  0.26853300  0.75000000  1
  Mo  Mo99  1  0.73146700  0.00000000  0.75000000  1
  Mo  Mo100  1  0.00000000  0.73146700  0.75000000  1
  Mo  Mo101  1  0.73146700  0.73146700  0.25000000  1
  Mo  Mo102  1  0.26853300  0.00000000  0.25000000  1
  Mo  Mo103  1  0.00000000  0.26853300  0.25000000  1
  Mo  Mo104  1  0.00000000  0.00000000  0.00000000  1
  Mo  Mo105  1  0.00000000  0.00000000  0.50000000  1
