# generated using pymatgen
data_La2(SeO8)3
_symmetry_space_group_name_H-M   'P 1'
_cell_length_a   11.29496305
_cell_length_b   11.29496305
_cell_length_c   10.88198055
_cell_angle_alpha   76.49010528
_cell_angle_beta   76.49010528
_cell_angle_gamma   122.12458725
_symmetry_Int_Tables_number   1
_chemical_formula_structural   La2(SeO8)3
_chemical_formula_sum   'La4 Se6 O48'
_cell_volume   1029.61162947
_cell_formula_units_Z   2
loop_
 _symmetry_equiv_pos_site_id
 _symmetry_equiv_pos_as_xyz
  1  'x, y, z'
loop_
 _atom_site_type_symbol
 _atom_site_label
 _atom_site_symmetry_multiplicity
 _atom_site_fract_x
 _atom_site_fract_y
 _atom_site_fract_z
 _atom_site_occupancy
  La  La0  1  0.91102400  0.77001900  0.60362000  1
  La  La1  1  0.22998100  0.08897600  0.89638000  1
  La  La2  1  0.08897600  0.22998100  0.39638000  1
  La  La3  1  0.77001900  0.91102400  0.10362000  1
  Se  Se4  1  0.07211500  0.92788500  0.25000000  1
  Se  Se5  1  0.92788500  0.07211500  0.75000000  1
  Se  Se6  1  0.89208600  0.68014800  0.98075000  1
  Se  Se7  1  0.31985200  0.10791400  0.51925000  1
  Se  Se8  1  0.10791400  0.31985200  0.01925000  1
  Se  Se9  1  0.68014800  0.89208600  0.48075000  1
  O  O10  1  0.98614900  0.75240300  0.37228000  1
  O  O11  1  0.24759700  0.01385100  0.12772000  1
  O  O12  1  0.01385100  0.24759700  0.62772000  1
  O  O13  1  0.75240300  0.98614900  0.87228000  1
  O  O14  1  0.92918500  0.97384600  0.65433900  1
  O  O15  1  0.02615400  0.07081500  0.84566100  1
  O  O16  1  0.07081500  0.02615400  0.34566100  1
  O  O17  1  0.97384600  0.92918500  0.15433900  1
  O  O18  1  0.81540200  0.50141800  0.08627700  1
  O  O19  1  0.49858200  0.18459800  0.41372300  1
  O  O20  1  0.18459800  0.49858200  0.91372300  1
  O  O21  1  0.50141800  0.81540200  0.58627700  1
  O  O22  1  0.91660300  0.69481600  0.81773500  1
  O  O23  1  0.30518400  0.08339700  0.68226500  1
  O  O24  1  0.08339700  0.30518400  0.18226500  1
  O  O25  1  0.69481600  0.91660300  0.31773500  1
  O  O26  1  0.72817200  0.77629200  0.53005100  1
  O  O27  1  0.22370800  0.27182800  0.96994900  1
  O  O28  1  0.27182800  0.22370800  0.46994900  1
  O  O29  1  0.77629200  0.72817200  0.03005100  1
  O  O30  1  0.18630400  0.93303600  0.52997900  1
  O  O31  1  0.06696400  0.81369600  0.97002100  1
  O  O32  1  0.81369600  0.06696400  0.47002100  1
  O  O33  1  0.93303600  0.18630400  0.02997900  1
  O  O34  1  0.54344300  0.35124700  0.69510800  1
  O  O35  1  0.64875300  0.45655700  0.80489200  1
  O  O36  1  0.45655700  0.64875300  0.30489200  1
  O  O37  1  0.35124700  0.54344300  0.19510800  1
  O  O38  1  0.05143500  0.58045000  0.60506900  1
  O  O39  1  0.41955000  0.94856500  0.89493100  1
  O  O40  1  0.94856500  0.41955000  0.39493100  1
  O  O41  1  0.58045000  0.05143500  0.10506900  1
  O  O42  1  0.59683600  0.53188100  0.80540300  1
  O  O43  1  0.46811900  0.40316400  0.69459700  1
  O  O44  1  0.40316400  0.46811900  0.19459700  1
  O  O45  1  0.53188100  0.59683600  0.30540300  1
  O  O46  1  0.59164500  0.40835500  0.25000000  1
  O  O47  1  0.40835500  0.59164500  0.75000000  1
  O  O48  1  0.75876300  0.24123700  0.25000000  1
  O  O49  1  0.24123700  0.75876300  0.75000000  1
  O  O50  1  0.63936200  0.18008900  0.00263700  1
  O  O51  1  0.81991100  0.36063800  0.49736300  1
  O  O52  1  0.36063800  0.81991100  0.99736300  1
  O  O53  1  0.18008900  0.63936200  0.50263700  1
  O  O54  1  0.00632600  0.47706000  0.72345000  1
  O  O55  1  0.52294000  0.99367400  0.77655000  1
  O  O56  1  0.99367400  0.52294000  0.27655000  1
  O  O57  1  0.47706000  0.00632600  0.22345000  1
