# generated using pymatgen
data_YNiSO7
_symmetry_space_group_name_H-M   'P 1'
_cell_length_a   6.03430800
_cell_length_b   6.23030200
_cell_length_c   14.19130600
_cell_angle_alpha   90.00000000
_cell_angle_beta   90.00000000
_cell_angle_gamma   90.00000000
_symmetry_Int_Tables_number   1
_chemical_formula_structural   YNiSO7
_chemical_formula_sum   'Y4 Ni4 S4 O28'
_cell_volume   533.53011325
_cell_formula_units_Z   4
loop_
 _symmetry_equiv_pos_site_id
 _symmetry_equiv_pos_as_xyz
  1  'x, y, z'
loop_
 _atom_site_type_symbol
 _atom_site_label
 _atom_site_symmetry_multiplicity
 _atom_site_fract_x
 _atom_site_fract_y
 _atom_site_fract_z
 _atom_site_occupancy
  Y  Y0  1  0.72416900  0.20561600  0.08633200  1
  Y  Y1  1  0.27583100  0.70561600  0.41366800  1
  Y  Y2  1  0.77583100  0.79438400  0.58633200  1
  Y  Y3  1  0.22416900  0.29438400  0.91366800  1
  Ni  Ni4  1  0.47087800  0.75196300  0.99873900  1
  Ni  Ni5  1  0.52912200  0.25196300  0.50126100  1
  Ni  Ni6  1  0.02912200  0.24803700  0.49873900  1
  Ni  Ni7  1  0.97087800  0.74803700  0.00126100  1
  S  S8  1  0.21905300  0.97669300  0.18266900  1
  S  S9  1  0.78094700  0.47669300  0.31733100  1
  S  S10  1  0.28094700  0.02330700  0.68266900  1
  S  S11  1  0.71905300  0.52330700  0.81733100  1
  O  O12  1  0.29549800  0.90575100  0.27586500  1
  O  O13  1  0.70450200  0.40575100  0.22413500  1
  O  O14  1  0.20450200  0.09424900  0.77586500  1
  O  O15  1  0.79549800  0.59424900  0.72413500  1
  O  O16  1  0.37558100  0.14384800  0.14840300  1
  O  O17  1  0.62441900  0.64384800  0.35159700  1
  O  O18  1  0.12441900  0.85615200  0.64840300  1
  O  O19  1  0.87558100  0.35615200  0.85159700  1
  O  O20  1  0.22156000  0.79076200  0.11406700  1
  O  O21  1  0.77844000  0.29076200  0.38593300  1
  O  O22  1  0.27844000  0.20923800  0.61406700  1
  O  O23  1  0.72156000  0.70923800  0.88593300  1
  O  O24  1  0.99399400  0.06751500  0.18859400  1
  O  O25  1  0.00600600  0.56751500  0.31140600  1
  O  O26  1  0.50600600  0.93248500  0.68859400  1
  O  O27  1  0.49399400  0.43248500  0.81140600  1
  O  O28  1  0.71800400  0.81155400  0.07021500  1
  O  O29  1  0.28199600  0.31155400  0.42978500  1
  O  O30  1  0.78199600  0.18844600  0.57021500  1
  O  O31  1  0.21800400  0.68844600  0.92978500  1
  O  O32  1  0.48630000  0.46182600  0.01579200  1
  O  O33  1  0.51370000  0.96182600  0.48420800  1
  O  O34  1  0.01370000  0.53817400  0.51579200  1
  O  O35  1  0.98630000  0.03817400  0.98420800  1
  O  O36  1  0.46921900  0.04205700  0.97538200  1
  O  O37  1  0.53078100  0.54205700  0.52461800  1
  O  O38  1  0.03078100  0.95794300  0.47538200  1
  O  O39  1  0.96921900  0.45794300  0.02461800  1
