# generated using pymatgen
data_Ce2TeMo6(H6O7)6
_symmetry_space_group_name_H-M   'P 1'
_cell_length_a   9.38060200
_cell_length_b   10.45103457
_cell_length_c   10.96464829
_cell_angle_alpha   102.64820218
_cell_angle_beta   108.17136284
_cell_angle_gamma   106.95206388
_symmetry_Int_Tables_number   1
_chemical_formula_structural   Ce2TeMo6(H6O7)6
_chemical_formula_sum   'Ce2 Te1 Mo6 H36 O42'
_cell_volume   918.40713122
_cell_formula_units_Z   1
loop_
 _symmetry_equiv_pos_site_id
 _symmetry_equiv_pos_as_xyz
  1  'x, y, z'
loop_
 _atom_site_type_symbol
 _atom_site_label
 _atom_site_symmetry_multiplicity
 _atom_site_fract_x
 _atom_site_fract_y
 _atom_site_fract_z
 _atom_site_occupancy
  Ce  Ce0  1  0.02660800  0.26438100  0.74254000  1
  Ce  Ce1  1  0.97339200  0.73561900  0.25746000  1
  Te  Te2  1  0.50000000  0.50000000  0.50000000  1
  Mo  Mo3  1  0.38176800  0.60485900  0.74481900  1
  Mo  Mo4  1  0.61823200  0.39514100  0.25518100  1
  Mo  Mo5  1  0.45085100  0.30844400  0.69679600  1
  Mo  Mo6  1  0.54914900  0.69155600  0.30320400  1
  Mo  Mo7  1  0.57952900  0.20433100  0.45610700  1
  Mo  Mo8  1  0.42047100  0.79566900  0.54389300  1
  H  H9  1  0.00471100  0.56759500  0.80888300  1
  H  H10  1  0.99528900  0.43240500  0.19111700  1
  H  H11  1  0.82155000  0.45747900  0.72350600  1
  H  H12  1  0.17845000  0.54252100  0.27649400  1
  H  H13  1  0.16625100  0.50723900  0.01778100  1
  H  H14  1  0.83374900  0.49276100  0.98221900  1
  H  H15  1  0.29448400  0.43787900  0.05407100  1
  H  H16  1  0.70551600  0.56212100  0.94592900  1
  H  H17  1  0.87373400  0.20367200  0.95957400  1
  H  H18  1  0.12626600  0.79632800  0.04042600  1
  H  H19  1  0.73541700  0.17103700  0.81793000  1
  H  H20  1  0.26458300  0.82896300  0.18207000  1
  H  H21  1  0.16959500  0.15308000  0.98978300  1
  H  H22  1  0.83040500  0.84692000  0.01021700  1
  H  H23  1  0.21835900  0.09222400  0.86741800  1
  H  H24  1  0.78164100  0.90777600  0.13258200  1
  H  H25  1  0.79771600  0.94721700  0.55893400  1
  H  H26  1  0.20228400  0.05278300  0.44106600  1
  H  H27  1  0.97177300  0.93955700  0.59022100  1
  H  H28  1  0.02822700  0.06044300  0.40977900  1
  H  H29  1  0.91285700  0.27255900  0.43623800  1
  H  H30  1  0.08714300  0.72744100  0.56376200  1
  H  H31  1  0.10377100  0.30964400  0.49011000  1
  H  H32  1  0.89622800  0.69035600  0.50989000  1
  H  H33  1  0.98850900  0.20461200  0.15433700  1
  H  H34  1  0.01149100  0.79538800  0.84566300  1
  H  H35  1  0.80372600  0.17620900  0.13245200  1
  H  H36  1  0.19627400  0.82379100  0.86754800  1
  H  H37  1  0.25461600  0.21427500  0.23363800  1
  H  H38  1  0.74538400  0.78572500  0.76636200  1
  H  H39  1  0.12291800  0.05645500  0.16504400  1
  H  H40  1  0.87708200  0.94354500  0.83495600  1
  H  H41  1  0.60217900  0.00968700  0.20759100  1
  H  H42  1  0.39782100  0.99031300  0.79240900  1
  H  H43  1  0.56437300  0.92251700  0.05752100  1
  H  H44  1  0.43562700  0.07748300  0.94247900  1
  O  O45  1  0.32767900  0.41519900  0.55384700  1
  O  O46  1  0.67232100  0.58480100  0.44615300  1
  O  O47  1  0.55806000  0.67508000  0.65112800  1
  O  O48  1  0.44194000  0.32492000  0.34887200  1
  O  O49  1  0.51810000  0.50200600  0.81523600  1
  O  O50  1  0.48190000  0.49799400  0.18476400  1
  O  O51  1  0.47465500  0.75509900  0.89066200  1
  O  O52  1  0.52534500  0.24490100  0.10933800  1
  O  O53  1  0.27460000  0.67855300  0.60700700  1
  O  O54  1  0.72540000  0.32144700  0.39299300  1
  O  O55  1  0.20302800  0.48968200  0.74854700  1
  O  O56  1  0.79697200  0.51031800  0.25145300  1
  O  O57  1  0.62648800  0.41883600  0.61510700  1
  O  O58  1  0.37351200  0.58116400  0.38489300  1
  O  O59  1  0.40589000  0.16631800  0.52292100  1
  O  O60  1  0.59411000  0.83368200  0.47707900  1
  O  O61  1  0.25943400  0.22979800  0.70406900  1
  O  O62  1  0.74056600  0.77020200  0.29593100  1
  O  O63  1  0.59069300  0.26434100  0.80846800  1
  O  O64  1  0.40930700  0.73565900  0.19153200  1
  O  O65  1  0.49132800  0.04930900  0.31510600  1
  O  O66  1  0.50867200  0.95069100  0.68489400  1
  O  O67  1  0.73757500  0.18617400  0.58298600  1
  O  O68  1  0.26242500  0.81382600  0.41701400  1
  O  O69  1  0.93141500  0.46727400  0.78416100  1
  O  O70  1  0.06858500  0.53272600  0.21583900  1
  O  O71  1  0.18373700  0.42048000  0.98799900  1
  O  O72  1  0.81626300  0.57952000  0.01200100  1
  O  O73  1  0.84742100  0.17602600  0.85910200  1
  O  O74  1  0.15257900  0.82397400  0.14089800  1
  O  O75  1  0.15107900  0.14207800  0.89335500  1
  O  O76  1  0.84892100  0.85792200  0.10664500  1
  O  O77  1  0.91655700  0.00268200  0.61154300  1
  O  O78  1  0.08344300  0.99731800  0.38845700  1
  O  O79  1  0.99967200  0.24342900  0.48335500  1
  O  O80  1  0.00032800  0.75657100  0.51664500  1
  O  O81  1  0.89945000  0.24036600  0.12593800  1
  O  O82  1  0.10055000  0.75963400  0.87406200  1
  O  O83  1  0.14849700  0.15036900  0.15525600  1
  O  O84  1  0.85150300  0.84963100  0.84474400  1
  O  O85  1  0.65192400  0.99733700  0.14059300  1
  O  O86  1  0.34807600  0.00266300  0.85940700  1
