# generated using pymatgen
data_Si2B2H37C12N5
_symmetry_space_group_name_H-M   'P 1'
_cell_length_a   16.76879300
_cell_length_b   12.46531500
_cell_length_c   12.96271922
_cell_angle_alpha   90.00000000
_cell_angle_beta   102.87702675
_cell_angle_gamma   90.00000000
_symmetry_Int_Tables_number   1
_chemical_formula_structural   Si2B2H37C12N5
_chemical_formula_sum   'Si8 B8 H148 C48 N20'
_cell_volume   2641.43088868
_cell_formula_units_Z   4
loop_
 _symmetry_equiv_pos_site_id
 _symmetry_equiv_pos_as_xyz
  1  'x, y, z'
loop_
 _atom_site_type_symbol
 _atom_site_label
 _atom_site_symmetry_multiplicity
 _atom_site_fract_x
 _atom_site_fract_y
 _atom_site_fract_z
 _atom_site_occupancy
  Si  Si0  1  0.37859400  0.47698500  0.71402600  1
  Si  Si1  1  0.62140600  0.97698500  0.78597400  1
  Si  Si2  1  0.62140600  0.52301500  0.28597400  1
  Si  Si3  1  0.37859400  0.02301500  0.21402600  1
  Si  Si4  1  0.18464200  0.21590600  0.66342300  1
  Si  Si5  1  0.81535700  0.71590600  0.83657700  1
  Si  Si6  1  0.81535700  0.78409400  0.33657700  1
  Si  Si7  1  0.18464200  0.28409400  0.16342300  1
  B  B8  1  0.20968900  0.44874900  0.70216400  1
  B  B9  1  0.79031100  0.94874900  0.79783600  1
  B  B10  1  0.79031100  0.55125100  0.29783600  1
  B  B11  1  0.20968900  0.05125100  0.20216400  1
  B  B12  1  0.26538000  0.64040400  0.72089500  1
  B  B13  1  0.73462000  0.14040400  0.77910500  1
  B  B14  1  0.73462000  0.35959600  0.27910500  1
  B  B15  1  0.26538000  0.85959600  0.22089500  1
  H  H16  1  0.25123600  0.35254200  0.59540200  1
  H  H17  1  0.74876400  0.85254200  0.90459800  1
  H  H18  1  0.74876400  0.64745800  0.40459800  1
  H  H19  1  0.25123600  0.14745800  0.09540200  1
  H  H20  1  0.11200500  0.60825800  0.52719500  1
  H  H21  1  0.88799500  0.10825800  0.97280500  1
  H  H22  1  0.88799500  0.39174200  0.47280500  1
  H  H23  1  0.11200500  0.89174200  0.02719500  1
  H  H24  1  0.17200700  0.69949800  0.47054200  1
  H  H25  1  0.82799300  0.19949800  0.02945800  1
  H  H26  1  0.82799300  0.30050200  0.52945800  1
  H  H27  1  0.17200700  0.80050200  0.97054200  1
  H  H28  1  0.21438200  0.57417200  0.52273900  1
  H  H29  1  0.78561800  0.07417200  0.97726100  1
  H  H30  1  0.78561800  0.42582800  0.47726100  1
  H  H31  1  0.21438200  0.92582800  0.02273900  1
  H  H32  1  0.16968900  0.85243500  0.59777700  1
  H  H33  1  0.83031100  0.35243500  0.90222300  1
  H  H34  1  0.83031100  0.14756500  0.40222300  1
  H  H35  1  0.16968900  0.64756500  0.09777700  1
  H  H36  1  0.09350900  0.77005400  0.63259500  1
  H  H37  1  0.90649100  0.27005400  0.86740500  1
  H  H38  1  0.90649100  0.22994600  0.36740500  1
  H  H39  1  0.09350900  0.72994600  0.13259500  1
  H  H40  1  0.17724100  0.81501100  0.73277400  1
  H  H41  1  0.82275900  0.31501100  0.76722600  1
  H  H42  1  0.82275900  0.18498900  0.26722600  1
  H  H43  1  0.17724100  0.68498900  0.23277400  1
  H  H44  1  0.10457600  0.62504500  0.79391000  1
  H  H45  1  0.89542400  0.12504500  0.70609000  1
  H  H46  1  0.89542400  0.37495500  0.20609000  1
  H  H47  1  0.10457600  0.87495500  0.29391000  1
  H  H48  1  0.10342400  0.51726700  0.88360700  1
  H  H49  1  0.89657600  0.01726700  0.61639300  1
  H  H50  1  0.89657600  0.48273300  0.11639300  1
  H  H51  1  0.10342400  0.98273300  0.38360700  1
  H  H52  1  0.19844500  0.57104600  0.86883000  1
  H  H53  1  0.80155500  0.07104600  0.63117000  1
  H  H54  1  0.80155500  0.42895400  0.13117000  1
  H  H55  1  0.19844500  0.92895400  0.36883000  1
  H  H56  1  0.24977300  0.04316200  0.62925200  1
  H  H57  1  0.75022700  0.54316200  0.87074800  1
  H  H58  1  0.75022700  0.95683800  0.37074800  1
  H  H59  1  0.24977300  0.45683800  0.12925200  1
  H  H60  1  0.26712800  0.14346700  0.54049900  1
  H  H61  1  0.73287200  0.64346700  0.95950100  1
  H  H62  1  0.73287200  0.85653300  0.45950100  1
  H  H63  1  0.26712800  0.35653300  0.04049900  1
  H  H64  1  0.32650100  0.14139600  0.67246600  1
  H  H65  1  0.67349900  0.64139600  0.82753400  1
  H  H66  1  0.67349900  0.85860400  0.32753400  1
  H  H67  1  0.32650100  0.35860400  0.17246600  1
  H  H68  1  0.30138400  0.87100100  0.84439400  1
  H  H69  1  0.69861600  0.37100100  0.65560600  1
  H  H70  1  0.69861600  0.12899900  0.15560600  1
  H  H71  1  0.30138400  0.62899900  0.34439400  1
  H  H72  1  0.39763100  0.83055800  0.82174600  1
  H  H73  1  0.60236900  0.33055800  0.67825400  1
  H  H74  1  0.60236900  0.16944200  0.17825400  1
  H  H75  1  0.39763100  0.66944200  0.32174600  1
  H  H76  1  0.31224000  0.84255100  0.71293700  1
  H  H77  1  0.68776000  0.34255100  0.78706300  1
  H  H78  1  0.68776000  0.15744900  0.28706300  1
  H  H79  1  0.31224000  0.65744900  0.21293700  1
  H  H80  1  0.07805700  0.08377100  0.58634000  1
  H  H81  1  0.92194300  0.58377100  0.91366000  1
  H  H82  1  0.92194300  0.91622900  0.41366000  1
  H  H83  1  0.07805700  0.41622900  0.08634000  1
  H  H84  1  0.02983500  0.20855800  0.59650600  1
  H  H85  1  0.97016500  0.70855800  0.90349400  1
  H  H86  1  0.97016500  0.79144200  0.40349400  1
  H  H87  1  0.02983500  0.29144200  0.09650600  1
  H  H88  1  0.08261600  0.18713800  0.49364200  1
  H  H89  1  0.91738400  0.68713800  0.00635800  1
  H  H90  1  0.91738400  0.81286200  0.50635800  1
  H  H91  1  0.08261600  0.31286200  0.99364200  1
  H  H92  1  0.44795400  0.41745200  0.57527500  1
  H  H93  1  0.55204600  0.91745200  0.92472500  1
  H  H94  1  0.55204600  0.58254800  0.42472500  1
  H  H95  1  0.44795400  0.08254800  0.07527500  1
  H  H96  1  0.36902500  0.32516800  0.57950100  1
  H  H97  1  0.63097500  0.82516800  0.92049900  1
  H  H98  1  0.63097500  0.67483200  0.42049900  1
  H  H99  1  0.36902500  0.17483200  0.07950100  1
  H  H100  1  0.34585000  0.45170800  0.51517800  1
  H  H101  1  0.65415000  0.95170800  0.98482200  1
  H  H102  1  0.65415000  0.54829200  0.48482200  1
  H  H103  1  0.34585000  0.04829200  0.01517800  1
  H  H104  1  0.03404000  0.37877100  0.75289700  1
  H  H105  1  0.96596000  0.87877100  0.74710300  1
  H  H106  1  0.96596000  0.62122900  0.24710300  1
  H  H107  1  0.03404000  0.12122900  0.25289700  1
  H  H108  1  0.01399400  0.49623600  0.67351100  1
  H  H109  1  0.98600600  0.99623600  0.82648900  1
  H  H110  1  0.98600600  0.50376400  0.32648900  1
  H  H111  1  0.01399400  0.00376400  0.17351100  1
  H  H112  1  0.06017500  0.38319500  0.62637200  1
  H  H113  1  0.93982500  0.88319500  0.87362800  1
  H  H114  1  0.93982500  0.61680500  0.37362800  1
  H  H115  1  0.06017500  0.11680500  0.12637200  1
  H  H116  1  0.46619900  0.63083600  0.80298000  1
  H  H117  1  0.53380100  0.13083600  0.69702000  1
  H  H118  1  0.53380100  0.36916400  0.19702000  1
  H  H119  1  0.46619900  0.86916400  0.30298000  1
  H  H120  1  0.51221900  0.55756600  0.71436900  1
  H  H121  1  0.48778100  0.05756600  0.78563100  1
  H  H122  1  0.48778100  0.44243400  0.28563100  1
  H  H123  1  0.51221900  0.94243400  0.21436900  1
  H  H124  1  0.43448500  0.65229900  0.66425800  1
  H  H125  1  0.56551500  0.15229900  0.83574200  1
  H  H126  1  0.56551500  0.34770100  0.33574200  1
  H  H127  1  0.43448500  0.84770100  0.16425800  1
  H  H128  1  0.47766500  0.34807900  0.81934400  1
  H  H129  1  0.52233500  0.84807900  0.68065600  1
  H  H130  1  0.52233500  0.65192100  0.18065600  1
  H  H131  1  0.47766500  0.15192100  0.31934400  1
  H  H132  1  0.42292000  0.41720200  0.90160200  1
  H  H133  1  0.57708000  0.91720200  0.59839800  1
  H  H134  1  0.57708000  0.58279800  0.09839800  1
  H  H135  1  0.42292000  0.08279800  0.40160200  1
  H  H136  1  0.37613800  0.30923900  0.82031200  1
  H  H137  1  0.62386200  0.80923900  0.67968800  1
  H  H138  1  0.62386200  0.69076100  0.17968800  1
  H  H139  1  0.37613800  0.19076100  0.32031200  1
  H  H140  1  0.41259000  0.67523200  0.93497100  1
  H  H141  1  0.58741000  0.17523200  0.56502900  1
  H  H142  1  0.58741000  0.32476800  0.06502900  1
  H  H143  1  0.41259000  0.82476800  0.43497100  1
  H  H144  1  0.31958000  0.70664000  0.97200800  1
  H  H145  1  0.68042000  0.20664000  0.52799200  1
  H  H146  1  0.68042000  0.29336000  0.02799200  1
  H  H147  1  0.31958000  0.79336000  0.47200800  1
  H  H148  1  0.33246000  0.57835700  0.91643700  1
  H  H149  1  0.66754000  0.07835700  0.58356300  1
  H  H150  1  0.66754000  0.42164300  0.08356300  1
  H  H151  1  0.33246000  0.92164300  0.41643700  1
  H  H152  1  0.13365200  0.23533700  0.83143800  1
  H  H153  1  0.86634800  0.73533700  0.66856200  1
  H  H154  1  0.86634800  0.76466300  0.16856200  1
  H  H155  1  0.13365200  0.26466300  0.33143800  1
  H  H156  1  0.16991400  0.10431200  0.81454300  1
  H  H157  1  0.83008600  0.60431200  0.68545700  1
  H  H158  1  0.83008600  0.89568800  0.18545700  1
  H  H159  1  0.16991400  0.39568800  0.31454300  1
  H  H160  1  0.24042700  0.20974900  0.85956900  1
  H  H161  1  0.75957300  0.70974900  0.64043100  1
  H  H162  1  0.75957300  0.79025100  0.14043100  1
  H  H163  1  0.24042700  0.29025100  0.35956900  1
  C  C164  1  0.17458400  0.64048300  0.53492000  1
  C  C165  1  0.82541600  0.14048300  0.96508000  1
  C  C166  1  0.82541600  0.35951700  0.46508000  1
  C  C167  1  0.17458400  0.85951700  0.03492000  1
  C  C168  1  0.15999700  0.78653700  0.65091500  1
  C  C169  1  0.84000300  0.28653700  0.84908500  1
  C  C170  1  0.84000300  0.21346300  0.34908500  1
  C  C171  1  0.15999700  0.71346300  0.15091500  1
  C  C172  1  0.13642700  0.55042500  0.82593800  1
  C  C173  1  0.86357300  0.05042500  0.67406200  1
  C  C174  1  0.86357300  0.44957500  0.17406200  1
  C  C175  1  0.13642700  0.94957500  0.32593800  1
  C  C176  1  0.26473100  0.12859700  0.62346800  1
  C  C177  1  0.73526900  0.62859700  0.87653200  1
  C  C178  1  0.73526900  0.87140300  0.37653200  1
  C  C179  1  0.26473100  0.37140300  0.12346800  1
  C  C180  1  0.33090200  0.81741700  0.79578700  1
  C  C181  1  0.66909800  0.31741700  0.70421300  1
  C  C182  1  0.66909800  0.18258300  0.20421300  1
  C  C183  1  0.33090200  0.68258300  0.29578700  1
  C  C184  1  0.08402600  0.17110600  0.57742000  1
  C  C185  1  0.91597400  0.67110600  0.92258000  1
  C  C186  1  0.91597400  0.82889400  0.42258000  1
  C  C187  1  0.08402600  0.32889400  0.07742000  1
  C  C188  1  0.38428300  0.41103200  0.58395200  1
  C  C189  1  0.61571700  0.91103200  0.91604800  1
  C  C190  1  0.61571700  0.58896800  0.41604800  1
  C  C191  1  0.38428300  0.08896800  0.08395200  1
  C  C192  1  0.05825400  0.43010900  0.69721400  1
  C  C193  1  0.94174600  0.93010900  0.80278600  1
  C  C194  1  0.94174600  0.56989100  0.30278600  1
  C  C195  1  0.05825400  0.06989100  0.19721400  1
  C  C196  1  0.45393000  0.59094200  0.72566600  1
  C  C197  1  0.54607000  0.09094200  0.77433400  1
  C  C198  1  0.54607000  0.40905800  0.27433400  1
  C  C199  1  0.45393000  0.90905800  0.22566600  1
  C  C200  1  0.41702300  0.37870400  0.82395300  1
  C  C201  1  0.58297700  0.87870400  0.67604700  1
  C  C202  1  0.58297700  0.62129600  0.17604700  1
  C  C203  1  0.41702300  0.12129600  0.32395300  1
  C  C204  1  0.34546300  0.66421400  0.91184100  1
  C  C205  1  0.65453700  0.16421400  0.58815900  1
  C  C206  1  0.65453700  0.33578600  0.08815900  1
  C  C207  1  0.34546300  0.83578600  0.41184100  1
  C  C208  1  0.18191300  0.19020300  0.80544000  1
  C  C209  1  0.81808700  0.69020300  0.69456000  1
  C  C210  1  0.81808700  0.80979700  0.19456000  1
  C  C211  1  0.18191300  0.30979700  0.30544000  1
  N  N212  1  0.27939700  0.52339600  0.71689100  1
  N  N213  1  0.72060300  0.02339600  0.78310900  1
  N  N214  1  0.72060300  0.47660400  0.28310900  1
  N  N215  1  0.27939700  0.97660400  0.21689100  1
  N  N216  1  0.20558400  0.69047400  0.63730300  1
  N  N217  1  0.79441600  0.19047400  0.86269700  1
  N  N218  1  0.79441600  0.30952600  0.36269700  1
  N  N219  1  0.20558400  0.80952600  0.13730300  1
  N  N220  1  0.13883400  0.47255100  0.74357000  1
  N  N221  1  0.86116600  0.97255100  0.75643000  1
  N  N222  1  0.86116600  0.52744900  0.25643000  1
  N  N223  1  0.13883400  0.02744900  0.24357000  1
  N  N224  1  0.21146100  0.34900300  0.64431400  1
  N  N225  1  0.78853900  0.84900300  0.85568600  1
  N  N226  1  0.78853900  0.65099700  0.35568600  1
  N  N227  1  0.21146100  0.15099700  0.14431400  1
  N  N228  1  0.31144600  0.70507700  0.80637300  1
  N  N229  1  0.68855400  0.20507700  0.69362700  1
  N  N230  1  0.68855400  0.29492300  0.19362700  1
  N  N231  1  0.31144600  0.79492300  0.30637300  1
