# generated using pymatgen
data_LiV(CuO3)2
_symmetry_space_group_name_H-M   'P 1'
_cell_length_a   5.76605600
_cell_length_b   8.48894600
_cell_length_c   9.87695100
_cell_angle_alpha   90.00000000
_cell_angle_beta   90.00000000
_cell_angle_gamma   90.00000000
_symmetry_Int_Tables_number   1
_chemical_formula_structural   LiV(CuO3)2
_chemical_formula_sum   'Li4 V4 Cu8 O24'
_cell_volume   483.45440995
_cell_formula_units_Z   4
loop_
 _symmetry_equiv_pos_site_id
 _symmetry_equiv_pos_as_xyz
  1  'x, y, z'
loop_
 _atom_site_type_symbol
 _atom_site_label
 _atom_site_symmetry_multiplicity
 _atom_site_fract_x
 _atom_site_fract_y
 _atom_site_fract_z
 _atom_site_occupancy
  Li  Li0  1  0.99203300  0.66276300  0.75654100  1
  Li  Li1  1  0.49203300  0.33723700  0.74345900  1
  Li  Li2  1  0.00796700  0.83723700  0.25654100  1
  Li  Li3  1  0.50796700  0.16276300  0.24345900  1
  V  V4  1  0.49345800  0.74979100  0.72304400  1
  V  V5  1  0.99345800  0.25020900  0.77695600  1
  V  V6  1  0.50654200  0.75020900  0.22304400  1
  V  V7  1  0.00654200  0.24979100  0.27695600  1
  Cu  Cu8  1  0.25284900  0.00765700  0.50983400  1
  Cu  Cu9  1  0.75284900  0.99234300  0.99016600  1
  Cu  Cu10  1  0.74715100  0.49234300  0.00983400  1
  Cu  Cu11  1  0.24715100  0.50765700  0.49016600  1
  Cu  Cu12  1  0.75570000  0.00633200  0.50981800  1
  Cu  Cu13  1  0.25570000  0.99366800  0.99018200  1
  Cu  Cu14  1  0.24430000  0.49366800  0.00981800  1
  Cu  Cu15  1  0.74430000  0.50633200  0.49018200  1
  O  O16  1  0.50482200  0.09133800  0.42257300  1
  O  O17  1  0.00482200  0.90866200  0.07742700  1
  O  O18  1  0.49517800  0.40866200  0.92257300  1
  O  O19  1  0.99517800  0.59133800  0.57742700  1
  O  O20  1  0.00462100  0.93265200  0.60478800  1
  O  O21  1  0.50462100  0.06734800  0.89521200  1
  O  O22  1  0.99537900  0.56734800  0.10478800  1
  O  O23  1  0.49537900  0.43265200  0.39521200  1
  O  O24  1  0.00509100  0.07048100  0.38955500  1
  O  O25  1  0.50509100  0.92951900  0.11044500  1
  O  O26  1  0.99490900  0.42951900  0.88955500  1
  O  O27  1  0.49490900  0.57048100  0.61044500  1
  O  O28  1  0.72127500  0.74253000  0.82686300  1
  O  O29  1  0.22127500  0.25747000  0.67313700  1
  O  O30  1  0.27872500  0.75747000  0.32686300  1
  O  O31  1  0.77872500  0.24253000  0.17313700  1
  O  O32  1  0.50207100  0.92476800  0.61470700  1
  O  O33  1  0.00207100  0.07523200  0.88529300  1
  O  O34  1  0.49792900  0.57523200  0.11470700  1
  O  O35  1  0.99792900  0.42476800  0.38529300  1
  O  O36  1  0.26299800  0.74429300  0.82519000  1
  O  O37  1  0.76299800  0.25570700  0.67481000  1
  O  O38  1  0.73700200  0.75570700  0.32519000  1
  O  O39  1  0.23700200  0.24429300  0.17481000  1
