# generated using pymatgen
data_MgFe4(S3O23)2
_symmetry_space_group_name_H-M   'P 1'
_cell_length_a   7.25955900
_cell_length_b   7.57907270
_cell_length_c   17.94798400
_cell_angle_alpha   79.87361091
_cell_angle_beta   86.45854992
_cell_angle_gamma   77.06560877
_symmetry_Int_Tables_number   1
_chemical_formula_structural   MgFe4(S3O23)2
_chemical_formula_sum   'Mg1 Fe4 S6 O46'
_cell_volume   947.20354472
_cell_formula_units_Z   1
loop_
 _symmetry_equiv_pos_site_id
 _symmetry_equiv_pos_as_xyz
  1  'x, y, z'
loop_
 _atom_site_type_symbol
 _atom_site_label
 _atom_site_symmetry_multiplicity
 _atom_site_fract_x
 _atom_site_fract_y
 _atom_site_fract_z
 _atom_site_occupancy
  Mg  Mg0  1  0.00000000  0.00000000  0.00000000  1
  Fe  Fe1  1  0.47653600  0.31251800  0.31672800  1
  Fe  Fe2  1  0.52346400  0.68748200  0.68327200  1
  Fe  Fe3  1  0.89954600  0.35092800  0.68863900  1
  Fe  Fe4  1  0.10045400  0.64907200  0.31136100  1
  S  S5  1  0.30228900  0.05283200  0.74145500  1
  S  S6  1  0.69771100  0.94716800  0.25854500  1
  S  S7  1  0.12893500  0.27245700  0.43026600  1
  S  S8  1  0.87106500  0.72754300  0.56973400  1
  S  S9  1  0.16128700  0.40739900  0.18862300  1
  S  S10  1  0.83871300  0.59260100  0.81137700  1
  O  O11  1  0.15725400  0.20728900  0.70035200  1
  O  O12  1  0.84274600  0.79271100  0.29964800  1
  O  O13  1  0.46671200  0.11952100  0.75765000  1
  O  O14  1  0.53328800  0.88047900  0.24235000  1
  O  O15  1  0.64672500  0.07666400  0.31664800  1
  O  O16  1  0.35327500  0.92333600  0.68335200  1
  O  O17  1  0.77568800  0.03696600  0.18876500  1
  O  O18  1  0.22431200  0.96303400  0.81123500  1
  O  O19  1  0.02824200  0.45037700  0.38180000  1
  O  O20  1  0.97175800  0.54962300  0.61820000  1
  O  O21  1  0.17885800  0.30602000  0.50285400  1
  O  O22  1  0.82114200  0.69398000  0.49714600  1
  O  O23  1  0.30592300  0.19114200  0.38690300  1
  O  O24  1  0.69407700  0.80885800  0.61309700  1
  O  O25  1  0.00166300  0.14426400  0.43674600  1
  O  O26  1  0.99833700  0.85573600  0.56325400  1
  O  O27  1  0.16725700  0.42260900  0.10619800  1
  O  O28  1  0.83274300  0.57739100  0.89380200  1
  O  O29  1  0.87543200  0.39760300  0.79224700  1
  O  O30  1  0.12456800  0.60239700  0.20775300  1
  O  O31  1  0.01858100  0.31159000  0.22546600  1
  O  O32  1  0.98141900  0.68841000  0.77453400  1
  O  O33  1  0.35325200  0.31022100  0.21945700  1
  O  O34  1  0.64674800  0.68977900  0.78054300  1
  O  O35  1  0.63778200  0.46699900  0.66137800  1
  O  O36  1  0.36221800  0.53300100  0.33862200  1
  O  O37  1  0.65449500  0.43578800  0.28790000  1
  O  O38  1  0.34550500  0.56421200  0.71210000  1
  O  O39  1  0.64937100  0.34009800  0.46837000  1
  O  O40  1  0.35062900  0.65990200  0.53163000  1
  O  O41  1  0.17069100  0.21490200  0.93463100  1
  O  O42  1  0.82930900  0.78509800  0.06536900  1
  O  O43  1  0.86587200  0.13968200  0.62118900  1
  O  O44  1  0.13412800  0.86031800  0.37881100  1
  O  O45  1  0.70904900  0.23617500  0.01655100  1
  O  O46  1  0.29095100  0.76382500  0.98344900  1
  O  O47  1  0.81001900  0.08665400  0.68738400  1
  O  O48  1  0.18998100  0.91334600  0.31261600  1
  O  O49  1  0.09316300  0.05519800  0.09252500  1
  O  O50  1  0.90683700  0.94480200  0.90747500  1
  O  O51  1  0.30162100  0.28051300  0.94988100  1
  O  O52  1  0.69837900  0.71948700  0.05011900  1
  O  O53  1  0.56818100  0.27888300  0.52501800  1
  O  O54  1  0.43181900  0.72111700  0.47498200  1
  O  O55  1  0.64023900  0.32491200  0.06671300  1
  O  O56  1  0.35976100  0.67508800  0.93328700  1
