# generated using pymatgen
data_Nd(Ga4Fe)2
_symmetry_space_group_name_H-M   'P 1'
_cell_length_a   4.04326000
_cell_length_b   12.68929400
_cell_length_c   14.36417600
_cell_angle_alpha   90.00000000
_cell_angle_beta   90.00000000
_cell_angle_gamma   90.00000000
_symmetry_Int_Tables_number   1
_chemical_formula_structural   Nd(Ga4Fe)2
_chemical_formula_sum   'Nd4 Ga32 Fe8'
_cell_volume   736.97006370
_cell_formula_units_Z   4
loop_
 _symmetry_equiv_pos_site_id
 _symmetry_equiv_pos_as_xyz
  1  'x, y, z'
loop_
 _atom_site_type_symbol
 _atom_site_label
 _atom_site_symmetry_multiplicity
 _atom_site_fract_x
 _atom_site_fract_y
 _atom_site_fract_z
 _atom_site_occupancy
  Nd  Nd0  1  0.00000000  0.84268100  0.18128600  1
  Nd  Nd1  1  0.00000000  0.15731900  0.81871400  1
  Nd  Nd2  1  0.00000000  0.65731900  0.68128600  1
  Nd  Nd3  1  0.00000000  0.34268100  0.31871400  1
  Ga  Ga4  1  0.00000000  0.50000000  0.50000000  1
  Ga  Ga5  1  0.00000000  0.00000000  0.00000000  1
  Ga  Ga6  1  0.50000000  0.00000000  0.50000000  1
  Ga  Ga7  1  0.50000000  0.50000000  0.00000000  1
  Ga  Ga8  1  0.50000000  0.73873700  0.32708100  1
  Ga  Ga9  1  0.50000000  0.26126300  0.67291900  1
  Ga  Ga10  1  0.50000000  0.76126300  0.82708100  1
  Ga  Ga11  1  0.50000000  0.23873700  0.17291900  1
  Ga  Ga12  1  0.50000000  0.95070000  0.31936200  1
  Ga  Ga13  1  0.50000000  0.04930000  0.68063800  1
  Ga  Ga14  1  0.50000000  0.54930000  0.81936200  1
  Ga  Ga15  1  0.50000000  0.45070000  0.18063800  1
  Ga  Ga16  1  0.50000000  0.66310600  0.12101000  1
  Ga  Ga17  1  0.50000000  0.33689400  0.87899000  1
  Ga  Ga18  1  0.50000000  0.83689400  0.62101000  1
  Ga  Ga19  1  0.50000000  0.16310600  0.37899000  1
  Ga  Ga20  1  0.00000000  0.83565400  0.45390200  1
  Ga  Ga21  1  0.00000000  0.16434600  0.54609800  1
  Ga  Ga22  1  0.00000000  0.66434600  0.95390200  1
  Ga  Ga23  1  0.00000000  0.33565400  0.04609800  1
  Ga  Ga24  1  0.00000000  0.59781900  0.24485800  1
  Ga  Ga25  1  0.00000000  0.40218100  0.75514200  1
  Ga  Ga26  1  0.00000000  0.90218100  0.74485800  1
  Ga  Ga27  1  0.00000000  0.09781900  0.25514200  1
  Ga  Ga28  1  0.50000000  0.83142900  0.01060800  1
  Ga  Ga29  1  0.50000000  0.16857100  0.98939200  1
  Ga  Ga30  1  0.50000000  0.66857100  0.51060800  1
  Ga  Ga31  1  0.50000000  0.33142900  0.48939200  1
  Ga  Ga32  1  0.50000000  0.52537100  0.36627800  1
  Ga  Ga33  1  0.50000000  0.47462900  0.63372200  1
  Ga  Ga34  1  0.50000000  0.97462900  0.86627800  1
  Ga  Ga35  1  0.50000000  0.02537100  0.13372200  1
  Fe  Fe36  1  0.00000000  0.65095200  0.40273000  1
  Fe  Fe37  1  0.00000000  0.34904800  0.59727000  1
  Fe  Fe38  1  0.00000000  0.84904800  0.90273000  1
  Fe  Fe39  1  0.00000000  0.15095200  0.09727000  1
  Fe  Fe40  1  0.00000000  0.53449700  0.09121500  1
  Fe  Fe41  1  0.00000000  0.46550300  0.90878500  1
  Fe  Fe42  1  0.00000000  0.96550300  0.59121500  1
  Fe  Fe43  1  0.00000000  0.03449700  0.40878500  1
