# generated using pymatgen
data_Yb2CrS4
_symmetry_space_group_name_H-M   'P 1'
_cell_length_a   7.60960700
_cell_length_b   12.64519900
_cell_length_c   12.12907300
_cell_angle_alpha   90.00000000
_cell_angle_beta   90.00000000
_cell_angle_gamma   90.00000000
_symmetry_Int_Tables_number   1
_chemical_formula_structural   Yb2CrS4
_chemical_formula_sum   'Yb16 Cr8 S32'
_cell_volume   1167.11998668
_cell_formula_units_Z   8
loop_
 _symmetry_equiv_pos_site_id
 _symmetry_equiv_pos_as_xyz
  1  'x, y, z'
loop_
 _atom_site_type_symbol
 _atom_site_label
 _atom_site_symmetry_multiplicity
 _atom_site_fract_x
 _atom_site_fract_y
 _atom_site_fract_z
 _atom_site_occupancy
  Yb  Yb0  1  0.88071500  0.05912500  0.87375800  1
  Yb  Yb1  1  0.11928500  0.55912500  0.12624200  1
  Yb  Yb2  1  0.88071500  0.55912500  0.62624200  1
  Yb  Yb3  1  0.11928500  0.05912500  0.37375800  1
  Yb  Yb4  1  0.87589100  0.22697200  0.13828000  1
  Yb  Yb5  1  0.12410900  0.72697200  0.86172000  1
  Yb  Yb6  1  0.87589100  0.72697200  0.36172000  1
  Yb  Yb7  1  0.12410900  0.22697200  0.63828000  1
  Yb  Yb8  1  0.37904800  0.42174500  0.89083100  1
  Yb  Yb9  1  0.62095200  0.92174500  0.10916900  1
  Yb  Yb10  1  0.37904800  0.92174500  0.60916900  1
  Yb  Yb11  1  0.62095200  0.42174500  0.39083100  1
  Yb  Yb12  1  0.62236100  0.22860900  0.64084000  1
  Yb  Yb13  1  0.37763900  0.72860900  0.35916000  1
  Yb  Yb14  1  0.62236100  0.72860900  0.85916000  1
  Yb  Yb15  1  0.37763900  0.22860900  0.14084000  1
  Cr  Cr16  1  0.85922800  0.41825300  0.90853700  1
  Cr  Cr17  1  0.14077200  0.91825300  0.09146300  1
  Cr  Cr18  1  0.85922800  0.91825300  0.59146300  1
  Cr  Cr19  1  0.14077200  0.41825300  0.40853700  1
  Cr  Cr20  1  0.36201500  0.06498600  0.88675900  1
  Cr  Cr21  1  0.63798500  0.56498600  0.11324100  1
  Cr  Cr22  1  0.36201500  0.56498600  0.61324100  1
  Cr  Cr23  1  0.63798500  0.06498600  0.38675900  1
  S  S24  1  0.35044800  0.38280700  0.54270000  1
  S  S25  1  0.64955200  0.88280700  0.45730000  1
  S  S26  1  0.35044800  0.88280700  0.95730000  1
  S  S27  1  0.64955200  0.38280700  0.04270000  1
  S  S28  1  0.40519500  0.11374100  0.50019300  1
  S  S29  1  0.59480500  0.61374100  0.49980700  1
  S  S30  1  0.40519500  0.61374100  0.99980700  1
  S  S31  1  0.59480500  0.11374100  0.00019300  1
  S  S32  1  0.86956400  0.27101000  0.80466300  1
  S  S33  1  0.13043600  0.77101000  0.19533700  1
  S  S34  1  0.86956400  0.77101000  0.69533700  1
  S  S35  1  0.13043600  0.27101000  0.30466300  1
  S  S36  1  0.85310500  0.02049800  0.23720700  1
  S  S37  1  0.14689500  0.52049800  0.76279300  1
  S  S38  1  0.85310500  0.52049800  0.26279300  1
  S  S39  1  0.14689500  0.02049800  0.73720700  1
  S  S40  1  0.90679200  0.36819900  0.52032900  1
  S  S41  1  0.09320800  0.86819900  0.47967100  1
  S  S42  1  0.90679200  0.86819900  0.97967100  1
  S  S43  1  0.09320800  0.36819900  0.02032900  1
  S  S44  1  0.84964400  0.09742600  0.51953600  1
  S  S45  1  0.15035600  0.59742600  0.48046400  1
  S  S46  1  0.84964400  0.59742600  0.98046400  1
  S  S47  1  0.15035600  0.09742600  0.01953600  1
  S  S48  1  0.36978900  0.22608900  0.80161200  1
  S  S49  1  0.63021100  0.72608900  0.19838800  1
  S  S50  1  0.36978900  0.72608900  0.69838800  1
  S  S51  1  0.63021100  0.22608900  0.30161200  1
  S  S52  1  0.64287500  0.00453900  0.72568100  1
  S  S53  1  0.35712500  0.50453900  0.27431900  1
  S  S54  1  0.64287500  0.50453900  0.77431900  1
  S  S55  1  0.35712500  0.00453900  0.22568100  1
