# generated using pymatgen
data_Nd4(LuS2)11
_symmetry_space_group_name_H-M   'P 1'
_cell_length_a   19.49365359
_cell_length_b   19.49365359
_cell_length_c   11.25439685
_cell_angle_alpha   88.61073884
_cell_angle_beta   88.61073884
_cell_angle_gamma   11.51452011
_symmetry_Int_Tables_number   1
_chemical_formula_structural   Nd4(LuS2)11
_chemical_formula_sum   'Nd4 Lu11 S22'
_cell_volume   853.44523820
_cell_formula_units_Z   1
loop_
 _symmetry_equiv_pos_site_id
 _symmetry_equiv_pos_as_xyz
  1  'x, y, z'
loop_
 _atom_site_type_symbol
 _atom_site_label
 _atom_site_symmetry_multiplicity
 _atom_site_fract_x
 _atom_site_fract_y
 _atom_site_fract_z
 _atom_site_occupancy
  Nd  Nd0  1  0.10442500  0.10442500  0.98694500  1
  Nd  Nd1  1  0.89557500  0.89557500  0.01305500  1
  Nd  Nd2  1  0.36686800  0.36686800  0.65148000  1
  Nd  Nd3  1  0.63313200  0.63313200  0.34852000  1
  Lu  Lu4  1  0.79768200  0.79768200  0.94156800  1
  Lu  Lu5  1  0.20231800  0.20231800  0.05843200  1
  Lu  Lu6  1  0.46179600  0.46179600  0.72924900  1
  Lu  Lu7  1  0.53820400  0.53820400  0.27075100  1
  Lu  Lu8  1  0.65770400  0.65770400  0.69858700  1
  Lu  Lu9  1  0.34229600  0.34229600  0.30141300  1
  Lu  Lu10  1  0.26344800  0.26344800  0.64810400  1
  Lu  Lu11  1  0.73655200  0.73655200  0.35189600  1
  Lu  Lu12  1  0.06978400  0.06978400  0.63895900  1
  Lu  Lu13  1  0.93021600  0.93021600  0.36104100  1
  Lu  Lu14  1  0.00000000  0.00000000  0.00000000  1
  S  S15  1  0.08718300  0.08718300  0.24692700  1
  S  S16  1  0.91281700  0.91281700  0.75307300  1
  S  S17  1  0.18957400  0.18957400  0.30867100  1
  S  S18  1  0.81042600  0.81042600  0.69132900  1
  S  S19  1  0.28029500  0.28029500  0.41053100  1
  S  S20  1  0.71970500  0.71970500  0.58946900  1
  S  S21  1  0.44495300  0.44495300  0.50639000  1
  S  S22  1  0.55504700  0.55504700  0.49361000  1
  S  S23  1  0.13486600  0.13486600  0.54781900  1
  S  S24  1  0.86513400  0.86513400  0.45218100  1
  S  S25  1  0.59280300  0.59280300  0.78628600  1
  S  S26  1  0.40719700  0.40719700  0.21371400  1
  S  S27  1  0.45344900  0.45344900  0.96888500  1
  S  S28  1  0.54655100  0.54655100  0.03111500  1
  S  S29  1  0.34999300  0.34999300  0.90803500  1
  S  S30  1  0.65000700  0.65000700  0.09196500  1
  S  S31  1  0.16903200  0.16903200  0.84829000  1
  S  S32  1  0.83096800  0.83096800  0.15171000  1
  S  S33  1  0.00786600  0.00786600  0.75978200  1
  S  S34  1  0.99213400  0.99213400  0.24021800  1
  S  S35  1  0.25503900  0.25503900  0.88089700  1
  S  S36  1  0.74496100  0.74496100  0.11910300  1
