# generated using pymatgen
data_PrYSi2O7
_symmetry_space_group_name_H-M   'P 1'
_cell_length_a   8.67302400
_cell_length_b   5.44265100
_cell_length_c   13.98106933
_cell_angle_alpha   67.53363041
_cell_angle_beta   90.00000000
_cell_angle_gamma   90.00000000
_symmetry_Int_Tables_number   1
_chemical_formula_structural   PrYSi2O7
_chemical_formula_sum   'Pr4 Y4 Si8 O28'
_cell_volume   609.87702253
_cell_formula_units_Z   4
loop_
 _symmetry_equiv_pos_site_id
 _symmetry_equiv_pos_as_xyz
  1  'x, y, z'
loop_
 _atom_site_type_symbol
 _atom_site_label
 _atom_site_symmetry_multiplicity
 _atom_site_fract_x
 _atom_site_fract_y
 _atom_site_fract_z
 _atom_site_occupancy
  Pr  Pr0  1  0.80851700  0.47446300  0.77220600  1
  Pr  Pr1  1  0.30851700  0.52553700  0.72779400  1
  Pr  Pr2  1  0.19148300  0.52553700  0.22779400  1
  Pr  Pr3  1  0.69148300  0.47446300  0.27220600  1
  Y  Y4  1  0.60364100  0.17383100  0.59161300  1
  Y  Y5  1  0.10364100  0.82616900  0.90838700  1
  Y  Y6  1  0.39635900  0.82616900  0.40838700  1
  Y  Y7  1  0.89635900  0.17383100  0.09161300  1
  Si  Si8  1  0.24699200  0.25668200  0.02090400  1
  Si  Si9  1  0.74699200  0.74331800  0.47909600  1
  Si  Si10  1  0.75300800  0.74331800  0.97909600  1
  Si  Si11  1  0.25300800  0.25668200  0.52090400  1
  Si  Si12  1  0.50568800  0.03765900  0.17929400  1
  Si  Si13  1  0.00568800  0.96234100  0.32070600  1
  Si  Si14  1  0.49431200  0.96234100  0.82070600  1
  Si  Si15  1  0.99431200  0.03765900  0.67929400  1
  O  O16  1  0.42187700  0.20759600  0.06865000  1
  O  O17  1  0.92187700  0.79240400  0.43135000  1
  O  O18  1  0.57812300  0.79240400  0.93135000  1
  O  O19  1  0.07812300  0.20759600  0.56865000  1
  O  O20  1  0.15686700  0.97731100  0.03935000  1
  O  O21  1  0.65686700  0.02268900  0.46065000  1
  O  O22  1  0.84313300  0.02268900  0.96065000  1
  O  O23  1  0.34313300  0.97731100  0.53935000  1
  O  O24  1  0.13552400  0.41100100  0.07828900  1
  O  O25  1  0.63552400  0.58899900  0.42171100  1
  O  O26  1  0.86447600  0.58899900  0.92171100  1
  O  O27  1  0.36447600  0.41100100  0.57828900  1
  O  O28  1  0.25048800  0.47256300  0.90281300  1
  O  O29  1  0.75048800  0.52743700  0.59718700  1
  O  O30  1  0.74951200  0.52743700  0.09718700  1
  O  O31  1  0.24951200  0.47256300  0.40281300  1
  O  O32  1  0.48887500  0.19495800  0.25881500  1
  O  O33  1  0.98887500  0.80504200  0.24118500  1
  O  O34  1  0.51112500  0.80504200  0.74118500  1
  O  O35  1  0.01112500  0.19495800  0.75881500  1
  O  O36  1  0.42268400  0.74843900  0.23866900  1
  O  O37  1  0.92268400  0.25156100  0.26133100  1
  O  O38  1  0.57731600  0.25156100  0.76133100  1
  O  O39  1  0.07731600  0.74843900  0.73866900  1
  O  O40  1  0.68400400  0.96112000  0.16744100  1
  O  O41  1  0.18400400  0.03888000  0.33255900  1
  O  O42  1  0.31599600  0.03888000  0.83255900  1
  O  O43  1  0.81599600  0.96112000  0.66744100  1
