# generated using pymatgen
data_Mn(N2O5)2
_symmetry_space_group_name_H-M   'P 1'
_cell_length_a   9.66360700
_cell_length_b   10.51209000
_cell_length_c   16.22166900
_cell_angle_alpha   90.00000000
_cell_angle_beta   90.00000000
_cell_angle_gamma   90.00000000
_symmetry_Int_Tables_number   1
_chemical_formula_structural   Mn(N2O5)2
_chemical_formula_sum   'Mn8 N32 O80'
_cell_volume   1647.87348445
_cell_formula_units_Z   8
loop_
 _symmetry_equiv_pos_site_id
 _symmetry_equiv_pos_as_xyz
  1  'x, y, z'
loop_
 _atom_site_type_symbol
 _atom_site_label
 _atom_site_symmetry_multiplicity
 _atom_site_fract_x
 _atom_site_fract_y
 _atom_site_fract_z
 _atom_site_occupancy
  Mn  Mn0  1  0.13400500  0.93389300  0.03557400  1
  Mn  Mn1  1  0.86599500  0.43389300  0.96442600  1
  Mn  Mn2  1  0.36599500  0.43389300  0.03557400  1
  Mn  Mn3  1  0.63400500  0.93389300  0.96442600  1
  Mn  Mn4  1  0.85554300  0.75925300  0.46393200  1
  Mn  Mn5  1  0.14445700  0.25925300  0.53606800  1
  Mn  Mn6  1  0.64445700  0.25925300  0.46393200  1
  Mn  Mn7  1  0.35554300  0.75925300  0.53606800  1
  N  N8  1  0.72424400  0.74050700  0.21022400  1
  N  N9  1  0.27575600  0.24050700  0.78977600  1
  N  N10  1  0.77575600  0.24050700  0.21022400  1
  N  N11  1  0.22424400  0.74050700  0.78977600  1
  N  N12  1  0.69298600  0.59069100  0.70404300  1
  N  N13  1  0.30701400  0.09069100  0.29595700  1
  N  N14  1  0.80701400  0.09069100  0.70404300  1
  N  N15  1  0.19298600  0.59069100  0.29595700  1
  N  N16  1  0.91185500  0.95191700  0.88771300  1
  N  N17  1  0.08814500  0.45191700  0.11228700  1
  N  N18  1  0.58814500  0.45191700  0.88771300  1
  N  N19  1  0.41185500  0.95191700  0.11228700  1
  N  N20  1  0.24600900  0.69391200  0.99093600  1
  N  N21  1  0.75399100  0.19391200  0.00906400  1
  N  N22  1  0.25399100  0.19391200  0.99093600  1
  N  N23  1  0.74600900  0.69391200  0.00906400  1
  N  N24  1  0.93850100  0.93973100  0.15744000  1
  N  N25  1  0.06149900  0.43973100  0.84256000  1
  N  N26  1  0.56149900  0.43973100  0.15744000  1
  N  N27  1  0.43850100  0.93973100  0.84256000  1
  N  N28  1  0.07196900  0.75983900  0.61331200  1
  N  N29  1  0.92803100  0.25983900  0.38668800  1
  N  N30  1  0.42803100  0.25983900  0.61331200  1
  N  N31  1  0.57196900  0.75983900  0.38668800  1
  N  N32  1  0.73746600  0.02489300  0.52017400  1
  N  N33  1  0.26253400  0.52489300  0.47982600  1
  N  N34  1  0.76253400  0.52489300  0.52017400  1
  N  N35  1  0.23746600  0.02489300  0.47982600  1
  N  N36  1  0.03935900  0.84427100  0.34680100  1
  N  N37  1  0.96064100  0.34427100  0.65319900  1
  N  N38  1  0.46064100  0.34427100  0.34680100  1
  N  N39  1  0.53935900  0.84427100  0.65319900  1
  O  O40  1  0.93099200  0.93797200  0.96608300  1
  O  O41  1  0.06900800  0.43797200  0.03391700  1
  O  O42  1  0.56900800  0.43797200  0.96608300  1
  O  O43  1  0.43099200  0.93797200  0.03391700  1
  O  O44  1  0.28571600  0.95194900  0.13691200  1
  O  O45  1  0.71428400  0.45194900  0.86308800  1
  O  O46  1  0.21428400  0.45194900  0.13691200  1
  O  O47  1  0.78571600  0.95194900  0.86308800  1
  O  O48  1  0.00853200  0.96514300  0.83888100  1
  O  O49  1  0.99146800  0.46514300  0.16111900  1
  O  O50  1  0.49146800  0.46514300  0.83888100  1
  O  O51  1  0.50853200  0.96514300  0.16111900  1
  O  O52  1  0.19612200  0.78157100  0.94431100  1
  O  O53  1  0.80387800  0.28157100  0.05568900  1
  O  O54  1  0.30387800  0.28157100  0.94431100  1
  O  O55  1  0.69612200  0.78157100  0.05568900  1
  O  O56  1  0.19710700  0.09826500  0.95737400  1
  O  O57  1  0.80289300  0.59826500  0.04262600  1
  O  O58  1  0.30289300  0.59826500  0.95737400  1
  O  O59  1  0.69710700  0.09826500  0.04262600  1
  O  O60  1  0.23738700  0.70610100  0.06716200  1
  O  O61  1  0.76261300  0.20610100  0.93283800  1
  O  O62  1  0.26261300  0.20610100  0.06716200  1
  O  O63  1  0.73738700  0.70610100  0.93283800  1
  O  O64  1  0.98683300  0.83814500  0.12584100  1
  O  O65  1  0.01316700  0.33814500  0.87415900  1
  O  O66  1  0.51316700  0.33814500  0.12584100  1
  O  O67  1  0.48683300  0.83814500  0.87415900  1
  O  O68  1  0.98791200  0.04562100  0.13454000  1
  O  O69  1  0.01208800  0.54562100  0.86546000  1
  O  O70  1  0.51208800  0.54562100  0.13454000  1
  O  O71  1  0.48791200  0.04562100  0.86546000  1
  O  O72  1  0.84333400  0.93458400  0.21063600  1
  O  O73  1  0.15666600  0.43458400  0.78936400  1
  O  O74  1  0.65666600  0.43458400  0.21063600  1
  O  O75  1  0.34333400  0.93458400  0.78936400  1
  O  O76  1  0.05301400  0.74881900  0.53500900  1
  O  O77  1  0.94698600  0.24881900  0.46499100  1
  O  O78  1  0.44698600  0.24881900  0.53500900  1
  O  O79  1  0.55301400  0.74881900  0.46499100  1
  O  O80  1  0.69985800  0.76533000  0.36338500  1
  O  O81  1  0.30014200  0.26533000  0.63661500  1
  O  O82  1  0.80014200  0.26533000  0.36338500  1
  O  O83  1  0.19985800  0.76533000  0.63661500  1
  O  O84  1  0.97724700  0.76495900  0.66343200  1
  O  O85  1  0.02275300  0.26495900  0.33656800  1
  O  O86  1  0.52275300  0.26495900  0.66343200  1
  O  O87  1  0.47724700  0.76495900  0.33656800  1
  O  O88  1  0.79187300  0.92251000  0.54325200  1
  O  O89  1  0.20812700  0.42251000  0.45674800  1
  O  O90  1  0.70812700  0.42251000  0.54325200  1
  O  O91  1  0.29187300  0.92251000  0.45674800  1
  O  O92  1  0.76675100  0.62071000  0.56912100  1
  O  O93  1  0.23324900  0.12071000  0.43087900  1
  O  O94  1  0.73324900  0.12071000  0.56912100  1
  O  O95  1  0.26675100  0.62071000  0.43087900  1
  O  O96  1  0.81466700  0.54007200  0.44947600  1
  O  O97  1  0.18533300  0.04007200  0.55052400  1
  O  O98  1  0.68533300  0.04007200  0.44947600  1
  O  O99  1  0.31466700  0.54007200  0.55052400  1
  O  O100  1  0.97869100  0.91902000  0.39657500  1
  O  O101  1  0.02130900  0.41902000  0.60342500  1
  O  O102  1  0.52130900  0.41902000  0.39657500  1
  O  O103  1  0.47869100  0.91902000  0.60342500  1
  O  O104  1  0.00428200  0.72499700  0.35166500  1
  O  O105  1  0.99571800  0.22499700  0.64833500  1
  O  O106  1  0.49571800  0.22499700  0.35166500  1
  O  O107  1  0.50428200  0.72499700  0.64833500  1
  O  O108  1  0.12734200  0.87970200  0.29651000  1
  O  O109  1  0.87265700  0.37970200  0.70349000  1
  O  O110  1  0.37265700  0.37970200  0.29651000  1
  O  O111  1  0.62734300  0.87970200  0.70349000  1
  O  O112  1  0.70338900  0.15789900  0.20881900  1
  O  O113  1  0.29661100  0.65789900  0.79118100  1
  O  O114  1  0.79661100  0.65789900  0.20881900  1
  O  O115  1  0.20338900  0.15789900  0.79118100  1
  O  O116  1  0.75646600  0.65639400  0.74274700  1
  O  O117  1  0.24353400  0.15639400  0.25725300  1
  O  O118  1  0.74353400  0.15639400  0.74274700  1
  O  O119  1  0.25646600  0.65639400  0.25725300  1
