# generated using pymatgen
data_Cs2Mo5(P3O11)3
_symmetry_space_group_name_H-M   'P 1'
_cell_length_a   6.59940800
_cell_length_b   14.78869990
_cell_length_c   16.01305209
_cell_angle_alpha   90.13795402
_cell_angle_beta   98.14048467
_cell_angle_gamma   90.72223025
_symmetry_Int_Tables_number   1
_chemical_formula_structural   Cs2Mo5(P3O11)3
_chemical_formula_sum   'Cs4 Mo10 P18 O66'
_cell_volume   1546.93647465
_cell_formula_units_Z   2
loop_
 _symmetry_equiv_pos_site_id
 _symmetry_equiv_pos_as_xyz
  1  'x, y, z'
loop_
 _atom_site_type_symbol
 _atom_site_label
 _atom_site_symmetry_multiplicity
 _atom_site_fract_x
 _atom_site_fract_y
 _atom_site_fract_z
 _atom_site_occupancy
  Cs  Cs0  1  0.36636200  0.24074800  0.44252000  1
  Cs  Cs1  1  0.63363800  0.75925200  0.55748000  1
  Cs  Cs2  1  0.00000000  0.50000000  0.00000000  1
  Cs  Cs3  1  0.00000000  0.00000000  0.00000000  1
  Mo  Mo4  1  0.87631300  0.37171800  0.59437400  1
  Mo  Mo5  1  0.12368700  0.62828200  0.40562600  1
  Mo  Mo6  1  0.47354900  0.38524100  0.86065700  1
  Mo  Mo7  1  0.52645100  0.61475900  0.13934300  1
  Mo  Mo8  1  0.86577600  0.11435000  0.60337600  1
  Mo  Mo9  1  0.13422400  0.88565000  0.39662400  1
  Mo  Mo10  1  0.47318600  0.13029900  0.87250800  1
  Mo  Mo11  1  0.52681400  0.86970100  0.12749200  1
  Mo  Mo12  1  0.82173800  0.25598000  0.23367200  1
  Mo  Mo13  1  0.17826200  0.74402000  0.76632800  1
  P  P14  1  0.95949800  0.35944400  0.80963100  1
  P  P15  1  0.04050200  0.64055600  0.19036900  1
  P  P16  1  0.37381000  0.08122200  0.65227700  1
  P  P17  1  0.62619000  0.91877800  0.34772300  1
  P  P18  1  0.95898100  0.14940800  0.81793900  1
  P  P19  1  0.04101900  0.85059200  0.18206100  1
  P  P20  1  0.87683100  0.08365900  0.38974400  1
  P  P21  1  0.12316900  0.91634100  0.61025600  1
  P  P22  1  0.38124500  0.40909800  0.63772000  1
  P  P23  1  0.61875500  0.59090200  0.36228000  1
  P  P24  1  0.87857300  0.42627900  0.39051500  1
  P  P25  1  0.12142700  0.57372100  0.60948500  1
  P  P26  1  0.33231100  0.24801400  0.18212200  1
  P  P27  1  0.66768900  0.75198600  0.81787800  1
  P  P28  1  0.54078600  0.10922700  0.09755400  1
  P  P29  1  0.45921400  0.89077300  0.90244600  1
  P  P30  1  0.46275700  0.61341700  0.91012800  1
  P  P31  1  0.53724300  0.38658300  0.08987200  1
  O  O32  1  0.93807100  0.50934100  0.58500400  1
  O  O33  1  0.06192900  0.49065900  0.41499600  1
  O  O34  1  0.83779100  0.36610600  0.46470900  1
  O  O35  1  0.16220900  0.63389400  0.53529100  1
  O  O36  1  0.19372400  0.35520900  0.59615000  1
  O  O37  1  0.80627600  0.64479100  0.40385000  1
  O  O38  1  0.55672400  0.39424400  0.58708100  1
  O  O39  1  0.44327600  0.60575600  0.41291900  1
  O  O40  1  0.91296100  0.39770200  0.72149500  1
  O  O41  1  0.08703900  0.60229800  0.27850500  1
  O  O42  1  0.83875700  0.24347200  0.60348700  1
  O  O43  1  0.16124300  0.75652800  0.39651300  1
  O  O44  1  0.79204900  0.37565100  0.86424700  1
  O  O45  1  0.20795100  0.62434900  0.13575300  1
  O  O46  1  0.50975900  0.52473700  0.86702900  1
  O  O47  1  0.49024100  0.47526300  0.13297100  1
  O  O48  1  0.15905600  0.39683300  0.85870500  1
  O  O49  1  0.84094400  0.60316700  0.14129500  1
  O  O50  1  0.51491100  0.39531900  0.99458000  1
  O  O51  1  0.48508900  0.60468100  0.00542000  1
  O  O52  1  0.45706200  0.25729900  0.86274400  1
  O  O53  1  0.54293800  0.74270100  0.13725600  1
  O  O54  1  0.43715400  0.38928400  0.73159300  1
  O  O55  1  0.56284600  0.61071600  0.26840700  1
  O  O56  1  0.18632800  0.12816900  0.60358100  1
  O  O57  1  0.81367200  0.87183100  0.39641900  1
  O  O58  1  0.80777400  0.11476200  0.47192100  1
  O  O59  1  0.19222600  0.88523800  0.52807900  1
  O  O60  1  0.55288300  0.08859600  0.60049300  1
  O  O61  1  0.44711700  0.91140400  0.39950700  1
  O  O62  1  0.91549100  0.10056200  0.73440200  1
  O  O63  1  0.08450900  0.89943800  0.26559800  1
  O  O64  1  0.93337600  0.97668600  0.59813700  1
  O  O65  1  0.06662400  0.02331400  0.40186300  1
  O  O66  1  0.49764400  0.99223600  0.89445800  1
  O  O67  1  0.50235600  0.00776400  0.10554200  1
  O  O68  1  0.78970300  0.13756100  0.87344900  1
  O  O69  1  0.21029700  0.86243900  0.12655100  1
  O  O70  1  0.43289500  0.11358400  0.74244100  1
  O  O71  1  0.56710500  0.88641600  0.25755900  1
  O  O72  1  0.15811700  0.11962600  0.87191400  1
  O  O73  1  0.84188300  0.88037400  0.12808600  1
  O  O74  1  0.51946200  0.13978000  0.00612300  1
  O  O75  1  0.48053800  0.86022000  0.99387700  1
  O  O76  1  0.90827500  0.16413000  0.33462600  1
  O  O77  1  0.09172500  0.83587000  0.66537400  1
  O  O78  1  0.50781700  0.26046300  0.25353100  1
  O  O79  1  0.49218300  0.73953700  0.74646900  1
  O  O80  1  0.90485200  0.36969100  0.31436400  1
  O  O81  1  0.09514800  0.63030900  0.68563600  1
  O  O82  1  0.12717500  0.25349700  0.20907300  1
  O  O83  1  0.87282500  0.74650300  0.79092700  1
  O  O84  1  0.73617700  0.14260500  0.15047000  1
  O  O85  1  0.26382300  0.85739500  0.84953000  1
  O  O86  1  0.26191300  0.65498500  0.87181600  1
  O  O87  1  0.73808700  0.34501500  0.12818400  1
  O  O88  1  0.31572200  0.97514000  0.65847500  1
  O  O89  1  0.68427800  0.02486000  0.34152500  1
  O  O90  1  0.34791800  0.31919800  0.10760300  1
  O  O91  1  0.65208200  0.68080200  0.89239700  1
  O  O92  1  0.98737500  0.25360600  0.79609800  1
  O  O93  1  0.01262500  0.74639400  0.20390200  1
  O  O94  1  0.34432000  0.15194400  0.13642000  1
  O  O95  1  0.65568000  0.84805600  0.86358000  1
  O  O96  1  0.32885700  0.51568200  0.63165300  1
  O  O97  1  0.67114300  0.48431800  0.36834700  1
