# generated using pymatgen
data_Na2H8WO12
_symmetry_space_group_name_H-M   'P 1'
_cell_length_a   8.62413200
_cell_length_b   9.97430130
_cell_length_c   12.44387042
_cell_angle_alpha   92.56803475
_cell_angle_beta   90.00000000
_cell_angle_gamma   90.00000000
_symmetry_Int_Tables_number   1
_chemical_formula_structural   Na2H8WO12
_chemical_formula_sum   'Na8 H32 W4 O48'
_cell_volume   1069.34289261
_cell_formula_units_Z   4
loop_
 _symmetry_equiv_pos_site_id
 _symmetry_equiv_pos_as_xyz
  1  'x, y, z'
loop_
 _atom_site_type_symbol
 _atom_site_label
 _atom_site_symmetry_multiplicity
 _atom_site_fract_x
 _atom_site_fract_y
 _atom_site_fract_z
 _atom_site_occupancy
  Na  Na0  1  0.29780300  0.37589500  0.76852400  1
  Na  Na1  1  0.79780300  0.62410500  0.73147600  1
  Na  Na2  1  0.70219700  0.62410500  0.23147600  1
  Na  Na3  1  0.20219700  0.37589500  0.26852400  1
  Na  Na4  1  0.16318700  0.15756100  0.02788000  1
  Na  Na5  1  0.66318700  0.84243900  0.47212000  1
  Na  Na6  1  0.83681300  0.84243900  0.97212000  1
  Na  Na7  1  0.33681300  0.15756100  0.52788000  1
  H  H8  1  0.40605700  0.03276000  0.91157000  1
  H  H9  1  0.90605700  0.96724000  0.58843000  1
  H  H10  1  0.59394300  0.96724000  0.08843000  1
  H  H11  1  0.09394300  0.03276000  0.41157000  1
  H  H12  1  0.37689400  0.16042100  0.85274900  1
  H  H13  1  0.87689400  0.83957900  0.64725100  1
  H  H14  1  0.62310600  0.83957900  0.14725100  1
  H  H15  1  0.12310600  0.16042100  0.35274900  1
  H  H16  1  0.25374400  0.03580000  0.72311300  1
  H  H17  1  0.75374400  0.96420000  0.77688700  1
  H  H18  1  0.74625600  0.96420000  0.27688700  1
  H  H19  1  0.24625600  0.03580000  0.22311300  1
  H  H20  1  0.12265600  0.13482800  0.68922900  1
  H  H21  1  0.62265600  0.86517200  0.81077100  1
  H  H22  1  0.87734400  0.86517200  0.31077100  1
  H  H23  1  0.37734400  0.13482800  0.18922900  1
  H  H24  1  0.06532100  0.40936600  0.61984800  1
  H  H25  1  0.56532100  0.59063400  0.88015200  1
  H  H26  1  0.93467900  0.59063400  0.38015200  1
  H  H27  1  0.43467900  0.40936600  0.11984800  1
  H  H28  1  0.19354400  0.48571200  0.55945900  1
  H  H29  1  0.69354400  0.51428800  0.94054100  1
  H  H30  1  0.80645600  0.51428800  0.44054100  1
  H  H31  1  0.30645600  0.48571200  0.05945900  1
  H  H32  1  0.05817600  0.48268900  0.89287000  1
  H  H33  1  0.55817600  0.51731100  0.60713000  1
  H  H34  1  0.94182400  0.51731100  0.10713000  1
  H  H35  1  0.44182400  0.48268900  0.39287000  1
  H  H36  1  0.98872100  0.33740400  0.89716300  1
  H  H37  1  0.48872100  0.66259600  0.60283700  1
  H  H38  1  0.01127900  0.66259600  0.10283700  1
  H  H39  1  0.51127900  0.33740400  0.39716300  1
  W  W40  1  0.72222500  0.23702100  0.62078000  1
  W  W41  1  0.22222500  0.76297900  0.87922000  1
  W  W42  1  0.27777500  0.76297900  0.37922000  1
  W  W43  1  0.77777500  0.23702100  0.12078000  1
  O  O44  1  0.56601400  0.30072700  0.72979700  1
  O  O45  1  0.06601400  0.69927300  0.77020300  1
  O  O46  1  0.43398600  0.69927300  0.27020300  1
  O  O47  1  0.93398600  0.30072700  0.22979700  1
  O  O48  1  0.52315500  0.34533300  0.61888400  1
  O  O49  1  0.02315500  0.65466700  0.88111600  1
  O  O50  1  0.47684500  0.65466700  0.38111600  1
  O  O51  1  0.97684500  0.34533300  0.11888400  1
  O  O52  1  0.82457300  0.14024300  0.73901800  1
  O  O53  1  0.32457300  0.85975700  0.76098200  1
  O  O54  1  0.17542700  0.85975700  0.26098200  1
  O  O55  1  0.67542700  0.14024300  0.23901800  1
  O  O56  1  0.92021700  0.13103000  0.63765000  1
  O  O57  1  0.42021700  0.86897000  0.86235000  1
  O  O58  1  0.07978300  0.86897000  0.36235000  1
  O  O59  1  0.57978300  0.13103000  0.13765000  1
  O  O60  1  0.60017400  0.07162400  0.58105500  1
  O  O61  1  0.10017400  0.92837600  0.91894500  1
  O  O62  1  0.39982600  0.92837600  0.41894500  1
  O  O63  1  0.89982600  0.07162400  0.08105500  1
  O  O64  1  0.65746500  0.14304800  0.48401400  1
  O  O65  1  0.15746500  0.85695200  0.01598600  1
  O  O66  1  0.34253500  0.85695200  0.51598600  1
  O  O67  1  0.84253500  0.14304800  0.98401400  1
  O  O68  1  0.34977400  0.59302200  0.85428300  1
  O  O69  1  0.84977400  0.40697800  0.64571700  1
  O  O70  1  0.65022600  0.40697800  0.14571700  1
  O  O71  1  0.15022600  0.59302200  0.35428300  1
  O  O72  1  0.32684800  0.63279100  0.97132900  1
  O  O73  1  0.82684800  0.36720900  0.52867100  1
  O  O74  1  0.67315200  0.36720900  0.02867100  1
  O  O75  1  0.17315200  0.63279100  0.47132900  1
  O  O76  1  0.38803200  0.13030800  0.92576300  1
  O  O77  1  0.88803200  0.86969200  0.57423700  1
  O  O78  1  0.61196800  0.86969200  0.07423700  1
  O  O79  1  0.11196800  0.13030800  0.42576300  1
  O  O80  1  0.23505300  0.12946100  0.70420400  1
  O  O81  1  0.73505300  0.87053900  0.79579600  1
  O  O82  1  0.76494700  0.87053900  0.29579600  1
  O  O83  1  0.26494700  0.12946100  0.20420400  1
  O  O84  1  0.17829300  0.41352100  0.60950000  1
  O  O85  1  0.67829300  0.58647900  0.89050000  1
  O  O86  1  0.82170700  0.58647900  0.39050000  1
  O  O87  1  0.32170700  0.41352100  0.10950000  1
  O  O88  1  0.08602300  0.38565100  0.89079000  1
  O  O89  1  0.58602300  0.61434900  0.60921000  1
  O  O90  1  0.91397700  0.61434900  0.10921000  1
  O  O91  1  0.41397700  0.38565100  0.39079000  1
