# generated using pymatgen
data_Na6UH24C5O27
_symmetry_space_group_name_H-M   'P 1'
_cell_length_a   9.66460300
_cell_length_b   9.86397133
_cell_length_c   13.92821814
_cell_angle_alpha   91.23651463
_cell_angle_beta   104.28259488
_cell_angle_gamma   93.31199198
_symmetry_Int_Tables_number   1
_chemical_formula_structural   Na6UH24C5O27
_chemical_formula_sum   'Na12 U2 H48 C10 O54'
_cell_volume   1283.72426279
_cell_formula_units_Z   2
loop_
 _symmetry_equiv_pos_site_id
 _symmetry_equiv_pos_as_xyz
  1  'x, y, z'
loop_
 _atom_site_type_symbol
 _atom_site_label
 _atom_site_symmetry_multiplicity
 _atom_site_fract_x
 _atom_site_fract_y
 _atom_site_fract_z
 _atom_site_occupancy
  Na  Na0  1  0.80492700  0.75445100  0.19553400  1
  Na  Na1  1  0.19507300  0.24554900  0.80446600  1
  Na  Na2  1  0.85443100  0.41016600  0.91027000  1
  Na  Na3  1  0.14556900  0.58983400  0.08973000  1
  Na  Na4  1  0.87265200  0.09544100  0.84519200  1
  Na  Na5  1  0.12734800  0.90455900  0.15480800  1
  Na  Na6  1  0.40444200  0.85893700  0.04170500  1
  Na  Na7  1  0.59555800  0.14106300  0.95829500  1
  Na  Na8  1  0.81387700  0.43679200  0.44007700  1
  Na  Na9  1  0.18612300  0.56320800  0.55992300  1
  Na  Na10  1  0.61004300  0.15292200  0.49238400  1
  Na  Na11  1  0.38995700  0.84707800  0.50761600  1
  U  U12  1  0.76242900  0.71289400  0.76857000  1
  U  U13  1  0.23757100  0.28710600  0.23143000  1
  H  H14  1  0.61422200  0.17986800  0.74830400  1
  H  H15  1  0.38577800  0.82013200  0.25169600  1
  H  H16  1  0.62640100  0.32633400  0.80292800  1
  H  H17  1  0.37359900  0.67366600  0.19707200  1
  H  H18  1  0.80470700  0.94452100  0.98778100  1
  H  H19  1  0.19529300  0.05547900  0.01221900  1
  H  H20  1  0.88766900  0.06572900  0.06237300  1
  H  H21  1  0.11233100  0.93427100  0.93762700  1
  H  H22  1  0.91763900  0.61873200  0.35667400  1
  H  H23  1  0.08236100  0.38126800  0.64332600  1
  H  H24  1  0.96132600  0.53078300  0.27758100  1
  H  H25  1  0.03867400  0.46921700  0.72241900  1
  H  H26  1  0.60904800  0.57515800  0.48007500  1
  H  H27  1  0.39095200  0.42484200  0.51992500  1
  H  H28  1  0.49888500  0.52234100  0.38291900  1
  H  H29  1  0.50111500  0.47765900  0.61708100  1
  H  H30  1  0.66104900  0.71362000  0.35529600  1
  H  H31  1  0.33895100  0.28638000  0.64470400  1
  H  H32  1  0.65217900  0.87026200  0.34256200  1
  H  H33  1  0.34782100  0.12973800  0.65743800  1
  H  H34  1  0.76490800  0.17863100  0.33277400  1
  H  H35  1  0.23509200  0.82136900  0.66722600  1
  H  H36  1  0.62802200  0.26421200  0.30352100  1
  H  H37  1  0.37197800  0.73578800  0.69647900  1
  H  H38  1  0.84241900  0.33567200  0.08751700  1
  H  H39  1  0.15758100  0.66432800  0.91248300  1
  H  H40  1  0.68782600  0.38779000  0.08090100  1
  H  H41  1  0.31217400  0.61221000  0.91909900  1
  H  H42  1  0.57599700  0.62639500  0.08041300  1
  H  H43  1  0.42400300  0.37360500  0.91958700  1
  H  H44  1  0.64480600  0.72883500  0.01328300  1
  H  H45  1  0.35519400  0.27116500  0.98671700  1
  H  H46  1  0.33434400  0.93982700  0.83848100  1
  H  H47  1  0.66565600  0.06017300  0.16151900  1
  H  H48  1  0.48146500  0.87833600  0.84807700  1
  H  H49  1  0.51853500  0.12166400  0.15192300  1
  H  H50  1  0.74707300  0.91375000  0.53547600  1
  H  H51  1  0.25292700  0.08625000  0.46452400  1
  H  H52  1  0.84745100  0.03560800  0.58416800  1
  H  H53  1  0.15254900  0.96439200  0.41583200  1
  H  H54  1  0.10150600  0.76451900  0.34257000  1
  H  H55  1  0.89849400  0.23548100  0.65743000  1
  H  H56  1  0.97782500  0.87127500  0.34032300  1
  H  H57  1  0.02217500  0.12872500  0.65967700  1
  H  H58  1  0.03956400  0.29373400  0.41664000  1
  H  H59  1  0.96043600  0.70626600  0.58336000  1
  H  H60  1  0.06850800  0.24703300  0.52333300  1
  H  H61  1  0.93149200  0.75296700  0.47666700  1
  C  C62  1  0.78006500  0.46152300  0.65396300  1
  C  C63  1  0.21993500  0.53847700  0.34603700  1
  C  C64  1  0.52570000  0.57522500  0.83089100  1
  C  C65  1  0.47430000  0.42477500  0.16910900  1
  C  C66  1  0.61702500  0.94393700  0.67552700  1
  C  C67  1  0.38297500  0.05606300  0.32447300  1
  C  C68  1  0.89050900  0.71623100  0.98426200  1
  C  C69  1  0.10949100  0.28376900  0.01573800  1
  C  C70  1  0.03107200  0.86001400  0.75129300  1
  C  C71  1  0.96892800  0.13998600  0.24870700  1
  O  O72  1  0.87072700  0.49439600  0.73871500  1
  O  O73  1  0.12927300  0.50560400  0.26128500  1
  O  O74  1  0.68078000  0.54858400  0.62410000  1
  O  O75  1  0.31922000  0.45141600  0.37590000  1
  O  O76  1  0.78807300  0.35492100  0.60218300  1
  O  O77  1  0.21192700  0.64507900  0.39781700  1
  O  O78  1  0.64088600  0.51191200  0.82850100  1
  O  O79  1  0.35911400  0.48808800  0.17149900  1
  O  O80  1  0.52010200  0.69394300  0.78771900  1
  O  O81  1  0.47989800  0.30605700  0.21228100  1
  O  O82  1  0.43082300  0.52909500  0.87131000  1
  O  O83  1  0.56917700  0.47090500  0.12869000  1
  O  O84  1  0.77510100  0.77903500  0.94295900  1
  O  O85  1  0.22489900  0.22096500  0.05704100  1
  O  O86  1  0.93657200  0.63738500  0.92407000  1
  O  O87  1  0.06342800  0.36261500  0.07593000  1
  O  O88  1  0.95133500  0.73244100  0.07645200  1
  O  O89  1  0.04866500  0.26755900  0.92354800  1
  O  O90  1  0.68294400  0.93948700  0.76962700  1
  O  O91  1  0.31705600  0.06051300  0.23037300  1
  O  O92  1  0.62237800  0.83296100  0.62246900  1
  O  O93  1  0.37762200  0.16703900  0.37753100  1
  O  O94  1  0.55430500  0.04805100  0.63859400  1
  O  O95  1  0.44569500  0.95194900  0.36140600  1
  O  O96  1  0.98030600  0.88633100  0.82825900  1
  O  O97  1  0.01969400  0.11366900  0.17174100  1
  O  O98  1  0.94826100  0.76943500  0.68699500  1
  O  O99  1  0.05173900  0.23056500  0.31300500  1
  O  O100  1  0.14626000  0.91472700  0.73874200  1
  O  O101  1  0.85374000  0.08527300  0.26125800  1
  O  O102  1  0.66240700  0.23437200  0.80921800  1
  O  O103  1  0.33759300  0.76562800  0.19078200  1
  O  O104  1  0.81863700  0.04490300  0.99740700  1
  O  O105  1  0.18136300  0.95509700  0.00259300  1
  O  O106  1  0.87552600  0.55814000  0.29930900  1
  O  O107  1  0.12447400  0.44186000  0.70069100  1
  O  O108  1  0.59767500  0.56354500  0.40794900  1
  O  O109  1  0.40232500  0.43645500  0.59205100  1
  O  O110  1  0.70987500  0.79475200  0.33415800  1
  O  O111  1  0.29012500  0.20524800  0.66584200  1
  O  O112  1  0.70277200  0.23697100  0.36112900  1
  O  O113  1  0.29722800  0.76302900  0.63887100  1
  O  O114  1  0.74884300  0.34412200  0.04229400  1
  O  O115  1  0.25115700  0.65587800  0.95770600  1
  O  O116  1  0.59976500  0.72402300  0.06950800  1
  O  O117  1  0.40023500  0.27597700  0.93049200  1
  O  O118  1  0.43278900  0.94324900  0.88056700  1
  O  O119  1  0.56721100  0.05675100  0.11943300  1
  O  O120  1  0.79649900  0.99609500  0.51869500  1
  O  O121  1  0.20350100  0.00390500  0.48130500  1
  O  O122  1  0.05193000  0.84424800  0.30838700  1
  O  O123  1  0.94807000  0.15575200  0.69161300  1
  O  O124  1  0.04231200  0.32846600  0.48628000  1
  O  O125  1  0.95768800  0.67153400  0.51372000  1
