# generated using pymatgen
data_Na5Sc(C2O7)2
_symmetry_space_group_name_H-M   'P 1'
_cell_length_a   7.46416100
_cell_length_b   7.46416100
_cell_length_c   11.55878100
_cell_angle_alpha   90.00000000
_cell_angle_beta   90.00000000
_cell_angle_gamma   90.00000000
_symmetry_Int_Tables_number   1
_chemical_formula_structural   Na5Sc(C2O7)2
_chemical_formula_sum   'Na10 Sc2 C8 O28'
_cell_volume   643.98245046
_cell_formula_units_Z   2
loop_
 _symmetry_equiv_pos_site_id
 _symmetry_equiv_pos_as_xyz
  1  'x, y, z'
loop_
 _atom_site_type_symbol
 _atom_site_label
 _atom_site_symmetry_multiplicity
 _atom_site_fract_x
 _atom_site_fract_y
 _atom_site_fract_z
 _atom_site_occupancy
  Na  Na0  1  0.00000000  0.00000000  0.50000000  1
  Na  Na1  1  0.50000000  0.50000000  0.00000000  1
  Na  Na2  1  0.69255200  0.80378500  0.70791900  1
  Na  Na3  1  0.19255200  0.69621500  0.79208100  1
  Na  Na4  1  0.30744800  0.19621500  0.70791900  1
  Na  Na5  1  0.80744800  0.30378500  0.79208100  1
  Na  Na6  1  0.80378500  0.30744800  0.29208100  1
  Na  Na7  1  0.69621500  0.80744800  0.20791900  1
  Na  Na8  1  0.19621500  0.69255200  0.29208100  1
  Na  Na9  1  0.30378500  0.19255200  0.20791900  1
  Sc  Sc10  1  0.50000000  0.50000000  0.50000000  1
  Sc  Sc11  1  0.00000000  0.00000000  0.00000000  1
  C  C12  1  0.78678100  0.67276300  0.42137900  1
  C  C13  1  0.28678100  0.82723700  0.07862100  1
  C  C14  1  0.21321900  0.32723700  0.42137900  1
  C  C15  1  0.71321900  0.17276300  0.07862100  1
  C  C16  1  0.67276300  0.21321900  0.57862100  1
  C  C17  1  0.82723700  0.71321900  0.92137900  1
  C  C18  1  0.32723700  0.78678100  0.57862100  1
  C  C19  1  0.17276300  0.28678100  0.92137900  1
  O  O20  1  0.67191200  0.58734800  0.35463400  1
  O  O21  1  0.17191200  0.91265200  0.14536600  1
  O  O22  1  0.32808800  0.41265200  0.35463400  1
  O  O23  1  0.82808800  0.08734800  0.14536600  1
  O  O24  1  0.58734800  0.32808800  0.64536600  1
  O  O25  1  0.91265200  0.82808800  0.85463400  1
  O  O26  1  0.41265200  0.67191200  0.64536600  1
  O  O27  1  0.08734800  0.17191200  0.85463400  1
  O  O28  1  0.75391800  0.65808000  0.53241900  1
  O  O29  1  0.25391800  0.84192000  0.96758100  1
  O  O30  1  0.24608200  0.34192000  0.53241900  1
  O  O31  1  0.74608200  0.15808000  0.96758100  1
  O  O32  1  0.65808000  0.24608200  0.46758100  1
  O  O33  1  0.84192000  0.74608200  0.03241900  1
  O  O34  1  0.34192000  0.75391800  0.46758100  1
  O  O35  1  0.15808000  0.25391800  0.03241900  1
  O  O36  1  0.91465500  0.76383600  0.37898700  1
  O  O37  1  0.41465500  0.73616400  0.12101300  1
  O  O38  1  0.08534500  0.23616400  0.37898700  1
  O  O39  1  0.58534500  0.26383600  0.12101300  1
  O  O40  1  0.76383600  0.08534500  0.62101300  1
  O  O41  1  0.73616400  0.58534500  0.87898700  1
  O  O42  1  0.23616400  0.91465500  0.62101300  1
  O  O43  1  0.26383600  0.41465500  0.87898700  1
  O  O44  1  0.00000000  0.50000000  0.66024200  1
  O  O45  1  0.50000000  0.00000000  0.83975800  1
  O  O46  1  0.50000000  0.00000000  0.33975800  1
  O  O47  1  0.00000000  0.50000000  0.16024200  1
