# generated using pymatgen
data_V2H28C12Cl2O7
_symmetry_space_group_name_H-M   'P 1'
_cell_length_a   8.97814600
_cell_length_b   11.53303100
_cell_length_c   23.39604338
_cell_angle_alpha   90.00000000
_cell_angle_beta   101.10092518
_cell_angle_gamma   90.00000000
_symmetry_Int_Tables_number   1
_chemical_formula_structural   V2H28C12Cl2O7
_chemical_formula_sum   'V8 H112 C48 Cl8 O28'
_cell_volume   2377.22187007
_cell_formula_units_Z   4
loop_
 _symmetry_equiv_pos_site_id
 _symmetry_equiv_pos_as_xyz
  1  'x, y, z'
loop_
 _atom_site_type_symbol
 _atom_site_label
 _atom_site_symmetry_multiplicity
 _atom_site_fract_x
 _atom_site_fract_y
 _atom_site_fract_z
 _atom_site_occupancy
  V  V0  1  0.20097500  0.03709700  0.66929000  1
  V  V1  1  0.79902500  0.53709700  0.83071000  1
  V  V2  1  0.79902500  0.96290300  0.33071000  1
  V  V3  1  0.20097500  0.46290300  0.16929000  1
  V  V4  1  0.41236000  0.20682700  0.61046400  1
  V  V5  1  0.58764000  0.70682700  0.88953600  1
  V  V6  1  0.58764000  0.79317300  0.38953600  1
  V  V7  1  0.41236000  0.29317300  0.11046400  1
  H  H8  1  0.69418200  0.14192900  0.72202300  1
  H  H9  1  0.30581800  0.64192900  0.77797700  1
  H  H10  1  0.30581800  0.85807100  0.27797700  1
  H  H11  1  0.69418200  0.35807100  0.22202300  1
  H  H12  1  0.68579500  0.15930500  0.79679500  1
  H  H13  1  0.31420500  0.65930500  0.70320500  1
  H  H14  1  0.31420500  0.84069500  0.20320500  1
  H  H15  1  0.68579500  0.34069500  0.29679500  1
  H  H16  1  0.60921000  0.03189900  0.75886300  1
  H  H17  1  0.39079000  0.53189900  0.74113700  1
  H  H18  1  0.39079000  0.96810100  0.24113700  1
  H  H19  1  0.60921000  0.46810100  0.25886300  1
  H  H20  1  0.26646400  0.81114200  0.59225100  1
  H  H21  1  0.73353600  0.31114200  0.90774900  1
  H  H22  1  0.73353600  0.18885800  0.40774900  1
  H  H23  1  0.26646400  0.68885800  0.09225100  1
  H  H24  1  0.31571400  0.81193400  0.52186100  1
  H  H25  1  0.68428600  0.31193400  0.97813900  1
  H  H26  1  0.68428600  0.18806600  0.47813900  1
  H  H27  1  0.31571400  0.68806600  0.02186100  1
  H  H28  1  0.44778100  0.86212700  0.58325500  1
  H  H29  1  0.55221900  0.36212700  0.91674500  1
  H  H30  1  0.55221900  0.13787300  0.41674500  1
  H  H31  1  0.44778100  0.63787300  0.08325500  1
  H  H32  1  0.71991700  0.95496500  0.62252600  1
  H  H33  1  0.28008300  0.45496500  0.87747400  1
  H  H34  1  0.28008300  0.04503500  0.37747400  1
  H  H35  1  0.71991700  0.54503500  0.12252600  1
  H  H36  1  0.73549500  0.80710400  0.64592700  1
  H  H37  1  0.26450500  0.30710400  0.85407300  1
  H  H38  1  0.26450500  0.19289600  0.35407300  1
  H  H39  1  0.73549500  0.69289600  0.14592700  1
  H  H40  1  0.80690600  0.91961300  0.69573200  1
  H  H41  1  0.19309400  0.41961300  0.80426800  1
  H  H42  1  0.19309400  0.08038700  0.30426800  1
  H  H43  1  0.80690600  0.58038700  0.19573200  1
  H  H44  1  0.45245500  0.58340300  0.60826900  1
  H  H45  1  0.54754500  0.08340300  0.89173100  1
  H  H46  1  0.54754500  0.41659700  0.39173100  1
  H  H47  1  0.45245500  0.91659700  0.10826900  1
  H  H48  1  0.64808400  0.58474600  0.60371600  1
  H  H49  1  0.35191600  0.08474600  0.89628400  1
  H  H50  1  0.35191600  0.41525400  0.39628400  1
  H  H51  1  0.64808400  0.91525400  0.10371600  1
  H  H52  1  0.51677800  0.50444800  0.55209600  1
  H  H53  1  0.48322200  0.00444800  0.94790400  1
  H  H54  1  0.48322200  0.49555200  0.44790400  1
  H  H55  1  0.51677800  0.99555200  0.05209600  1
  H  H56  1  0.49233800  0.28297400  0.73937500  1
  H  H57  1  0.50766200  0.78297400  0.76062500  1
  H  H58  1  0.50766200  0.71702600  0.26062500  1
  H  H59  1  0.49233800  0.21702600  0.23937500  1
  H  H60  1  0.40570300  0.17198000  0.77479600  1
  H  H61  1  0.59429700  0.67198000  0.72520400  1
  H  H62  1  0.59429700  0.82802000  0.22520400  1
  H  H63  1  0.40570300  0.32802000  0.27479600  1
  H  H64  1  0.13926200  0.97516200  0.53132500  1
  H  H65  1  0.86073800  0.47516200  0.96867500  1
  H  H66  1  0.86073800  0.02483800  0.46867500  1
  H  H67  1  0.13926200  0.52483800  0.03132500  1
  H  H68  1  0.31668800  0.02137000  0.51611300  1
  H  H69  1  0.68331200  0.52137000  0.98388700  1
  H  H70  1  0.68331200  0.97863000  0.48388700  1
  H  H71  1  0.31668800  0.47863000  0.01611300  1
  H  H72  1  0.92372000  0.84320200  0.58601700  1
  H  H73  1  0.07628000  0.34320200  0.91398300  1
  H  H74  1  0.07628000  0.15679800  0.41398300  1
  H  H75  1  0.92372000  0.65679800  0.08601700  1
  H  H76  1  0.01620300  0.81585700  0.65996400  1
  H  H77  1  0.98379700  0.31585700  0.84003600  1
  H  H78  1  0.98379700  0.18414300  0.34003600  1
  H  H79  1  0.01620300  0.68414300  0.15996400  1
  H  H80  1  0.61050000  0.45564000  0.68417500  1
  H  H81  1  0.38950000  0.95564000  0.81582500  1
  H  H82  1  0.38950000  0.54436000  0.31582500  1
  H  H83  1  0.61050000  0.04436000  0.18417500  1
  H  H84  1  0.67283600  0.37492200  0.62814200  1
  H  H85  1  0.32716400  0.87492200  0.87185800  1
  H  H86  1  0.32716400  0.62507800  0.37185800  1
  H  H87  1  0.67283600  0.12507800  0.12814200  1
  H  H88  1  0.99254100  0.33123700  0.67931500  1
  H  H89  1  0.00745900  0.83123700  0.82068500  1
  H  H90  1  0.00745900  0.66876300  0.32068500  1
  H  H91  1  0.99254100  0.16876300  0.17931500  1
  H  H92  1  0.18875500  0.36620400  0.68506700  1
  H  H93  1  0.81124500  0.86620400  0.81493300  1
  H  H94  1  0.81124500  0.63379600  0.31493300  1
  H  H95  1  0.18875500  0.13379600  0.18506700  1
  H  H96  1  0.96520700  0.50714200  0.62172600  1
  H  H97  1  0.03479300  0.00714200  0.87827400  1
  H  H98  1  0.03479300  0.49285800  0.37827400  1
  H  H99  1  0.96520700  0.99285800  0.12172600  1
  H  H100  1  0.13815800  0.48227700  0.59716500  1
  H  H101  1  0.86184200  0.98227700  0.90283500  1
  H  H102  1  0.86184200  0.51772300  0.40283500  1
  H  H103  1  0.13815800  0.01772300  0.09716500  1
  H  H104  1  0.00061200  0.39003100  0.51511300  1
  H  H105  1  0.99938800  0.89003100  0.98488700  1
  H  H106  1  0.99938800  0.60996900  0.48488700  1
  H  H107  1  0.00061200  0.10996900  0.01511300  1
  H  H108  1  0.83172800  0.38919800  0.54372100  1
  H  H109  1  0.16827200  0.88919800  0.95627900  1
  H  H110  1  0.16827200  0.61080200  0.45627900  1
  H  H111  1  0.83172800  0.11080200  0.04372100  1
  H  H112  1  0.01763400  0.18850400  0.53911100  1
  H  H113  1  0.98236600  0.68850400  0.96088900  1
  H  H114  1  0.98236600  0.81149600  0.46088900  1
  H  H115  1  0.01763400  0.31149600  0.03911100  1
  H  H116  1  0.88287000  0.20416600  0.58623500  1
  H  H117  1  0.11713000  0.70416600  0.91376500  1
  H  H118  1  0.11713000  0.79583400  0.41376500  1
  H  H119  1  0.88287000  0.29583400  0.08623500  1
  C  C120  1  0.47308900  0.18892100  0.74112700  1
  C  C121  1  0.52691100  0.68892100  0.75887300  1
  C  C122  1  0.52691100  0.81107900  0.25887300  1
  C  C123  1  0.47308900  0.31107900  0.24112700  1
  C  C124  1  0.26215900  0.97995900  0.54903600  1
  C  C125  1  0.73784100  0.47995900  0.95096400  1
  C  C126  1  0.73784100  0.02004100  0.45096400  1
  C  C127  1  0.26215900  0.52004100  0.04903600  1
  C  C128  1  0.94357200  0.87719600  0.63092900  1
  C  C129  1  0.05642800  0.37719600  0.86907100  1
  C  C130  1  0.05642800  0.12280400  0.36907100  1
  C  C131  1  0.94357200  0.62280400  0.13092900  1
  C  C132  1  0.57827700  0.42662200  0.63856800  1
  C  C133  1  0.42172300  0.92662200  0.86143200  1
  C  C134  1  0.42172300  0.57337800  0.36143200  1
  C  C135  1  0.57827700  0.07337800  0.13856800  1
  C  C136  1  0.08296000  0.34799600  0.65442000  1
  C  C137  1  0.91704000  0.84799600  0.84558000  1
  C  C138  1  0.91704000  0.65200400  0.34558000  1
  C  C139  1  0.08296000  0.15200400  0.15442000  1
  C  C140  1  0.03682500  0.44022800  0.60740100  1
  C  C141  1  0.96317500  0.94022800  0.89259900  1
  C  C142  1  0.96317500  0.55977200  0.39259900  1
  C  C143  1  0.03682500  0.05977200  0.10740100  1
  C  C144  1  0.95380800  0.37038200  0.55402900  1
  C  C145  1  0.04619200  0.87038200  0.94597100  1
  C  C146  1  0.04619200  0.62961800  0.44597100  1
  C  C147  1  0.95380800  0.12961800  0.05402900  1
  C  C148  1  0.98230800  0.24304900  0.57241400  1
  C  C149  1  0.01769200  0.74304900  0.92758600  1
  C  C150  1  0.01769200  0.75695100  0.42758600  1
  C  C151  1  0.98230800  0.25695100  0.07241400  1
  C  C152  1  0.62413700  0.12587200  0.75483600  1
  C  C153  1  0.37586300  0.62587200  0.74516400  1
  C  C154  1  0.37586300  0.87412800  0.24516400  1
  C  C155  1  0.62413700  0.37412800  0.25483600  1
  C  C156  1  0.32682300  0.85940400  0.56323300  1
  C  C157  1  0.67317700  0.35940400  0.93676700  1
  C  C158  1  0.67317700  0.14059600  0.43676700  1
  C  C159  1  0.32682300  0.64059600  0.06323300  1
  C  C160  1  0.79232600  0.89201500  0.65009100  1
  C  C161  1  0.20767400  0.39201500  0.84990900  1
  C  C162  1  0.20767400  0.10798500  0.34990900  1
  C  C163  1  0.79232600  0.60798500  0.15009100  1
  C  C164  1  0.54553700  0.53050800  0.59803900  1
  C  C165  1  0.45446300  0.03050800  0.90196100  1
  C  C166  1  0.45446300  0.46949200  0.40196100  1
  C  C167  1  0.54553700  0.96949200  0.09803900  1
  Cl  Cl168  1  0.11514200  0.11409100  0.74669600  1
  Cl  Cl169  1  0.88485800  0.61409100  0.75330400  1
  Cl  Cl170  1  0.88485800  0.88590900  0.25330400  1
  Cl  Cl171  1  0.11514200  0.38590900  0.24669600  1
  Cl  Cl172  1  0.31113500  0.25297500  0.51595000  1
  Cl  Cl173  1  0.68886500  0.75297500  0.98405000  1
  Cl  Cl174  1  0.68886500  0.74702500  0.48405000  1
  Cl  Cl175  1  0.31113500  0.24702500  0.01595000  1
  O  O176  1  0.10732000  0.24439800  0.62220200  1
  O  O177  1  0.89268000  0.74439800  0.87779800  1
  O  O178  1  0.89268000  0.75560200  0.37779800  1
  O  O179  1  0.10732000  0.25560200  0.12220200  1
  O  O180  1  0.58049100  0.16352500  0.60606600  1
  O  O181  1  0.41950900  0.66352500  0.89393400  1
  O  O182  1  0.41950900  0.83647500  0.39393400  1
  O  O183  1  0.58049100  0.33647500  0.10606600  1
  O  O184  1  0.27796100  0.91826300  0.69743200  1
  O  O185  1  0.72203900  0.41826300  0.80256800  1
  O  O186  1  0.72203900  0.08173700  0.30256800  1
  O  O187  1  0.27796100  0.58173700  0.19743200  1
  O  O188  1  0.37978500  0.15448100  0.68648800  1
  O  O189  1  0.62021500  0.65448100  0.81351200  1
  O  O190  1  0.62021500  0.84551900  0.31351200  1
  O  O191  1  0.37978500  0.34551900  0.18648800  1
  O  O192  1  0.28472500  0.05728500  0.59827400  1
  O  O193  1  0.71527500  0.55728500  0.90172600  1
  O  O194  1  0.71527500  0.94271500  0.40172600  1
  O  O195  1  0.28472500  0.44271500  0.09827400  1
  O  O196  1  0.44783400  0.35361900  0.63494600  1
  O  O197  1  0.55216600  0.85361900  0.86505400  1
  O  O198  1  0.55216600  0.64638100  0.36505400  1
  O  O199  1  0.44783400  0.14638100  0.13494600  1
  O  O200  1  0.02173700  0.98529900  0.63046700  1
  O  O201  1  0.97826300  0.48529900  0.86953300  1
  O  O202  1  0.97826300  0.01470100  0.36953300  1
  O  O203  1  0.02173700  0.51470100  0.13046700  1
