# generated using pymatgen
data_V4CoH4C4(NO5)2
_symmetry_space_group_name_H-M   'P 1'
_cell_length_a   8.05117203
_cell_length_b   8.05117203
_cell_length_c   11.68442400
_cell_angle_alpha   90.00000000
_cell_angle_beta   90.00000000
_cell_angle_gamma   127.65074824
_symmetry_Int_Tables_number   1
_chemical_formula_structural   V4CoH4C4(NO5)2
_chemical_formula_sum   'V8 Co2 H8 C8 N4 O20'
_cell_volume   599.67093078
_cell_formula_units_Z   2
loop_
 _symmetry_equiv_pos_site_id
 _symmetry_equiv_pos_as_xyz
  1  'x, y, z'
loop_
 _atom_site_type_symbol
 _atom_site_label
 _atom_site_symmetry_multiplicity
 _atom_site_fract_x
 _atom_site_fract_y
 _atom_site_fract_z
 _atom_site_occupancy
  V  V0  1  0.34743800  0.92258200  0.60417400  1
  V  V1  1  0.07741800  0.65256200  0.39582500  1
  V  V2  1  0.34743800  0.92258200  0.89582500  1
  V  V3  1  0.07741800  0.65256200  0.10417500  1
  V  V4  1  0.65256200  0.07741800  0.39582600  1
  V  V5  1  0.92258200  0.34743800  0.60417400  1
  V  V6  1  0.65256200  0.07741800  0.10417500  1
  V  V7  1  0.92258200  0.34743800  0.89582600  1
  Co  Co8  1  0.17455100  0.17455100  0.75000000  1
  Co  Co9  1  0.82544900  0.82544900  0.25000000  1
  H  H10  1  0.85116600  0.85116600  0.57128100  1
  H  H11  1  0.14883400  0.14883400  0.42871900  1
  H  H12  1  0.85116600  0.85116600  0.92871900  1
  H  H13  1  0.14883400  0.14883400  0.07128100  1
  H  H14  1  0.49605200  0.49605200  0.57391600  1
  H  H15  1  0.50394800  0.50394800  0.42608400  1
  H  H16  1  0.49605200  0.49605200  0.92608400  1
  H  H17  1  0.50394800  0.50394800  0.07391600  1
  C  C18  1  0.77360700  0.77360700  0.65158000  1
  C  C19  1  0.22639300  0.22639300  0.34842000  1
  C  C20  1  0.77360700  0.77360700  0.84842000  1
  C  C21  1  0.22639300  0.22639300  0.15158000  1
  C  C22  1  0.57732300  0.57732300  0.65237500  1
  C  C23  1  0.42267700  0.42267700  0.34762500  1
  C  C24  1  0.57732300  0.57732300  0.84762500  1
  C  C25  1  0.42267700  0.42267700  0.15237500  1
  N  N26  1  0.47916500  0.47916500  0.75000000  1
  N  N27  1  0.52083500  0.52083500  0.25000000  1
  N  N28  1  0.87091900  0.87091900  0.75000000  1
  N  N29  1  0.12908100  0.12908100  0.25000000  1
  O  O30  1  0.27458100  0.07585100  0.62338300  1
  O  O31  1  0.92414900  0.72541900  0.37661700  1
  O  O32  1  0.27458100  0.07585100  0.87661700  1
  O  O33  1  0.92414900  0.72541900  0.12338300  1
  O  O34  1  0.72541900  0.92414900  0.37661700  1
  O  O35  1  0.07585100  0.27458100  0.62338300  1
  O  O36  1  0.72541900  0.92414900  0.12338300  1
  O  O37  1  0.07585100  0.27458100  0.87661700  1
  O  O38  1  0.35695200  0.90105400  0.43179200  1
  O  O39  1  0.09894600  0.64304800  0.56820800  1
  O  O40  1  0.35695200  0.90105400  0.06820800  1
  O  O41  1  0.09894600  0.64304800  0.93179200  1
  O  O42  1  0.64304800  0.09894600  0.56820800  1
  O  O43  1  0.90105400  0.35695200  0.43179200  1
  O  O44  1  0.64304800  0.09894600  0.93179200  1
  O  O45  1  0.90105400  0.35695200  0.06820800  1
  O  O46  1  0.37565700  0.86205500  0.75000000  1
  O  O47  1  0.13794500  0.62434300  0.25000000  1
  O  O48  1  0.62434300  0.13794500  0.25000000  1
  O  O49  1  0.86205500  0.37565700  0.75000000  1
