# generated using pymatgen
data_Sr15Ti23O61
_symmetry_space_group_name_H-M   'P 1'
_cell_length_a   5.64097175
_cell_length_b   23.40658862
_cell_length_c   30.11133810
_cell_angle_alpha   90.00000000
_cell_angle_beta   90.53545969
_cell_angle_gamma   90.00000000
_symmetry_Int_Tables_number   1
_chemical_formula_structural   Sr15Ti23O61
_chemical_formula_sum   'Sr30 Ti46 O122'
_cell_volume   3975.60416077
_cell_formula_units_Z   2
loop_
 _symmetry_equiv_pos_site_id
 _symmetry_equiv_pos_as_xyz
  1  'x, y, z'
loop_
 _atom_site_type_symbol
 _atom_site_label
 _atom_site_symmetry_multiplicity
 _atom_site_fract_x
 _atom_site_fract_y
 _atom_site_fract_z
 _atom_site_occupancy
  Sr  Sr0  1  0.50240392  -0.00000000  0.19011208  1
  Sr  Sr1  1  0.49759608  0.00000000  0.80988792  1
  Sr  Sr2  1  0.50941554  0.82941907  0.18896121  1
  Sr  Sr3  1  0.50941554  0.17058093  0.18896121  1
  Sr  Sr4  1  0.49058446  0.17058093  0.81103879  1
  Sr  Sr5  1  0.49058446  0.82941907  0.81103879  1
  Sr  Sr6  1  0.49232050  0.66345758  0.19507021  1
  Sr  Sr7  1  0.49232050  0.33654242  0.19507021  1
  Sr  Sr8  1  0.50767950  0.33654242  0.80492979  1
  Sr  Sr9  1  0.50767950  0.66345758  0.80492979  1
  Sr  Sr10  1  0.49133704  0.50000000  0.19491756  1
  Sr  Sr11  1  0.50866296  0.50000000  0.80508244  1
  Sr  Sr12  1  -0.00029778  0.00000000  0.09435063  1
  Sr  Sr13  1  0.00029778  -0.00000000  0.90564937  1
  Sr  Sr14  1  0.00177292  0.83597572  0.09198693  1
  Sr  Sr15  1  0.00177292  0.16402428  0.09198693  1
  Sr  Sr16  1  0.99822708  0.16402428  0.90801307  1
  Sr  Sr17  1  0.99822708  0.83597572  0.90801307  1
  Sr  Sr18  1  0.99860828  0.66726587  0.08976159  1
  Sr  Sr19  1  0.99860828  0.33273413  0.08976159  1
  Sr  Sr20  1  0.00139172  0.33273413  0.91023841  1
  Sr  Sr21  1  0.00139172  0.66726587  0.91023841  1
  Sr  Sr22  1  0.99859909  0.50000000  0.08915890  1
  Sr  Sr23  1  0.00140091  0.50000000  0.91084110  1
  Sr  Sr24  1  0.50000000  -0.00000000  -0.00000000  1
  Sr  Sr25  1  0.50000000  0.83536082  -0.00000000  1
  Sr  Sr26  1  0.50000000  0.16463918  -0.00000000  1
  Sr  Sr27  1  0.50000000  0.66713233  -0.00000000  1
  Sr  Sr28  1  0.50000000  0.33286767  -0.00000000  1
  Sr  Sr29  1  0.50000000  0.50000000  -0.00000000  1
  Ti  Ti30  1  0.34485194  0.92669548  0.28876293  1
  Ti  Ti31  1  0.34485194  0.07330452  0.28876293  1
  Ti  Ti32  1  0.65514806  0.07330452  0.71123707  1
  Ti  Ti33  1  0.65514806  0.92669548  0.71123707  1
  Ti  Ti34  1  0.84646614  0.86905886  0.29511497  1
  Ti  Ti35  1  0.84646614  0.13094114  0.29511497  1
  Ti  Ti36  1  0.15353386  0.13094114  0.70488503  1
  Ti  Ti37  1  0.15353386  0.86905886  0.70488503  1
  Ti  Ti38  1  0.97440189  0.72783777  0.27206977  1
  Ti  Ti39  1  0.97440189  0.27216223  0.27206977  1
  Ti  Ti40  1  0.02559811  0.27216223  0.72793023  1
  Ti  Ti41  1  0.02559811  0.72783777  0.72793023  1
  Ti  Ti42  1  0.97895137  0.57668930  0.27173011  1
  Ti  Ti43  1  0.97895137  0.42331070  0.27173011  1
  Ti  Ti44  1  0.02104863  0.42331070  0.72826989  1
  Ti  Ti45  1  0.02104863  0.57668930  0.72826989  1
  Ti  Ti46  1  0.00394104  0.91528862  0.18732923  1
  Ti  Ti47  1  0.00394104  0.08471138  0.18732923  1
  Ti  Ti48  1  0.99605896  0.08471138  0.81267077  1
  Ti  Ti49  1  0.99605896  0.91528862  0.81267077  1
  Ti  Ti50  1  0.01568818  0.25091284  0.17932532  1
  Ti  Ti51  1  0.01568818  0.74908716  0.17932532  1
  Ti  Ti52  1  0.98431182  0.74908716  0.82067468  1
  Ti  Ti53  1  0.98431182  0.25091284  0.82067468  1
  Ti  Ti54  1  0.01024631  0.58291192  0.17765466  1
  Ti  Ti55  1  0.01024631  0.41708808  0.17765466  1
  Ti  Ti56  1  0.98975369  0.41708808  0.82234534  1
  Ti  Ti57  1  0.98975369  0.58291192  0.82234534  1
  Ti  Ti58  1  0.49871136  0.91690936  0.09436411  1
  Ti  Ti59  1  0.49871136  0.08309064  0.09436411  1
  Ti  Ti60  1  0.50128864  0.08309064  0.90563589  1
  Ti  Ti61  1  0.50128864  0.91690936  0.90563589  1
  Ti  Ti62  1  0.50288948  0.74881590  0.09231452  1
  Ti  Ti63  1  0.50288948  0.25118410  0.09231452  1
  Ti  Ti64  1  0.49711052  0.25118410  0.90768548  1
  Ti  Ti65  1  0.49711052  0.74881590  0.90768548  1
  Ti  Ti66  1  0.50264216  0.58275929  0.09204751  1
  Ti  Ti67  1  0.50264216  0.41724071  0.09204751  1
  Ti  Ti68  1  0.49735784  0.41724071  0.90795249  1
  Ti  Ti69  1  0.49735784  0.58275929  0.90795249  1
  Ti  Ti70  1  -0.00000000  0.91736436  -0.00000000  1
  Ti  Ti71  1  -0.00000000  0.08263564  -0.00000000  1
  Ti  Ti72  1  -0.00000000  0.75169168  -0.00000000  1
  Ti  Ti73  1  -0.00000000  0.24830832  -0.00000000  1
  Ti  Ti74  1  -0.00000000  0.58366030  -0.00000000  1
  Ti  Ti75  1  -0.00000000  0.41633970  -0.00000000  1
  O  O76  1  0.46090944  -0.00000000  0.28334696  1
  O  O77  1  0.53909056  -0.00000000  0.71665304  1
  O  O78  1  0.06519162  0.91996765  0.31725389  1
  O  O79  1  0.06519162  0.08003235  0.31725389  1
  O  O80  1  0.93480838  0.08003235  0.68274611  1
  O  O81  1  0.93480838  0.91996765  0.68274611  1
  O  O82  1  0.55406268  0.87975300  0.31826792  1
  O  O83  1  0.55406268  0.12024700  0.31826792  1
  O  O84  1  0.44593732  0.12024700  0.68173208  1
  O  O85  1  0.44593732  0.87975300  0.68173208  1
  O  O86  1  0.94376023  0.79468510  0.30460983  1
  O  O87  1  0.94376023  0.20531490  0.30460983  1
  O  O88  1  0.05623977  0.20531490  0.69539017  1
  O  O89  1  0.05623977  0.79468510  0.69539017  1
  O  O90  1  0.96085958  0.65234376  0.29441975  1
  O  O91  1  0.96085958  0.34765624  0.29441975  1
  O  O92  1  0.03914042  0.34765624  0.70558025  1
  O  O93  1  0.03914042  0.65234376  0.70558025  1
  O  O94  1  0.96613881  0.50000000  0.29352970  1
  O  O95  1  0.03386119  0.50000000  0.70647030  1
  O  O96  1  0.79476972  0.89283591  0.23764701  1
  O  O97  1  0.79476972  0.10716409  0.23764701  1
  O  O98  1  0.20523028  0.10716409  0.76235299  1
  O  O99  1  0.20523028  0.89283591  0.76235299  1
  O  O100  1  0.28809979  0.90865789  0.23069115  1
  O  O101  1  0.28809979  0.09134211  0.23069115  1
  O  O102  1  0.71190021  0.09134211  0.76930885  1
  O  O103  1  0.71190021  0.90865789  0.76930885  1
  O  O104  1  0.22293825  0.73867901  0.23574975  1
  O  O105  1  0.22293825  0.26132099  0.23574975  1
  O  O106  1  0.77706175  0.26132099  0.76425025  1
  O  O107  1  0.77706175  0.73867901  0.76425025  1
  O  O108  1  0.76053450  0.74123267  0.22664903  1
  O  O109  1  0.76053450  0.25876833  0.22664903  1
  O  O110  1  0.23946550  0.25876733  0.77335097  1
  O  O111  1  0.23946550  0.74123267  0.77335097  1
  O  O112  1  0.22615829  0.57986890  0.23445531  1
  O  O113  1  0.22615829  0.42013110  0.23445531  1
  O  O114  1  0.77384171  0.42013110  0.76554469  1
  O  O115  1  0.77384171  0.57986890  0.76554469  1
  O  O116  1  0.76057839  0.57977567  0.22635231  1
  O  O117  1  0.76057839  0.42022433  0.22635231  1
  O  O118  1  0.23942161  0.42022433  0.77364769  1
  O  O119  1  0.23942161  0.57977567  0.77364769  1
  O  O120  1  0.99045707  -0.00000000  0.19325985  1
  O  O121  1  0.00954293  -0.00000000  0.80674015  1
  O  O122  1  0.03091315  0.83035188  0.17850924  1
  O  O123  1  0.03091315  0.16964812  0.17850924  1
  O  O124  1  0.96908685  0.16964812  0.82149076  1
  O  O125  1  0.96908685  0.83035188  0.82149076  1
  O  O126  1  0.01286187  0.66385058  0.17598656  1
  O  O127  1  0.01286187  0.33614942  0.17598656  1
  O  O128  1  0.98713813  0.33614942  0.82401344  1
  O  O129  1  0.98713813  0.66385058  0.82401344  1
  O  O130  1  0.01706541  0.50000000  0.17521403  1
  O  O131  1  0.98293459  0.50000000  0.82478597  1
  O  O132  1  0.24300108  0.92244307  0.13956692  1
  O  O133  1  0.24300108  0.07755693  0.13956692  1
  O  O134  1  0.75699892  0.07755693  0.86043308  1
  O  O135  1  0.75699892  0.92244307  0.86043308  1
  O  O136  1  0.74257758  0.91748737  0.14562109  1
  O  O137  1  0.74257758  0.08251263  0.14562109  1
  O  O138  1  0.25742242  0.08251263  0.85437891  1
  O  O139  1  0.25742242  0.91748737  0.85437891  1
  O  O140  1  0.30563699  0.74588210  0.14493003  1
  O  O141  1  0.30563699  0.25411790  0.14493003  1
  O  O142  1  0.69436301  0.25411790  0.85506997  1
  O  O143  1  0.69436301  0.74588210  0.85506997  1
  O  O144  1  0.78976160  0.75087261  0.13188424  1
  O  O145  1  0.78976160  0.24912739  0.13188424  1
  O  O146  1  0.21023840  0.24912739  0.86811576  1
  O  O147  1  0.21023840  0.75087261  0.86811576  1
  O  O148  1  0.30663236  0.58276463  0.14387499  1
  O  O149  1  0.30663236  0.41723537  0.14387499  1
  O  O150  1  0.69336764  0.41723537  0.85612501  1
  O  O151  1  0.69336764  0.58276463  0.85612501  1
  O  O152  1  0.78645468  0.58272655  0.13034414  1
  O  O153  1  0.78645468  0.41727345  0.13034414  1
  O  O154  1  0.21354532  0.41727345  0.86965586  1
  O  O155  1  0.21354532  0.58272655  0.86965586  1
  O  O156  1  0.51602472  -0.00000000  0.09327536  1
  O  O157  1  0.48397528  0.00000000  0.90672464  1
  O  O158  1  0.49775634  0.83506240  0.09558895  1
  O  O159  1  0.49775634  0.16493760  0.09558895  1
  O  O160  1  0.50224366  0.16493760  0.90441105  1
  O  O161  1  0.50224366  0.83506240  0.90441105  1
  O  O162  1  0.50782856  0.66740417  0.08900903  1
  O  O163  1  0.50782856  0.33259583  0.08900903  1
  O  O164  1  0.49217144  0.33259583  0.91099097  1
  O  O165  1  0.49217144  0.66740417  0.91099097  1
  O  O166  1  0.50395906  0.50000000  0.08861408  1
  O  O167  1  0.49604094  0.50000000  0.91138592  1
  O  O168  1  0.26130744  0.91786250  0.04553835  1
  O  O169  1  0.26130744  0.08213750  0.04553835  1
  O  O170  1  0.73869256  0.08213750  0.95446165  1
  O  O171  1  0.73869256  0.91786250  0.95446165  1
  O  O172  1  0.76200499  0.91651726  0.04917413  1
  O  O173  1  0.76200499  0.08348274  0.04917413  1
  O  O174  1  0.23799501  0.08348274  0.95082587  1
  O  O175  1  0.23799501  0.91651726  0.95082587  1
  O  O176  1  0.22687243  0.75279494  0.05148957  1
  O  O177  1  0.22687243  0.24720506  0.05148957  1
  O  O178  1  0.77312757  0.24720506  0.94851043  1
  O  O179  1  0.77312757  0.75279494  0.94851043  1
  O  O180  1  0.72697541  0.75329446  0.04117139  1
  O  O181  1  0.72697541  0.24670554  0.04117139  1
  O  O182  1  0.27302459  0.24670554  0.95882861  1
  O  O183  1  0.27302459  0.75329446  0.95882861  1
  O  O184  1  0.22672845  0.58424076  0.05076066  1
  O  O185  1  0.22672845  0.41575924  0.05076066  1
  O  O186  1  0.77327155  0.41575924  0.94923934  1
  O  O187  1  0.77327155  0.58424076  0.94923934  1
  O  O188  1  0.73055963  0.58398612  0.04064370  1
  O  O189  1  0.73055963  0.41601388  0.04064370  1
  O  O190  1  0.26944037  0.41601388  0.95935630  1
  O  O191  1  0.26944037  0.58398612  0.95935630  1
  O  O192  1  -0.00000000  0.00000000  -0.00000000  1
  O  O193  1  -0.00000000  0.83515607  0.00000000  1
  O  O194  1  -0.00000000  0.16484393  -0.00000000  1
  O  O195  1  -0.00000000  0.66881761  -0.00000000  1
  O  O196  1  -0.00000000  0.33118239  -0.00000000  1
  O  O197  1  -0.00000000  0.50000000  -0.00000000  1
