# generated using pymatgen
data_MnZnH22C5N10(Cl2O3)2
_symmetry_space_group_name_H-M   'P 1'
_cell_length_a   7.82063100
_cell_length_b   12.52902998
_cell_length_c   13.91355245
_cell_angle_alpha   109.54426740
_cell_angle_beta   102.81680932
_cell_angle_gamma   102.21952632
_symmetry_Int_Tables_number   1
_chemical_formula_structural   MnZnH22C5N10(Cl2O3)2
_chemical_formula_sum   'Mn2 Zn2 H44 C10 N20 Cl8 O12'
_cell_volume   1190.59283696
_cell_formula_units_Z   2
loop_
 _symmetry_equiv_pos_site_id
 _symmetry_equiv_pos_as_xyz
  1  'x, y, z'
loop_
 _atom_site_type_symbol
 _atom_site_label
 _atom_site_symmetry_multiplicity
 _atom_site_fract_x
 _atom_site_fract_y
 _atom_site_fract_z
 _atom_site_occupancy
  Mn  Mn0  1  0.97257300  0.77399900  0.74927500  1
  Mn  Mn1  1  0.02742700  0.22600100  0.25072500  1
  Zn  Zn2  1  0.53821500  0.27783200  0.69942400  1
  Zn  Zn3  1  0.46178500  0.72216800  0.30057600  1
  H  H4  1  0.02225200  0.78580700  0.38392000  1
  H  H5  1  0.97774800  0.21419300  0.61608000  1
  H  H6  1  0.88957200  0.86200300  0.44998400  1
  H  H7  1  0.11042800  0.13799700  0.55001600  1
  H  H8  1  0.22223800  0.71901500  0.60136000  1
  H  H9  1  0.77776200  0.28098500  0.39864000  1
  H  H10  1  0.21883300  0.70654100  0.47154900  1
  H  H11  1  0.78116700  0.29345900  0.52845100  1
  H  H12  1  0.47092200  0.90985300  0.81080100  1
  H  H13  1  0.52907800  0.09014700  0.18919900  1
  H  H14  1  0.47549400  0.00059100  0.74138000  1
  H  H15  1  0.52450600  0.99940900  0.25862000  1
  H  H16  1  0.79637700  0.91008500  0.62380100  1
  H  H17  1  0.20362300  0.08991500  0.37619900  1
  H  H18  1  0.64762900  0.99774200  0.63380100  1
  H  H19  1  0.35237100  0.00225800  0.36619900  1
  H  H20  1  0.48302500  0.55687100  0.76889100  1
  H  H21  1  0.51697500  0.44312900  0.23110900  1
  H  H22  1  0.53004000  0.69234500  0.75474500  1
  H  H23  1  0.46996000  0.30765500  0.24525500  1
  H  H24  1  0.03084100  0.54593200  0.77540700  1
  H  H25  1  0.96915900  0.45406800  0.22459300  1
  H  H26  1  0.19373300  0.46944800  0.77305700  1
  H  H27  1  0.80626700  0.53055200  0.22694300  1
  H  H28  1  0.27807900  0.11406700  0.06250200  1
  H  H29  1  0.72192100  0.88593300  0.93749800  1
  H  H30  1  0.33922700  0.21912600  0.01296800  1
  H  H31  1  0.66077300  0.78087400  0.98703200  1
  H  H32  1  0.14102200  0.02250000  0.73982500  1
  H  H33  1  0.85897800  0.97750000  0.26017500  1
  H  H34  1  0.27382700  0.16851000  0.83069900  1
  H  H35  1  0.72617300  0.83149000  0.16930100  1
  H  H36  1  0.93363400  0.62004500  0.05445500  1
  H  H37  1  0.06636600  0.37995500  0.94554500  1
  H  H38  1  0.77442400  0.54047300  0.92497600  1
  H  H39  1  0.22557600  0.45952700  0.07502400  1
  H  H40  1  0.16252100  0.79248800  0.09011300  1
  H  H41  1  0.83747900  0.20751200  0.90988700  1
  H  H42  1  0.16863100  0.84715900  0.98914200  1
  H  H43  1  0.83136900  0.15284100  0.01085800  1
  H  H44  1  0.72324300  0.53957400  0.61159700  1
  H  H45  1  0.27675700  0.46042600  0.38840300  1
  H  H46  1  0.73114300  0.61868900  0.54493200  1
  H  H47  1  0.26885700  0.38131100  0.45506800  1
  C  C48  1  0.05642200  0.80051700  0.53948600  1
  C  C49  1  0.94357800  0.19948300  0.46051400  1
  C  C50  1  0.66428800  0.91045200  0.73479600  1
  C  C51  1  0.33571200  0.08954800  0.26520400  1
  C  C52  1  0.26978500  0.63068300  0.76078300  1
  C  C53  1  0.73021500  0.36931700  0.23921700  1
  C  C54  1  0.21193100  0.04764200  0.89858800  1
  C  C55  1  0.78806900  0.95235800  0.10141200  1
  C  C56  1  0.96460800  0.69132400  0.94258100  1
  C  C57  1  0.03539200  0.30867600  0.05741900  1
  N  N58  1  0.98652800  0.81912900  0.45144600  1
  N  N59  1  0.01347200  0.18087100  0.54855400  1
  N  N60  1  0.17906800  0.73962100  0.53739700  1
  N  N61  1  0.82093200  0.26037900  0.46260300  1
  N  N62  1  0.54568900  0.95865100  0.78013900  1
  N  N63  1  0.45431100  0.04134900  0.21986100  1
  N  N64  1  0.71620500  0.94911500  0.66349900  1
  N  N65  1  0.28379500  0.05088500  0.33650100  1
  N  N66  1  0.44371200  0.62870400  0.76708100  1
  N  N67  1  0.55628800  0.37129600  0.23291900  1
  N  N68  1  0.14998700  0.53650200  0.76148500  1
  N  N69  1  0.85001300  0.46349800  0.23851500  1
  N  N70  1  0.30402800  0.13147300  0.99990500  1
  N  N71  1  0.69597200  0.86852700  0.00009500  1
  N  N72  1  0.20611300  0.08296400  0.81694500  1
  N  N73  1  0.79388700  0.91703600  0.18305500  1
  N  N74  1  0.87910100  0.61435900  0.97855800  1
  N  N75  1  0.12089900  0.38564100  0.02144200  1
  N  N76  1  0.11683500  0.78133500  0.01187300  1
  N  N77  1  0.88316500  0.21866500  0.98812700  1
  Cl  Cl78  1  0.51043600  0.37117300  0.58171600  1
  Cl  Cl79  1  0.48956400  0.62882700  0.41828400  1
  Cl  Cl80  1  0.37310900  0.08076700  0.60818100  1
  Cl  Cl81  1  0.62689100  0.91923300  0.39181900  1
  Cl  Cl82  1  0.84560300  0.29296200  0.75981600  1
  Cl  Cl83  1  0.15439700  0.70703800  0.24018400  1
  Cl  Cl84  1  0.44110400  0.36791100  0.83973600  1
  Cl  Cl85  1  0.55889600  0.63208900  0.16026400  1
  O  O86  1  0.00791500  0.84140400  0.62351500  1
  O  O87  1  0.99208500  0.15859600  0.37648500  1
  O  O88  1  0.72694400  0.83629700  0.76439500  1
  O  O89  1  0.27305600  0.16370300  0.23560500  1
  O  O90  1  0.22314500  0.72029900  0.75369800  1
  O  O91  1  0.77685500  0.27970100  0.24630200  1
  O  O92  1  0.14039300  0.93979700  0.88350600  1
  O  O93  1  0.85960700  0.06020300  0.11649400  1
  O  O94  1  0.89950500  0.67725700  0.84502500  1
  O  O95  1  0.10049500  0.32274300  0.15497500  1
  O  O96  1  0.80348800  0.60852300  0.60682100  1
  O  O97  1  0.19651200  0.39147700  0.39317900  1
