# generated using pymatgen
data_U4Ga20Pd11
_symmetry_space_group_name_H-M   'P 1'
_cell_length_a   4.20019200
_cell_length_b   11.07718868
_cell_length_c   13.61274395
_cell_angle_alpha   81.90034171
_cell_angle_beta   81.12529185
_cell_angle_gamma   79.07129053
_symmetry_Int_Tables_number   1
_chemical_formula_structural   U4Ga20Pd11
_chemical_formula_sum   'U4 Ga20 Pd11'
_cell_volume   610.33684100
_cell_formula_units_Z   1
loop_
 _symmetry_equiv_pos_site_id
 _symmetry_equiv_pos_as_xyz
  1  'x, y, z'
loop_
 _atom_site_type_symbol
 _atom_site_label
 _atom_site_symmetry_multiplicity
 _atom_site_fract_x
 _atom_site_fract_y
 _atom_site_fract_z
 _atom_site_occupancy
  U  U0  1  0.87830700  0.90585400  0.33753100  1
  U  U1  1  0.12169300  0.09414600  0.66246900  1
  U  U2  1  0.22823100  0.36585400  0.17768300  1
  U  U3  1  0.77176900  0.63414600  0.82231700  1
  Ga  Ga4  1  0.99681600  0.92148100  0.08488600  1
  Ga  Ga5  1  0.00318400  0.07851900  0.91511400  1
  Ga  Ga6  1  0.93293600  0.33129100  0.80283700  1
  Ga  Ga7  1  0.06706400  0.66870900  0.19716300  1
  Ga  Ga8  1  0.89657200  0.66073700  0.54611800  1
  Ga  Ga9  1  0.10342800  0.33926300  0.45388200  1
  Ga  Ga10  1  0.79913300  0.39121000  0.01052500  1
  Ga  Ga11  1  0.20086700  0.60879000  0.98947500  1
  Ga  Ga12  1  0.74855600  0.21106900  0.29181900  1
  Ga  Ga13  1  0.25144400  0.78893100  0.70818100  1
  Ga  Ga14  1  0.70024600  0.09904000  0.50046700  1
  Ga  Ga15  1  0.29975400  0.90096000  0.49953300  1
  Ga  Ga16  1  0.61364400  0.46668000  0.30603300  1
  Ga  Ga17  1  0.38635600  0.53332000  0.69396700  1
  Ga  Ga18  1  0.60647800  0.78683500  0.00020900  1
  Ga  Ga19  1  0.39352200  0.21316500  0.99979100  1
  Ga  Ga20  1  0.45669600  0.70926100  0.37734700  1
  Ga  Ga21  1  0.54330400  0.29073900  0.62265300  1
  Ga  Ga22  1  0.36832000  0.06033800  0.20302200  1
  Ga  Ga23  1  0.63168000  0.93966200  0.79697800  1
  Pd  Pd24  1  0.50000000  0.50000000  0.50000000  1
  Pd  Pd25  1  0.97103400  0.43050100  0.62743200  1
  Pd  Pd26  1  0.02896600  0.56949900  0.37256800  1
  Pd  Pd27  1  0.86892100  0.15520300  0.10695600  1
  Pd  Pd28  1  0.13107900  0.84479700  0.89304400  1
  Pd  Pd29  1  0.75870600  0.87044400  0.61214500  1
  Pd  Pd30  1  0.24129400  0.12955600  0.38785500  1
  Pd  Pd31  1  0.65597700  0.57596900  0.11207800  1
  Pd  Pd32  1  0.34402300  0.42403100  0.88792200  1
  Pd  Pd33  1  0.49693200  0.82133800  0.18479800  1
  Pd  Pd34  1  0.50306800  0.17866200  0.81520200  1
