# generated using pymatgen
data_RbSi2O5
_symmetry_space_group_name_H-M   'P 1'
_cell_length_a   4.90506000
_cell_length_b   8.36219900
_cell_length_c   12.07167900
_cell_angle_alpha   90.00000000
_cell_angle_beta   90.00000000
_cell_angle_gamma   90.00000000
_symmetry_Int_Tables_number   1
_chemical_formula_structural   RbSi2O5
_chemical_formula_sum   'Rb4 Si8 O20'
_cell_volume   495.14511776
_cell_formula_units_Z   4
loop_
 _symmetry_equiv_pos_site_id
 _symmetry_equiv_pos_as_xyz
  1  'x, y, z'
loop_
 _atom_site_type_symbol
 _atom_site_label
 _atom_site_symmetry_multiplicity
 _atom_site_fract_x
 _atom_site_fract_y
 _atom_site_fract_z
 _atom_site_occupancy
  Rb  Rb0  1  0.96526300  0.75000000  0.96970600  1
  Rb  Rb1  1  0.53473700  0.75000000  0.46970600  1
  Rb  Rb2  1  0.03473700  0.25000000  0.03029400  1
  Rb  Rb3  1  0.46526300  0.25000000  0.53029400  1
  Si  Si4  1  0.99685400  0.56133800  0.68426100  1
  Si  Si5  1  0.50314600  0.93866200  0.18426100  1
  Si  Si6  1  0.00314600  0.06133800  0.31573900  1
  Si  Si7  1  0.49685400  0.43866200  0.81573900  1
  Si  Si8  1  0.00314600  0.43866200  0.31573900  1
  Si  Si9  1  0.49685400  0.06133800  0.81573900  1
  Si  Si10  1  0.99685400  0.93866200  0.68426100  1
  Si  Si11  1  0.50314600  0.56133800  0.18426100  1
  O  O12  1  0.26970300  0.45609900  0.71510500  1
  O  O13  1  0.23029700  0.04390100  0.21510500  1
  O  O14  1  0.73029700  0.95609900  0.28489500  1
  O  O15  1  0.76970300  0.54390100  0.78489500  1
  O  O16  1  0.73029700  0.54390100  0.28489500  1
  O  O17  1  0.76970300  0.95609900  0.78489500  1
  O  O18  1  0.26970300  0.04390100  0.71510500  1
  O  O19  1  0.23029700  0.45609900  0.21510500  1
  O  O20  1  0.84999900  0.50068900  0.57139900  1
  O  O21  1  0.65000100  0.99931100  0.07139900  1
  O  O22  1  0.15000100  0.00068900  0.42860100  1
  O  O23  1  0.34999900  0.49931100  0.92860100  1
  O  O24  1  0.15000100  0.49931100  0.42860100  1
  O  O25  1  0.34999900  0.00068900  0.92860100  1
  O  O26  1  0.84999900  0.99931100  0.57139900  1
  O  O27  1  0.65000100  0.50068900  0.07139900  1
  O  O28  1  0.09440300  0.75000000  0.68368500  1
  O  O29  1  0.40559700  0.75000000  0.18368500  1
  O  O30  1  0.90559700  0.25000000  0.31631500  1
  O  O31  1  0.59440300  0.25000000  0.81631500  1
