# generated using pymatgen
data_Mg4B8H31
_symmetry_space_group_name_H-M   'P 1'
_cell_length_a   8.25265037
_cell_length_b   8.28290706
_cell_length_c   10.15215826
_cell_angle_alpha   89.98583637
_cell_angle_beta   90.39390409
_cell_angle_gamma   89.99798720
_symmetry_Int_Tables_number   1
_chemical_formula_structural   Mg4B8H31
_chemical_formula_sum   'Mg4 B8 H31'
_cell_volume   693.94385974
_cell_formula_units_Z   1
loop_
 _symmetry_equiv_pos_site_id
 _symmetry_equiv_pos_as_xyz
  1  'x, y, z'
loop_
 _atom_site_type_symbol
 _atom_site_label
 _atom_site_symmetry_multiplicity
 _atom_site_fract_x
 _atom_site_fract_y
 _atom_site_fract_z
 _atom_site_occupancy
  Mg  Mg0  1  0.88293700  0.50965000  0.25384600  1
  Mg  Mg1  1  0.38574500  0.99029900  0.75198000  1
  Mg  Mg2  1  0.88758000  0.00595500  0.00670400  1
  Mg  Mg3  1  0.38532100  0.49376200  0.50195400  1
  B  B4  1  0.38601400  0.71792600  0.65720500  1
  B  B5  1  0.11236100  0.99449600  0.84948300  1
  B  B6  1  0.65416000  0.99472800  0.85624000  1
  B  B7  1  0.88443100  0.78243500  0.16181800  1
  B  B8  1  0.88283800  0.24477900  0.14808300  1
  B  B9  1  0.15245900  0.50375400  0.35320900  1
  B  B10  1  0.61472500  0.50526600  0.35222900  1
  B  B11  1  0.38617300  0.25542500  0.64458100  1
  H  H12  1  0.72412200  0.12182600  0.88031900  1
  H  H13  1  0.88564600  0.76082300  0.28143100  1
  H  H14  1  0.75853200  0.17220300  0.11935700  1
  H  H15  1  0.13401200  0.51112800  0.23325300  1
  H  H16  1  0.54101800  0.62762000  0.38330900  1
  H  H17  1  0.26089800  0.32685100  0.61644500  1
  H  H18  1  0.38345500  0.84237500  0.59145300  1
  H  H19  1  0.63929400  0.98742300  0.73610100  1
  H  H20  1  0.11567200  0.98940800  0.72921200  1
  H  H21  1  0.88339600  0.25888400  0.26852400  1
  H  H22  1  0.01013100  0.85424400  0.13660900  1
  H  H23  1  0.54400400  0.37827300  0.37446800  1
  H  H24  1  0.22530900  0.62650600  0.38524600  1
  H  H25  1  0.51118600  0.64624900  0.63018600  1
  H  H26  1  0.38808400  0.24236100  0.76520800  1
  H  H27  1  0.08786500  0.87008500  0.90827400  1
  H  H28  1  0.72604400  0.87225700  0.89036400  1
  H  H29  1  0.76019400  0.85735500  0.13674800  1
  H  H30  1  0.88106700  0.37208400  0.08617000  1
  H  H31  1  0.09128500  0.12424900  0.90098900  1
  H  H32  1  0.52557300  0.99736000  0.91770700  1
  H  H33  1  0.00895900  0.17535700  0.12021600  1
  H  H34  1  0.88227400  0.65915700  0.09471900  1
  H  H35  1  0.02716200  0.50029800  0.41736200  1
  H  H36  1  0.63152600  0.51188600  0.23221700  1
  H  H37  1  0.51135600  0.32536000  0.61481400  1
  H  H38  1  0.26119200  0.64392300  0.63216600  1
  H  H39  1  0.22443200  0.37720200  0.37507700  1
  H  H40  1  0.74069700  0.50351800  0.41673500  1
  H  H41  1  0.38802100  0.73786400  0.77711800  1
  H  H42  1  0.38429000  0.12739600  0.58366800  1
