# generated using pymatgen
data_Na2Mn(SiO3)2
_symmetry_space_group_name_H-M   'P 1'
_cell_length_a   7.46025500
_cell_length_b   10.41894800
_cell_length_c   10.46338400
_cell_angle_alpha   90.00000000
_cell_angle_beta   90.00000000
_cell_angle_gamma   90.00000000
_symmetry_Int_Tables_number   1
_chemical_formula_structural   Na2Mn(SiO3)2
_chemical_formula_sum   'Na12 Mn6 Si12 O36'
_cell_volume   813.29800480
_cell_formula_units_Z   6
loop_
 _symmetry_equiv_pos_site_id
 _symmetry_equiv_pos_as_xyz
  1  'x, y, z'
loop_
 _atom_site_type_symbol
 _atom_site_label
 _atom_site_symmetry_multiplicity
 _atom_site_fract_x
 _atom_site_fract_y
 _atom_site_fract_z
 _atom_site_occupancy
  Na  Na0  1  0.01973200  0.23486100  0.76623500  1
  Na  Na1  1  0.98026800  0.23486100  0.23376500  1
  Na  Na2  1  0.48026800  0.26513900  0.26623500  1
  Na  Na3  1  0.51973200  0.26513900  0.73376500  1
  Na  Na4  1  0.98026800  0.76513900  0.23376500  1
  Na  Na5  1  0.01973200  0.76513900  0.76623500  1
  Na  Na6  1  0.51973200  0.73486100  0.73376500  1
  Na  Na7  1  0.48026800  0.73486100  0.26623500  1
  Na  Na8  1  0.50000000  0.00000000  0.00000000  1
  Na  Na9  1  0.00000000  0.50000000  0.50000000  1
  Na  Na10  1  0.00000000  0.50000000  0.00000000  1
  Na  Na11  1  0.50000000  0.00000000  0.50000000  1
  Mn  Mn12  1  0.50000000  0.50000000  0.50000000  1
  Mn  Mn13  1  0.00000000  0.00000000  0.00000000  1
  Mn  Mn14  1  0.23275600  0.50000000  0.26293200  1
  Mn  Mn15  1  0.76724400  0.50000000  0.73706800  1
  Mn  Mn16  1  0.26724400  0.00000000  0.76293200  1
  Mn  Mn17  1  0.73275600  0.00000000  0.23706800  1
  Si  Si18  1  0.21742700  0.22764500  0.49295300  1
  Si  Si19  1  0.78257300  0.22764500  0.50704700  1
  Si  Si20  1  0.28257300  0.27235500  0.99295300  1
  Si  Si21  1  0.71742700  0.27235500  0.00704700  1
  Si  Si22  1  0.78257300  0.77235500  0.50704700  1
  Si  Si23  1  0.21742700  0.77235500  0.49295300  1
  Si  Si24  1  0.71742700  0.72764500  0.00704700  1
  Si  Si25  1  0.28257300  0.72764500  0.99295300  1
  Si  Si26  1  0.25201400  0.50000000  0.77958400  1
  Si  Si27  1  0.74798600  0.50000000  0.22041600  1
  Si  Si28  1  0.24798600  0.00000000  0.27958400  1
  Si  Si29  1  0.75201400  0.00000000  0.72041600  1
  O  O30  1  0.44468000  0.50000000  0.70819300  1
  O  O31  1  0.55532000  0.50000000  0.29180700  1
  O  O32  1  0.05532000  0.00000000  0.20819300  1
  O  O33  1  0.94468000  0.00000000  0.79180700  1
  O  O34  1  0.05986500  0.50000000  0.70694500  1
  O  O35  1  0.94013500  0.50000000  0.29305500  1
  O  O36  1  0.44013500  0.00000000  0.20694500  1
  O  O37  1  0.55986500  0.00000000  0.79305500  1
  O  O38  1  0.24405100  0.37295100  0.87407700  1
  O  O39  1  0.75594900  0.37295100  0.12592300  1
  O  O40  1  0.25594900  0.12704900  0.37407700  1
  O  O41  1  0.74405100  0.12704900  0.62592300  1
  O  O42  1  0.75594900  0.62704900  0.12592300  1
  O  O43  1  0.24405100  0.62704900  0.87407700  1
  O  O44  1  0.74405100  0.87295100  0.62592300  1
  O  O45  1  0.25594900  0.87295100  0.37407700  1
  O  O46  1  0.21282600  0.33737800  0.12541600  1
  O  O47  1  0.78717400  0.33737800  0.87458400  1
  O  O48  1  0.28717400  0.16262200  0.62541600  1
  O  O49  1  0.71282600  0.16262200  0.37458400  1
  O  O50  1  0.78717400  0.66262200  0.87458400  1
  O  O51  1  0.21282600  0.66262200  0.12541600  1
  O  O52  1  0.71282600  0.83737800  0.37458400  1
  O  O53  1  0.28717400  0.83737800  0.62541600  1
  O  O54  1  0.20268100  0.13733800  0.94081900  1
  O  O55  1  0.79731900  0.13733800  0.05918100  1
  O  O56  1  0.29731900  0.36266200  0.44081900  1
  O  O57  1  0.70268100  0.36266200  0.55918100  1
  O  O58  1  0.79731900  0.86266200  0.05918100  1
  O  O59  1  0.20268100  0.86266200  0.94081900  1
  O  O60  1  0.70268100  0.63733800  0.55918100  1
  O  O61  1  0.29731900  0.63733800  0.44081900  1
  O  O62  1  0.50000000  0.24917400  0.00000000  1
  O  O63  1  0.00000000  0.25082600  0.50000000  1
  O  O64  1  0.50000000  0.75082600  0.00000000  1
  O  O65  1  0.00000000  0.74917400  0.50000000  1
