# generated using pymatgen
data_ZnCu2PH7O9
_symmetry_space_group_name_H-M   'P 1'
_cell_length_a   10.34933100
_cell_length_b   7.52996900
_cell_length_c   9.89248810
_cell_angle_alpha   78.09397700
_cell_angle_beta   90.00000000
_cell_angle_gamma   90.00000000
_symmetry_Int_Tables_number   1
_chemical_formula_structural   ZnCu2PH7O9
_chemical_formula_sum   'Zn4 Cu8 P4 H28 O36'
_cell_volume   754.33836547
_cell_formula_units_Z   4
loop_
 _symmetry_equiv_pos_site_id
 _symmetry_equiv_pos_as_xyz
  1  'x, y, z'
loop_
 _atom_site_type_symbol
 _atom_site_label
 _atom_site_symmetry_multiplicity
 _atom_site_fract_x
 _atom_site_fract_y
 _atom_site_fract_z
 _atom_site_occupancy
  Zn  Zn0  1  0.07647600  0.93345200  0.20917200  1
  Zn  Zn1  1  0.57647600  0.06654800  0.29082800  1
  Zn  Zn2  1  0.92352400  0.06654800  0.79082800  1
  Zn  Zn3  1  0.42352400  0.93345200  0.70917200  1
  Cu  Cu4  1  0.07092000  0.50825500  0.13190500  1
  Cu  Cu5  1  0.57092000  0.49174500  0.36809500  1
  Cu  Cu6  1  0.92908000  0.49174500  0.86809500  1
  Cu  Cu7  1  0.42908000  0.50825500  0.63190500  1
  Cu  Cu8  1  0.25373700  0.54546800  0.35608500  1
  Cu  Cu9  1  0.75373700  0.45453200  0.14391500  1
  Cu  Cu10  1  0.74626300  0.45453200  0.64391500  1
  Cu  Cu11  1  0.24626300  0.54546800  0.85608500  1
  P  P12  1  0.29859300  0.93813500  0.41313900  1
  P  P13  1  0.79859300  0.06186500  0.08686100  1
  P  P14  1  0.70140700  0.06186500  0.58686100  1
  P  P15  1  0.20140700  0.93813500  0.91313900  1
  H  H16  1  0.01973200  0.63512200  0.34668700  1
  H  H17  1  0.51973200  0.36487800  0.15331300  1
  H  H18  1  0.98026800  0.36487800  0.65331300  1
  H  H19  1  0.48026800  0.63512200  0.84668700  1
  H  H20  1  0.19143000  0.25587400  0.28266100  1
  H  H21  1  0.69143000  0.74412600  0.21733900  1
  H  H22  1  0.80857000  0.74412600  0.71733900  1
  H  H23  1  0.30857000  0.25587400  0.78266100  1
  H  H24  1  0.38814900  0.26953600  0.48324000  1
  H  H25  1  0.88814900  0.73046400  0.01676000  1
  H  H26  1  0.61185100  0.73046400  0.51676000  1
  H  H27  1  0.11185100  0.26953600  0.98324000  1
  H  H28  1  0.37838700  0.23160300  0.01128900  1
  H  H29  1  0.87838700  0.76839700  0.48871100  1
  H  H30  1  0.62161300  0.76839700  0.98871100  1
  H  H31  1  0.12161300  0.23160300  0.51128900  1
  H  H32  1  0.32018800  0.34488700  0.11602700  1
  H  H33  1  0.82018800  0.65511300  0.38397300  1
  H  H34  1  0.67981200  0.65511300  0.88397300  1
  H  H35  1  0.17981200  0.34488700  0.61602700  1
  H  H36  1  0.36741000  0.68432200  0.10165300  1
  H  H37  1  0.86741000  0.31567800  0.39834700  1
  H  H38  1  0.63259000  0.31567800  0.89834700  1
  H  H39  1  0.13259000  0.68432200  0.60165300  1
  H  H40  1  0.40594100  0.80341100  0.21041400  1
  H  H41  1  0.90594100  0.19658900  0.28958600  1
  H  H42  1  0.59405900  0.19658900  0.78958600  1
  H  H43  1  0.09405900  0.80341100  0.71041400  1
  O  O44  1  0.15781800  0.03268700  0.03070300  1
  O  O45  1  0.65781800  0.96731300  0.46929700  1
  O  O46  1  0.84218200  0.96731300  0.96929700  1
  O  O47  1  0.34218200  0.03268700  0.53070300  1
  O  O48  1  0.16838300  0.02749800  0.35556600  1
  O  O49  1  0.66838300  0.97250200  0.14443400  1
  O  O50  1  0.83161700  0.97250200  0.64443400  1
  O  O51  1  0.33161700  0.02749800  0.85556600  1
  O  O52  1  0.27987000  0.73076300  0.46972800  1
  O  O53  1  0.77987000  0.26923700  0.03027200  1
  O  O54  1  0.72013000  0.26923700  0.53027200  1
  O  O55  1  0.22013000  0.73076300  0.96972800  1
  O  O56  1  0.40071600  0.97149200  0.29513300  1
  O  O57  1  0.90071600  0.02850800  0.20486700  1
  O  O58  1  0.59928400  0.02850800  0.70486700  1
  O  O59  1  0.09928400  0.97149200  0.79513300  1
  O  O60  1  0.08553100  0.66540200  0.27127500  1
  O  O61  1  0.58553100  0.33459800  0.22872500  1
  O  O62  1  0.91446900  0.33459800  0.72872500  1
  O  O63  1  0.41446900  0.66540200  0.77127500  1
  O  O64  1  0.21758900  0.37922000  0.23226800  1
  O  O65  1  0.71758900  0.62078000  0.26773200  1
  O  O66  1  0.78241100  0.62078000  0.76773200  1
  O  O67  1  0.28241100  0.37922000  0.73226800  1
  O  O68  1  0.40646400  0.40216700  0.46314000  1
  O  O69  1  0.90646400  0.59783300  0.03686000  1
  O  O70  1  0.59353600  0.59783300  0.53686000  1
  O  O71  1  0.09353600  0.40216700  0.96314000  1
  O  O72  1  0.38770100  0.34612000  0.04193000  1
  O  O73  1  0.88770100  0.65388000  0.45807000  1
  O  O74  1  0.61229900  0.65388000  0.95807000  1
  O  O75  1  0.11229900  0.34612000  0.54193000  1
  O  O76  1  0.40843900  0.67817100  0.19185100  1
  O  O77  1  0.90843900  0.32182900  0.30814900  1
  O  O78  1  0.59156100  0.32182900  0.80814900  1
  O  O79  1  0.09156100  0.67817100  0.69185100  1
