# generated using pymatgen
data_Y2VO5
_symmetry_space_group_name_H-M   'P 1'
_cell_length_a   8.43046330
_cell_length_b   8.43046330
_cell_length_c   10.57067350
_cell_angle_alpha   60.63913465
_cell_angle_beta   60.63913465
_cell_angle_gamma   48.23417656
_symmetry_Int_Tables_number   1
_chemical_formula_structural   Y2VO5
_chemical_formula_sum   'Y8 V4 O20'
_cell_volume   472.64246002
_cell_formula_units_Z   4
loop_
 _symmetry_equiv_pos_site_id
 _symmetry_equiv_pos_as_xyz
  1  'x, y, z'
loop_
 _atom_site_type_symbol
 _atom_site_label
 _atom_site_symmetry_multiplicity
 _atom_site_fract_x
 _atom_site_fract_y
 _atom_site_fract_z
 _atom_site_occupancy
  Y  Y0  1  0.76147200  0.50759900  0.16292900  1
  Y  Y1  1  0.49240100  0.23852800  0.33707100  1
  Y  Y2  1  0.23852800  0.49240100  0.83707100  1
  Y  Y3  1  0.50759900  0.76147200  0.66292900  1
  Y  Y4  1  0.77601100  0.28905900  0.53735600  1
  Y  Y5  1  0.71094100  0.22398900  0.96264400  1
  Y  Y6  1  0.22398900  0.71094100  0.46264400  1
  Y  Y7  1  0.28905900  0.77601100  0.03735600  1
  V  V8  1  0.90602300  0.71458500  0.31557200  1
  V  V9  1  0.28541500  0.09397700  0.18442800  1
  V  V10  1  0.09397700  0.28541500  0.68442800  1
  V  V11  1  0.71458500  0.90602300  0.81557200  1
  O  O12  1  0.83942900  0.54650900  0.32206300  1
  O  O13  1  0.45349100  0.16057100  0.17793700  1
  O  O14  1  0.16057100  0.45349100  0.67793700  1
  O  O15  1  0.54650900  0.83942900  0.82206300  1
  O  O16  1  0.87457800  0.72170000  0.95221000  1
  O  O17  1  0.27830000  0.12542200  0.54779000  1
  O  O18  1  0.12542200  0.27830000  0.04779000  1
  O  O19  1  0.72170000  0.87457800  0.45221000  1
  O  O20  1  0.41064000  0.81748800  0.17286700  1
  O  O21  1  0.18251200  0.58936000  0.32713300  1
  O  O22  1  0.58936000  0.18251200  0.82713300  1
  O  O23  1  0.81748800  0.41064000  0.67286700  1
  O  O24  1  0.09527300  0.07791000  0.36808800  1
  O  O25  1  0.92209000  0.90472700  0.13191200  1
  O  O26  1  0.90472700  0.92209000  0.63191200  1
  O  O27  1  0.07791000  0.09527300  0.86808800  1
  O  O28  1  0.58339000  0.38410400  0.39726700  1
  O  O29  1  0.61589600  0.41661000  0.10273300  1
  O  O30  1  0.41661000  0.61589600  0.60273300  1
  O  O31  1  0.38410400  0.58339000  0.89726700  1
