# generated using pymatgen
data_CaH4Ir(OF3)2
_symmetry_space_group_name_H-M   'P 1'
_cell_length_a   9.67200100
_cell_length_b   5.96097800
_cell_length_c   11.76990773
_cell_angle_alpha   69.04969830
_cell_angle_beta   90.00000000
_cell_angle_gamma   90.00000000
_symmetry_Int_Tables_number   1
_chemical_formula_structural   CaH4Ir(OF3)2
_chemical_formula_sum   'Ca4 H16 Ir4 O8 F24'
_cell_volume   633.72824589
_cell_formula_units_Z   4
loop_
 _symmetry_equiv_pos_site_id
 _symmetry_equiv_pos_as_xyz
  1  'x, y, z'
loop_
 _atom_site_type_symbol
 _atom_site_label
 _atom_site_symmetry_multiplicity
 _atom_site_fract_x
 _atom_site_fract_y
 _atom_site_fract_z
 _atom_site_occupancy
  Ca  Ca0  1  0.68026100  0.21267000  0.95299200  1
  Ca  Ca1  1  0.81973900  0.21267000  0.45299200  1
  Ca  Ca2  1  0.31973900  0.78733000  0.04700800  1
  Ca  Ca3  1  0.18026100  0.78733000  0.54700800  1
  H  H4  1  0.86050600  0.48821400  0.07585400  1
  H  H5  1  0.63949400  0.48821400  0.57585400  1
  H  H6  1  0.13949400  0.51178600  0.92414600  1
  H  H7  1  0.36050600  0.51178600  0.42414600  1
  H  H8  1  0.84210700  0.65747600  0.93949900  1
  H  H9  1  0.65789300  0.65747600  0.43949900  1
  H  H10  1  0.15789300  0.34252400  0.06050100  1
  H  H11  1  0.34210700  0.34252400  0.56050100  1
  H  H12  1  0.64195700  0.68364700  0.06389000  1
  H  H13  1  0.85804300  0.68364700  0.56389000  1
  H  H14  1  0.35804300  0.31635300  0.93611000  1
  H  H15  1  0.14195700  0.31635300  0.43611000  1
  H  H16  1  0.59218100  0.77035500  0.16939900  1
  H  H17  1  0.90781900  0.77035500  0.66939900  1
  H  H18  1  0.40781900  0.22964500  0.83060100  1
  H  H19  1  0.09218100  0.22964500  0.33060100  1
  Ir  Ir20  1  0.03883200  0.13685200  0.76645000  1
  Ir  Ir21  1  0.46116800  0.13685200  0.26645000  1
  Ir  Ir22  1  0.96116800  0.86314800  0.23355000  1
  Ir  Ir23  1  0.53883200  0.86314800  0.73355000  1
  O  O24  1  0.79328800  0.53784200  0.00915800  1
  O  O25  1  0.70671200  0.53784200  0.50915800  1
  O  O26  1  0.20671200  0.46215800  0.99084200  1
  O  O27  1  0.29328800  0.46215800  0.49084200  1
  O  O28  1  0.57946500  0.79877800  0.08204600  1
  O  O29  1  0.92053500  0.79877800  0.58204600  1
  O  O30  1  0.42053500  0.20122200  0.91795400  1
  O  O31  1  0.07946500  0.20122200  0.41795400  1
  F  F32  1  0.14407000  0.44659400  0.71611400  1
  F  F33  1  0.35593000  0.44659400  0.21611400  1
  F  F34  1  0.85593000  0.55340600  0.28388600  1
  F  F35  1  0.64407000  0.55340600  0.78388600  1
  F  F36  1  0.90680600  0.27569200  0.84743800  1
  F  F37  1  0.59319400  0.27569200  0.34743800  1
  F  F38  1  0.09319400  0.72430800  0.15256200  1
  F  F39  1  0.40680600  0.72430800  0.65256200  1
  F  F40  1  0.94122700  0.82157300  0.81536200  1
  F  F41  1  0.55877300  0.82157300  0.31536200  1
  F  F42  1  0.05877300  0.17842700  0.18463800  1
  F  F43  1  0.44122700  0.17842700  0.68463800  1
  F  F44  1  0.16865200  0.00344100  0.67951800  1
  F  F45  1  0.33134800  0.00344100  0.17951800  1
  F  F46  1  0.83134800  0.99655900  0.32048200  1
  F  F47  1  0.66865200  0.99655900  0.82048200  1
  F  F48  1  0.92936300  0.26300800  0.61758700  1
  F  F49  1  0.57063700  0.26300800  0.11758700  1
  F  F50  1  0.07063700  0.73699200  0.38241300  1
  F  F51  1  0.42936300  0.73699200  0.88241300  1
  F  F52  1  0.15009800  0.01579300  0.91376200  1
  F  F53  1  0.34990200  0.01579300  0.41376200  1
  F  F54  1  0.84990200  0.98420700  0.08623800  1
  F  F55  1  0.65009800  0.98420700  0.58623800  1
