# generated using pymatgen
data_MgH20C4(N5O6)2
_symmetry_space_group_name_H-M   'P 1'
_cell_length_a   6.70893000
_cell_length_b   17.76277700
_cell_length_c   9.99378312
_cell_angle_alpha   90.00000000
_cell_angle_beta   126.77427223
_cell_angle_gamma   90.00000000
_symmetry_Int_Tables_number   1
_chemical_formula_structural   MgH20C4(N5O6)2
_chemical_formula_sum   'Mg2 H40 C8 N20 O24'
_cell_volume   953.95240702
_cell_formula_units_Z   2
loop_
 _symmetry_equiv_pos_site_id
 _symmetry_equiv_pos_as_xyz
  1  'x, y, z'
loop_
 _atom_site_type_symbol
 _atom_site_label
 _atom_site_symmetry_multiplicity
 _atom_site_fract_x
 _atom_site_fract_y
 _atom_site_fract_z
 _atom_site_occupancy
  Mg  Mg0  1  0.50000000  0.00000000  0.00000000  1
  Mg  Mg1  1  0.50000000  0.50000000  0.50000000  1
  H  H2  1  0.13386800  0.92562000  0.70919200  1
  H  H3  1  0.13386800  0.57438000  0.20919200  1
  H  H4  1  0.86613200  0.07438000  0.29080800  1
  H  H5  1  0.86613200  0.42562000  0.79080800  1
  H  H6  1  0.05158600  0.00991000  0.69724900  1
  H  H7  1  0.05158600  0.49009000  0.19724900  1
  H  H8  1  0.94841400  0.99009000  0.30275100  1
  H  H9  1  0.94841400  0.50991000  0.80275100  1
  H  H10  1  0.85021200  0.76940300  0.05942300  1
  H  H11  1  0.85021200  0.73059700  0.55942300  1
  H  H12  1  0.14978800  0.23059700  0.94057700  1
  H  H13  1  0.14978800  0.26940300  0.44057700  1
  H  H14  1  0.67499200  0.83451900  0.08723400  1
  H  H15  1  0.67499200  0.66548100  0.58723400  1
  H  H16  1  0.32500800  0.16548100  0.91276600  1
  H  H17  1  0.32500800  0.33451900  0.41276600  1
  H  H18  1  0.91746300  0.89940700  0.82126300  1
  H  H19  1  0.91746300  0.60059300  0.32126300  1
  H  H20  1  0.08253700  0.10059300  0.17873700  1
  H  H21  1  0.08253700  0.39940700  0.67873700  1
  H  H22  1  0.97225600  0.80782300  0.89380800  1
  H  H23  1  0.97225600  0.69217700  0.39380800  1
  H  H24  1  0.02774400  0.19217700  0.10619200  1
  H  H25  1  0.02774400  0.30782300  0.60619200  1
  H  H26  1  0.38161300  0.93458200  0.38591300  1
  H  H27  1  0.38161300  0.56541800  0.88591300  1
  H  H28  1  0.61838700  0.06541800  0.61408700  1
  H  H29  1  0.61838700  0.43458200  0.11408700  1
  H  H30  1  0.44044400  0.00010800  0.28020300  1
  H  H31  1  0.44044400  0.49989200  0.78020300  1
  H  H32  1  0.55955600  0.99989200  0.71979700  1
  H  H33  1  0.55955600  0.50010800  0.21979700  1
  H  H34  1  0.39844900  0.78107400  0.17514300  1
  H  H35  1  0.39844900  0.71892600  0.67514300  1
  H  H36  1  0.60155100  0.21892600  0.82485700  1
  H  H37  1  0.60155100  0.28107400  0.32485700  1
  H  H38  1  0.37854700  0.80833900  0.33368900  1
  H  H39  1  0.37854700  0.69166100  0.83368900  1
  H  H40  1  0.62145300  0.19166100  0.66631100  1
  H  H41  1  0.62145300  0.30833900  0.16631100  1
  C  C42  1  0.76448700  0.87253200  0.93961800  1
  C  C43  1  0.76448700  0.62746800  0.43961800  1
  C  C44  1  0.23551300  0.12746800  0.06038200  1
  C  C45  1  0.23551300  0.37253200  0.56038200  1
  C  C46  1  0.46237700  0.89202600  0.23243100  1
  C  C47  1  0.46237700  0.60797400  0.73243100  1
  C  C48  1  0.53762300  0.10797400  0.76756900  1
  C  C49  1  0.53762300  0.39202600  0.26756900  1
  N  N50  1  0.76609500  0.82020100  0.03751400  1
  N  N51  1  0.76609500  0.67979900  0.53751400  1
  N  N52  1  0.23390500  0.17979900  0.96248600  1
  N  N53  1  0.23390500  0.32020100  0.46248600  1
  N  N54  1  0.86717100  0.85528400  0.86049900  1
  N  N55  1  0.86717100  0.64471600  0.36049900  1
  N  N56  1  0.13282900  0.14471600  0.13950100  1
  N  N57  1  0.13282900  0.35528400  0.63950100  1
  N  N58  1  0.45226300  0.94659100  0.32165500  1
  N  N59  1  0.45226300  0.55340900  0.82165500  1
  N  N60  1  0.54773700  0.05340900  0.67834500  1
  N  N61  1  0.54773700  0.44659100  0.17834500  1
  N  N62  1  0.44033000  0.81957700  0.26423600  1
  N  N63  1  0.44033000  0.68042300  0.76423600  1
  N  N64  1  0.55967000  0.18042300  0.73576400  1
  N  N65  1  0.55967000  0.31957700  0.23576400  1
  N  N66  1  0.17239200  0.84666800  0.51498000  1
  N  N67  1  0.17239200  0.65333200  0.01498000  1
  N  N68  1  0.82760800  0.15333200  0.48502000  1
  N  N69  1  0.82760800  0.34666800  0.98502000  1
  O  O70  1  0.14019700  0.96829400  0.77636800  1
  O  O71  1  0.14019700  0.53170600  0.27636800  1
  O  O72  1  0.85980300  0.03170600  0.22363200  1
  O  O73  1  0.85980300  0.46829400  0.72363200  1
  O  O74  1  0.66373700  0.93653500  0.91669600  1
  O  O75  1  0.66373700  0.56346500  0.41669600  1
  O  O76  1  0.33626300  0.06346500  0.08330400  1
  O  O77  1  0.33626300  0.43653500  0.58330400  1
  O  O78  1  0.50263800  0.90641800  0.12547100  1
  O  O79  1  0.50263800  0.59358200  0.62547100  1
  O  O80  1  0.49736200  0.09358200  0.87452900  1
  O  O81  1  0.49736200  0.40641800  0.37452900  1
  O  O82  1  0.10149300  0.83905800  0.60722000  1
  O  O83  1  0.10149300  0.66094200  0.10722000  1
  O  O84  1  0.89850700  0.16094200  0.39278000  1
  O  O85  1  0.89850700  0.33905800  0.89278000  1
  O  O86  1  0.22034900  0.78845000  0.46466000  1
  O  O87  1  0.22034900  0.71155000  0.96466000  1
  O  O88  1  0.77965100  0.21155000  0.53534000  1
  O  O89  1  0.77965100  0.28845000  0.03534000  1
  O  O90  1  0.19718900  0.91182400  0.47533900  1
  O  O91  1  0.19718900  0.58817600  0.97533900  1
  O  O92  1  0.80281100  0.08817600  0.52466100  1
  O  O93  1  0.80281100  0.41182400  0.02466100  1
