# generated using pymatgen
data_NaZnAsO4
_symmetry_space_group_name_H-M   'P 1'
_cell_length_a   8.47028800
_cell_length_b   9.13233714
_cell_length_c   9.13241784
_cell_angle_alpha   120.00041649
_cell_angle_beta   90.00000000
_cell_angle_gamma   90.00000000
_symmetry_Int_Tables_number   1
_chemical_formula_structural   NaZnAsO4
_chemical_formula_sum   'Na6 Zn6 As6 O24'
_cell_volume   611.77918417
_cell_formula_units_Z   6
loop_
 _symmetry_equiv_pos_site_id
 _symmetry_equiv_pos_as_xyz
  1  'x, y, z'
loop_
 _atom_site_type_symbol
 _atom_site_label
 _atom_site_symmetry_multiplicity
 _atom_site_fract_x
 _atom_site_fract_y
 _atom_site_fract_z
 _atom_site_occupancy
  Na  Na0  1  0.81810500  0.33334400  0.66667500  1
  Na  Na1  1  0.31810500  0.66665600  0.33332500  1
  Na  Na2  1  0.29663900  0.00000400  0.00000400  1
  Na  Na3  1  0.79663900  0.99999600  0.99999600  1
  Na  Na4  1  0.35709500  0.33333700  0.66667000  1
  Na  Na5  1  0.85709500  0.66666300  0.33333000  1
  Zn  Zn6  1  0.60108200  0.67535300  0.02313000  1
  Zn  Zn7  1  0.60108500  0.97687400  0.65221700  1
  Zn  Zn8  1  0.60108000  0.34777500  0.32465100  1
  Zn  Zn9  1  0.10108200  0.32464700  0.97687000  1
  Zn  Zn10  1  0.10108500  0.02312600  0.34778300  1
  Zn  Zn11  1  0.10108000  0.65222500  0.67534900  1
  As  As12  1  0.48959700  0.02821000  0.33835800  1
  As  As13  1  0.48959500  0.66165800  0.68986600  1
  As  As14  1  0.48959700  0.31014300  0.97178700  1
  As  As15  1  0.98959700  0.97179000  0.66164200  1
  As  As16  1  0.98959500  0.33834200  0.31013400  1
  As  As17  1  0.98959700  0.68985700  0.02821300  1
  O  O18  1  0.62434600  0.19356100  0.42016100  1
  O  O19  1  0.62434300  0.57984800  0.77340700  1
  O  O20  1  0.62434600  0.22659900  0.80644300  1
  O  O21  1  0.12434600  0.80643900  0.57983900  1
  O  O22  1  0.12434300  0.42015200  0.22659300  1
  O  O23  1  0.12434600  0.77340100  0.19355700  1
  O  O24  1  0.31054100  0.13158200  0.38713600  1
  O  O25  1  0.31053900  0.61288000  0.74445300  1
  O  O26  1  0.31054000  0.25555400  0.86841700  1
  O  O27  1  0.81054100  0.86841800  0.61286400  1
  O  O28  1  0.81053900  0.38712000  0.25554700  1
  O  O29  1  0.81054000  0.74444600  0.13158200  1
  O  O30  1  0.50525900  0.90481400  0.43080000  1
  O  O31  1  0.50526000  0.56919500  0.47401200  1
  O  O32  1  0.50526100  0.52598600  0.09518300  1
  O  O33  1  0.00525900  0.09518600  0.56920000  1
  O  O34  1  0.00526000  0.43080500  0.52598800  1
  O  O35  1  0.00526100  0.47401400  0.90481700  1
  O  O36  1  0.50096400  0.90208600  0.12285100  1
  O  O37  1  0.50096900  0.87715000  0.77923200  1
  O  O38  1  0.50095700  0.22077000  0.09791800  1
  O  O39  1  0.00096400  0.09791400  0.87714900  1
  O  O40  1  0.00096900  0.12285000  0.22076800  1
  O  O41  1  0.00095700  0.77923000  0.90208200  1
