# generated using pymatgen
data_CoAsO5
_symmetry_space_group_name_H-M   'P 1'
_cell_length_a   6.61979700
_cell_length_b   7.41436594
_cell_length_c   15.19206743
_cell_angle_alpha   91.01245821
_cell_angle_beta   95.56643348
_cell_angle_gamma   96.47437283
_symmetry_Int_Tables_number   1
_chemical_formula_structural   CoAsO5
_chemical_formula_sum   'Co8 As8 O40'
_cell_volume   737.09310554
_cell_formula_units_Z   8
loop_
 _symmetry_equiv_pos_site_id
 _symmetry_equiv_pos_as_xyz
  1  'x, y, z'
loop_
 _atom_site_type_symbol
 _atom_site_label
 _atom_site_symmetry_multiplicity
 _atom_site_fract_x
 _atom_site_fract_y
 _atom_site_fract_z
 _atom_site_occupancy
  Co  Co0  1  0.61034900  0.90815900  0.93112000  1
  Co  Co1  1  0.38965100  0.09184100  0.06888000  1
  Co  Co2  1  0.64139600  0.85086600  0.55093600  1
  Co  Co3  1  0.35860400  0.14913400  0.44906400  1
  Co  Co4  1  0.86146000  0.59495300  0.43293900  1
  Co  Co5  1  0.13854000  0.40504700  0.56706100  1
  Co  Co6  1  0.87178900  0.65176600  0.04811000  1
  Co  Co7  1  0.12821100  0.34823400  0.95189000  1
  As  As8  1  0.09723000  0.93111800  0.88818100  1
  As  As9  1  0.90277000  0.06888200  0.11181900  1
  As  As10  1  0.14670900  0.83261700  0.59514800  1
  As  As11  1  0.85329100  0.16738300  0.40485200  1
  As  As12  1  0.35207100  0.56441700  0.39005400  1
  As  As13  1  0.64792900  0.43558300  0.60994600  1
  As  As14  1  0.39935100  0.66782700  0.09300300  1
  As  As15  1  0.60064900  0.33217300  0.90699700  1
  O  O16  1  0.32234900  0.93028800  0.96247200  1
  O  O17  1  0.67765100  0.06971200  0.03752800  1
  O  O18  1  0.90079700  0.83659300  0.94981500  1
  O  O19  1  0.09920300  0.16340700  0.05018500  1
  O  O20  1  0.54868300  0.78332500  0.83776900  1
  O  O21  1  0.45131700  0.21667500  0.16223100  1
  O  O22  1  0.57862700  0.66493600  0.45235100  1
  O  O23  1  0.42137300  0.33506400  0.54764900  1
  O  O24  1  0.34723900  0.92700700  0.53726000  1
  O  O25  1  0.65276100  0.07299300  0.46274000  1
  O  O26  1  0.61756800  0.66328400  0.63210300  1
  O  O27  1  0.38243200  0.33671600  0.36789700  1
  O  O28  1  0.71396900  0.99501500  0.63548500  1
  O  O29  1  0.28603100  0.00498500  0.36451500  1
  O  O30  1  0.92150800  0.81481700  0.52001100  1
  O  O31  1  0.07849200  0.18518300  0.47998900  1
  O  O32  1  0.88700200  0.70683700  0.34387200  1
  O  O33  1  0.11299800  0.29316300  0.65612800  1
  O  O34  1  0.58216200  0.69304300  0.01324400  1
  O  O35  1  0.41783800  0.30695700  0.98675600  1
  O  O36  1  0.81732500  0.50886600  0.13045600  1
  O  O37  1  0.18267500  0.49113400  0.86954400  1
  O  O38  1  0.93305400  0.84646000  0.13323500  1
  O  O39  1  0.06694600  0.15354000  0.86676500  1
  O  O40  1  0.11277200  0.79933500  0.79739400  1
  O  O41  1  0.88722800  0.20066500  0.20260600  1
  O  O42  1  0.11244600  0.97597100  0.68292000  1
  O  O43  1  0.88755400  0.02402900  0.31708000  1
  O  O44  1  0.19470900  0.62936000  0.63812900  1
  O  O45  1  0.80529100  0.37064000  0.36187100  1
  O  O46  1  0.16134900  0.55954300  0.46385000  1
  O  O47  1  0.83865100  0.44045700  0.53615000  1
  O  O48  1  0.29175600  0.67700300  0.29957600  1
  O  O49  1  0.70824400  0.32299700  0.70042400  1
  O  O50  1  0.37781800  0.88375200  0.13687500  1
  O  O51  1  0.62218200  0.11624800  0.86312500  1
  O  O52  1  0.16418900  0.57351600  0.04123300  1
  O  O53  1  0.83581100  0.42648400  0.95876700  1
  O  O54  1  0.49894900  0.53268200  0.17137300  1
  O  O55  1  0.50105100  0.46731800  0.82862700  1
