# generated using pymatgen
data_PrFeH8C6(N3O2)2
_symmetry_space_group_name_H-M   'P 1'
_cell_length_a   7.92595736
_cell_length_b   7.92595736
_cell_length_c   14.41395500
_cell_angle_alpha   90.00000000
_cell_angle_beta   90.00000000
_cell_angle_gamma   120.50227890
_symmetry_Int_Tables_number   1
_chemical_formula_structural   PrFeH8C6(N3O2)2
_chemical_formula_sum   'Pr2 Fe2 H16 C12 N12 O8'
_cell_volume   780.18363845
_cell_formula_units_Z   2
loop_
 _symmetry_equiv_pos_site_id
 _symmetry_equiv_pos_as_xyz
  1  'x, y, z'
loop_
 _atom_site_type_symbol
 _atom_site_label
 _atom_site_symmetry_multiplicity
 _atom_site_fract_x
 _atom_site_fract_y
 _atom_site_fract_z
 _atom_site_occupancy
  Pr  Pr0  1  0.82396900  0.17603100  0.25000000  1
  Pr  Pr1  1  0.17603100  0.82396900  0.75000000  1
  Fe  Fe2  1  0.50000000  0.50000000  0.00000000  1
  Fe  Fe3  1  0.50000000  0.50000000  0.50000000  1
  H  H4  1  0.18791900  0.81208100  0.04606500  1
  H  H5  1  0.81208100  0.18791900  0.95393500  1
  H  H6  1  0.18791900  0.81208100  0.45393500  1
  H  H7  1  0.81208100  0.18791900  0.54606500  1
  H  H8  1  0.08760300  0.91239700  0.09574800  1
  H  H9  1  0.91239700  0.08760300  0.90425200  1
  H  H10  1  0.08760300  0.91239700  0.40425200  1
  H  H11  1  0.91239700  0.08760300  0.59574800  1
  H  H12  1  0.37657000  0.97769800  0.19508600  1
  H  H13  1  0.97769800  0.37657000  0.80491400  1
  H  H14  1  0.37657000  0.97769800  0.30491400  1
  H  H15  1  0.97769800  0.37657000  0.69508600  1
  H  H16  1  0.62343000  0.02230200  0.80491400  1
  H  H17  1  0.02230200  0.62343000  0.19508600  1
  H  H18  1  0.62343000  0.02230200  0.69508600  1
  H  H19  1  0.02230200  0.62343000  0.30491400  1
  C  C20  1  0.35097200  0.25638900  0.90541600  1
  C  C21  1  0.25638900  0.35097200  0.09458400  1
  C  C22  1  0.35097200  0.25638900  0.59458400  1
  C  C23  1  0.25638900  0.35097200  0.40541600  1
  C  C24  1  0.64902800  0.74361100  0.09458400  1
  C  C25  1  0.74361100  0.64902800  0.90541600  1
  C  C26  1  0.64902800  0.74361100  0.40541600  1
  C  C27  1  0.74361100  0.64902800  0.59458400  1
  C  C28  1  0.64428300  0.35571700  0.06054600  1
  C  C29  1  0.35571700  0.64428300  0.93945400  1
  C  C30  1  0.64428300  0.35571700  0.43945400  1
  C  C31  1  0.35571700  0.64428300  0.56054600  1
  N  N32  1  0.72464000  0.88167000  0.14256300  1
  N  N33  1  0.88167000  0.72464000  0.85743700  1
  N  N34  1  0.72464000  0.88167000  0.35743700  1
  N  N35  1  0.88167000  0.72464000  0.64256300  1
  N  N36  1  0.27536000  0.11833000  0.85743700  1
  N  N37  1  0.11833000  0.27536000  0.14256300  1
  N  N38  1  0.27536000  0.11833000  0.64256300  1
  N  N39  1  0.11833000  0.27536000  0.35743700  1
  N  N40  1  0.71945100  0.28054900  0.09876900  1
  N  N41  1  0.28054900  0.71945100  0.90123100  1
  N  N42  1  0.71945100  0.28054900  0.40123100  1
  N  N43  1  0.28054900  0.71945100  0.59876900  1
  O  O44  1  0.15752700  0.84247300  0.10752600  1
  O  O45  1  0.84247300  0.15752700  0.89247400  1
  O  O46  1  0.15752700  0.84247300  0.39247400  1
  O  O47  1  0.84247300  0.15752700  0.60752600  1
  O  O48  1  0.46203600  0.02718400  0.25000000  1
  O  O49  1  0.02718400  0.46203600  0.75000000  1
  O  O50  1  0.53796400  0.97281600  0.75000000  1
  O  O51  1  0.97281600  0.53796400  0.25000000  1
