# generated using pymatgen
data_FeAsO6
_symmetry_space_group_name_H-M   'P 1'
_cell_length_a   8.74961801
_cell_length_b   8.74795452
_cell_length_c   10.10121911
_cell_angle_alpha   90.00000162
_cell_angle_beta   90.01370928
_cell_angle_gamma   119.99371034
_symmetry_Int_Tables_number   1
_chemical_formula_structural   FeAsO6
_chemical_formula_sum   'Fe6 As6 O36'
_cell_volume   669.61864606
_cell_formula_units_Z   6
loop_
 _symmetry_equiv_pos_site_id
 _symmetry_equiv_pos_as_xyz
  1  'x, y, z'
loop_
 _atom_site_type_symbol
 _atom_site_label
 _atom_site_symmetry_multiplicity
 _atom_site_fract_x
 _atom_site_fract_y
 _atom_site_fract_z
 _atom_site_occupancy
  Fe  Fe0  1  0.33352100  0.66673300  0.80768500  1
  Fe  Fe1  1  0.33352100  0.66678800  0.30768500  1
  Fe  Fe2  1  0.66647900  0.33326700  0.19231500  1
  Fe  Fe3  1  0.66647900  0.33321200  0.69231500  1
  Fe  Fe4  1  0.00000000  0.00000000  0.50000000  1
  Fe  Fe5  1  0.00000000  0.00000000  0.00000000  1
  As  As6  1  0.72655300  0.72701200  0.75011300  1
  As  As7  1  0.27344700  0.00045900  0.74988700  1
  As  As8  1  0.00000000  0.27313400  0.75000000  1
  As  As9  1  0.72655300  0.99954100  0.25011300  1
  As  As10  1  0.00000000  0.72686600  0.25000000  1
  As  As11  1  0.27344700  0.27298800  0.24988700  1
  O  O12  1  0.64159200  0.17790300  0.56953600  1
  O  O13  1  0.82205400  0.46370700  0.56947400  1
  O  O14  1  0.53626200  0.35829900  0.56955900  1
  O  O15  1  0.64159200  0.46368900  0.06953600  1
  O  O16  1  0.53626200  0.17796300  0.06955900  1
  O  O17  1  0.82205400  0.35834800  0.06947400  1
  O  O18  1  0.35840800  0.82209700  0.43046400  1
  O  O19  1  0.17794600  0.53629300  0.43052600  1
  O  O20  1  0.46373800  0.64170100  0.43044100  1
  O  O21  1  0.35840800  0.53631100  0.93046400  1
  O  O22  1  0.46373800  0.82203700  0.93044100  1
  O  O23  1  0.17794600  0.64165200  0.93052600  1
  O  O24  1  0.70627600  0.52945600  0.80120900  1
  O  O25  1  0.47018500  0.17665700  0.80115800  1
  O  O26  1  0.82311500  0.29372300  0.80117300  1
  O  O27  1  0.70627600  0.17682000  0.30120900  1
  O  O28  1  0.82311500  0.52939200  0.30117300  1
  O  O29  1  0.47018500  0.29352700  0.30115800  1
  O  O30  1  0.29372400  0.47054400  0.19879100  1
  O  O31  1  0.52981500  0.82334300  0.19884200  1
  O  O32  1  0.17688500  0.70627700  0.19882700  1
  O  O33  1  0.29372400  0.82318000  0.69879100  1
  O  O34  1  0.17688500  0.47060800  0.69882700  1
  O  O35  1  0.52981500  0.70647300  0.69884200  1
  O  O36  1  0.87017800  0.79254100  0.61647500  1
  O  O37  1  0.20764200  0.07761400  0.61647200  1
  O  O38  1  0.92252400  0.13011400  0.61654000  1
  O  O39  1  0.87017800  0.07763700  0.11647500  1
  O  O40  1  0.92252400  0.79241000  0.11654000  1
  O  O41  1  0.20764200  0.13002800  0.11647200  1
  O  O42  1  0.12982200  0.20745900  0.38352500  1
  O  O43  1  0.79235800  0.92238600  0.38352800  1
  O  O44  1  0.07747600  0.86988600  0.38346000  1
  O  O45  1  0.12982200  0.92236300  0.88352500  1
  O  O46  1  0.07747600  0.20759000  0.88346000  1
  O  O47  1  0.79235800  0.86997200  0.88352800  1
