# generated using pymatgen
data_UH16C4(NO3)2
_symmetry_space_group_name_H-M   'P 1'
_cell_length_a   7.14425600
_cell_length_b   7.83655200
_cell_length_c   9.90572390
_cell_angle_alpha   77.59693144
_cell_angle_beta   90.00000000
_cell_angle_gamma   90.00000000
_symmetry_Int_Tables_number   1
_chemical_formula_structural   UH16C4(NO3)2
_chemical_formula_sum   'U2 H32 C8 N4 O12'
_cell_volume   541.64157641
_cell_formula_units_Z   2
loop_
 _symmetry_equiv_pos_site_id
 _symmetry_equiv_pos_as_xyz
  1  'x, y, z'
loop_
 _atom_site_type_symbol
 _atom_site_label
 _atom_site_symmetry_multiplicity
 _atom_site_fract_x
 _atom_site_fract_y
 _atom_site_fract_z
 _atom_site_occupancy
  U  U0  1  0.00000000  0.00000000  0.00000000  1
  U  U1  1  0.50000000  0.00000000  0.50000000  1
  H  H2  1  0.84436700  0.16101100  0.24480600  1
  H  H3  1  0.34436700  0.83898900  0.25519400  1
  H  H4  1  0.15563300  0.83898900  0.75519400  1
  H  H5  1  0.65563300  0.16101100  0.74480600  1
  H  H6  1  0.06635400  0.15527100  0.25272900  1
  H  H7  1  0.56635400  0.84472900  0.24727100  1
  H  H8  1  0.93364600  0.84472900  0.74727100  1
  H  H9  1  0.43364600  0.15527100  0.75272900  1
  H  H10  1  0.97256600  0.29500100  0.46182800  1
  H  H11  1  0.47256600  0.70499900  0.03817200  1
  H  H12  1  0.02743400  0.70499900  0.53817200  1
  H  H13  1  0.52743400  0.29500100  0.96182800  1
  H  H14  1  0.60584700  0.69135800  0.88673200  1
  H  H15  1  0.10584700  0.30864200  0.61326800  1
  H  H16  1  0.39415300  0.30864200  0.11326800  1
  H  H17  1  0.89415300  0.69135800  0.38673200  1
  H  H18  1  0.94901300  0.89925000  0.42184600  1
  H  H19  1  0.44901300  0.10075000  0.07815400  1
  H  H20  1  0.05098700  0.10075000  0.57815400  1
  H  H21  1  0.55098700  0.89925000  0.92184600  1
  H  H22  1  0.70950700  0.52569600  0.19340600  1
  H  H23  1  0.20950700  0.47430400  0.30659400  1
  H  H24  1  0.29049300  0.47430400  0.80659400  1
  H  H25  1  0.79049300  0.52569600  0.69340600  1
  H  H26  1  0.95183700  0.58542400  0.16393400  1
  H  H27  1  0.45183700  0.41457600  0.33606600  1
  H  H28  1  0.04816300  0.41457600  0.83606600  1
  H  H29  1  0.54816300  0.58542400  0.66393400  1
  H  H30  1  0.82326000  0.50148500  0.03796600  1
  H  H31  1  0.32326000  0.49851500  0.46203400  1
  H  H32  1  0.17674000  0.49851500  0.96203400  1
  H  H33  1  0.67674000  0.50148500  0.53796600  1
  C  C34  1  0.58669700  0.76396200  0.96864200  1
  C  C35  1  0.08669700  0.23603800  0.53135800  1
  C  C36  1  0.41330300  0.23603800  0.03135800  1
  C  C37  1  0.91330300  0.76396200  0.46864200  1
  C  C38  1  0.81495700  0.58262800  0.11511300  1
  C  C39  1  0.31495700  0.41737200  0.38488700  1
  C  C40  1  0.18504300  0.41737200  0.88488700  1
  C  C41  1  0.68504300  0.58262800  0.61511300  1
  N  N42  1  0.76271800  0.76095700  0.04532600  1
  N  N43  1  0.26271800  0.23904300  0.45467400  1
  N  N44  1  0.23728200  0.23904300  0.95467400  1
  N  N45  1  0.73728200  0.76095700  0.54532600  1
  O  O46  1  0.16533000  0.85721200  0.11652100  1
  O  O47  1  0.66533000  0.14278800  0.38347900  1
  O  O48  1  0.83467000  0.14278800  0.88347900  1
  O  O49  1  0.33467000  0.85721200  0.61652100  1
  O  O50  1  0.95749600  0.17057200  0.18650400  1
  O  O51  1  0.45749600  0.82942800  0.31349600  1
  O  O52  1  0.04250400  0.82942800  0.81349600  1
  O  O53  1  0.54250400  0.17057200  0.68650400  1
  O  O54  1  0.75323300  0.87270600  0.13915000  1
  O  O55  1  0.25323300  0.12729400  0.36085000  1
  O  O56  1  0.24676700  0.12729400  0.86085000  1
  O  O57  1  0.74676700  0.87270600  0.63915000  1
