# generated using pymatgen
data_BaCu(SiO3)2
_symmetry_space_group_name_H-M   'P 1'
_cell_length_a   7.17964700
_cell_length_b   7.17964700
_cell_length_c   11.14959400
_cell_angle_alpha   90.00000000
_cell_angle_beta   90.00000000
_cell_angle_gamma   90.00000000
_symmetry_Int_Tables_number   1
_chemical_formula_structural   BaCu(SiO3)2
_chemical_formula_sum   'Ba4 Cu4 Si8 O24'
_cell_volume   574.73181293
_cell_formula_units_Z   4
loop_
 _symmetry_equiv_pos_site_id
 _symmetry_equiv_pos_as_xyz
  1  'x, y, z'
loop_
 _atom_site_type_symbol
 _atom_site_label
 _atom_site_symmetry_multiplicity
 _atom_site_fract_x
 _atom_site_fract_y
 _atom_site_fract_z
 _atom_site_occupancy
  Ba  Ba0  1  0.00000000  0.50000000  0.74438700  1
  Ba  Ba1  1  0.00000000  0.50000000  0.24438700  1
  Ba  Ba2  1  0.50000000  0.00000000  0.75561300  1
  Ba  Ba3  1  0.50000000  0.00000000  0.25561300  1
  Cu  Cu4  1  0.00000000  0.00000000  0.62203100  1
  Cu  Cu5  1  0.50000000  0.50000000  0.12203100  1
  Cu  Cu6  1  0.50000000  0.50000000  0.87796900  1
  Cu  Cu7  1  0.00000000  0.00000000  0.37796900  1
  Si  Si8  1  0.27382700  0.27382700  0.50000000  1
  Si  Si9  1  0.72617300  0.72617300  0.50000000  1
  Si  Si10  1  0.77382700  0.22617300  0.00000000  1
  Si  Si11  1  0.22617300  0.77382700  0.00000000  1
  Si  Si12  1  0.22617300  0.22617300  0.00000000  1
  Si  Si13  1  0.77382700  0.77382700  0.00000000  1
  Si  Si14  1  0.72617300  0.27382700  0.50000000  1
  Si  Si15  1  0.27382700  0.72617300  0.50000000  1
  O  O16  1  0.23525800  0.50000000  0.50271900  1
  O  O17  1  0.76474200  0.50000000  0.50271900  1
  O  O18  1  0.00000000  0.26474200  0.00271900  1
  O  O19  1  0.00000000  0.73525800  0.00271900  1
  O  O20  1  0.26474200  0.00000000  0.99728100  1
  O  O21  1  0.73525800  0.00000000  0.99728100  1
  O  O22  1  0.50000000  0.23525800  0.49728100  1
  O  O23  1  0.50000000  0.76474200  0.49728100  1
  O  O24  1  0.19145400  0.80638100  0.37458500  1
  O  O25  1  0.80854600  0.19361900  0.37458500  1
  O  O26  1  0.30638100  0.30854600  0.87458500  1
  O  O27  1  0.69361900  0.69145400  0.87458500  1
  O  O28  1  0.30854600  0.69361900  0.12541500  1
  O  O29  1  0.69145400  0.30638100  0.12541500  1
  O  O30  1  0.19361900  0.19145400  0.62541500  1
  O  O31  1  0.80638100  0.80854600  0.62541500  1
  O  O32  1  0.30854600  0.30638100  0.12541500  1
  O  O33  1  0.69145400  0.69361900  0.12541500  1
  O  O34  1  0.80638100  0.19145400  0.62541500  1
  O  O35  1  0.19361900  0.80854600  0.62541500  1
  O  O36  1  0.19145400  0.19361900  0.37458500  1
  O  O37  1  0.80854600  0.80638100  0.37458500  1
  O  O38  1  0.69361900  0.30854600  0.87458500  1
  O  O39  1  0.30638100  0.69145400  0.87458500  1
