# generated using pymatgen
data_Lu2Ga5Ni12
_symmetry_space_group_name_H-M   'P 1'
_cell_length_a   8.38331992
_cell_length_b   8.38331992
_cell_length_c   8.28875900
_cell_angle_alpha   90.00000000
_cell_angle_beta   90.00000000
_cell_angle_gamma   119.99999940
_symmetry_Int_Tables_number   1
_chemical_formula_structural   Lu2Ga5Ni12
_chemical_formula_sum   'Lu4 Ga10 Ni24'
_cell_volume   504.48961053
_cell_formula_units_Z   2
loop_
 _symmetry_equiv_pos_site_id
 _symmetry_equiv_pos_as_xyz
  1  'x, y, z'
loop_
 _atom_site_type_symbol
 _atom_site_label
 _atom_site_symmetry_multiplicity
 _atom_site_fract_x
 _atom_site_fract_y
 _atom_site_fract_z
 _atom_site_occupancy
  Lu  Lu0  1  0.00000000  0.00000000  0.25000000  1
  Lu  Lu1  1  0.00000000  0.00000000  0.75000000  1
  Lu  Lu2  1  0.33333300  0.66666700  0.75000000  1
  Lu  Lu3  1  0.66666700  0.33333300  0.25000000  1
  Ga  Ga4  1  0.33333300  0.66666700  0.39417400  1
  Ga  Ga5  1  0.66666700  0.33333300  0.60582600  1
  Ga  Ga6  1  0.66666700  0.33333300  0.89417400  1
  Ga  Ga7  1  0.33333300  0.66666700  0.10582600  1
  Ga  Ga8  1  0.50000000  0.50000000  0.50000000  1
  Ga  Ga9  1  0.50000000  0.00000000  0.50000000  1
  Ga  Ga10  1  0.00000000  0.50000000  0.50000000  1
  Ga  Ga11  1  0.50000000  0.50000000  0.00000000  1
  Ga  Ga12  1  0.50000000  0.00000000  0.00000000  1
  Ga  Ga13  1  0.00000000  0.50000000  0.00000000  1
  Ni  Ni14  1  0.32542800  0.35203900  0.25000000  1
  Ni  Ni15  1  0.64796100  0.97338900  0.25000000  1
  Ni  Ni16  1  0.02661100  0.67457200  0.25000000  1
  Ni  Ni17  1  0.64796100  0.67457200  0.25000000  1
  Ni  Ni18  1  0.02661100  0.35203900  0.25000000  1
  Ni  Ni19  1  0.32542800  0.97338900  0.25000000  1
  Ni  Ni20  1  0.67457200  0.64796100  0.75000000  1
  Ni  Ni21  1  0.35203900  0.02661100  0.75000000  1
  Ni  Ni22  1  0.97338900  0.32542800  0.75000000  1
  Ni  Ni23  1  0.35203900  0.32542800  0.75000000  1
  Ni  Ni24  1  0.97338900  0.64796100  0.75000000  1
  Ni  Ni25  1  0.67457200  0.02661100  0.75000000  1
  Ni  Ni26  1  0.16618700  0.83381300  0.51453600  1
  Ni  Ni27  1  0.16618700  0.33237400  0.51453600  1
  Ni  Ni28  1  0.66762600  0.83381300  0.51453600  1
  Ni  Ni29  1  0.83381300  0.16618700  0.48546400  1
  Ni  Ni30  1  0.83381300  0.66762600  0.48546400  1
  Ni  Ni31  1  0.33237400  0.16618700  0.48546400  1
  Ni  Ni32  1  0.83381300  0.16618700  0.01453600  1
  Ni  Ni33  1  0.83381300  0.66762600  0.01453600  1
  Ni  Ni34  1  0.33237400  0.16618700  0.01453600  1
  Ni  Ni35  1  0.16618700  0.83381300  0.98546400  1
  Ni  Ni36  1  0.16618700  0.33237400  0.98546400  1
  Ni  Ni37  1  0.66762600  0.83381300  0.98546400  1
