# generated using pymatgen
data_Si(H3C)2
_symmetry_space_group_name_H-M   'P 1'
_cell_length_a   9.95319590
_cell_length_b   13.40962947
_cell_length_c   16.97392719
_cell_angle_alpha   85.25540560
_cell_angle_beta   88.46837205
_cell_angle_gamma   74.36039687
_symmetry_Int_Tables_number   1
_chemical_formula_structural   Si(H3C)2
_chemical_formula_sum   'Si20 H120 C40'
_cell_volume   2174.11223072
_cell_formula_units_Z   20
loop_
 _symmetry_equiv_pos_site_id
 _symmetry_equiv_pos_as_xyz
  1  'x, y, z'
loop_
 _atom_site_type_symbol
 _atom_site_label
 _atom_site_symmetry_multiplicity
 _atom_site_fract_x
 _atom_site_fract_y
 _atom_site_fract_z
 _atom_site_occupancy
  Si  Si0  1  0.62422862  0.26905707  0.77346799  1
  Si  Si1  1  0.37577138  0.73094293  0.22653201  1
  Si  Si2  1  0.69128358  0.22082348  0.64257030  1
  Si  Si3  1  0.30871642  0.77917652  0.35742970  1
  Si  Si4  1  0.81638199  0.04216374  0.66038239  1
  Si  Si5  1  0.18361801  0.95783626  0.33961761  1
  Si  Si6  1  0.70924035  0.96501401  0.76703230  1
  Si  Si7  1  0.29075965  0.03498599  0.23296770  1
  Si  Si8  1  0.58653952  0.11128376  0.83643166  1
  Si  Si9  1  0.41346048  0.88871624  0.16356834  1
  Si  Si10  1  0.41275577  0.40570145  0.78016358  1
  Si  Si11  1  0.58724423  0.59429855  0.21983642  1
  Si  Si12  1  0.79229734  0.32327315  0.84423264  1
  Si  Si13  1  0.20770266  0.67672685  0.15576736  1
  Si  Si14  1  0.80353356  0.32173073  0.55529176  1
  Si  Si15  1  0.19646644  0.67826927  0.44470824  1
  Si  Si16  1  0.87960045  0.83852866  0.84518117  1
  Si  Si17  1  0.12039955  0.16147134  0.15481883  1
  Si  Si18  1  0.55492628  0.87662685  0.71681198  1
  Si  Si19  1  0.44507372  0.12337315  0.28318802  1
  H  H20  1  0.55722422  0.18023569  0.53238009  1
  H  H21  1  0.44277578  0.81976431  0.46761991  1
  H  H22  1  0.45525922  0.18890001  0.62056288  1
  H  H23  1  0.54474078  0.81109999  0.37943712  1
  H  H24  1  0.47052592  0.30398553  0.56491635  1
  H  H25  1  0.52947408  0.69601447  0.43508365  1
  H  H26  1  0.05211007  0.07067523  0.63631874  1
  H  H27  1  0.94788993  0.92932477  0.36368126  1
  H  H28  1  0.02490125  0.05213563  0.73992907  1
  H  H29  1  0.97509875  0.94786437  0.26007093  1
  H  H30  1  0.06541552  0.94383134  0.68111173  1
  H  H31  1  0.93458448  0.05616866  0.31888827  1
  H  H32  1  0.87989760  0.89466412  0.57468139  1
  H  H33  1  0.12010240  0.10533588  0.42531861  1
  H  H34  1  0.71467243  0.97649543  0.54383973  1
  H  H35  1  0.28532757  0.02350457  0.45616027  1
  H  H36  1  0.86926793  0.01364260  0.51764158  1
  H  H37  1  0.13073207  0.98635740  0.48235842  1
  H  H38  1  0.62528631  0.01859409  0.97123631  1
  H  H39  1  0.37471369  0.98140591  0.02876369  1
  H  H40  1  0.73914079  0.10071684  0.95768653  1
  H  H41  1  0.26085921  0.89928316  0.04231347  1
  H  H42  1  0.55835478  0.15477930  0.97672514  1
  H  H43  1  0.44164522  0.84522070  0.02327486  1
  H  H44  1  0.33397466  0.19105294  0.86383162  1
  H  H45  1  0.66602534  0.80894706  0.13616838  1
  H  H46  1  0.34890898  0.12445526  0.77650949  1
  H  H47  1  0.65109102  0.87554474  0.22349051  1
  H  H48  1  0.37171259  0.05371590  0.87086913  1
  H  H49  1  0.62828741  0.94628410  0.12913087  1
  H  H50  1  0.29270732  0.40922935  0.65055471  1
  H  H51  1  0.70729268  0.59077065  0.34944529  1
  H  H52  1  0.24507371  0.31928695  0.72108429  1
  H  H53  1  0.75492629  0.68071305  0.27891571  1
  H  H54  1  0.17309499  0.45488032  0.72741605  1
  H  H55  1  0.82690501  0.54511968  0.27258395  1
  H  H56  1  0.23874957  0.47929794  0.88088693  1
  H  H57  1  0.76125043  0.52070206  0.11911307  1
  H  H58  1  0.30549714  0.34435858  0.90619179  1
  H  H59  1  0.69450286  0.65564142  0.09380821  1
  H  H60  1  0.40367309  0.43138141  0.92713610  1
  H  H61  1  0.59632691  0.56861859  0.07286390  1
  H  H62  1  0.34008799  0.59452787  0.74727333  1
  H  H63  1  0.65991201  0.40547213  0.25272667  1
  H  H64  1  0.50530071  0.56151542  0.79391607  1
  H  H65  1  0.49469929  0.43848458  0.20608393  1
  H  H66  1  0.49386747  0.54006101  0.69264088  1
  H  H67  1  0.50613253  0.45993899  0.30735912  1
  H  H68  1  0.80921748  0.37790652  0.97849647  1
  H  H69  1  0.19078252  0.62209348  0.02150353  1
  H  H70  1  0.63721505  0.43238394  0.94299971  1
  H  H71  1  0.36278495  0.56761606  0.05700029  1
  H  H72  1  0.68971458  0.30005661  0.98099762  1
  H  H73  1  0.31028542  0.69994339  0.01900238  1
  H  H74  1  0.89094031  0.42458308  0.73645484  1
  H  H75  1  0.10905969  0.57541692  0.26354516  1
  H  H76  1  0.74820042  0.50818751  0.78465083  1
  H  H77  1  0.25179958  0.49181249  0.21534917  1
  H  H78  1  0.91317038  0.46134758  0.83231713  1
  H  H79  1  0.08682962  0.53865242  0.16768287  1
  H  H80  1  0.94894550  0.14577225  0.88583171  1
  H  H81  1  0.05105450  0.85422775  0.11416829  1
  H  H82  1  0.01877852  0.20444850  0.80211279  1
  H  H83  1  0.98122148  0.79555150  0.19788721  1
  H  H84  1  0.03001138  0.24677982  0.89736279  1
  H  H85  1  0.96998862  0.75322018  0.10263721  1
  H  H86  1  0.75982089  0.50532331  0.50591559  1
  H  H87  1  0.24017911  0.49467669  0.49408441  1
  H  H88  1  0.60296452  0.48557002  0.54876727  1
  H  H89  1  0.39703548  0.51442998  0.45123273  1
  H  H90  1  0.73920927  0.49715737  0.61034561  1
  H  H91  1  0.26079073  0.50284263  0.38965439  1
  H  H92  1  0.03336771  0.36099703  0.53876116  1
  H  H93  1  0.96663229  0.63900297  0.46123884  1
  H  H94  1  0.01631813  0.31012379  0.63734144  1
  H  H95  1  0.98368187  0.68987621  0.36265856  1
  H  H96  1  0.05818705  0.22533799  0.55995816  1
  H  H97  1  0.94181295  0.77466201  0.44004184  1
  H  H98  1  0.83797459  0.20404361  0.44323791  1
  H  H99  1  0.16202541  0.79595639  0.55676209  1
  H  H100  1  0.68053803  0.30509519  0.43002711  1
  H  H101  1  0.31946197  0.69490481  0.56997289  1
  H  H102  1  0.84359338  0.33197807  0.41021735  1
  H  H103  1  0.15640662  0.66802193  0.58978265  1
  H  H104  1  0.07368996  0.83210069  0.93531924  1
  H  H105  1  0.92631004  0.16789931  0.06468076  1
  H  H106  1  0.05838694  0.93706766  0.86225960  1
  H  H107  1  0.94161306  0.06293234  0.13774040  1
  H  H108  1  0.94047579  0.94935214  0.94414692  1
  H  H109  1  0.05952421  0.05064786  0.05585308  1
  H  H110  1  0.94052962  0.69502170  0.75177368  1
  H  H111  1  0.05947038  0.30497830  0.24822632  1
  H  H112  1  0.05949906  0.77312620  0.73924858  1
  H  H113  1  0.94050094  0.22687380  0.26075142  1
  H  H114  1  0.07201452  0.68332605  0.82332342  1
  H  H115  1  0.92798548  0.31667395  0.17667658  1
  H  H116  1  0.73697265  0.80862164  0.96654080  1
  H  H117  1  0.26302735  0.19137836  0.03345920  1
  H  H118  1  0.72647254  0.72288069  0.89390289  1
  H  H119  1  0.27352746  0.27711931  0.10609711  1
  H  H120  1  0.88061547  0.70006042  0.95053356  1
  H  H121  1  0.11938453  0.29993958  0.04946644  1
  H  H122  1  0.72127227  0.77572994  0.61813980  1
  H  H123  1  0.27872773  0.22427006  0.38186020  1
  H  H124  1  0.72187570  0.69785750  0.70835361  1
  H  H125  1  0.27812430  0.30214250  0.29164639  1
  H  H126  1  0.57938537  0.72192631  0.64256865  1
  H  H127  1  0.42061463  0.27807369  0.35743135  1
  H  H128  1  0.36780532  0.79879439  0.76665038  1
  H  H129  1  0.63219468  0.20120561  0.23334962  1
  H  H130  1  0.50170624  0.77159075  0.83852253  1
  H  H131  1  0.49829376  0.22840925  0.16147747  1
  H  H132  1  0.37917099  0.89595820  0.82902324  1
  H  H133  1  0.62082901  0.10404180  0.17097676  1
  H  H134  1  0.36720823  0.91098016  0.61791467  1
  H  H135  1  0.63279177  0.08901984  0.38208533  1
  H  H136  1  0.36024477  0.02767705  0.66178389  1
  H  H137  1  0.63975523  0.97232295  0.33821611  1
  H  H138  1  0.48790631  0.98354655  0.58781319  1
  H  H139  1  0.51209369  0.01645345  0.41218681  1
  C  C140  1  0.52710286  0.22398660  0.58506776  1
  C  C141  1  0.47289714  0.77601340  0.41493224  1
  C  C142  1  0.00768827  0.02612518  0.68227429  1
  C  C143  1  0.99231173  0.97387482  0.31772571  1
  C  C144  1  0.81805301  0.97606600  0.56509666  1
  C  C145  1  0.18194699  0.02393400  0.43490334  1
  C  C146  1  0.63374677  0.09475713  0.94561321  1
  C  C147  1  0.36625323  0.90524287  0.05438679  1
  C  C148  1  0.39199599  0.12101375  0.83595701  1
  C  C149  1  0.60800401  0.87898625  0.16404299  1
  C  C150  1  0.26863453  0.39480189  0.71317237  1
  C  C151  1  0.73136547  0.60519811  0.28682763  1
  C  C152  1  0.33484711  0.41464615  0.88362630  1
  C  C153  1  0.66515289  0.58535385  0.11637370  1
  C  C154  1  0.44291370  0.53721680  0.75065573  1
  C  C155  1  0.55708630  0.46278320  0.24934427  1
  C  C156  1  0.72410922  0.36149239  0.94600737  1
  C  C157  1  0.27589078  0.63850761  0.05399263  1
  C  C158  1  0.83898629  0.44063207  0.79373658  1
  C  C159  1  0.16101371  0.55936793  0.20626342  1
  C  C160  1  0.96287365  0.21951121  0.85844073  1
  C  C161  1  0.03712635  0.78048879  0.14155927  1
  C  C162  1  0.71673558  0.46573894  0.55594904  1
  C  C163  1  0.28326442  0.53426106  0.44405096  1
  C  C164  1  0.99551098  0.30205713  0.57530205  1
  C  C165  1  0.00448902  0.69794287  0.42469795  1
  C  C166  1  0.78906045  0.28668833  0.45023742  1
  C  C167  1  0.21093955  0.71331167  0.54976258  1
  C  C168  1  0.99839336  0.89591548  0.90173609  1
  C  C169  1  0.00160664  0.10408452  0.09826391  1
  C  C170  1  0.99788952  0.73900010  0.78297950  1
  C  C171  1  0.00211048  0.26099990  0.21702050  1
  C  C172  1  0.79621948  0.76123916  0.92087770  1
  C  C173  1  0.20378052  0.23876084  0.07912230  1
  C  C174  1  0.65559146  0.75705998  0.66717308  1
  C  C175  1  0.34440854  0.24294002  0.33282692  1
  C  C176  1  0.44119948  0.83210386  0.79600936  1
  C  C177  1  0.55880052  0.16789614  0.20399064  1
  C  C178  1  0.43156322  0.95867504  0.63894431  1
  C  C179  1  0.56843678  0.04132496  0.36105569  1
