# generated using pymatgen
data_NaU(B2O5)3
_symmetry_space_group_name_H-M   'P 1'
_cell_length_a   6.48046800
_cell_length_b   6.49019423
_cell_length_c   16.22512577
_cell_angle_alpha   88.55259626
_cell_angle_beta   87.09991802
_cell_angle_gamma   60.04956107
_symmetry_Int_Tables_number   1
_chemical_formula_structural   NaU(B2O5)3
_chemical_formula_sum   'Na2 U2 B12 O30'
_cell_volume   590.53124176
_cell_formula_units_Z   2
loop_
 _symmetry_equiv_pos_site_id
 _symmetry_equiv_pos_as_xyz
  1  'x, y, z'
loop_
 _atom_site_type_symbol
 _atom_site_label
 _atom_site_symmetry_multiplicity
 _atom_site_fract_x
 _atom_site_fract_y
 _atom_site_fract_z
 _atom_site_occupancy
  Na  Na0  1  0.31931800  0.37959900  0.45861500  1
  Na  Na1  1  0.69891700  0.62040100  0.95861500  1
  U  U2  1  0.96939900  0.56343000  0.24912800  1
  U  U3  1  0.53283000  0.43657000  0.74912800  1
  B  B4  1  0.64380700  0.21960800  0.25385200  1
  B  B5  1  0.86341500  0.78039200  0.75385200  1
  B  B6  1  0.37025100  0.05264800  0.29442500  1
  B  B7  1  0.42289900  0.94735200  0.79442500  1
  B  B8  1  0.34895800  0.83292600  0.41460700  1
  B  B9  1  0.18188400  0.16707400  0.91460700  1
  B  B10  1  0.45477900  0.65261500  0.27558400  1
  B  B11  1  0.10739400  0.34738500  0.77558400  1
  B  B12  1  0.08092200  0.97680300  0.21163900  1
  B  B13  1  0.05772500  0.02319700  0.71163900  1
  B  B14  1  0.27747200  0.92283300  0.56765100  1
  B  B15  1  0.20030500  0.07716700  0.06765100  1
  O  O16  1  0.65982400  0.42327200  0.24973100  1
  O  O17  1  0.08309600  0.57672800  0.74973100  1
  O  O18  1  0.84441600  0.00273600  0.24072900  1
  O  O19  1  0.84715200  0.99726400  0.74072900  1
  O  O20  1  0.42453400  0.24251000  0.27389800  1
  O  O21  1  0.66704400  0.75749000  0.77389800  1
  O  O22  1  0.54369400  0.82035400  0.25956700  1
  O  O23  1  0.36404800  0.17964600  0.75956700  1
  O  O24  1  0.34942900  0.03333000  0.38571400  1
  O  O25  1  0.38276000  0.96667000  0.88571400  1
  O  O26  1  0.13584100  0.13575200  0.25777300  1
  O  O27  1  0.27159300  0.86424800  0.75777300  1
  O  O28  1  0.39616600  0.64572200  0.36446400  1
  O  O29  1  0.04188800  0.35427800  0.86446400  1
  O  O30  1  0.29347200  0.80339600  0.49589800  1
  O  O31  1  0.09686700  0.19660400  0.99589800  1
  O  O32  1  0.24281500  0.72115400  0.22833500  1
  O  O33  1  0.96396900  0.27884600  0.72833500  1
  O  O34  1  0.06568800  0.03277000  0.12424100  1
  O  O35  1  0.09845800  0.96723000  0.62424100  1
  O  O36  1  0.43766000  0.99599500  0.57801400  1
  O  O37  1  0.43365500  0.00400500  0.07801400  1
  O  O38  1  0.96279300  0.57267000  0.36091400  1
  O  O39  1  0.53546300  0.42733000  0.86091400  1
  O  O40  1  0.97435600  0.55041200  0.13880200  1
  O  O41  1  0.52476800  0.44958800  0.63880200  1
  O  O42  1  0.96419000  0.48562500  0.54638300  1
  O  O43  1  0.44981500  0.51437500  0.04638300  1
  O  O44  1  0.75136400  0.20320100  0.46149500  1
  O  O45  1  0.95456500  0.79679900  0.96149500  1
