# generated using pymatgen
data_AgH9C2(NO)2
_symmetry_space_group_name_H-M   'P 1'
_cell_length_a   6.33697684
_cell_length_b   8.18422571
_cell_length_c   12.62995400
_cell_angle_alpha   90.00000000
_cell_angle_beta   90.00000000
_cell_angle_gamma   107.17366375
_symmetry_Int_Tables_number   1
_chemical_formula_structural   AgH9C2(NO)2
_chemical_formula_sum   'Ag4 H36 C8 N8 O8'
_cell_volume   625.82538005
_cell_formula_units_Z   4
loop_
 _symmetry_equiv_pos_site_id
 _symmetry_equiv_pos_as_xyz
  1  'x, y, z'
loop_
 _atom_site_type_symbol
 _atom_site_label
 _atom_site_symmetry_multiplicity
 _atom_site_fract_x
 _atom_site_fract_y
 _atom_site_fract_z
 _atom_site_occupancy
  Ag  Ag0  1  0.27290500  0.12600500  0.27333900  1
  Ag  Ag1  1  0.22709500  0.87399500  0.77333900  1
  Ag  Ag2  1  0.72709500  0.87399500  0.72666100  1
  Ag  Ag3  1  0.77290500  0.12600500  0.22666100  1
  H  H4  1  0.31892100  0.40680600  0.39709500  1
  H  H5  1  0.18107900  0.59319400  0.89709500  1
  H  H6  1  0.68107900  0.59319400  0.60290500  1
  H  H7  1  0.81892100  0.40680600  0.10290500  1
  H  H8  1  0.44975400  0.28325600  0.45564400  1
  H  H9  1  0.05024600  0.71674400  0.95564400  1
  H  H10  1  0.55024600  0.71674400  0.54435600  1
  H  H11  1  0.94975400  0.28325600  0.04435600  1
  H  H12  1  0.17779400  0.23168700  0.46105500  1
  H  H13  1  0.32220600  0.76831300  0.96105500  1
  H  H14  1  0.82220600  0.76831300  0.53894500  1
  H  H15  1  0.67779400  0.23168700  0.03894500  1
  H  H16  1  0.25534600  0.05353900  0.06591400  1
  H  H17  1  0.24465400  0.94646100  0.56591400  1
  H  H18  1  0.74465400  0.94646100  0.93408600  1
  H  H19  1  0.75534600  0.05353900  0.43408600  1
  H  H20  1  0.35031500  0.91375100  0.12711700  1
  H  H21  1  0.14968500  0.08624900  0.62711700  1
  H  H22  1  0.64968500  0.08624900  0.87288300  1
  H  H23  1  0.85031500  0.91375100  0.37288300  1
  H  H24  1  0.07958300  0.88613700  0.12643100  1
  H  H25  1  0.42041700  0.11386300  0.62643100  1
  H  H26  1  0.92041700  0.11386300  0.87356900  1
  H  H27  1  0.57958300  0.88613700  0.37356900  1
  H  H28  1  0.79396400  0.55878400  0.38814000  1
  H  H29  1  0.70603600  0.44121600  0.88814000  1
  H  H30  1  0.20603600  0.44121600  0.61186000  1
  H  H31  1  0.29396400  0.55878400  0.11186000  1
  H  H32  1  0.97577300  0.43815200  0.35196700  1
  H  H33  1  0.52422700  0.56184800  0.85196700  1
  H  H34  1  0.02422700  0.56184800  0.64803300  1
  H  H35  1  0.47577300  0.43815200  0.14803300  1
  H  H36  1  0.94231200  0.60213500  0.26758300  1
  H  H37  1  0.55768800  0.39786500  0.76758300  1
  H  H38  1  0.05768800  0.39786500  0.73241700  1
  H  H39  1  0.44231200  0.60213500  0.23241700  1
  C  C40  1  0.14134900  0.69956000  0.40493500  1
  C  C41  1  0.35865100  0.30044000  0.90493500  1
  C  C42  1  0.85865100  0.30044000  0.59506500  1
  C  C43  1  0.64134900  0.69956000  0.09506500  1
  C  C44  1  0.95262300  0.56569500  0.35091600  1
  C  C45  1  0.54737700  0.43430500  0.85091600  1
  C  C46  1  0.04737700  0.43430500  0.64908400  1
  C  C47  1  0.45262300  0.56569500  0.14908400  1
  N  N48  1  0.31171000  0.28140600  0.41205200  1
  N  N49  1  0.18829000  0.71859400  0.91205200  1
  N  N50  1  0.68829000  0.71859400  0.58794800  1
  N  N51  1  0.81171000  0.28140600  0.08794800  1
  N  N52  1  0.23181600  0.97693400  0.13286100  1
  N  N53  1  0.26818400  0.02306600  0.63286100  1
  N  N54  1  0.76818400  0.02306600  0.86713900  1
  N  N55  1  0.73181600  0.97693400  0.36713900  1
  O  O56  1  0.10000200  0.83408300  0.43914900  1
  O  O57  1  0.39999800  0.16591700  0.93914900  1
  O  O58  1  0.89999800  0.16591700  0.56085100  1
  O  O59  1  0.60000200  0.83408300  0.06085100  1
  O  O60  1  0.32920200  0.67274000  0.41129800  1
  O  O61  1  0.17079800  0.32726000  0.91129800  1
  O  O62  1  0.67079800  0.32726000  0.58870200  1
  O  O63  1  0.82920200  0.67274000  0.08870200  1
