# generated using pymatgen
data_Ba4NaGe3S10Cl
_symmetry_space_group_name_H-M   'P 1'
_cell_length_a   9.97263503
_cell_length_b   9.97263503
_cell_length_c   12.32710000
_cell_angle_alpha   90.00000000
_cell_angle_beta   90.00000000
_cell_angle_gamma   119.99999357
_symmetry_Int_Tables_number   1
_chemical_formula_structural   Ba4NaGe3S10Cl
_chemical_formula_sum   'Ba8 Na2 Ge6 S20 Cl2'
_cell_volume   1061.72349934
_cell_formula_units_Z   2
loop_
 _symmetry_equiv_pos_site_id
 _symmetry_equiv_pos_as_xyz
  1  'x, y, z'
loop_
 _atom_site_type_symbol
 _atom_site_label
 _atom_site_symmetry_multiplicity
 _atom_site_fract_x
 _atom_site_fract_y
 _atom_site_fract_z
 _atom_site_occupancy
  Ba  Ba0  1  0.26249500  0.91023000  0.63543300  1
  Ba  Ba1  1  0.08977000  0.35226500  0.63543300  1
  Ba  Ba2  1  0.64773500  0.73750500  0.63543300  1
  Ba  Ba3  1  0.73750500  0.08977000  0.13543300  1
  Ba  Ba4  1  0.91023000  0.64773500  0.13543300  1
  Ba  Ba5  1  0.35226500  0.26249500  0.13543300  1
  Ba  Ba6  1  0.33333300  0.66666700  0.94523800  1
  Ba  Ba7  1  0.66666700  0.33333300  0.44523800  1
  Na  Na8  1  0.00000000  0.00000000  0.88834400  1
  Na  Na9  1  0.00000000  0.00000000  0.38834400  1
  Ge  Ge10  1  0.67068700  0.11821200  0.79749300  1
  Ge  Ge11  1  0.88178800  0.55247400  0.79749300  1
  Ge  Ge12  1  0.44752600  0.32931300  0.79749300  1
  Ge  Ge13  1  0.32931300  0.88178800  0.29749300  1
  Ge  Ge14  1  0.11821200  0.44752600  0.29749300  1
  Ge  Ge15  1  0.55247400  0.67068700  0.29749300  1
  S  S16  1  0.45358600  0.11553900  0.86180200  1
  S  S17  1  0.88446100  0.33804700  0.86180200  1
  S  S18  1  0.66195300  0.54641400  0.86180200  1
  S  S19  1  0.54641400  0.88446100  0.36180200  1
  S  S20  1  0.11553900  0.66195300  0.36180200  1
  S  S21  1  0.33804700  0.45358600  0.36180200  1
  S  S22  1  0.66714500  0.08940300  0.62234000  1
  S  S23  1  0.91059700  0.57774100  0.62234000  1
  S  S24  1  0.42225900  0.33285500  0.62234000  1
  S  S25  1  0.33285500  0.91059700  0.12234000  1
  S  S26  1  0.08940300  0.42225900  0.12234000  1
  S  S27  1  0.57774100  0.66714500  0.12234000  1
  S  S28  1  0.68939900  0.93932200  0.89002000  1
  S  S29  1  0.06067800  0.75007700  0.89002000  1
  S  S30  1  0.24992300  0.31060100  0.89002000  1
  S  S31  1  0.31060100  0.06067800  0.39002000  1
  S  S32  1  0.93932200  0.24992300  0.39002000  1
  S  S33  1  0.75007700  0.68939900  0.39002000  1
  S  S34  1  0.33333300  0.66666700  0.69907500  1
  S  S35  1  0.66666700  0.33333300  0.19907500  1
  Cl  Cl36  1  0.00000000  0.00000000  0.64114900  1
  Cl  Cl37  1  0.00000000  0.00000000  0.14114900  1
