# generated using pymatgen
data_Ba2MnP4(H3O8)2
_symmetry_space_group_name_H-M   'P 1'
_cell_length_a   5.48143587
_cell_length_b   10.41704000
_cell_length_c   12.20275028
_cell_angle_alpha   90.00000000
_cell_angle_beta   99.81037858
_cell_angle_gamma   90.00000000
_symmetry_Int_Tables_number   1
_chemical_formula_structural   Ba2MnP4(H3O8)2
_chemical_formula_sum   'Ba4 Mn2 P8 H12 O32'
_cell_volume   686.59215398
_cell_formula_units_Z   2
loop_
 _symmetry_equiv_pos_site_id
 _symmetry_equiv_pos_as_xyz
  1  'x, y, z'
loop_
 _atom_site_type_symbol
 _atom_site_label
 _atom_site_symmetry_multiplicity
 _atom_site_fract_x
 _atom_site_fract_y
 _atom_site_fract_z
 _atom_site_occupancy
  Ba  Ba0  1  0.63635600  0.14900300  0.81947200  1
  Ba  Ba1  1  0.36364400  0.64900300  0.68052800  1
  Ba  Ba2  1  0.36364400  0.85099700  0.18052800  1
  Ba  Ba3  1  0.63635600  0.35099700  0.31947200  1
  Mn  Mn4  1  0.50000000  0.50000000  0.00000000  1
  Mn  Mn5  1  0.50000000  0.00000000  0.50000000  1
  P  P6  1  0.91678300  0.49136100  0.80776100  1
  P  P7  1  0.08321700  0.99136100  0.69223900  1
  P  P8  1  0.08321700  0.50863900  0.19223900  1
  P  P9  1  0.91678300  0.00863900  0.30776100  1
  P  P10  1  0.26486900  0.19858900  0.05333900  1
  P  P11  1  0.73513100  0.69858900  0.44666100  1
  P  P12  1  0.73513100  0.80141100  0.94666100  1
  P  P13  1  0.26486900  0.30141100  0.55333900  1
  H  H14  1  0.11229100  0.32443200  0.74769200  1
  H  H15  1  0.88770900  0.82443200  0.75230800  1
  H  H16  1  0.88770900  0.67556800  0.25230800  1
  H  H17  1  0.11229100  0.17556800  0.24769200  1
  H  H18  1  0.20752400  0.03743400  0.93209400  1
  H  H19  1  0.79247600  0.53743400  0.56790600  1
  H  H20  1  0.79247600  0.96256600  0.06790600  1
  H  H21  1  0.20752400  0.46256600  0.43209400  1
  H  H22  1  0.92643700  0.31598100  0.05471500  1
  H  H23  1  0.07356300  0.81598100  0.44528500  1
  H  H24  1  0.07356300  0.68401900  0.94528500  1
  H  H25  1  0.92643700  0.18401900  0.55471500  1
  O  O26  1  0.68142000  0.49447200  0.85906100  1
  O  O27  1  0.31858000  0.99447200  0.64093900  1
  O  O28  1  0.31858000  0.50552800  0.14093900  1
  O  O29  1  0.68142000  0.00552800  0.35906100  1
  O  O30  1  0.85327700  0.44762300  0.11879300  1
  O  O31  1  0.14672300  0.94762300  0.38120700  1
  O  O32  1  0.14672300  0.55237700  0.88120700  1
  O  O33  1  0.85327700  0.05237700  0.61879300  1
  O  O34  1  0.42609500  0.27900500  0.98957300  1
  O  O35  1  0.57390500  0.77900500  0.51042700  1
  O  O36  1  0.57390500  0.72099500  0.01042700  1
  O  O37  1  0.42609500  0.22099500  0.48957300  1
  O  O38  1  0.33664600  0.19696100  0.17938000  1
  O  O39  1  0.66335400  0.69696100  0.32062000  1
  O  O40  1  0.66335400  0.80303900  0.82062000  1
  O  O41  1  0.33664600  0.30303900  0.67938000  1
  O  O42  1  0.87448300  0.55771300  0.69293200  1
  O  O43  1  0.12551700  0.05771300  0.80706800  1
  O  O44  1  0.12551700  0.44228700  0.30706800  1
  O  O45  1  0.87448300  0.94228700  0.19293200  1
  O  O46  1  0.96985700  0.34232000  0.78922300  1
  O  O47  1  0.03014300  0.84232000  0.71077700  1
  O  O48  1  0.03014300  0.65768000  0.21077700  1
  O  O49  1  0.96985700  0.15768000  0.28922300  1
  O  O50  1  0.26741100  0.05204700  0.01565300  1
  O  O51  1  0.73258900  0.55204700  0.48434700  1
  O  O52  1  0.73258900  0.94795300  0.98434700  1
  O  O53  1  0.26741100  0.44795300  0.51565300  1
  O  O54  1  0.97755000  0.23383800  0.01990800  1
  O  O55  1  0.02245000  0.73383800  0.48009200  1
  O  O56  1  0.02245000  0.76616200  0.98009200  1
  O  O57  1  0.97755000  0.26616200  0.51990800  1
