# generated using pymatgen
data_ZnFe4NiO8
_symmetry_space_group_name_H-M   'P 1'
_cell_length_a   8.41547046
_cell_length_b   8.41547046
_cell_length_c   8.38396091
_cell_angle_alpha   89.98120413
_cell_angle_beta   89.98120413
_cell_angle_gamma   90.21761416
_symmetry_Int_Tables_number   1
_chemical_formula_structural   ZnFe4NiO8
_chemical_formula_sum   'Zn4 Fe16 Ni4 O32'
_cell_volume   593.74896425
_cell_formula_units_Z   4
loop_
 _symmetry_equiv_pos_site_id
 _symmetry_equiv_pos_as_xyz
  1  'x, y, z'
loop_
 _atom_site_type_symbol
 _atom_site_label
 _atom_site_symmetry_multiplicity
 _atom_site_fract_x
 _atom_site_fract_y
 _atom_site_fract_z
 _atom_site_occupancy
  Zn  Zn0  1  0.99964200  0.49979500  0.00874100  1
  Zn  Zn1  1  0.00310200  0.00310200  0.50080100  1
  Zn  Zn2  1  0.49641100  0.49641100  0.49701000  1
  Zn  Zn3  1  0.49979500  0.99964200  0.00874100  1
  Fe  Fe4  1  0.75051500  0.75051500  0.74659000  1
  Fe  Fe5  1  0.24894300  0.24894300  0.74386400  1
  Fe  Fe6  1  0.75152100  0.25115000  0.24659200  1
  Fe  Fe7  1  0.25115000  0.75152100  0.24659200  1
  Fe  Fe8  1  0.87266300  0.62665700  0.37239500  1
  Fe  Fe9  1  0.62889300  0.37471600  0.87432400  1
  Fe  Fe10  1  0.87178500  0.87178500  0.12685300  1
  Fe  Fe11  1  0.62795500  0.62795500  0.12932100  1
  Fe  Fe12  1  0.12646100  0.62601700  0.62326800  1
  Fe  Fe13  1  0.62601700  0.12646100  0.62326800  1
  Fe  Fe14  1  0.37320000  0.12566800  0.37246700  1
  Fe  Fe15  1  0.87476600  0.12640800  0.87457800  1
  Fe  Fe16  1  0.37471600  0.62889300  0.87432400  1
  Fe  Fe17  1  0.12640800  0.87476600  0.87457800  1
  Fe  Fe18  1  0.62665700  0.87266300  0.37239500  1
  Fe  Fe19  1  0.12566800  0.37320000  0.37246700  1
  Ni  Ni20  1  0.37465300  0.87490700  0.62537400  1
  Ni  Ni21  1  0.12650700  0.12650700  0.12643900  1
  Ni  Ni22  1  0.87490700  0.37465300  0.62537400  1
  Ni  Ni23  1  0.37225800  0.37225800  0.12789700  1
  O  O24  1  0.61726800  0.11218200  0.37821200  1
  O  O25  1  0.87441500  0.87441500  0.89106500  1
  O  O26  1  0.12111800  0.38335100  0.61009600  1
  O  O27  1  0.39180600  0.62336000  0.12072100  1
  O  O28  1  0.35697700  0.35697700  0.37067200  1
  O  O29  1  0.13336800  0.63946300  0.86709700  1
  O  O30  1  0.64131100  0.85955800  0.14165300  1
  O  O31  1  0.86323800  0.12928200  0.64080500  1
  O  O32  1  0.11218200  0.61726800  0.37821200  1
  O  O33  1  0.62030800  0.62030800  0.88883500  1
  O  O34  1  0.11306200  0.11306200  0.87533800  1
  O  O35  1  0.38198400  0.38198400  0.87750300  1
  O  O36  1  0.88632400  0.38898500  0.37379800  1
  O  O37  1  0.38898500  0.88632400  0.37379800  1
  O  O38  1  0.62358800  0.88145500  0.60757100  1
  O  O39  1  0.10916700  0.87529000  0.11485000  1
  O  O40  1  0.62336000  0.39180600  0.12072100  1
  O  O41  1  0.87529000  0.10916700  0.11485000  1
  O  O42  1  0.38335100  0.12111800  0.61009600  1
  O  O43  1  0.88145500  0.62358800  0.60757100  1
  O  O44  1  0.86133200  0.86133200  0.36211600  1
  O  O45  1  0.37027200  0.86446600  0.87027300  1
  O  O46  1  0.86446600  0.37027200  0.87027300  1
  O  O47  1  0.63946300  0.13336800  0.86709700  1
  O  O48  1  0.14010600  0.14010600  0.36949400  1
  O  O49  1  0.63824500  0.63824500  0.36122000  1
  O  O50  1  0.13088300  0.36778900  0.14498000  1
  O  O51  1  0.63173800  0.36371700  0.63469500  1
  O  O52  1  0.12928200  0.86323800  0.64080500  1
  O  O53  1  0.36371700  0.63173800  0.63469500  1
  O  O54  1  0.85955800  0.64131100  0.14165300  1
  O  O55  1  0.36778900  0.13088300  0.14498000  1
