# generated using pymatgen
data_NaH9Rh2C5O12
_symmetry_space_group_name_H-M   'P 1'
_cell_length_a   6.95119300
_cell_length_b   11.33636400
_cell_length_c   18.05815812
_cell_angle_alpha   90.00000000
_cell_angle_beta   109.14919563
_cell_angle_gamma   90.00000000
_symmetry_Int_Tables_number   1
_chemical_formula_structural   NaH9Rh2C5O12
_chemical_formula_sum   'Na4 H36 Rh8 C20 O48'
_cell_volume   1344.26720494
_cell_formula_units_Z   4
loop_
 _symmetry_equiv_pos_site_id
 _symmetry_equiv_pos_as_xyz
  1  'x, y, z'
loop_
 _atom_site_type_symbol
 _atom_site_label
 _atom_site_symmetry_multiplicity
 _atom_site_fract_x
 _atom_site_fract_y
 _atom_site_fract_z
 _atom_site_occupancy
  Na  Na0  1  0.72098600  0.00991500  0.40642500  1
  Na  Na1  1  0.72098600  0.49008500  0.90642500  1
  Na  Na2  1  0.27901400  0.99008500  0.59357500  1
  Na  Na3  1  0.27901400  0.50991500  0.09357500  1
  H  H4  1  0.55474200  0.16922800  0.50231000  1
  H  H5  1  0.55474200  0.33077200  0.00231000  1
  H  H6  1  0.44525800  0.83077200  0.49769000  1
  H  H7  1  0.44525800  0.66922800  0.99769000  1
  H  H8  1  0.67827100  0.39340000  0.15675300  1
  H  H9  1  0.67827100  0.10660000  0.65675300  1
  H  H10  1  0.32172900  0.60660000  0.84324700  1
  H  H11  1  0.32172900  0.89340000  0.34324700  1
  H  H12  1  0.76055500  0.50839400  0.12461900  1
  H  H13  1  0.76055500  0.99160600  0.62461900  1
  H  H14  1  0.23944500  0.49160600  0.87538100  1
  H  H15  1  0.23944500  0.00839400  0.37538100  1
  H  H16  1  0.77597700  0.21682200  0.51667400  1
  H  H17  1  0.77597700  0.28317800  0.01667400  1
  H  H18  1  0.22402300  0.78317800  0.48332600  1
  H  H19  1  0.22402300  0.71682200  0.98332600  1
  H  H20  1  0.15762700  0.70407800  0.22614700  1
  H  H21  1  0.15762700  0.79592200  0.72614700  1
  H  H22  1  0.84237300  0.29592200  0.77385300  1
  H  H23  1  0.84237300  0.20407800  0.27385300  1
  H  H24  1  0.85458100  0.90532100  0.24383900  1
  H  H25  1  0.85458100  0.59467900  0.74383900  1
  H  H26  1  0.14541900  0.09467900  0.75616100  1
  H  H27  1  0.14541900  0.40532100  0.25616100  1
  H  H28  1  0.94383800  0.73829900  0.56068600  1
  H  H29  1  0.94383800  0.76170100  0.06068600  1
  H  H30  1  0.05616200  0.26170100  0.43931400  1
  H  H31  1  0.05616200  0.23829900  0.93931400  1
  H  H32  1  0.56262100  0.35793900  0.40979800  1
  H  H33  1  0.56262100  0.14206100  0.90979800  1
  H  H34  1  0.43737900  0.64206100  0.59020200  1
  H  H35  1  0.43737900  0.85793900  0.09020200  1
  H  H36  1  0.25387700  0.55539100  0.42668000  1
  H  H37  1  0.25387700  0.94460900  0.92668000  1
  H  H38  1  0.74612300  0.44460900  0.57332000  1
  H  H39  1  0.74612300  0.05539100  0.07332000  1
  Rh  Rh40  1  0.70633200  0.68862900  0.38432600  1
  Rh  Rh41  1  0.70633200  0.81137100  0.88432600  1
  Rh  Rh42  1  0.29366800  0.31137100  0.61567400  1
  Rh  Rh43  1  0.29366800  0.18862900  0.11567400  1
  Rh  Rh44  1  0.70781100  0.57602500  0.27009800  1
  Rh  Rh45  1  0.70781100  0.92397500  0.77009800  1
  Rh  Rh46  1  0.29218900  0.42397500  0.72990200  1
  Rh  Rh47  1  0.29218900  0.07602500  0.22990200  1
  C  C48  1  0.31915700  0.68375700  0.25631400  1
  C  C49  1  0.31915700  0.81624300  0.75631400  1
  C  C50  1  0.68084300  0.31624300  0.74368600  1
  C  C51  1  0.68084300  0.18375700  0.24368600  1
  C  C52  1  0.09349300  0.57947100  0.39672900  1
  C  C53  1  0.09349300  0.92052900  0.89672900  1
  C  C54  1  0.90650800  0.42052900  0.60327100  1
  C  C55  1  0.90650800  0.07947100  0.10327100  1
  C  C56  1  0.81102200  0.82526700  0.26907500  1
  C  C57  1  0.81102200  0.67473300  0.76907500  1
  C  C58  1  0.18897800  0.17473300  0.73092500  1
  C  C59  1  0.18897800  0.32526700  0.23092500  1
  C  C60  1  0.60455400  0.43902300  0.38490600  1
  C  C61  1  0.60455400  0.06097700  0.88490600  1
  C  C62  1  0.39544600  0.56097700  0.61509400  1
  C  C63  1  0.39544600  0.93902300  0.11509400  1
  C  C64  1  0.86264500  0.82355700  0.54236500  1
  C  C65  1  0.86264500  0.67644300  0.04236500  1
  C  C66  1  0.13735500  0.17644300  0.45763500  1
  C  C67  1  0.13735500  0.32355700  0.95763500  1
  O  O68  1  0.40139300  0.72733800  0.32513800  1
  O  O69  1  0.40139300  0.77266200  0.82513800  1
  O  O70  1  0.59860700  0.27266200  0.67486200  1
  O  O71  1  0.59860700  0.22733800  0.17486200  1
  O  O72  1  0.40415400  0.61746100  0.21930900  1
  O  O73  1  0.40415400  0.88253900  0.71930900  1
  O  O74  1  0.59584600  0.38253900  0.78069100  1
  O  O75  1  0.59584600  0.11746100  0.28069100  1
  O  O76  1  0.01336700  0.64922800  0.43427300  1
  O  O77  1  0.01336700  0.85077200  0.93427300  1
  O  O78  1  0.98663300  0.35077200  0.56572700  1
  O  O79  1  0.98663300  0.14922800  0.06572700  1
  O  O80  1  0.00900500  0.53504300  0.32903100  1
  O  O81  1  0.00900500  0.96495700  0.82903100  1
  O  O82  1  0.99099500  0.46495700  0.67096900  1
  O  O83  1  0.99099500  0.03504300  0.17096900  1
  O  O84  1  0.70691900  0.82063900  0.47939400  1
  O  O85  1  0.70691900  0.67936100  0.97939400  1
  O  O86  1  0.29308100  0.17936100  0.52060600  1
  O  O87  1  0.29308100  0.32063900  0.02060600  1
  O  O88  1  0.92771700  0.91438400  0.58263000  1
  O  O89  1  0.92771700  0.58561600  0.08263000  1
  O  O90  1  0.07228300  0.08561600  0.41737000  1
  O  O91  1  0.07228300  0.41438400  0.91737000  1
  O  O92  1  0.79371900  0.73128600  0.22911100  1
  O  O93  1  0.79371900  0.76871400  0.72911100  1
  O  O94  1  0.20628100  0.26871400  0.77088900  1
  O  O95  1  0.20628100  0.23128600  0.27088900  1
  O  O96  1  0.62704100  0.42744400  0.31783600  1
  O  O97  1  0.62704100  0.07255600  0.81783600  1
  O  O98  1  0.37295900  0.57255600  0.68216400  1
  O  O99  1  0.37295900  0.92744400  0.18216400  1
  O  O100  1  0.78562200  0.83735700  0.33591900  1
  O  O101  1  0.78562200  0.66264300  0.83591900  1
  O  O102  1  0.21437800  0.16264300  0.66408100  1
  O  O103  1  0.21437800  0.33735700  0.16408100  1
  O  O104  1  0.62455300  0.53244800  0.42623900  1
  O  O105  1  0.62455300  0.96755200  0.92623900  1
  O  O106  1  0.37544700  0.46755200  0.57376100  1
  O  O107  1  0.37544700  0.03244800  0.07376100  1
  O  O108  1  0.66522600  0.47947300  0.15139200  1
  O  O109  1  0.66522600  0.02052700  0.65139200  1
  O  O110  1  0.33477400  0.52052700  0.84860800  1
  O  O111  1  0.33477400  0.97947300  0.34860800  1
  O  O112  1  0.67361200  0.16152600  0.48492100  1
  O  O113  1  0.67361200  0.33847400  0.98492100  1
  O  O114  1  0.32638800  0.83847400  0.51507900  1
  O  O115  1  0.32638800  0.66152600  0.01507900  1
