# generated using pymatgen
data_Mo3Cl4O9
_symmetry_space_group_name_H-M   'P 1'
_cell_length_a   8.75361293
_cell_length_b   8.75361293
_cell_length_c   8.75361299
_cell_angle_alpha   94.48394534
_cell_angle_beta   94.48394534
_cell_angle_gamma   94.48393648
_symmetry_Int_Tables_number   1
_chemical_formula_structural   Mo3Cl4O9
_chemical_formula_sum   'Mo6 Cl8 O18'
_cell_volume   664.25052506
_cell_formula_units_Z   2
loop_
 _symmetry_equiv_pos_site_id
 _symmetry_equiv_pos_as_xyz
  1  'x, y, z'
loop_
 _atom_site_type_symbol
 _atom_site_label
 _atom_site_symmetry_multiplicity
 _atom_site_fract_x
 _atom_site_fract_y
 _atom_site_fract_z
 _atom_site_occupancy
  Mo  Mo0  1  0.41984400  0.41984400  0.12414100  1
  Mo  Mo1  1  0.12414100  0.41984400  0.41984400  1
  Mo  Mo2  1  0.41984400  0.12414100  0.41984400  1
  Mo  Mo3  1  0.58015600  0.58015600  0.87585900  1
  Mo  Mo4  1  0.87585900  0.58015600  0.58015600  1
  Mo  Mo5  1  0.58015600  0.87585900  0.58015600  1
  Cl  Cl6  1  0.70481800  0.70481800  0.39933600  1
  Cl  Cl7  1  0.39933600  0.70481800  0.70481800  1
  Cl  Cl8  1  0.70481800  0.39933600  0.70481800  1
  Cl  Cl9  1  0.29518200  0.29518200  0.60066400  1
  Cl  Cl10  1  0.60066400  0.29518200  0.29518200  1
  Cl  Cl11  1  0.29518200  0.60066400  0.29518200  1
  Cl  Cl12  1  0.77273900  0.77273900  0.77273900  1
  Cl  Cl13  1  0.22726100  0.22726100  0.22726100  1
  O  O14  1  0.40040100  0.40040100  0.91939000  1
  O  O15  1  0.91939000  0.40040100  0.40040100  1
  O  O16  1  0.40040100  0.91939000  0.40040100  1
  O  O17  1  0.59959900  0.59959900  0.08061000  1
  O  O18  1  0.08061000  0.59959900  0.59959900  1
  O  O19  1  0.59959900  0.08061000  0.59959900  1
  O  O20  1  0.67082700  0.08692000  0.98980900  1
  O  O21  1  0.98980900  0.67082700  0.08692000  1
  O  O22  1  0.08692000  0.98980900  0.67082700  1
  O  O23  1  0.08692000  0.67082700  0.98980900  1
  O  O24  1  0.98980900  0.08692000  0.67082700  1
  O  O25  1  0.67082700  0.98980900  0.08692000  1
  O  O26  1  0.32917300  0.91308000  0.01019100  1
  O  O27  1  0.01019100  0.32917300  0.91308000  1
  O  O28  1  0.91308000  0.01019100  0.32917300  1
  O  O29  1  0.91308000  0.32917300  0.01019100  1
  O  O30  1  0.01019100  0.91308000  0.32917300  1
  O  O31  1  0.32917300  0.01019100  0.91308000  1
