# generated using pymatgen
data_MnAsO5
_symmetry_space_group_name_H-M   'P 1'
_cell_length_a   6.69668297
_cell_length_b   7.30644872
_cell_length_c   15.48836000
_cell_angle_alpha   90.00000000
_cell_angle_beta   90.00000000
_cell_angle_gamma   96.44514720
_symmetry_Int_Tables_number   1
_chemical_formula_structural   MnAsO5
_chemical_formula_sum   'Mn8 As8 O40'
_cell_volume   753.03986117
_cell_formula_units_Z   8
loop_
 _symmetry_equiv_pos_site_id
 _symmetry_equiv_pos_as_xyz
  1  'x, y, z'
loop_
 _atom_site_type_symbol
 _atom_site_label
 _atom_site_symmetry_multiplicity
 _atom_site_fract_x
 _atom_site_fract_y
 _atom_site_fract_z
 _atom_site_occupancy
  Mn  Mn0  1  0.35225800  0.60038800  0.55059500  1
  Mn  Mn1  1  0.64774200  0.39961200  0.05059500  1
  Mn  Mn2  1  0.09107400  0.89235900  0.45170400  1
  Mn  Mn3  1  0.90892600  0.10764100  0.95170400  1
  Mn  Mn4  1  0.84188800  0.14767400  0.56943500  1
  Mn  Mn5  1  0.15811200  0.85232600  0.06943500  1
  Mn  Mn6  1  0.60407500  0.34199900  0.43176500  1
  Mn  Mn7  1  0.39592500  0.65800100  0.93176500  1
  As  As8  1  0.83965400  0.58560600  0.58843400  1
  As  As9  1  0.16034600  0.41439400  0.08843400  1
  As  As10  1  0.60512400  0.90656500  0.41150900  1
  As  As11  1  0.39487600  0.09343500  0.91150900  1
  As  As12  1  0.34481400  0.17233000  0.61370800  1
  As  As13  1  0.65518600  0.82767000  0.11370800  1
  As  As14  1  0.09770000  0.31645600  0.38803500  1
  As  As15  1  0.90230000  0.68354400  0.88803500  1
  O  O16  1  0.76391700  0.73326200  0.66477500  1
  O  O17  1  0.23608300  0.26673800  0.16477500  1
  O  O18  1  0.69135000  0.75751000  0.33825000  1
  O  O19  1  0.30865000  0.24249000  0.83825000  1
  O  O20  1  0.05779200  0.67450200  0.53250500  1
  O  O21  1  0.94220800  0.32549800  0.03250500  1
  O  O22  1  0.38421400  0.81668700  0.46324200  1
  O  O23  1  0.61578600  0.18331300  0.96324200  1
  O  O24  1  0.64523700  0.55555800  0.51023100  1
  O  O25  1  0.35476300  0.44444200  0.01023100  1
  O  O26  1  0.79734600  0.93688000  0.49106300  1
  O  O27  1  0.20265400  0.06312000  0.99106300  1
  O  O28  1  0.88153700  0.37711400  0.63253800  1
  O  O29  1  0.11846300  0.62288600  0.13253800  1
  O  O30  1  0.56567100  0.11544900  0.36690600  1
  O  O31  1  0.43432900  0.88455100  0.86690600  1
  O  O32  1  0.31884600  0.39569600  0.63692400  1
  O  O33  1  0.68115400  0.60430400  0.13692400  1
  O  O34  1  0.12373200  0.08768800  0.36849800  1
  O  O35  1  0.87626800  0.91231200  0.86849800  1
  O  O36  1  0.12690100  0.08757100  0.55134800  1
  O  O37  1  0.87309900  0.91242900  0.05134800  1
  O  O38  1  0.30842900  0.40179800  0.45237300  1
  O  O39  1  0.69157100  0.59820200  0.95237300  1
  O  O40  1  0.55770900  0.17903500  0.54175400  1
  O  O41  1  0.44229100  0.82096500  0.04175400  1
  O  O42  1  0.88313700  0.31059100  0.45922600  1
  O  O43  1  0.11686300  0.68940900  0.95922600  1
  O  O44  1  0.37977600  0.02139200  0.69276700  1
  O  O45  1  0.62022400  0.97860700  0.19276700  1
  O  O46  1  0.05979800  0.45213500  0.30395400  1
  O  O47  1  0.94020200  0.54786500  0.80395400  1
  O  O48  1  0.42781500  0.73613500  0.64511900  1
  O  O49  1  0.57218500  0.26386500  0.14511900  1
  O  O50  1  0.01136600  0.74813100  0.34127800  1
  O  O51  1  0.98863400  0.25186900  0.84127800  1
  O  O52  1  0.81087200  0.03367500  0.66591500  1
  O  O53  1  0.18912800  0.96632500  0.16591500  1
  O  O54  1  0.62318100  0.45672200  0.33514900  1
  O  O55  1  0.37681900  0.54327800  0.83514900  1
