# generated using pymatgen
data_Ce(SO6)2
_symmetry_space_group_name_H-M   'P 1'
_cell_length_a   5.90967000
_cell_length_b   11.24753600
_cell_length_c   15.33377500
_cell_angle_alpha   90.00000000
_cell_angle_beta   90.00000000
_cell_angle_gamma   90.00000000
_symmetry_Int_Tables_number   1
_chemical_formula_structural   Ce(SO6)2
_chemical_formula_sum   'Ce4 S8 O48'
_cell_volume   1019.22415703
_cell_formula_units_Z   4
loop_
 _symmetry_equiv_pos_site_id
 _symmetry_equiv_pos_as_xyz
  1  'x, y, z'
loop_
 _atom_site_type_symbol
 _atom_site_label
 _atom_site_symmetry_multiplicity
 _atom_site_fract_x
 _atom_site_fract_y
 _atom_site_fract_z
 _atom_site_occupancy
  Ce  Ce0  1  0.88576800  0.75000000  0.16270900  1
  Ce  Ce1  1  0.61423200  0.75000000  0.66270900  1
  Ce  Ce2  1  0.11423200  0.25000000  0.83729100  1
  Ce  Ce3  1  0.38576800  0.25000000  0.33729100  1
  S  S4  1  0.11114200  0.55253900  0.34723000  1
  S  S5  1  0.38885800  0.94746100  0.84723000  1
  S  S6  1  0.88885800  0.05253900  0.65277000  1
  S  S7  1  0.61114200  0.44746100  0.15277000  1
  S  S8  1  0.88885800  0.44746100  0.65277000  1
  S  S9  1  0.61114200  0.05253900  0.15277000  1
  S  S10  1  0.11114200  0.94746100  0.34723000  1
  S  S11  1  0.38885800  0.55253900  0.84723000  1
  O  O12  1  0.08899200  0.61268000  0.26179800  1
  O  O13  1  0.41100800  0.88732000  0.76179800  1
  O  O14  1  0.91100800  0.11268000  0.73820200  1
  O  O15  1  0.58899200  0.38732000  0.23820200  1
  O  O16  1  0.91100800  0.38732000  0.73820200  1
  O  O17  1  0.58899200  0.11268000  0.23820200  1
  O  O18  1  0.08899200  0.88732000  0.26179800  1
  O  O19  1  0.41100800  0.61268000  0.76179800  1
  O  O20  1  0.13484800  0.42206000  0.33051800  1
  O  O21  1  0.36515200  0.07794000  0.83051800  1
  O  O22  1  0.86515200  0.92206000  0.66948200  1
  O  O23  1  0.63484800  0.57794000  0.16948200  1
  O  O24  1  0.86515200  0.57794000  0.66948200  1
  O  O25  1  0.63484800  0.92206000  0.16948200  1
  O  O26  1  0.13484800  0.07794000  0.33051800  1
  O  O27  1  0.36515200  0.42206000  0.83051800  1
  O  O28  1  0.91587700  0.57591900  0.40554100  1
  O  O29  1  0.58412300  0.92408100  0.90554100  1
  O  O30  1  0.08412300  0.07591900  0.59445900  1
  O  O31  1  0.41587700  0.42408100  0.09445900  1
  O  O32  1  0.08412300  0.42408100  0.59445900  1
  O  O33  1  0.41587700  0.07591900  0.09445900  1
  O  O34  1  0.91587700  0.92408100  0.40554100  1
  O  O35  1  0.58412300  0.57591900  0.90554100  1
  O  O36  1  0.30849200  0.59905100  0.39641000  1
  O  O37  1  0.19150800  0.90094900  0.89641000  1
  O  O38  1  0.69150800  0.09905100  0.60359000  1
  O  O39  1  0.80849200  0.40094900  0.10359000  1
  O  O40  1  0.69150800  0.40094900  0.60359000  1
  O  O41  1  0.80849200  0.09905100  0.10359000  1
  O  O42  1  0.30849200  0.90094900  0.39641000  1
  O  O43  1  0.19150800  0.59905100  0.89641000  1
  O  O44  1  0.76684500  0.75000000  0.03202300  1
  O  O45  1  0.73315500  0.75000000  0.53202300  1
  O  O46  1  0.23315500  0.25000000  0.96797700  1
  O  O47  1  0.26684500  0.25000000  0.46797700  1
  O  O48  1  0.64610700  0.75000000  0.29447600  1
  O  O49  1  0.85389300  0.75000000  0.79447600  1
  O  O50  1  0.35389300  0.25000000  0.70552400  1
  O  O51  1  0.14610700  0.25000000  0.20552400  1
  O  O52  1  0.08145800  0.65146700  0.07241700  1
  O  O53  1  0.41854200  0.84853300  0.57241700  1
  O  O54  1  0.91854200  0.15146700  0.92758300  1
  O  O55  1  0.58145800  0.34853300  0.42758300  1
  O  O56  1  0.91854200  0.34853300  0.92758300  1
  O  O57  1  0.58145800  0.15146700  0.42758300  1
  O  O58  1  0.08145800  0.84853300  0.07241700  1
  O  O59  1  0.41854200  0.65146700  0.57241700  1
