# generated using pymatgen
data_BaU2P2O19
_symmetry_space_group_name_H-M   'P 1'
_cell_length_a   16.00387700
_cell_length_b   7.04634800
_cell_length_c   7.05332791
_cell_angle_alpha   89.11683222
_cell_angle_beta   90.00000000
_cell_angle_gamma   90.00000000
_symmetry_Int_Tables_number   1
_chemical_formula_structural   BaU2P2O19
_chemical_formula_sum   'Ba2 U4 P4 O38'
_cell_volume   795.30144570
_cell_formula_units_Z   2
loop_
 _symmetry_equiv_pos_site_id
 _symmetry_equiv_pos_as_xyz
  1  'x, y, z'
loop_
 _atom_site_type_symbol
 _atom_site_label
 _atom_site_symmetry_multiplicity
 _atom_site_fract_x
 _atom_site_fract_y
 _atom_site_fract_z
 _atom_site_occupancy
  Ba  Ba0  1  0.81650000  0.20602200  0.55566700  1
  Ba  Ba1  1  0.31650000  0.79397800  0.44433300  1
  U  U2  1  0.56769400  0.52911000  0.46168800  1
  U  U3  1  0.06769400  0.47089000  0.53831200  1
  U  U4  1  0.67381600  0.03787500  0.97589700  1
  U  U5  1  0.17381600  0.96212500  0.02410300  1
  P  P6  1  0.62229800  0.54065300  0.95849000  1
  P  P7  1  0.12229800  0.45934700  0.04151000  1
  P  P8  1  0.61745000  0.04501900  0.45980400  1
  P  P9  1  0.11745000  0.95498100  0.54019600  1
  O  O10  1  0.68116800  0.48425600  0.47577300  1
  O  O11  1  0.18116800  0.51574400  0.52422700  1
  O  O12  1  0.56215500  0.02452600  0.01029900  1
  O  O13  1  0.06215500  0.97547400  0.98970100  1
  O  O14  1  0.57434600  0.85088900  0.45219500  1
  O  O15  1  0.07434600  0.14911100  0.54780500  1
  O  O16  1  0.55242800  0.20714800  0.43914500  1
  O  O17  1  0.05242800  0.79285200  0.56085500  1
  O  O18  1  0.56366600  0.54036900  0.78265100  1
  O  O19  1  0.06366600  0.45963100  0.21734900  1
  O  O20  1  0.68804600  0.06292300  0.30601700  1
  O  O21  1  0.18804600  0.93707700  0.69398300  1
  O  O22  1  0.56997400  0.54496700  0.14339200  1
  O  O23  1  0.06997400  0.45503300  0.85660800  1
  O  O24  1  0.68025300  0.71852400  0.94925500  1
  O  O25  1  0.18025300  0.28147600  0.05074500  1
  O  O26  1  0.67757400  0.35931700  0.95736000  1
  O  O27  1  0.17757400  0.64068300  0.04264000  1
  O  O28  1  0.66434500  0.06656400  0.65239800  1
  O  O29  1  0.16434500  0.93343600  0.34760200  1
  O  O30  1  0.45222700  0.56336500  0.45561600  1
  O  O31  1  0.95222700  0.43663500  0.54438400  1
  O  O32  1  0.78734800  0.05665100  0.92427600  1
  O  O33  1  0.28734800  0.94334900  0.07572400  1
  O  O34  1  0.84727500  0.70777000  0.67918600  1
  O  O35  1  0.34727500  0.29223000  0.32081400  1
  O  O36  1  0.91787400  0.95978100  0.26069700  1
  O  O37  1  0.41787400  0.04021900  0.73930300  1
  O  O38  1  0.85125600  0.38688600  0.16800700  1
  O  O39  1  0.35125600  0.61311400  0.83199300  1
  O  O40  1  0.89509900  0.81589900  0.77415700  1
  O  O41  1  0.39509900  0.18410100  0.22584300  1
  O  O42  1  0.39883200  0.62179800  0.96884800  1
  O  O43  1  0.89883200  0.37820200  0.03115200  1
  O  O44  1  0.81005300  0.78355600  0.53186100  1
  O  O45  1  0.31005300  0.21644400  0.46813900  1
  O  O46  1  0.41762400  0.19994300  0.80750700  1
  O  O47  1  0.91762400  0.80005700  0.19249300  1
