# generated using pymatgen
data_Cs2TeH6(ClO3)2
_symmetry_space_group_name_H-M   'P 1'
_cell_length_a   11.27852500
_cell_length_b   6.47559100
_cell_length_c   7.98301360
_cell_angle_alpha   72.40731079
_cell_angle_beta   90.00000000
_cell_angle_gamma   90.00000000
_symmetry_Int_Tables_number   1
_chemical_formula_structural   Cs2TeH6(ClO3)2
_chemical_formula_sum   'Cs4 Te2 H12 Cl4 O12'
_cell_volume   555.77107845
_cell_formula_units_Z   2
loop_
 _symmetry_equiv_pos_site_id
 _symmetry_equiv_pos_as_xyz
  1  'x, y, z'
loop_
 _atom_site_type_symbol
 _atom_site_label
 _atom_site_symmetry_multiplicity
 _atom_site_fract_x
 _atom_site_fract_y
 _atom_site_fract_z
 _atom_site_occupancy
  Cs  Cs0  1  0.12853600  0.24976600  0.43949400  1
  Cs  Cs1  1  0.62853600  0.75023400  0.06050600  1
  Cs  Cs2  1  0.87146400  0.75023400  0.56050600  1
  Cs  Cs3  1  0.37146400  0.24976600  0.93949400  1
  Te  Te4  1  0.00000000  0.00000000  0.00000000  1
  Te  Te5  1  0.50000000  0.00000000  0.50000000  1
  H  H6  1  0.08191300  0.37554200  0.92777500  1
  H  H7  1  0.58191300  0.62445800  0.57222500  1
  H  H8  1  0.91808700  0.62445800  0.07222500  1
  H  H9  1  0.41808700  0.37554200  0.42777500  1
  H  H10  1  0.14680600  0.84857400  0.83082600  1
  H  H11  1  0.64680600  0.15142600  0.66917400  1
  H  H12  1  0.85319400  0.15142600  0.16917400  1
  H  H13  1  0.35319400  0.84857400  0.33082600  1
  H  H14  1  0.34704800  0.78359700  0.69903400  1
  H  H15  1  0.84704800  0.21640300  0.80096600  1
  H  H16  1  0.65295200  0.21640300  0.30096600  1
  H  H17  1  0.15295200  0.78359700  0.19903400  1
  Cl  Cl18  1  0.32794900  0.62438200  0.19673400  1
  Cl  Cl19  1  0.82794900  0.37561800  0.30326600  1
  Cl  Cl20  1  0.67205100  0.37561800  0.80326600  1
  Cl  Cl21  1  0.17205100  0.62438200  0.69673400  1
  O  O22  1  0.43303000  0.26036000  0.54032900  1
  O  O23  1  0.93303000  0.73964000  0.95967100  1
  O  O24  1  0.56697000  0.73964000  0.45967100  1
  O  O25  1  0.06697000  0.26036000  0.04032900  1
  O  O26  1  0.14173800  0.98623900  0.86307900  1
  O  O27  1  0.64173800  0.01376100  0.63692100  1
  O  O28  1  0.85826200  0.01376100  0.13692100  1
  O  O29  1  0.35826200  0.98623900  0.36307900  1
  O  O30  1  0.42726400  0.83166300  0.72271400  1
  O  O31  1  0.92726400  0.16833700  0.77728600  1
  O  O32  1  0.57273600  0.16833700  0.27728600  1
  O  O33  1  0.07273600  0.83166300  0.22271400  1
