# generated using pymatgen
data_CuS2(NO7)2
_symmetry_space_group_name_H-M   'P 1'
_cell_length_a   6.47422201
_cell_length_b   8.34716108
_cell_length_c   12.36721100
_cell_angle_alpha   90.00000000
_cell_angle_beta   90.00000000
_cell_angle_gamma   105.61268079
_symmetry_Int_Tables_number   1
_chemical_formula_structural   CuS2(NO7)2
_chemical_formula_sum   'Cu2 S4 N4 O28'
_cell_volume   643.68131110
_cell_formula_units_Z   2
loop_
 _symmetry_equiv_pos_site_id
 _symmetry_equiv_pos_as_xyz
  1  'x, y, z'
loop_
 _atom_site_type_symbol
 _atom_site_label
 _atom_site_symmetry_multiplicity
 _atom_site_fract_x
 _atom_site_fract_y
 _atom_site_fract_z
 _atom_site_occupancy
  Cu  Cu0  1  0.00000000  0.50000000  0.50000000  1
  Cu  Cu1  1  0.00000000  0.00000000  0.00000000  1
  S  S2  1  0.80556400  0.96112700  0.35218800  1
  S  S3  1  0.19443600  0.53887300  0.85218800  1
  S  S4  1  0.19443600  0.03887300  0.64781200  1
  S  S5  1  0.80556400  0.46112700  0.14781200  1
  N  N6  1  0.38096000  0.66715600  0.19686500  1
  N  N7  1  0.61904000  0.83284400  0.69686500  1
  N  N8  1  0.61904000  0.33284400  0.80313500  1
  N  N9  1  0.38096000  0.16715600  0.30313500  1
  O  O10  1  0.38030500  0.80099900  0.17928200  1
  O  O11  1  0.61969500  0.69900100  0.67928200  1
  O  O12  1  0.61969500  0.19900100  0.82071800  1
  O  O13  1  0.38030500  0.30099900  0.32071800  1
  O  O14  1  0.76714700  0.09115200  0.42124700  1
  O  O15  1  0.23285300  0.40884800  0.92124700  1
  O  O16  1  0.23285300  0.90884800  0.57875300  1
  O  O17  1  0.76714700  0.59115200  0.07875300  1
  O  O18  1  0.60034900  0.67234800  0.44639000  1
  O  O19  1  0.39965100  0.82765200  0.94639000  1
  O  O20  1  0.39965100  0.32765200  0.55361000  1
  O  O21  1  0.60034900  0.17234800  0.05361000  1
  O  O22  1  0.01252000  0.92556500  0.36044100  1
  O  O23  1  0.98748000  0.57443500  0.86044100  1
  O  O24  1  0.98748000  0.07443500  0.63955900  1
  O  O25  1  0.01252000  0.42556500  0.13955900  1
  O  O26  1  0.16133700  0.58135100  0.37497900  1
  O  O27  1  0.83866300  0.91864900  0.87497900  1
  O  O28  1  0.83866300  0.41864900  0.62502100  1
  O  O29  1  0.16133700  0.08135100  0.12502100  1
  O  O30  1  0.07456400  0.41269000  0.37190800  1
  O  O31  1  0.92543600  0.08731000  0.87190800  1
  O  O32  1  0.92543600  0.58731000  0.62809200  1
  O  O33  1  0.07456400  0.91269000  0.12809200  1
  O  O34  1  0.32157000  0.43643400  0.59375400  1
  O  O35  1  0.67843000  0.06356600  0.09375400  1
  O  O36  1  0.67843000  0.56356600  0.40624600  1
  O  O37  1  0.32157000  0.93643400  0.90624600  1
