# generated using pymatgen
data_Na3Sr4Cr5F26
_symmetry_space_group_name_H-M   'P 1'
_cell_length_a   7.58119648
_cell_length_b   10.84518943
_cell_length_c   28.05557244
_cell_angle_alpha   86.07544453
_cell_angle_beta   82.23500003
_cell_angle_gamma   69.54211358
_symmetry_Int_Tables_number   1
_chemical_formula_structural   Na3Sr4Cr5F26
_chemical_formula_sum   'Na12 Sr16 Cr20 F104'
_cell_volume   2140.85268698
_cell_formula_units_Z   4
loop_
 _symmetry_equiv_pos_site_id
 _symmetry_equiv_pos_as_xyz
  1  'x, y, z'
loop_
 _atom_site_type_symbol
 _atom_site_label
 _atom_site_symmetry_multiplicity
 _atom_site_fract_x
 _atom_site_fract_y
 _atom_site_fract_z
 _atom_site_occupancy
  Na  Na0  1  0.50306230  0.75000000  0.75000000  1
  Na  Na1  1  0.49693770  0.25000000  0.25000000  1
  Na  Na2  1  0.99832854  0.75000000  0.75000000  1
  Na  Na3  1  0.00167146  0.25000000  0.25000000  1
  Na  Na4  1  0.61598158  0.12676869  0.12600636  1
  Na  Na5  1  0.36875663  0.37323131  0.37399364  1
  Na  Na6  1  0.38401842  0.87323131  0.87399364  1
  Na  Na7  1  0.63124337  0.62676869  0.62600636  1
  Na  Na8  1  0.25272458  0.49661048  0.49762038  1
  Na  Na9  1  0.74695544  0.00338952  0.00237962  1
  Na  Na10  1  0.74727542  0.50338952  0.50237962  1
  Na  Na11  1  0.25304456  0.99661048  0.99762038  1
  Sr  Sr12  1  0.51316095  0.13761849  0.75362186  1
  Sr  Sr13  1  0.90440130  0.36238151  0.74637814  1
  Sr  Sr14  1  0.48683905  0.86238151  0.24637814  1
  Sr  Sr15  1  0.09559870  0.63761849  0.25362186  1
  Sr  Sr16  1  0.37948506  0.47436259  0.84958489  1
  Sr  Sr17  1  0.20343254  0.02563741  0.65041511  1
  Sr  Sr18  1  0.62051494  0.52563741  0.15041511  1
  Sr  Sr19  1  0.79656746  0.97436259  0.34958489  1
  Sr  Sr20  1  0.58585547  0.24019640  0.59333018  1
  Sr  Sr21  1  0.91938205  0.25980360  0.90666982  1
  Sr  Sr22  1  0.41414453  0.75980360  0.40666982  1
  Sr  Sr23  1  0.08061795  0.74019640  0.09333018  1
  Sr  Sr24  1  0.81632090  0.86569659  0.50651839  1
  Sr  Sr25  1  0.68853588  0.63430341  0.99348161  1
  Sr  Sr26  1  0.18367910  0.13430341  0.49348161  1
  Sr  Sr27  1  0.31146412  0.36569659  0.00651839  1
  Cr  Cr28  1  0.42925336  0.16812026  0.89934997  1
  Cr  Cr29  1  0.99672360  0.33187974  0.60065003  1
  Cr  Cr30  1  0.57074664  0.83187974  0.10065003  1
  Cr  Cr31  1  0.00327640  0.66812026  0.39934997  1
  Cr  Cr32  1  0.40806911  0.46786084  0.72034663  1
  Cr  Cr33  1  0.09627658  0.03213916  0.77965337  1
  Cr  Cr34  1  0.59193089  0.53213916  0.27965337  1
  Cr  Cr35  1  0.90372342  0.96786084  0.22034663  1
  Cr  Cr36  1  0.72085221  0.91242191  0.65732495  1
  Cr  Cr37  1  0.79059907  0.58757809  0.84267505  1
  Cr  Cr38  1  0.27914779  0.08757809  0.34267505  1
  Cr  Cr39  1  0.20940093  0.41242191  0.15732495  1
  Cr  Cr40  1  0.62934033  0.19813655  0.46559278  1
  Cr  Cr41  1  0.79306966  0.30186345  0.03440722  1
  Cr  Cr42  1  0.37065967  0.80186345  0.53440722  1
  Cr  Cr43  1  0.20693034  0.69813655  0.96559278  1
  Cr  Cr44  1  0.13844308  0.61269164  0.61263499  1
  Cr  Cr45  1  0.86376971  0.88730836  0.88736501  1
  Cr  Cr46  1  0.86155692  0.38730836  0.38736501  1
  Cr  Cr47  1  0.13623029  0.11269164  0.11263499  1
  F  F48  1  0.03074794  0.60894512  0.98707678  1
  F  F49  1  0.12676984  0.89105488  0.51292322  1
  F  F50  1  0.96925206  0.39105488  0.01292322  1
  F  F51  1  0.87323016  0.10894512  0.48707678  1
  F  F52  1  0.52584995  0.83016068  0.66023567  1
  F  F53  1  0.51624629  0.66983932  0.83976433  1
  F  F54  1  0.47415005  0.16983932  0.33976433  1
  F  F55  1  0.48375371  0.33016068  0.16023567  1
  F  F56  1  0.22131877  0.32420512  0.92181238  1
  F  F57  1  0.96733628  0.17579488  0.57818762  1
  F  F58  1  0.77868123  0.67579488  0.07818762  1
  F  F59  1  0.03266372  0.82420512  0.42181238  1
  F  F60  1  0.64584663  0.03926408  0.20272731  1
  F  F61  1  0.38783801  0.46073592  0.29727269  1
  F  F62  1  0.35415337  0.96073592  0.79727269  1
  F  F63  1  0.61216199  0.53926408  0.70272731  1
  F  F64  1  0.25073381  0.58272144  0.67427575  1
  F  F65  1  0.00773101  0.91727856  0.82572425  1
  F  F66  1  0.74926619  0.41727856  0.32572425  1
  F  F67  1  0.99226899  0.08272144  0.17427575  1
  F  F68  1  0.29881407  0.60692946  0.76783538  1
  F  F69  1  0.17357891  0.89307054  0.73216462  1
  F  F70  1  0.70118593  0.39307054  0.23216462  1
  F  F71  1  0.82642109  0.10692946  0.26783538  1
  F  F72  1  0.52156112  0.12345912  0.52145278  1
  F  F73  1  0.66647301  0.37654088  0.97854722  1
  F  F74  1  0.47843888  0.87654088  0.47854722  1
  F  F75  1  0.33352699  0.62345912  0.02145278  1
  F  F76  1  0.33006001  0.96220536  0.56768201  1
  F  F77  1  0.35994739  0.53779464  0.93231799  1
  F  F78  1  0.66993999  0.03779464  0.43231799  1
  F  F79  1  0.64005261  0.46220536  0.06768201  1
  F  F80  1  0.82262302  0.60838537  0.77188304  1
  F  F81  1  0.70289142  0.89161463  0.72811696  1
  F  F82  1  0.17737698  0.39161463  0.22811696  1
  F  F83  1  0.29710858  0.10838537  0.27188304  1
  F  F84  1  0.99680450  0.49244202  0.63091190  1
  F  F85  1  0.62015842  0.00755798  0.86908810  1
  F  F86  1  0.00319550  0.50755798  0.36908810  1
  F  F87  1  0.37984158  0.99244202  0.13091190  1
  F  F88  1  0.73038257  0.95062717  0.58912965  1
  F  F89  1  0.77013940  0.54937283  0.91087035  1
  F  F90  1  0.26961743  0.04937283  0.41087035  1
  F  F91  1  0.22986060  0.45062717  0.08912965  1
  F  F92  1  0.37663282  0.22860520  0.83416317  1
  F  F93  1  0.93940120  0.27139480  0.66583683  1
  F  F94  1  0.62336718  0.77139480  0.16583683  1
  F  F95  1  0.06059880  0.72860520  0.33416317  1
  F  F96  1  0.21996164  0.38585458  0.74199068  1
  F  F97  1  0.84780691  0.11414542  0.75800932  1
  F  F98  1  0.78003836  0.61414542  0.25800932  1
  F  F99  1  0.15219309  0.88585458  0.24199068  1
  F  F100  1  0.51380417  0.07811917  0.66627288  1
  F  F101  1  0.75819622  0.42188083  0.83372712  1
  F  F102  1  0.48619583  0.92188083  0.33372712  1
  F  F103  1  0.24180378  0.57811917  0.16627288  1
  F  F104  1  0.89848126  0.02723660  0.91738354  1
  F  F105  1  0.34310139  0.47276340  0.58261646  1
  F  F106  1  0.10151874  0.97276340  0.08261646  1
  F  F107  1  0.65689861  0.52723660  0.41738354  1
  F  F108  1  0.25864935  0.22873133  0.60817859  1
  F  F109  1  0.59555926  0.27126867  0.89182141  1
  F  F110  1  0.74135065  0.77126867  0.39182141  1
  F  F111  1  0.40444074  0.72873133  0.10817859  1
  F  F112  1  0.75015746  0.92456441  0.09124421  1
  F  F113  1  0.26596608  0.57543559  0.40875579  1
  F  F114  1  0.24984254  0.07543559  0.90875579  1
  F  F115  1  0.73403392  0.42456441  0.59124421  1
  F  F116  1  0.05810133  0.50030186  0.84120937  1
  F  F117  1  0.89961256  0.99969814  0.65879063  1
  F  F118  1  0.94189867  0.49969814  0.15879063  1
  F  F119  1  0.10038744  0.00030186  0.34120937  1
  F  F120  1  0.81466273  0.75984975  0.84820830  1
  F  F121  1  0.92272078  0.74015025  0.65179170  1
  F  F122  1  0.18533727  0.24015025  0.15179170  1
  F  F123  1  0.07727922  0.25984975  0.34820830  1
  F  F124  1  0.74231328  0.83606729  0.94473753  1
  F  F125  1  0.02311811  0.66393271  0.55526247  1
  F  F126  1  0.25768672  0.16393271  0.05526247  1
  F  F127  1  0.97688189  0.33606729  0.44473753  1
  F  F128  1  0.92923571  0.62826583  0.46547186  1
  F  F129  1  0.52297341  0.87173417  0.03452814  1
  F  F130  1  0.07076429  0.37173417  0.53452814  1
  F  F131  1  0.47702659  0.12826583  0.96547186  1
  F  F132  1  0.89037601  0.23627867  0.09747086  1
  F  F133  1  0.72412554  0.26372133  0.40252914  1
  F  F134  1  0.10962399  0.76372133  0.90252914  1
  F  F135  1  0.27587446  0.73627867  0.59747086  1
  F  F136  1  0.19091693  0.13863844  0.73127563  1
  F  F137  1  0.56083100  0.36136156  0.76872437  1
  F  F138  1  0.80908307  0.86136156  0.26872437  1
  F  F139  1  0.43916900  0.63863844  0.23127563  1
  F  F140  1  0.97632068  0.82068422  0.17825837  1
  F  F141  1  0.47526327  0.67931578  0.32174163  1
  F  F142  1  0.02367932  0.17931578  0.82174163  1
  F  F143  1  0.52473673  0.32068422  0.67825837  1
  F  F144  1  0.05257157  0.84633558  0.00499469  1
  F  F145  1  0.40390185  0.65366442  0.49500531  1
  F  F146  1  0.94742843  0.15366442  0.99500531  1
  F  F147  1  0.59609815  0.34633558  0.50499469  1
  F  F148  1  0.60476704  0.21693793  0.05058656  1
  F  F149  1  0.37229153  0.28306207  0.44941344  1
  F  F150  1  0.39523296  0.78306207  0.94941344  1
  F  F151  1  0.62770847  0.71693793  0.55058656  1
