# generated using pymatgen
data_Gd3InS6
_symmetry_space_group_name_H-M   'P 1'
_cell_length_a   3.92866200
_cell_length_b   13.59881000
_cell_length_c   16.71370700
_cell_angle_alpha   90.00000000
_cell_angle_beta   90.00000000
_cell_angle_gamma   90.00000000
_symmetry_Int_Tables_number   1
_chemical_formula_structural   Gd3InS6
_chemical_formula_sum   'Gd12 In4 S24'
_cell_volume   892.93193737
_cell_formula_units_Z   4
loop_
 _symmetry_equiv_pos_site_id
 _symmetry_equiv_pos_as_xyz
  1  'x, y, z'
loop_
 _atom_site_type_symbol
 _atom_site_label
 _atom_site_symmetry_multiplicity
 _atom_site_fract_x
 _atom_site_fract_y
 _atom_site_fract_z
 _atom_site_occupancy
  Gd  Gd0  1  0.25319600  0.03628700  0.77705900  1
  Gd  Gd1  1  0.25319600  0.96371300  0.22294100  1
  Gd  Gd2  1  0.74680400  0.46371300  0.27705900  1
  Gd  Gd3  1  0.74680400  0.53628700  0.72294100  1
  Gd  Gd4  1  0.26252300  0.24714500  0.61040500  1
  Gd  Gd5  1  0.26252300  0.75285500  0.38959500  1
  Gd  Gd6  1  0.73747700  0.25285500  0.11040500  1
  Gd  Gd7  1  0.73747700  0.74714500  0.88959500  1
  Gd  Gd8  1  0.75000400  0.30938900  0.85677000  1
  Gd  Gd9  1  0.75000400  0.69061100  0.14323000  1
  Gd  Gd10  1  0.24999600  0.19061100  0.35677000  1
  Gd  Gd11  1  0.24999600  0.80938900  0.64323000  1
  In  In12  1  0.75287200  0.00000000  0.50000000  1
  In  In13  1  0.24712800  0.50000000  0.00000000  1
  In  In14  1  0.39231100  0.50000000  0.50000000  1
  In  In15  1  0.60768900  0.00000000  0.00000000  1
  S  S16  1  0.76898100  0.39720400  0.59201900  1
  S  S17  1  0.76898100  0.60279600  0.40798100  1
  S  S18  1  0.23101900  0.10279600  0.09201900  1
  S  S19  1  0.23101900  0.89720400  0.90798100  1
  S  S20  1  0.24917300  0.30789000  0.98089900  1
  S  S21  1  0.24917300  0.69211000  0.01910100  1
  S  S22  1  0.75082700  0.19211000  0.48089900  1
  S  S23  1  0.75082700  0.80789000  0.51910100  1
  S  S24  1  0.75199100  0.10767200  0.88568500  1
  S  S25  1  0.75199100  0.89232800  0.11431500  1
  S  S26  1  0.24800900  0.39232800  0.38568500  1
  S  S27  1  0.24800900  0.60767200  0.61431500  1
  S  S28  1  0.75904000  0.17848600  0.71712200  1
  S  S29  1  0.75904000  0.82151400  0.28287800  1
  S  S30  1  0.24096000  0.32151400  0.21712200  1
  S  S31  1  0.24096000  0.67848600  0.78287800  1
  S  S32  1  0.25083800  0.38549700  0.75649600  1
  S  S33  1  0.25083800  0.61450300  0.24350400  1
  S  S34  1  0.74916200  0.11450300  0.25649600  1
  S  S35  1  0.74916200  0.88549700  0.74350400  1
  S  S36  1  0.25291700  0.02067600  0.60503800  1
  S  S37  1  0.25291700  0.97932400  0.39496200  1
  S  S38  1  0.74708300  0.47932400  0.10503800  1
  S  S39  1  0.74708300  0.52067600  0.89496200  1
