# generated using pymatgen
data_Cs3PuH8O9
_symmetry_space_group_name_H-M   'P 1'
_cell_length_a   8.20363564
_cell_length_b   8.71881596
_cell_length_c   8.71881596
_cell_angle_alpha   84.17799629
_cell_angle_beta   86.95110878
_cell_angle_gamma   86.95110878
_symmetry_Int_Tables_number   1
_chemical_formula_structural   Cs3PuH8O9
_chemical_formula_sum   'Cs6 Pu2 H16 O18'
_cell_volume   618.80966584
_cell_formula_units_Z   2
loop_
 _symmetry_equiv_pos_site_id
 _symmetry_equiv_pos_as_xyz
  1  'x, y, z'
loop_
 _atom_site_type_symbol
 _atom_site_label
 _atom_site_symmetry_multiplicity
 _atom_site_fract_x
 _atom_site_fract_y
 _atom_site_fract_z
 _atom_site_occupancy
  Cs  Cs0  1  0.54942000  0.61085600  0.78878800  1
  Cs  Cs1  1  0.95058000  0.21121200  0.38914400  1
  Cs  Cs2  1  0.45058000  0.38914400  0.21121200  1
  Cs  Cs3  1  0.04942000  0.78878800  0.61085600  1
  Cs  Cs4  1  0.25000000  0.93113300  0.06886700  1
  Cs  Cs5  1  0.75000000  0.06886700  0.93113300  1
  Pu  Pu6  1  0.00000000  0.50000000  0.00000000  1
  Pu  Pu7  1  0.50000000  0.00000000  0.50000000  1
  H  H8  1  0.91712400  0.44376900  0.68898100  1
  H  H9  1  0.58287600  0.31101900  0.55623100  1
  H  H10  1  0.08287600  0.55623100  0.31101900  1
  H  H11  1  0.41712400  0.68898100  0.44376900  1
  H  H12  1  0.19335700  0.08421300  0.71679700  1
  H  H13  1  0.30664300  0.28320300  0.91578700  1
  H  H14  1  0.80664300  0.91578700  0.28320300  1
  H  H15  1  0.69335700  0.71679700  0.08421300  1
  H  H16  1  0.06466900  0.22616600  0.74971100  1
  H  H17  1  0.43533100  0.25028900  0.77383400  1
  H  H18  1  0.93533100  0.77383400  0.25028900  1
  H  H19  1  0.56466900  0.74971100  0.22616600  1
  H  H20  1  0.16352100  0.45345100  0.61049300  1
  H  H21  1  0.33647900  0.38950700  0.54654900  1
  H  H22  1  0.83647900  0.54654900  0.38950700  1
  H  H23  1  0.66352100  0.61049300  0.45345100  1
  O  O24  1  0.88219200  0.68591200  0.92884200  1
  O  O25  1  0.61780800  0.07115800  0.31408800  1
  O  O26  1  0.11780800  0.31408800  0.07115800  1
  O  O27  1  0.38219200  0.92884200  0.68591200  1
  O  O28  1  0.20066200  0.59622100  0.95883700  1
  O  O29  1  0.29933800  0.04116300  0.40377900  1
  O  O30  1  0.79933800  0.40377900  0.04116300  1
  O  O31  1  0.70066200  0.95883700  0.59622100  1
  O  O32  1  0.01604300  0.41508000  0.74406500  1
  O  O33  1  0.48395700  0.25593500  0.58492000  1
  O  O34  1  0.98395700  0.58492000  0.25593500  1
  O  O35  1  0.51604300  0.74406500  0.41508000  1
  O  O36  1  0.07933500  0.11013600  0.74849600  1
  O  O37  1  0.42066500  0.25150400  0.88986400  1
  O  O38  1  0.92066500  0.88986400  0.25150400  1
  O  O39  1  0.57933500  0.74849600  0.11013600  1
  O  O40  1  0.25000000  0.47532000  0.52468000  1
  O  O41  1  0.75000000  0.52468000  0.47532000  1
