# generated using pymatgen
data_Re3Se4O9
_symmetry_space_group_name_H-M   'P 1'
_cell_length_a   9.87713110
_cell_length_b   9.87713110
_cell_length_c   9.87713078
_cell_angle_alpha   108.69784284
_cell_angle_beta   108.69784284
_cell_angle_gamma   108.69784639
_symmetry_Int_Tables_number   1
_chemical_formula_structural   Re3Se4O9
_chemical_formula_sum   'Re6 Se8 O18'
_cell_volume   762.27191282
_cell_formula_units_Z   2
loop_
 _symmetry_equiv_pos_site_id
 _symmetry_equiv_pos_as_xyz
  1  'x, y, z'
loop_
 _atom_site_type_symbol
 _atom_site_label
 _atom_site_symmetry_multiplicity
 _atom_site_fract_x
 _atom_site_fract_y
 _atom_site_fract_z
 _atom_site_occupancy
  Re  Re0  1  0.92604900  0.92604900  0.69531000  1
  Re  Re1  1  0.69531000  0.92604900  0.92604900  1
  Re  Re2  1  0.92604900  0.69531000  0.92604900  1
  Re  Re3  1  0.07395100  0.07395100  0.30469000  1
  Re  Re4  1  0.30469000  0.07395100  0.07395100  1
  Re  Re5  1  0.07395100  0.30469000  0.07395100  1
  Se  Se6  1  0.81265000  0.10226300  0.81265000  1
  Se  Se7  1  0.81265000  0.81265000  0.10226300  1
  Se  Se8  1  0.10226300  0.81265000  0.81265000  1
  Se  Se9  1  0.18735000  0.89773700  0.18735000  1
  Se  Se10  1  0.18735000  0.18735000  0.89773700  1
  Se  Se11  1  0.89773700  0.18735000  0.18735000  1
  Se  Se12  1  0.71844600  0.71844600  0.71844600  1
  Se  Se13  1  0.28155400  0.28155400  0.28155400  1
  O  O14  1  0.87157700  0.87157700  0.49689300  1
  O  O15  1  0.49689300  0.87157700  0.87157700  1
  O  O16  1  0.87157700  0.49689300  0.87157700  1
  O  O17  1  0.12842300  0.12842300  0.50310700  1
  O  O18  1  0.50310700  0.12842300  0.12842300  1
  O  O19  1  0.12842300  0.50310700  0.12842300  1
  O  O20  1  0.92565100  0.53634400  0.41167700  1
  O  O21  1  0.41167700  0.92565100  0.53634400  1
  O  O22  1  0.53634400  0.41167700  0.92565100  1
  O  O23  1  0.41167700  0.53634400  0.92565100  1
  O  O24  1  0.92565100  0.41167700  0.53634400  1
  O  O25  1  0.53634400  0.92565100  0.41167700  1
  O  O26  1  0.07434900  0.46365600  0.58832300  1
  O  O27  1  0.58832300  0.07434900  0.46365600  1
  O  O28  1  0.46365600  0.58832300  0.07434900  1
  O  O29  1  0.58832300  0.46365600  0.07434900  1
  O  O30  1  0.07434900  0.58832300  0.46365600  1
  O  O31  1  0.46365600  0.07434900  0.58832300  1
