# generated using pymatgen
data_Be3As2H10(NO5)2
_symmetry_space_group_name_H-M   'P 1'
_cell_length_a   8.68857600
_cell_length_b   10.04560800
_cell_length_c   13.72344946
_cell_angle_alpha   54.30839154
_cell_angle_beta   90.00000000
_cell_angle_gamma   90.00000000
_symmetry_Int_Tables_number   1
_chemical_formula_structural   Be3As2H10(NO5)2
_chemical_formula_sum   'Be12 As8 H40 N8 O40'
_cell_volume   972.82454280
_cell_formula_units_Z   4
loop_
 _symmetry_equiv_pos_site_id
 _symmetry_equiv_pos_as_xyz
  1  'x, y, z'
loop_
 _atom_site_type_symbol
 _atom_site_label
 _atom_site_symmetry_multiplicity
 _atom_site_fract_x
 _atom_site_fract_y
 _atom_site_fract_z
 _atom_site_occupancy
  Be  Be0  1  0.57001600  0.76857800  0.33327500  1
  Be  Be1  1  0.92998400  0.76857800  0.83327500  1
  Be  Be2  1  0.42998400  0.23142200  0.66672500  1
  Be  Be3  1  0.07001600  0.23142200  0.16672500  1
  Be  Be4  1  0.56609000  0.72227700  0.68677300  1
  Be  Be5  1  0.93391000  0.72227700  0.18677300  1
  Be  Be6  1  0.43391000  0.27772300  0.31322700  1
  Be  Be7  1  0.06609000  0.27772300  0.81322700  1
  Be  Be8  1  0.76896200  0.76608800  0.50489400  1
  Be  Be9  1  0.73103800  0.76608800  0.00489400  1
  Be  Be10  1  0.23103800  0.23391200  0.49510600  1
  Be  Be11  1  0.26896200  0.23391200  0.99510600  1
  As  As12  1  0.63307200  0.55178000  0.25848900  1
  As  As13  1  0.86692800  0.55178000  0.75848900  1
  As  As14  1  0.36692800  0.44822000  0.74151100  1
  As  As15  1  0.13307200  0.44822000  0.24151100  1
  As  As16  1  0.36100300  0.04996600  0.24888100  1
  As  As17  1  0.13899700  0.04996600  0.74888100  1
  As  As18  1  0.63899700  0.95003400  0.75111900  1
  As  As19  1  0.86100300  0.95003400  0.25111900  1
  H  H20  1  0.74551100  0.20742300  0.91231600  1
  H  H21  1  0.75448900  0.20742300  0.41231600  1
  H  H22  1  0.25448900  0.79257700  0.08768400  1
  H  H23  1  0.24551100  0.79257700  0.58768400  1
  H  H24  1  0.10303600  0.61264900  0.52597200  1
  H  H25  1  0.39696400  0.61264900  0.02597200  1
  H  H26  1  0.89696400  0.38735100  0.47402800  1
  H  H27  1  0.60303600  0.38735100  0.97402800  1
  H  H28  1  0.08217300  0.68794500  0.37753300  1
  H  H29  1  0.41782700  0.68794500  0.87753300  1
  H  H30  1  0.91782700  0.31205500  0.62246700  1
  H  H31  1  0.58217300  0.31205500  0.12246700  1
  H  H32  1  0.55260200  0.20693200  0.93474000  1
  H  H33  1  0.94739800  0.20693200  0.43474000  1
  H  H34  1  0.44739800  0.79306800  0.06526000  1
  H  H35  1  0.05260200  0.79306800  0.56526000  1
  H  H36  1  0.63268800  0.06907500  0.91399500  1
  H  H37  1  0.86731200  0.06907500  0.41399500  1
  H  H38  1  0.36731200  0.93092500  0.08600500  1
  H  H39  1  0.13268800  0.93092500  0.58600500  1
  H  H40  1  0.66327000  0.04813900  0.04387500  1
  H  H41  1  0.83673000  0.04813900  0.54387500  1
  H  H42  1  0.33673000  0.95186100  0.95612500  1
  H  H43  1  0.16327000  0.95186100  0.45612500  1
  H  H44  1  0.19658600  0.51765500  0.47690500  1
  H  H45  1  0.30341400  0.51765500  0.97690500  1
  H  H46  1  0.80341400  0.48234500  0.52309500  1
  H  H47  1  0.69658600  0.48234500  0.02309500  1
  H  H48  1  0.57164700  0.89640500  0.49287500  1
  H  H49  1  0.92835300  0.89640500  0.99287500  1
  H  H50  1  0.42835300  0.10359500  0.50712500  1
  H  H51  1  0.07164700  0.10359500  0.00712500  1
  H  H52  1  0.25186300  0.71015400  0.42444100  1
  H  H53  1  0.24813700  0.71015400  0.92444100  1
  H  H54  1  0.74813700  0.28984600  0.57555900  1
  H  H55  1  0.75186300  0.28984600  0.07555900  1
  H  H56  1  0.59843600  0.59172200  0.52636000  1
  H  H57  1  0.90156400  0.59172200  0.02636000  1
  H  H58  1  0.40156400  0.40827800  0.47364000  1
  H  H59  1  0.09843600  0.40827800  0.97364000  1
  N  N60  1  0.64823000  0.13276900  0.95209400  1
  N  N61  1  0.85177000  0.13276900  0.45209400  1
  N  N62  1  0.35177000  0.86723100  0.04790600  1
  N  N63  1  0.14823000  0.86723100  0.54790600  1
  N  N64  1  0.15672100  0.63096500  0.45201900  1
  N  N65  1  0.34327900  0.63096500  0.95201900  1
  N  N66  1  0.84327900  0.36903500  0.54798100  1
  N  N67  1  0.65672100  0.36903500  0.04798100  1
  O  O68  1  0.64981300  0.83991700  0.55486500  1
  O  O69  1  0.85018700  0.83991700  0.05486500  1
  O  O70  1  0.35018700  0.16008300  0.44513500  1
  O  O71  1  0.14981300  0.16008300  0.94513500  1
  O  O72  1  0.66851200  0.66996300  0.46174200  1
  O  O73  1  0.83148800  0.66996300  0.96174200  1
  O  O74  1  0.33148800  0.33003700  0.53825800  1
  O  O75  1  0.16851200  0.33003700  0.03825800  1
  O  O76  1  0.87001600  0.90951400  0.39120600  1
  O  O77  1  0.62998400  0.90951400  0.89120600  1
  O  O78  1  0.12998400  0.09048600  0.60879400  1
  O  O79  1  0.37001600  0.09048600  0.10879400  1
  O  O80  1  0.41059500  0.84745600  0.35191300  1
  O  O81  1  0.08940500  0.84745600  0.85191300  1
  O  O82  1  0.58940500  0.15254400  0.64808700  1
  O  O83  1  0.91059500  0.15254400  0.14808700  1
  O  O84  1  0.89888300  0.65144600  0.60624400  1
  O  O85  1  0.60111700  0.65144600  0.10624400  1
  O  O86  1  0.10111700  0.34855400  0.39375600  1
  O  O87  1  0.39888300  0.34855400  0.89375600  1
  O  O88  1  0.48755300  0.17310700  0.25969400  1
  O  O89  1  0.01244700  0.17310700  0.75969400  1
  O  O90  1  0.51244700  0.82689300  0.74030600  1
  O  O91  1  0.98755300  0.82689300  0.24030600  1
  O  O92  1  0.51202200  0.63093000  0.31224600  1
  O  O93  1  0.98797800  0.63093000  0.81224600  1
  O  O94  1  0.48797800  0.36907000  0.68775400  1
  O  O95  1  0.01202200  0.36907000  0.18775400  1
  O  O96  1  0.59665700  0.34653600  0.33119900  1
  O  O97  1  0.90334300  0.34653600  0.83119900  1
  O  O98  1  0.40334300  0.65346400  0.66880100  1
  O  O99  1  0.09665700  0.65346400  0.16880100  1
  O  O100  1  0.67653600  0.91755900  0.22280500  1
  O  O101  1  0.82346400  0.91755900  0.72280500  1
  O  O102  1  0.32346400  0.08244100  0.77719500  1
  O  O103  1  0.17653600  0.08244100  0.27719500  1
  O  O104  1  0.82272400  0.56980900  0.28298000  1
  O  O105  1  0.67727600  0.56980900  0.78298000  1
  O  O106  1  0.17727600  0.43019100  0.71702000  1
  O  O107  1  0.32272400  0.43019100  0.21702000  1
