# generated using pymatgen
data_K19Na6Tl24Au
_symmetry_space_group_name_H-M   'P 1'
_cell_length_a   19.62795865
_cell_length_b   19.62795865
_cell_length_c   11.70534100
_cell_angle_alpha   90.00000000
_cell_angle_beta   90.00000000
_cell_angle_gamma   120.00000218
_symmetry_Int_Tables_number   1
_chemical_formula_structural   K19Na6Tl24Au
_chemical_formula_sum   'K38 Na12 Tl48 Au2'
_cell_volume   3905.39495487
_cell_formula_units_Z   2
loop_
 _symmetry_equiv_pos_site_id
 _symmetry_equiv_pos_as_xyz
  1  'x, y, z'
loop_
 _atom_site_type_symbol
 _atom_site_label
 _atom_site_symmetry_multiplicity
 _atom_site_fract_x
 _atom_site_fract_y
 _atom_site_fract_z
 _atom_site_occupancy
  K  K0  1  0.87852100  0.53648200  0.50000000  1
  K  K1  1  0.46351800  0.34203900  0.50000000  1
  K  K2  1  0.65796100  0.12147900  0.50000000  1
  K  K3  1  0.12147900  0.65796100  0.50000000  1
  K  K4  1  0.53648200  0.87852100  0.50000000  1
  K  K5  1  0.34203900  0.46351800  0.50000000  1
  K  K6  1  0.00000000  0.77620300  0.50000000  1
  K  K7  1  0.22379700  0.22379700  0.50000000  1
  K  K8  1  0.77620300  0.00000000  0.50000000  1
  K  K9  1  0.00000000  0.19572700  0.00000000  1
  K  K10  1  0.80427300  0.80427300  0.00000000  1
  K  K11  1  0.19572700  0.00000000  0.00000000  1
  K  K12  1  0.00000000  0.12776900  0.67899600  1
  K  K13  1  0.87223100  0.87223100  0.67899600  1
  K  K14  1  0.12776900  0.00000000  0.67899600  1
  K  K15  1  0.00000000  0.12776900  0.32100400  1
  K  K16  1  0.87223100  0.87223100  0.32100400  1
  K  K17  1  0.12776900  0.00000000  0.32100400  1
  K  K18  1  0.65312100  0.18839900  0.82161000  1
  K  K19  1  0.81160100  0.46472100  0.82161000  1
  K  K20  1  0.53527900  0.34687900  0.82161000  1
  K  K21  1  0.65312100  0.18839900  0.17839000  1
  K  K22  1  0.81160100  0.46472100  0.17839000  1
  K  K23  1  0.53527900  0.34687900  0.17839000  1
  K  K24  1  0.34687900  0.53527900  0.82161000  1
  K  K25  1  0.18839900  0.65312100  0.82161000  1
  K  K26  1  0.46472100  0.81160100  0.82161000  1
  K  K27  1  0.34687900  0.53527900  0.17839000  1
  K  K28  1  0.18839900  0.65312100  0.17839000  1
  K  K29  1  0.46472100  0.81160100  0.17839000  1
  K  K30  1  0.33333300  0.66666700  0.50000000  1
  K  K31  1  0.66666700  0.33333300  0.50000000  1
  K  K32  1  0.88146600  0.32867400  0.00000000  1
  K  K33  1  0.67132600  0.55279200  0.00000000  1
  K  K34  1  0.44720800  0.11853400  0.00000000  1
  K  K35  1  0.11853400  0.44720800  0.00000000  1
  K  K36  1  0.32867400  0.88146600  0.00000000  1
  K  K37  1  0.55279200  0.67132600  0.00000000  1
  Na  Na38  1  0.83058600  0.15929600  0.74872400  1
  Na  Na39  1  0.84070400  0.67129000  0.74872400  1
  Na  Na40  1  0.32871000  0.16941400  0.74872400  1
  Na  Na41  1  0.83058600  0.15929600  0.25127600  1
  Na  Na42  1  0.84070400  0.67129000  0.25127600  1
  Na  Na43  1  0.32871000  0.16941400  0.25127600  1
  Na  Na44  1  0.16941400  0.32871000  0.74872400  1
  Na  Na45  1  0.15929600  0.83058600  0.74872400  1
  Na  Na46  1  0.67129000  0.84070400  0.74872400  1
  Na  Na47  1  0.16941400  0.32871000  0.25127600  1
  Na  Na48  1  0.15929600  0.83058600  0.25127600  1
  Na  Na49  1  0.67129000  0.84070400  0.25127600  1
  Tl  Tl50  1  0.90310500  0.21902000  0.50000000  1
  Tl  Tl51  1  0.78098000  0.68408400  0.50000000  1
  Tl  Tl52  1  0.31591600  0.09689500  0.50000000  1
  Tl  Tl53  1  0.09689500  0.31591600  0.50000000  1
  Tl  Tl54  1  0.21902000  0.90310500  0.50000000  1
  Tl  Tl55  1  0.68408400  0.78098000  0.50000000  1
  Tl  Tl56  1  0.00000000  0.42845400  0.50000000  1
  Tl  Tl57  1  0.57154600  0.57154600  0.50000000  1
  Tl  Tl58  1  0.42845400  0.00000000  0.50000000  1
  Tl  Tl59  1  0.00000000  0.32510300  0.73482000  1
  Tl  Tl60  1  0.67489700  0.67489700  0.73482000  1
  Tl  Tl61  1  0.32510300  0.00000000  0.73482000  1
  Tl  Tl62  1  0.00000000  0.32510300  0.26518000  1
  Tl  Tl63  1  0.67489700  0.67489700  0.26518000  1
  Tl  Tl64  1  0.32510300  0.00000000  0.26518000  1
  Tl  Tl65  1  0.83751700  0.32318700  0.64169500  1
  Tl  Tl66  1  0.67681300  0.51433000  0.64169500  1
  Tl  Tl67  1  0.48567000  0.16248300  0.64169500  1
  Tl  Tl68  1  0.83751700  0.32318700  0.35830500  1
  Tl  Tl69  1  0.67681300  0.51433000  0.35830500  1
  Tl  Tl70  1  0.48567000  0.16248300  0.35830500  1
  Tl  Tl71  1  0.16248300  0.48567000  0.64169500  1
  Tl  Tl72  1  0.32318700  0.83751700  0.64169500  1
  Tl  Tl73  1  0.51433000  0.67681300  0.64169500  1
  Tl  Tl74  1  0.16248300  0.48567000  0.35830500  1
  Tl  Tl75  1  0.32318700  0.83751700  0.35830500  1
  Tl  Tl76  1  0.51433000  0.67681300  0.35830500  1
  Tl  Tl77  1  0.00000000  0.82908000  0.86375400  1
  Tl  Tl78  1  0.17092000  0.17092000  0.86375400  1
  Tl  Tl79  1  0.82908000  0.00000000  0.86375400  1
  Tl  Tl80  1  0.00000000  0.82908000  0.13624600  1
  Tl  Tl81  1  0.17092000  0.17092000  0.13624600  1
  Tl  Tl82  1  0.82908000  0.00000000  0.13624600  1
  Tl  Tl83  1  0.00000000  0.65566000  0.76968400  1
  Tl  Tl84  1  0.34434000  0.34434000  0.76968400  1
  Tl  Tl85  1  0.65566000  0.00000000  0.76968400  1
  Tl  Tl86  1  0.00000000  0.65566000  0.23031600  1
  Tl  Tl87  1  0.34434000  0.34434000  0.23031600  1
  Tl  Tl88  1  0.65566000  0.00000000  0.23031600  1
  Tl  Tl89  1  0.75366000  0.09745800  0.00000000  1
  Tl  Tl90  1  0.90254200  0.65620300  0.00000000  1
  Tl  Tl91  1  0.34379700  0.24634000  0.00000000  1
  Tl  Tl92  1  0.24634000  0.34379700  0.00000000  1
  Tl  Tl93  1  0.09745800  0.75366000  0.00000000  1
  Tl  Tl94  1  0.65620300  0.90254200  0.00000000  1
  Tl  Tl95  1  0.00000000  0.55765800  0.00000000  1
  Tl  Tl96  1  0.44234200  0.44234200  0.00000000  1
  Tl  Tl97  1  0.55765800  0.00000000  0.00000000  1
  Au  Au98  1  0.33333300  0.66666700  0.00000000  1
  Au  Au99  1  0.66666700  0.33333300  0.00000000  1
