# generated using pymatgen
data_Mg3H43C12O12F
_symmetry_space_group_name_H-M   'P 1'
_cell_length_a   11.04372300
_cell_length_b   12.31353100
_cell_length_c   20.78697465
_cell_angle_alpha   90.00000000
_cell_angle_beta   97.78752492
_cell_angle_gamma   90.00000000
_symmetry_Int_Tables_number   1
_chemical_formula_structural   Mg3H43C12O12F
_chemical_formula_sum   'Mg12 H172 C48 O48 F4'
_cell_volume   2800.69281013
_cell_formula_units_Z   4
loop_
 _symmetry_equiv_pos_site_id
 _symmetry_equiv_pos_as_xyz
  1  'x, y, z'
loop_
 _atom_site_type_symbol
 _atom_site_label
 _atom_site_symmetry_multiplicity
 _atom_site_fract_x
 _atom_site_fract_y
 _atom_site_fract_z
 _atom_site_occupancy
  Mg  Mg0  1  0.37151500  0.00182200  0.53663900  1
  Mg  Mg1  1  0.62848500  0.50182200  0.96336100  1
  Mg  Mg2  1  0.62848500  0.99817800  0.46336100  1
  Mg  Mg3  1  0.37151500  0.49817800  0.03663900  1
  Mg  Mg4  1  0.60421900  0.15067300  0.58658400  1
  Mg  Mg5  1  0.39578100  0.65067300  0.91341600  1
  Mg  Mg6  1  0.39578100  0.84932700  0.41341600  1
  Mg  Mg7  1  0.60421900  0.34932700  0.08658400  1
  Mg  Mg8  1  0.61897000  0.89272500  0.60368000  1
  Mg  Mg9  1  0.38103000  0.39272500  0.89632000  1
  Mg  Mg10  1  0.38103000  0.10727500  0.39632000  1
  Mg  Mg11  1  0.61897000  0.60727500  0.10368000  1
  H  H12  1  0.10301400  0.87165300  0.56362000  1
  H  H13  1  0.89698600  0.37165300  0.93638000  1
  H  H14  1  0.89698600  0.12834700  0.43638000  1
  H  H15  1  0.10301400  0.62834700  0.06362000  1
  H  H16  1  0.17449000  0.76691500  0.61473100  1
  H  H17  1  0.82551000  0.26691500  0.88526900  1
  H  H18  1  0.82551000  0.23308500  0.38526900  1
  H  H19  1  0.17449000  0.73308500  0.11473100  1
  H  H20  1  0.18248000  0.90497100  0.64124200  1
  H  H21  1  0.81752000  0.40497100  0.85875800  1
  H  H22  1  0.81752000  0.09502900  0.35875800  1
  H  H23  1  0.18248000  0.59502900  0.14124200  1
  H  H24  1  0.16395000  0.08672900  0.61781500  1
  H  H25  1  0.83605000  0.58672900  0.88218500  1
  H  H26  1  0.83605000  0.91327100  0.38218500  1
  H  H27  1  0.16395000  0.41327100  0.11781500  1
  H  H28  1  0.16690100  0.22995400  0.60698600  1
  H  H29  1  0.83309900  0.72995400  0.89301400  1
  H  H30  1  0.83309900  0.77004600  0.39301400  1
  H  H31  1  0.16690100  0.27004600  0.10698600  1
  H  H32  1  0.08660100  0.14573100  0.54576200  1
  H  H33  1  0.91339900  0.64573100  0.95423800  1
  H  H34  1  0.91339900  0.85426900  0.45423800  1
  H  H35  1  0.08660100  0.35426900  0.04576200  1
  H  H36  1  0.39814600  0.96425700  0.68687400  1
  H  H37  1  0.60185400  0.46425700  0.81312600  1
  H  H38  1  0.60185400  0.03574300  0.31312600  1
  H  H39  1  0.39814600  0.53574300  0.18687400  1
  H  H40  1  0.53935400  0.02746000  0.71815400  1
  H  H41  1  0.46064600  0.52746000  0.78184600  1
  H  H42  1  0.46064600  0.97254000  0.28184600  1
  H  H43  1  0.53935400  0.47254000  0.21815400  1
  H  H44  1  0.41345400  0.10890600  0.68332900  1
  H  H45  1  0.58654600  0.60890600  0.81667100  1
  H  H46  1  0.58654600  0.89109400  0.31667100  1
  H  H47  1  0.41345400  0.39109400  0.18332900  1
  H  H48  1  0.87403800  0.96440700  0.60514200  1
  H  H49  1  0.12596200  0.46440700  0.89485800  1
  H  H50  1  0.12596200  0.03559300  0.39485800  1
  H  H51  1  0.87403800  0.53559300  0.10514200  1
  H  H52  1  0.87191100  0.00860700  0.52337600  1
  H  H53  1  0.12808900  0.50860700  0.97662400  1
  H  H54  1  0.12808900  0.99139300  0.47662400  1
  H  H55  1  0.87191100  0.49139300  0.02337600  1
  H  H56  1  0.86528600  0.10566300  0.58649800  1
  H  H57  1  0.13471400  0.60566300  0.91350200  1
  H  H58  1  0.13471400  0.89433700  0.41350200  1
  H  H59  1  0.86528600  0.39433700  0.08649800  1
  H  H60  1  0.41999700  0.37601600  0.52641800  1
  H  H61  1  0.58000300  0.87601600  0.97358200  1
  H  H62  1  0.58000300  0.62398400  0.47358200  1
  H  H63  1  0.41999700  0.12398400  0.02641800  1
  H  H64  1  0.37715800  0.40773100  0.60471800  1
  H  H65  1  0.62284200  0.90773100  0.89528200  1
  H  H66  1  0.62284200  0.59226900  0.39528200  1
  H  H67  1  0.37715800  0.09226900  0.10471800  1
  H  H68  1  0.53391300  0.41177700  0.59191300  1
  H  H69  1  0.46608700  0.91177700  0.90808700  1
  H  H70  1  0.46608700  0.58822300  0.40808700  1
  H  H71  1  0.53391300  0.08822300  0.09191300  1
  H  H72  1  0.86856500  0.30367600  0.56591500  1
  H  H73  1  0.13143500  0.80367600  0.93408500  1
  H  H74  1  0.13143500  0.69632400  0.43408500  1
  H  H75  1  0.86856500  0.19632400  0.06591500  1
  H  H76  1  0.79575900  0.37801000  0.49698800  1
  H  H77  1  0.20424100  0.87801000  0.00301200  1
  H  H78  1  0.20424100  0.62199000  0.50301200  1
  H  H79  1  0.79575900  0.12199000  0.99698800  1
  H  H80  1  0.74854500  0.39693400  0.57514000  1
  H  H81  1  0.25145500  0.89693400  0.92486000  1
  H  H82  1  0.25145500  0.60306600  0.42486000  1
  H  H83  1  0.74854500  0.10306600  0.07514000  1
  H  H84  1  0.65053500  0.25356000  0.75592700  1
  H  H85  1  0.34946500  0.75356000  0.74407300  1
  H  H86  1  0.34946500  0.74644000  0.24407300  1
  H  H87  1  0.65053500  0.24644000  0.25592700  1
  H  H88  1  0.77888600  0.32157100  0.72986100  1
  H  H89  1  0.22111400  0.82157100  0.77013900  1
  H  H90  1  0.22111400  0.67842900  0.27013900  1
  H  H91  1  0.77888600  0.17842900  0.22986100  1
  H  H92  1  0.62876400  0.33874400  0.68654700  1
  H  H93  1  0.37123600  0.83874400  0.81345300  1
  H  H94  1  0.37123600  0.66125600  0.31345300  1
  H  H95  1  0.62876400  0.16125600  0.18654700  1
  H  H96  1  0.79826900  0.66745600  0.63015000  1
  H  H97  1  0.20173100  0.16745600  0.86985000  1
  H  H98  1  0.20173100  0.33254400  0.36985000  1
  H  H99  1  0.79826900  0.83254400  0.13015000  1
  H  H100  1  0.83649100  0.64784900  0.55029400  1
  H  H101  1  0.16350900  0.14784900  0.94970600  1
  H  H102  1  0.16350900  0.35215100  0.44970600  1
  H  H103  1  0.83649100  0.85215100  0.05029400  1
  H  H104  1  0.90528300  0.75626300  0.59989800  1
  H  H105  1  0.09471700  0.25626300  0.90010200  1
  H  H106  1  0.09471700  0.24373700  0.40010200  1
  H  H107  1  0.90528300  0.74373700  0.09989800  1
  H  H108  1  0.56816700  0.63422200  0.65807500  1
  H  H109  1  0.43183300  0.13422200  0.84192500  1
  H  H110  1  0.43183300  0.36577800  0.34192500  1
  H  H111  1  0.56816700  0.86577800  0.15807500  1
  H  H112  1  0.40481300  0.63570400  0.64131300  1
  H  H113  1  0.59518700  0.13570400  0.85868700  1
  H  H114  1  0.59518700  0.36429600  0.35868700  1
  H  H115  1  0.40481300  0.86429600  0.14131300  1
  H  H116  1  0.49516700  0.64081300  0.57602100  1
  H  H117  1  0.50483300  0.14081300  0.92397900  1
  H  H118  1  0.50483300  0.35918700  0.42397900  1
  H  H119  1  0.49516700  0.85918700  0.07602100  1
  H  H120  1  0.80563800  0.76752700  0.75247200  1
  H  H121  1  0.19436200  0.26752700  0.74752800  1
  H  H122  1  0.19436200  0.23247300  0.24752800  1
  H  H123  1  0.80563800  0.73247300  0.25247200  1
  H  H124  1  0.71217400  0.86234200  0.78892700  1
  H  H125  1  0.28782600  0.36234200  0.71107300  1
  H  H126  1  0.28782600  0.13765800  0.21107300  1
  H  H127  1  0.71217400  0.63765800  0.28892700  1
  H  H128  1  0.64247000  0.76487100  0.73273700  1
  H  H129  1  0.35753000  0.26487100  0.76726300  1
  H  H130  1  0.35753000  0.23512900  0.26726300  1
  H  H131  1  0.64247000  0.73512900  0.23273700  1
  H  H132  1  0.98179400  0.13870800  0.70909300  1
  H  H133  1  0.01820600  0.63870800  0.79090700  1
  H  H134  1  0.01820600  0.86129200  0.29090700  1
  H  H135  1  0.98179400  0.36129200  0.20909300  1
  H  H136  1  0.00820000  0.08552200  0.78943000  1
  H  H137  1  0.99180000  0.58552200  0.71057000  1
  H  H138  1  0.99180000  0.91447800  0.21057000  1
  H  H139  1  0.00820000  0.41447800  0.28943000  1
  H  H140  1  0.00357500  0.99645500  0.72135000  1
  H  H141  1  0.99642500  0.49645500  0.77865000  1
  H  H142  1  0.99642500  0.00354500  0.27865000  1
  H  H143  1  0.00357500  0.50354500  0.22135000  1
  H  H144  1  0.98747600  0.02897600  0.91786000  1
  H  H145  1  0.01252400  0.52897600  0.58214000  1
  H  H146  1  0.01252400  0.97102400  0.08214000  1
  H  H147  1  0.98747600  0.47102400  0.41786000  1
  H  H148  1  0.87737100  0.93721700  0.94229800  1
  H  H149  1  0.12262900  0.43721700  0.55770200  1
  H  H150  1  0.12262900  0.06278300  0.05770200  1
  H  H151  1  0.87737100  0.56278300  0.44229800  1
  H  H152  1  0.93281000  0.91802800  0.86649800  1
  H  H153  1  0.06719000  0.41802800  0.63350200  1
  H  H154  1  0.06719000  0.08197200  0.13350200  1
  H  H155  1  0.93281000  0.58197200  0.36649800  1
  H  H156  1  0.38357800  0.21464200  0.58212400  1
  H  H157  1  0.61642200  0.71464200  0.91787600  1
  H  H158  1  0.61642200  0.78535800  0.41787600  1
  H  H159  1  0.38357800  0.28535800  0.08212400  1
  H  H160  1  0.70268000  0.21106700  0.48711500  1
  H  H161  1  0.29732000  0.71106700  0.01288500  1
  H  H162  1  0.29732000  0.78893300  0.51288500  1
  H  H163  1  0.70268000  0.28893300  0.98711500  1
  H  H164  1  0.76605600  0.13178400  0.70122400  1
  H  H165  1  0.23394400  0.63178400  0.79877600  1
  H  H166  1  0.23394400  0.86821600  0.29877600  1
  H  H167  1  0.76605600  0.36821600  0.20122400  1
  H  H168  1  0.72910900  0.80476200  0.51533400  1
  H  H169  1  0.27089100  0.30476200  0.98466600  1
  H  H170  1  0.27089100  0.19523800  0.48466600  1
  H  H171  1  0.72910900  0.69523800  0.01533400  1
  H  H172  1  0.40781800  0.81357100  0.60996800  1
  H  H173  1  0.59218200  0.31357100  0.89003200  1
  H  H174  1  0.59218200  0.18642900  0.39003200  1
  H  H175  1  0.40781800  0.68642900  0.10996800  1
  H  H176  1  0.77913800  0.96211000  0.71117700  1
  H  H177  1  0.22086200  0.46211000  0.78882300  1
  H  H178  1  0.22086200  0.03789000  0.28882300  1
  H  H179  1  0.77913800  0.53789000  0.21117700  1
  H  H180  1  0.81417100  0.05289400  0.82372700  1
  H  H181  1  0.18582900  0.55289400  0.67627300  1
  H  H182  1  0.18582900  0.94710600  0.17627300  1
  H  H183  1  0.81417100  0.44710600  0.32372700  1
  C  C184  1  0.18456700  0.85150000  0.59867800  1
  C  C185  1  0.81543300  0.35150000  0.90132200  1
  C  C186  1  0.81543300  0.14850000  0.40132200  1
  C  C187  1  0.18456700  0.64850000  0.09867800  1
  C  C188  1  0.17013500  0.15135800  0.58162600  1
  C  C189  1  0.82986500  0.65135800  0.91837400  1
  C  C190  1  0.82986500  0.84864200  0.41837400  1
  C  C191  1  0.17013500  0.34864200  0.08162600  1
  C  C192  1  0.46105900  0.03110800  0.67915100  1
  C  C193  1  0.53894100  0.53110800  0.82084900  1
  C  C194  1  0.53894100  0.96889200  0.32084900  1
  C  C195  1  0.46105900  0.46889200  0.17915100  1
  C  C196  1  0.83425700  0.02449400  0.56900000  1
  C  C197  1  0.16574300  0.52449400  0.93100000  1
  C  C198  1  0.16574300  0.97550600  0.43100000  1
  C  C199  1  0.83425700  0.47550600  0.06900000  1
  C  C200  1  0.44659800  0.36867000  0.57922100  1
  C  C201  1  0.55340200  0.86867000  0.92077900  1
  C  C202  1  0.55340200  0.63133000  0.42077900  1
  C  C203  1  0.44659800  0.13133000  0.07922100  1
  C  C204  1  0.78083600  0.33684200  0.54217400  1
  C  C205  1  0.21916400  0.83684200  0.95782600  1
  C  C206  1  0.21916400  0.66315800  0.45782600  1
  C  C207  1  0.78083600  0.16315800  0.04217400  1
  C  C208  1  0.69165100  0.28020200  0.71313400  1
  C  C209  1  0.30834900  0.78020200  0.78686600  1
  C  C210  1  0.30834900  0.71979800  0.28686600  1
  C  C211  1  0.69165100  0.21979800  0.21313400  1
  C  C212  1  0.82038900  0.70946300  0.58647300  1
  C  C213  1  0.17961100  0.20946300  0.91352700  1
  C  C214  1  0.17961100  0.29053700  0.41352700  1
  C  C215  1  0.82038900  0.79053700  0.08647300  1
  C  C216  1  0.48930900  0.66757400  0.62607600  1
  C  C217  1  0.51069100  0.16757400  0.87392400  1
  C  C218  1  0.51069100  0.33242600  0.37392400  1
  C  C219  1  0.48930900  0.83242600  0.12607600  1
  C  C220  1  0.72232700  0.81799300  0.74397500  1
  C  C221  1  0.27767300  0.31799300  0.75602500  1
  C  C222  1  0.27767300  0.18200700  0.25602500  1
  C  C223  1  0.72232700  0.68200700  0.24397500  1
  C  C224  1  0.96133000  0.06954600  0.73990400  1
  C  C225  1  0.03867000  0.56954600  0.76009600  1
  C  C226  1  0.03867000  0.93045400  0.26009600  1
  C  C227  1  0.96133000  0.43045400  0.23990400  1
  C  C228  1  0.90569700  0.97982700  0.90023500  1
  C  C229  1  0.09430300  0.47982700  0.59976500  1
  C  C230  1  0.09430300  0.02017300  0.09976500  1
  C  C231  1  0.90569700  0.52017300  0.40023500  1
  O  O232  1  0.29419500  0.86501900  0.57067400  1
  O  O233  1  0.70580500  0.36501900  0.92932600  1
  O  O234  1  0.70580500  0.13498100  0.42932600  1
  O  O235  1  0.29419500  0.63498100  0.07067400  1
  O  O236  1  0.27775200  0.14192400  0.55153500  1
  O  O237  1  0.72224800  0.64192400  0.94846500  1
  O  O238  1  0.72224800  0.85807600  0.44846500  1
  O  O239  1  0.27775200  0.35807600  0.05153500  1
  O  O240  1  0.50185400  0.02179900  0.61711300  1
  O  O241  1  0.49814600  0.52179900  0.88288700  1
  O  O242  1  0.49814600  0.97820100  0.38288700  1
  O  O243  1  0.50185400  0.47820100  0.11711300  1
  O  O244  1  0.70427200  0.01830500  0.55975900  1
  O  O245  1  0.29572800  0.51830500  0.94024100  1
  O  O246  1  0.29572800  0.98169500  0.44024100  1
  O  O247  1  0.70427200  0.48169500  0.05975900  1
  O  O248  1  0.46270800  0.25729500  0.59847300  1
  O  O249  1  0.53729200  0.75729500  0.90152700  1
  O  O250  1  0.53729200  0.74270500  0.40152700  1
  O  O251  1  0.46270800  0.24270500  0.09847300  1
  O  O252  1  0.69013700  0.25438100  0.52868000  1
  O  O253  1  0.30986300  0.75438100  0.97132000  1
  O  O254  1  0.30986300  0.74561900  0.47132000  1
  O  O255  1  0.69013700  0.24561900  0.02868000  1
  O  O256  1  0.71056900  0.19079600  0.67185400  1
  O  O257  1  0.28943100  0.69079600  0.82814600  1
  O  O258  1  0.28943100  0.80920400  0.32814600  1
  O  O259  1  0.71056900  0.30920400  0.17185400  1
  O  O260  1  0.72000600  0.77695100  0.56165200  1
  O  O261  1  0.27999400  0.27695100  0.93834800  1
  O  O262  1  0.27999400  0.22304900  0.43834800  1
  O  O263  1  0.72000600  0.72304900  0.06165200  1
  O  O264  1  0.49170500  0.78374200  0.63128000  1
  O  O265  1  0.50829500  0.28374200  0.86872000  1
  O  O266  1  0.50829500  0.21625800  0.36872000  1
  O  O267  1  0.49170500  0.71625800  0.13128000  1
  O  O268  1  0.72878600  0.89217300  0.69164300  1
  O  O269  1  0.27121400  0.39217300  0.80835700  1
  O  O270  1  0.27121400  0.10782700  0.30835700  1
  O  O271  1  0.72878600  0.60782700  0.19164300  1
  O  O272  1  0.83390200  0.05638700  0.74076700  1
  O  O273  1  0.16609800  0.55638700  0.75923300  1
  O  O274  1  0.16609800  0.94361300  0.25923300  1
  O  O275  1  0.83390200  0.44361300  0.24076700  1
  O  O276  1  0.80684100  0.04506800  0.87079300  1
  O  O277  1  0.19315900  0.54506800  0.62920700  1
  O  O278  1  0.19315900  0.95493200  0.12920700  1
  O  O279  1  0.80684100  0.45493200  0.37079300  1
  F  F280  1  0.50654600  0.89580900  0.50739100  1
  F  F281  1  0.49345400  0.39580900  0.99260900  1
  F  F282  1  0.49345400  0.10419100  0.49260900  1
  F  F283  1  0.50654600  0.60419100  0.00739100  1
