# generated using pymatgen
data_Ba4Mo2O6F13
_symmetry_space_group_name_H-M   'P 1'
_cell_length_a   8.73449400
_cell_length_b   11.80266800
_cell_length_c   16.29800400
_cell_angle_alpha   90.00000000
_cell_angle_beta   90.00000000
_cell_angle_gamma   90.00000000
_symmetry_Int_Tables_number   1
_chemical_formula_structural   Ba4Mo2O6F13
_chemical_formula_sum   'Ba16 Mo8 O24 F52'
_cell_volume   1680.16665682
_cell_formula_units_Z   4
loop_
 _symmetry_equiv_pos_site_id
 _symmetry_equiv_pos_as_xyz
  1  'x, y, z'
loop_
 _atom_site_type_symbol
 _atom_site_label
 _atom_site_symmetry_multiplicity
 _atom_site_fract_x
 _atom_site_fract_y
 _atom_site_fract_z
 _atom_site_occupancy
  Ba  Ba0  1  0.48725400  0.50000000  0.81605800  1
  Ba  Ba1  1  0.51274600  0.50000000  0.18394200  1
  Ba  Ba2  1  0.01274600  0.00000000  0.31605800  1
  Ba  Ba3  1  0.98725400  0.00000000  0.68394200  1
  Ba  Ba4  1  0.24772900  0.32049600  0.60400100  1
  Ba  Ba5  1  0.75227100  0.32049600  0.39599900  1
  Ba  Ba6  1  0.25227100  0.17950400  0.10400100  1
  Ba  Ba7  1  0.74772900  0.17950400  0.89599900  1
  Ba  Ba8  1  0.75227100  0.67950400  0.39599900  1
  Ba  Ba9  1  0.24772900  0.67950400  0.60400100  1
  Ba  Ba10  1  0.74772900  0.82049600  0.89599900  1
  Ba  Ba11  1  0.25227100  0.82049600  0.10400100  1
  Ba  Ba12  1  0.01241700  0.50000000  0.81436700  1
  Ba  Ba13  1  0.98758300  0.50000000  0.18563300  1
  Ba  Ba14  1  0.48758300  0.00000000  0.31436700  1
  Ba  Ba15  1  0.51241700  0.00000000  0.68563300  1
  Mo  Mo16  1  0.24509300  0.15916000  0.83925800  1
  Mo  Mo17  1  0.75490700  0.15916000  0.16074200  1
  Mo  Mo18  1  0.25490700  0.34084000  0.33925800  1
  Mo  Mo19  1  0.74509300  0.34084000  0.66074200  1
  Mo  Mo20  1  0.75490700  0.84084000  0.16074200  1
  Mo  Mo21  1  0.24509300  0.84084000  0.83925800  1
  Mo  Mo22  1  0.74509300  0.65916000  0.66074200  1
  Mo  Mo23  1  0.25490700  0.65916000  0.33925800  1
  O  O24  1  0.75212300  0.00000000  0.54899300  1
  O  O25  1  0.24787700  0.00000000  0.45100700  1
  O  O26  1  0.74787700  0.50000000  0.04899300  1
  O  O27  1  0.25212300  0.50000000  0.95100700  1
  O  O28  1  0.04513600  0.14961200  0.82504900  1
  O  O29  1  0.95486400  0.14961200  0.17495100  1
  O  O30  1  0.45486400  0.35038800  0.32504900  1
  O  O31  1  0.54513600  0.35038800  0.67495100  1
  O  O32  1  0.95486400  0.85038800  0.17495100  1
  O  O33  1  0.04513600  0.85038800  0.82504900  1
  O  O34  1  0.54513600  0.64961200  0.67495100  1
  O  O35  1  0.45486400  0.64961200  0.32504900  1
  O  O36  1  0.26584100  0.19119500  0.94166600  1
  O  O37  1  0.73415900  0.19119500  0.05833400  1
  O  O38  1  0.23415900  0.30880500  0.44166600  1
  O  O39  1  0.76584100  0.30880500  0.55833400  1
  O  O40  1  0.73415900  0.80880500  0.05833400  1
  O  O41  1  0.26584100  0.80880500  0.94166600  1
  O  O42  1  0.76584100  0.69119500  0.55833400  1
  O  O43  1  0.23415900  0.69119500  0.44166600  1
  O  O44  1  0.28559000  0.00000000  0.83997500  1
  O  O45  1  0.71441000  0.00000000  0.16002500  1
  O  O46  1  0.21441000  0.50000000  0.33997500  1
  O  O47  1  0.78559000  0.50000000  0.66002500  1
  F  F48  1  0.74798500  0.00000000  0.79544900  1
  F  F49  1  0.25201500  0.00000000  0.20455100  1
  F  F50  1  0.75201500  0.50000000  0.29544900  1
  F  F51  1  0.24798500  0.50000000  0.70455100  1
  F  F52  1  0.25363700  0.32396800  0.80582700  1
  F  F53  1  0.74636300  0.32396800  0.19417300  1
  F  F54  1  0.24636300  0.17603200  0.30582700  1
  F  F55  1  0.75363700  0.17603200  0.69417300  1
  F  F56  1  0.74636300  0.67603200  0.19417300  1
  F  F57  1  0.25363700  0.67603200  0.80582700  1
  F  F58  1  0.75363700  0.82396800  0.69417300  1
  F  F59  1  0.24636300  0.82396800  0.30582700  1
  F  F60  1  0.25027300  0.13041400  0.70266000  1
  F  F61  1  0.74972700  0.13041400  0.29734000  1
  F  F62  1  0.24972700  0.36958600  0.20266000  1
  F  F63  1  0.75027300  0.36958600  0.79734000  1
  F  F64  1  0.74972700  0.86958600  0.29734000  1
  F  F65  1  0.25027300  0.86958600  0.70266000  1
  F  F66  1  0.75027300  0.63041400  0.79734000  1
  F  F67  1  0.24972700  0.63041400  0.20266000  1
  F  F68  1  0.97431500  0.32863800  0.69272200  1
  F  F69  1  0.02568500  0.32863800  0.30727800  1
  F  F70  1  0.52568500  0.17136200  0.19272200  1
  F  F71  1  0.47431500  0.17136200  0.80727800  1
  F  F72  1  0.02568500  0.67136200  0.30727800  1
  F  F73  1  0.97431500  0.67136200  0.69272200  1
  F  F74  1  0.47431500  0.82863800  0.80727800  1
  F  F75  1  0.52568500  0.82863800  0.19272200  1
  F  F76  1  0.45357500  0.14508900  0.55695600  1
  F  F77  1  0.54642500  0.14508900  0.44304400  1
  F  F78  1  0.04642500  0.35491100  0.05695600  1
  F  F79  1  0.95357500  0.35491100  0.94304400  1
  F  F80  1  0.54642500  0.85491100  0.44304400  1
  F  F81  1  0.45357500  0.85491100  0.55695600  1
  F  F82  1  0.95357500  0.64508900  0.94304400  1
  F  F83  1  0.04642500  0.64508900  0.05695600  1
  F  F84  1  0.05222700  0.14034500  0.55513300  1
  F  F85  1  0.94777300  0.14034500  0.44486700  1
  F  F86  1  0.44777300  0.35965500  0.05513300  1
  F  F87  1  0.55222700  0.35965500  0.94486700  1
  F  F88  1  0.94777300  0.85965500  0.44486700  1
  F  F89  1  0.05222700  0.85965500  0.55513300  1
  F  F90  1  0.55222700  0.64034500  0.94486700  1
  F  F91  1  0.44777300  0.64034500  0.05513300  1
  F  F92  1  0.40824400  0.50000000  0.53636800  1
  F  F93  1  0.59175600  0.50000000  0.46363200  1
  F  F94  1  0.09175600  0.00000000  0.03636800  1
  F  F95  1  0.90824400  0.00000000  0.96363200  1
  F  F96  1  0.57056200  0.00000000  0.95142200  1
  F  F97  1  0.42943800  0.00000000  0.04857800  1
  F  F98  1  0.92943800  0.50000000  0.45142200  1
  F  F99  1  0.07056200  0.50000000  0.54857800  1
