# generated using pymatgen
data_Al6CuP4(H4O7)4
_symmetry_space_group_name_H-M   'P 1'
_cell_length_a   7.47170200
_cell_length_b   7.71251551
_cell_length_c   10.06583196
_cell_angle_alpha   68.62193430
_cell_angle_beta   69.28044411
_cell_angle_gamma   65.09063195
_symmetry_Int_Tables_number   1
_chemical_formula_structural   Al6CuP4(H4O7)4
_chemical_formula_sum   'Al6 Cu1 P4 H16 O28'
_cell_volume   475.92183184
_cell_formula_units_Z   1
loop_
 _symmetry_equiv_pos_site_id
 _symmetry_equiv_pos_as_xyz
  1  'x, y, z'
loop_
 _atom_site_type_symbol
 _atom_site_label
 _atom_site_symmetry_multiplicity
 _atom_site_fract_x
 _atom_site_fract_y
 _atom_site_fract_z
 _atom_site_occupancy
  Al  Al0  1  0.71425300  0.82139400  0.24824900  1
  Al  Al1  1  0.28574700  0.17860600  0.75175100  1
  Al  Al2  1  0.24659600  0.81525600  0.72719100  1
  Al  Al3  1  0.75340400  0.18474400  0.27280900  1
  Al  Al4  1  0.75457600  0.49778700  0.75492000  1
  Al  Al5  1  0.24542400  0.50221300  0.24508000  1
  Cu  Cu6  1  0.00000000  0.00000000  0.00000000  1
  P  P7  1  0.65172400  0.61088100  0.05768700  1
  P  P8  1  0.34827600  0.38911900  0.94231300  1
  P  P9  1  0.15920300  0.61197900  0.54423500  1
  P  P10  1  0.84079700  0.38802100  0.45576500  1
  H  H11  1  0.14136100  0.94489500  0.25220600  1
  H  H12  1  0.85863900  0.05510500  0.74779400  1
  H  H13  1  0.85981000  0.83514700  0.83714000  1
  H  H14  1  0.14019000  0.16485300  0.16286000  1
  H  H15  1  0.34762700  0.87842300  0.40943900  1
  H  H16  1  0.65237300  0.12157700  0.59056100  1
  H  H17  1  0.61240700  0.91676400  0.68441200  1
  H  H18  1  0.38759300  0.08323600  0.31558800  1
  H  H19  1  0.85469900  0.83506700  0.43475600  1
  H  H20  1  0.14530100  0.16493300  0.56524400  1
  H  H21  1  0.35099500  0.82037300  0.94833900  1
  H  H22  1  0.64900500  0.17962700  0.05166100  1
  H  H23  1  0.01980900  0.65282200  0.08627800  1
  H  H24  1  0.98019100  0.34717800  0.91372200  1
  H  H25  1  0.58156100  0.72119900  0.56916600  1
  H  H26  1  0.41843900  0.27880100  0.43083400  1
  O  O27  1  0.93375300  0.63625600  0.61862000  1
  O  O28  1  0.06624700  0.36374400  0.38138000  1
  O  O29  1  0.19312600  0.65437100  0.37615300  1
  O  O30  1  0.80687400  0.34562900  0.62384700  1
  O  O31  1  0.72591800  0.64285500  0.88838800  1
  O  O32  1  0.27408200  0.35714500  0.11161200  1
  O  O33  1  0.93758500  0.92674700  0.80350800  1
  O  O34  1  0.06241500  0.07325300  0.19649200  1
  O  O35  1  0.76479600  0.92541200  0.36879500  1
  O  O36  1  0.23520400  0.07458800  0.63120500  1
  O  O37  1  0.26784700  0.91749200  0.87700000  1
  O  O38  1  0.73215300  0.08250800  0.12300000  1
  O  O39  1  0.70119800  0.59694000  0.39401100  1
  O  O40  1  0.29880200  0.40306000  0.60598900  1
  O  O41  1  0.68154200  0.77110800  0.09518700  1
  O  O42  1  0.31845800  0.22889200  0.90481300  1
  O  O43  1  0.01519000  0.71813400  0.15557500  1
  O  O44  1  0.98481000  0.28186600  0.84442500  1
  O  O45  1  0.42230600  0.94541700  0.31331900  1
  O  O46  1  0.57769400  0.05458300  0.68668100  1
  O  O47  1  0.21394900  0.59514500  0.86971600  1
  O  O48  1  0.78605100  0.40485500  0.13028400  1
  O  O49  1  0.53686700  0.71094800  0.67504100  1
  O  O50  1  0.46313300  0.28905200  0.32495900  1
  O  O51  1  0.21523600  0.77062100  0.56752500  1
  O  O52  1  0.78476400  0.22937900  0.43247500  1
  O  O53  1  0.42389000  0.63336100  0.10348600  1
  O  O54  1  0.57611000  0.36663900  0.89651400  1
