# generated using pymatgen
data_Ca2CuAs2(H2O5)2
_symmetry_space_group_name_H-M   'P 1'
_cell_length_a   12.85515100
_cell_length_b   5.88120900
_cell_length_c   6.02009104
_cell_angle_alpha   68.81142093
_cell_angle_beta   90.00000000
_cell_angle_gamma   90.00000000
_symmetry_Int_Tables_number   1
_chemical_formula_structural   Ca2CuAs2(H2O5)2
_chemical_formula_sum   'Ca4 Cu2 As4 H8 O20'
_cell_volume   424.37246164
_cell_formula_units_Z   2
loop_
 _symmetry_equiv_pos_site_id
 _symmetry_equiv_pos_as_xyz
  1  'x, y, z'
loop_
 _atom_site_type_symbol
 _atom_site_label
 _atom_site_symmetry_multiplicity
 _atom_site_fract_x
 _atom_site_fract_y
 _atom_site_fract_z
 _atom_site_occupancy
  Ca  Ca0  1  0.62211000  0.28049600  0.56437500  1
  Ca  Ca1  1  0.12211000  0.21950400  0.43562500  1
  Ca  Ca2  1  0.37789000  0.71950400  0.43562500  1
  Ca  Ca3  1  0.87789000  0.78049600  0.56437500  1
  Cu  Cu4  1  0.50000000  0.50000000  0.00000000  1
  Cu  Cu5  1  0.00000000  0.00000000  0.00000000  1
  As  As6  1  0.62232300  0.95319900  0.22808800  1
  As  As7  1  0.12232300  0.54680100  0.77191200  1
  As  As8  1  0.37767700  0.04680100  0.77191200  1
  As  As9  1  0.87767700  0.45319900  0.22808800  1
  H  H10  1  0.64246600  0.70186100  0.70235300  1
  H  H11  1  0.14246600  0.79813900  0.29764700  1
  H  H12  1  0.35753400  0.29813900  0.29764700  1
  H  H13  1  0.85753400  0.20186100  0.70235300  1
  H  H14  1  0.70621600  0.50929500  0.91047200  1
  H  H15  1  0.20621600  0.99070500  0.08952800  1
  H  H16  1  0.29378400  0.49070500  0.08952800  1
  H  H17  1  0.79378400  0.00929500  0.91047200  1
  O  O18  1  0.53806300  0.18336600  0.23884000  1
  O  O19  1  0.03806300  0.31663400  0.76116000  1
  O  O20  1  0.46193700  0.81663400  0.76116000  1
  O  O21  1  0.96193700  0.68336600  0.23884000  1
  O  O22  1  0.55321900  0.68592600  0.30906800  1
  O  O23  1  0.05321900  0.81407400  0.69093200  1
  O  O24  1  0.44678100  0.31407400  0.69093200  1
  O  O25  1  0.94678100  0.18592600  0.30906800  1
  O  O26  1  0.67837000  0.01757600  0.95479200  1
  O  O27  1  0.17837000  0.48242400  0.04520800  1
  O  O28  1  0.32163000  0.98242400  0.04520800  1
  O  O29  1  0.82163000  0.51757600  0.95479200  1
  O  O30  1  0.70679000  0.94318100  0.45528700  1
  O  O31  1  0.20679000  0.55681900  0.54471300  1
  O  O32  1  0.29321000  0.05681900  0.54471300  1
  O  O33  1  0.79321000  0.44318100  0.45528700  1
  O  O34  1  0.63547200  0.53333900  0.82208600  1
  O  O35  1  0.13547200  0.96666100  0.17791400  1
  O  O36  1  0.36452800  0.46666100  0.17791400  1
  O  O37  1  0.86452800  0.03333900  0.82208600  1
