# generated using pymatgen
data_Mg30CrFeO32
_symmetry_space_group_name_H-M   'P 1'
_cell_length_a   8.57741200
_cell_length_b   8.57741200
_cell_length_c   8.49862600
_cell_angle_alpha   90.00000000
_cell_angle_beta   90.00000000
_cell_angle_gamma   90.00000000
_symmetry_Int_Tables_number   1
_chemical_formula_structural   Mg30CrFeO32
_chemical_formula_sum   'Mg30 Cr1 Fe1 O32'
_cell_volume   625.26088333
_cell_formula_units_Z   1
loop_
 _symmetry_equiv_pos_site_id
 _symmetry_equiv_pos_as_xyz
  1  'x, y, z'
loop_
 _atom_site_type_symbol
 _atom_site_label
 _atom_site_symmetry_multiplicity
 _atom_site_fract_x
 _atom_site_fract_y
 _atom_site_fract_z
 _atom_site_occupancy
  Mg  Mg0  1  0.50000000  0.00000000  0.00000000  1
  Mg  Mg1  1  0.00000000  0.50000000  0.00000000  1
  Mg  Mg2  1  0.00000000  0.00000000  0.50000000  1
  Mg  Mg3  1  0.50000000  0.00000000  0.50000000  1
  Mg  Mg4  1  0.00000000  0.50000000  0.50000000  1
  Mg  Mg5  1  0.50000000  0.50000000  0.50000000  1
  Mg  Mg6  1  0.24904300  0.24904300  0.00000000  1
  Mg  Mg7  1  0.75095700  0.24904300  0.00000000  1
  Mg  Mg8  1  0.24904300  0.75095700  0.00000000  1
  Mg  Mg9  1  0.75095700  0.75095700  0.00000000  1
  Mg  Mg10  1  0.24978500  0.24978500  0.50000000  1
  Mg  Mg11  1  0.75021500  0.24978500  0.50000000  1
  Mg  Mg12  1  0.24978500  0.75021500  0.50000000  1
  Mg  Mg13  1  0.75021500  0.75021500  0.50000000  1
  Mg  Mg14  1  0.25088200  0.00000000  0.24967300  1
  Mg  Mg15  1  0.74911800  0.00000000  0.24967300  1
  Mg  Mg16  1  0.24827300  0.50000000  0.24943100  1
  Mg  Mg17  1  0.75172700  0.50000000  0.24943100  1
  Mg  Mg18  1  0.25088200  0.00000000  0.75032700  1
  Mg  Mg19  1  0.74911800  0.00000000  0.75032700  1
  Mg  Mg20  1  0.24827300  0.50000000  0.75056900  1
  Mg  Mg21  1  0.75172700  0.50000000  0.75056900  1
  Mg  Mg22  1  0.00000000  0.25088200  0.24967300  1
  Mg  Mg23  1  0.50000000  0.24827300  0.24943100  1
  Mg  Mg24  1  0.00000000  0.74911800  0.24967300  1
  Mg  Mg25  1  0.50000000  0.75172700  0.24943100  1
  Mg  Mg26  1  0.00000000  0.25088200  0.75032700  1
  Mg  Mg27  1  0.50000000  0.24827300  0.75056900  1
  Mg  Mg28  1  0.00000000  0.74911800  0.75032700  1
  Mg  Mg29  1  0.50000000  0.75172700  0.75056900  1
  Cr  Cr30  1  0.50000000  0.50000000  0.00000000  1
  Fe  Fe31  1  0.00000000  0.00000000  0.00000000  1
  O  O32  1  0.00000000  0.00000000  0.25099700  1
  O  O33  1  0.50000000  0.00000000  0.25233500  1
  O  O34  1  0.00000000  0.50000000  0.25233500  1
  O  O35  1  0.50000000  0.50000000  0.24857300  1
  O  O36  1  0.00000000  0.00000000  0.74900300  1
  O  O37  1  0.50000000  0.00000000  0.74766500  1
  O  O38  1  0.00000000  0.50000000  0.74766500  1
  O  O39  1  0.50000000  0.50000000  0.75142700  1
  O  O40  1  0.24986600  0.24986600  0.24995900  1
  O  O41  1  0.75013400  0.24986600  0.24995900  1
  O  O42  1  0.24986600  0.75013400  0.24995900  1
  O  O43  1  0.75013400  0.75013400  0.24995900  1
  O  O44  1  0.24986600  0.24986600  0.75004100  1
  O  O45  1  0.75013400  0.24986600  0.75004100  1
  O  O46  1  0.24986600  0.75013400  0.75004100  1
  O  O47  1  0.75013400  0.75013400  0.75004100  1
  O  O48  1  0.25471000  0.00000000  0.00000000  1
  O  O49  1  0.74529000  0.00000000  0.00000000  1
  O  O50  1  0.24125600  0.50000000  0.00000000  1
  O  O51  1  0.75874400  0.50000000  0.00000000  1
  O  O52  1  0.24945700  0.00000000  0.50000000  1
  O  O53  1  0.75054300  0.00000000  0.50000000  1
  O  O54  1  0.25082000  0.50000000  0.50000000  1
  O  O55  1  0.74918000  0.50000000  0.50000000  1
  O  O56  1  0.00000000  0.25471000  0.00000000  1
  O  O57  1  0.50000000  0.24125600  0.00000000  1
  O  O58  1  0.00000000  0.74529000  0.00000000  1
  O  O59  1  0.50000000  0.75874400  0.00000000  1
  O  O60  1  0.00000000  0.24945700  0.50000000  1
  O  O61  1  0.50000000  0.25082000  0.50000000  1
  O  O62  1  0.00000000  0.75054300  0.50000000  1
  O  O63  1  0.50000000  0.74918000  0.50000000  1
