# generated using pymatgen
data_VPPbO7
_symmetry_space_group_name_H-M   'P 1'
_cell_length_a   10.10769000
_cell_length_b   10.14136100
_cell_length_c   10.56421692
_cell_angle_alpha   86.99533689
_cell_angle_beta   90.00000000
_cell_angle_gamma   90.00000000
_symmetry_Int_Tables_number   1
_chemical_formula_structural   VPPbO7
_chemical_formula_sum   'V8 P8 Pb8 O56'
_cell_volume   1081.40411815
_cell_formula_units_Z   8
loop_
 _symmetry_equiv_pos_site_id
 _symmetry_equiv_pos_as_xyz
  1  'x, y, z'
loop_
 _atom_site_type_symbol
 _atom_site_label
 _atom_site_symmetry_multiplicity
 _atom_site_fract_x
 _atom_site_fract_y
 _atom_site_fract_z
 _atom_site_occupancy
  V  V0  1  0.38023100  0.71903800  0.53200000  1
  V  V1  1  0.88023100  0.78096200  0.46800000  1
  V  V2  1  0.61976900  0.28096200  0.46800000  1
  V  V3  1  0.11976900  0.21903800  0.53200000  1
  V  V4  1  0.08580700  0.71077600  0.03497400  1
  V  V5  1  0.58580700  0.78922400  0.96502600  1
  V  V6  1  0.91419300  0.28922400  0.96502600  1
  V  V7  1  0.41419300  0.21077600  0.03497400  1
  P  P8  1  0.15806300  0.78382200  0.33171500  1
  P  P9  1  0.65806300  0.71617800  0.66828500  1
  P  P10  1  0.84193700  0.21617800  0.66828500  1
  P  P11  1  0.34193700  0.28382200  0.33171500  1
  P  P12  1  0.29870200  0.91538700  0.93534200  1
  P  P13  1  0.79870200  0.58461300  0.06465800  1
  P  P14  1  0.70129800  0.08461300  0.06465800  1
  P  P15  1  0.20129800  0.41538700  0.93534200  1
  Pb  Pb16  1  0.91345100  0.92831900  0.83277400  1
  Pb  Pb17  1  0.41345100  0.57168100  0.16722600  1
  Pb  Pb18  1  0.08654900  0.07168100  0.16722600  1
  Pb  Pb19  1  0.58654900  0.42831900  0.83277400  1
  Pb  Pb20  1  0.49427200  0.94091400  0.31223300  1
  Pb  Pb21  1  0.99427200  0.55908600  0.68776700  1
  Pb  Pb22  1  0.50572800  0.05908600  0.68776700  1
  Pb  Pb23  1  0.00572800  0.44091400  0.31223300  1
  O  O24  1  0.40471100  0.88473100  0.54441500  1
  O  O25  1  0.90471100  0.61526900  0.45558500  1
  O  O26  1  0.59528900  0.11526900  0.45558500  1
  O  O27  1  0.09528900  0.38473100  0.54441500  1
  O  O28  1  0.45027100  0.69779500  0.38691300  1
  O  O29  1  0.95027100  0.80220500  0.61308700  1
  O  O30  1  0.54972900  0.30220500  0.61308700  1
  O  O31  1  0.04972900  0.19779500  0.38691300  1
  O  O32  1  0.51421400  0.66034700  0.65166400  1
  O  O33  1  0.01421400  0.83965300  0.34833600  1
  O  O34  1  0.48578600  0.33965300  0.34833600  1
  O  O35  1  0.98578600  0.16034700  0.65166400  1
  O  O36  1  0.20097600  0.71970000  0.46307500  1
  O  O37  1  0.70097600  0.78030000  0.53692500  1
  O  O38  1  0.79902400  0.28030000  0.53692500  1
  O  O39  1  0.29902400  0.21970000  0.46307500  1
  O  O40  1  0.33004400  0.51904000  0.56548300  1
  O  O41  1  0.83004400  0.98096000  0.43451700  1
  O  O42  1  0.66995600  0.48096000  0.43451700  1
  O  O43  1  0.16995600  0.01904000  0.56548300  1
  O  O44  1  0.24594900  0.66394100  0.67774000  1
  O  O45  1  0.74594900  0.83605900  0.32226000  1
  O  O46  1  0.75405100  0.33605900  0.32226000  1
  O  O47  1  0.25405100  0.16394100  0.67774000  1
  O  O48  1  0.02448700  0.86262000  0.06016700  1
  O  O49  1  0.52448700  0.63738000  0.93983300  1
  O  O50  1  0.97551300  0.13738000  0.93983300  1
  O  O51  1  0.47551300  0.36262000  0.06016700  1
  O  O52  1  0.03222700  0.69300000  0.88586100  1
  O  O53  1  0.53222700  0.80700000  0.11413900  1
  O  O54  1  0.96777300  0.30700000  0.11413900  1
  O  O55  1  0.46777300  0.19300000  0.88586100  1
  O  O56  1  0.26296500  0.77860100  0.00193000  1
  O  O57  1  0.76296500  0.72139900  0.99807000  1
  O  O58  1  0.73703500  0.22139900  0.99807000  1
  O  O59  1  0.23703500  0.27860100  0.00193000  1
  O  O60  1  0.94212700  0.60116800  0.11761400  1
  O  O61  1  0.44212700  0.89883200  0.88238600  1
  O  O62  1  0.05787300  0.39883200  0.88238600  1
  O  O63  1  0.55787300  0.10116800  0.11761400  1
  O  O64  1  0.20002000  0.52443400  0.03349600  1
  O  O65  1  0.70002000  0.97556600  0.96650400  1
  O  O66  1  0.79998000  0.47556600  0.96650400  1
  O  O67  1  0.29998000  0.02443400  0.03349600  1
  O  O68  1  0.24445900  0.90215100  0.28774300  1
  O  O69  1  0.74445900  0.59784900  0.71225700  1
  O  O70  1  0.75554100  0.09784900  0.71225700  1
  O  O71  1  0.25554100  0.40215100  0.28774300  1
  O  O72  1  0.15784700  0.67489200  0.23376600  1
  O  O73  1  0.65784700  0.82510800  0.76623400  1
  O  O74  1  0.84215300  0.32510800  0.76623400  1
  O  O75  1  0.34215300  0.17489200  0.23376600  1
  O  O76  1  0.20206200  0.95512100  0.82872700  1
  O  O77  1  0.70206200  0.54487900  0.17127300  1
  O  O78  1  0.79793800  0.04487900  0.17127300  1
  O  O79  1  0.29793800  0.45512100  0.82872700  1
