# generated using pymatgen
data_Th2P3O13
_symmetry_space_group_name_H-M   'P 1'
_cell_length_a   7.11264300
_cell_length_b   6.78678700
_cell_length_c   11.32521168
_cell_angle_alpha   73.00858832
_cell_angle_beta   90.00000000
_cell_angle_gamma   90.00000000
_symmetry_Int_Tables_number   1
_chemical_formula_structural   Th2P3O13
_chemical_formula_sum   'Th4 P6 O26'
_cell_volume   522.82671590
_cell_formula_units_Z   2
loop_
 _symmetry_equiv_pos_site_id
 _symmetry_equiv_pos_as_xyz
  1  'x, y, z'
loop_
 _atom_site_type_symbol
 _atom_site_label
 _atom_site_symmetry_multiplicity
 _atom_site_fract_x
 _atom_site_fract_y
 _atom_site_fract_z
 _atom_site_occupancy
  Th  Th0  1  0.83148200  0.29822900  0.72043400  1
  Th  Th1  1  0.33148200  0.70177100  0.27956600  1
  Th  Th2  1  0.83047700  0.99922400  0.28300200  1
  Th  Th3  1  0.33047700  0.00077600  0.71699800  1
  P  P4  1  0.82900500  0.49356800  0.37037900  1
  P  P5  1  0.32900500  0.50643200  0.62962100  1
  P  P6  1  0.05860400  0.83985900  0.01408200  1
  P  P7  1  0.55860400  0.16014100  0.98591800  1
  P  P8  1  0.83391700  0.87216100  0.63388300  1
  P  P9  1  0.33391700  0.12783900  0.36611700  1
  O  O10  1  0.81793900  0.31766200  0.31213600  1
  O  O11  1  0.31793900  0.68233800  0.68786400  1
  O  O12  1  0.66385500  0.64944400  0.32115600  1
  O  O13  1  0.16385500  0.35055600  0.67884400  1
  O  O14  1  0.82516000  0.40975300  0.51185100  1
  O  O15  1  0.32516000  0.59024700  0.48814900  1
  O  O16  1  0.00603500  0.63143000  0.32779900  1
  O  O17  1  0.50603500  0.36857000  0.67220100  1
  O  O18  1  0.09205700  0.00506400  0.88785400  1
  O  O19  1  0.59205700  0.99493600  0.11214600  1
  O  O20  1  0.90396700  0.70828400  0.97948700  1
  O  O21  1  0.40396700  0.29171600  0.02051300  1
  O  O22  1  0.24017900  0.72058000  0.06895300  1
  O  O23  1  0.74017900  0.27942000  0.93104700  1
  O  O24  1  0.99566100  0.94081100  0.11373600  1
  O  O25  1  0.49566100  0.05918900  0.88626400  1
  O  O26  1  0.82929900  0.89762500  0.49523900  1
  O  O27  1  0.32929900  0.10237500  0.50476100  1
  O  O28  1  0.66327800  0.98161900  0.67621000  1
  O  O29  1  0.16327800  0.01838100  0.32379000  1
  O  O30  1  0.84455400  0.64147300  0.70588200  1
  O  O31  1  0.34455400  0.35852700  0.29411800  1
  O  O32  1  0.00026900  0.99752900  0.66578200  1
  O  O33  1  0.50026900  0.00247100  0.33421800  1
  O  O34  1  0.45356100  0.71473900  0.90767800  1
  O  O35  1  0.95356100  0.28526100  0.09232200  1
