# generated using pymatgen
data_TlHg6Se4Br5
_symmetry_space_group_name_H-M   'P 1'
_cell_length_a   11.49107599
_cell_length_b   11.49107599
_cell_length_c   11.49107599
_cell_angle_alpha   99.00237200
_cell_angle_beta   99.00237200
_cell_angle_gamma   133.39698617
_symmetry_Int_Tables_number   1
_chemical_formula_structural   TlHg6Se4Br5
_chemical_formula_sum   'Tl2 Hg12 Se8 Br10'
_cell_volume   1012.58813257
_cell_formula_units_Z   2
loop_
 _symmetry_equiv_pos_site_id
 _symmetry_equiv_pos_as_xyz
  1  'x, y, z'
loop_
 _atom_site_type_symbol
 _atom_site_label
 _atom_site_symmetry_multiplicity
 _atom_site_fract_x
 _atom_site_fract_y
 _atom_site_fract_z
 _atom_site_occupancy
  Tl  Tl0  1  0.75000000  0.25000000  0.50000000  1
  Tl  Tl1  1  0.25000000  0.75000000  0.50000000  1
  Hg  Hg2  1  0.22279100  0.08583500  0.78421500  1
  Hg  Hg3  1  0.30162000  0.43857600  0.21578500  1
  Hg  Hg4  1  0.43857600  0.22279100  0.13695600  1
  Hg  Hg5  1  0.08583500  0.30162000  0.86304400  1
  Hg  Hg6  1  0.77720900  0.91416500  0.21578500  1
  Hg  Hg7  1  0.69838000  0.56142400  0.78421500  1
  Hg  Hg8  1  0.56142400  0.77720900  0.86304400  1
  Hg  Hg9  1  0.91416500  0.69838000  0.13695600  1
  Hg  Hg10  1  0.76052000  0.86365600  0.62417600  1
  Hg  Hg11  1  0.23948000  0.13634400  0.37582400  1
  Hg  Hg12  1  0.13634400  0.76052000  0.89686400  1
  Hg  Hg13  1  0.86365600  0.23948000  0.10313600  1
  Se  Se14  1  0.07274200  0.14670700  0.66582300  1
  Se  Se15  1  0.48088400  0.40692000  0.33417700  1
  Se  Se16  1  0.40692000  0.07274200  0.92603600  1
  Se  Se17  1  0.14670700  0.48088400  0.07396400  1
  Se  Se18  1  0.92725800  0.85329300  0.33417700  1
  Se  Se19  1  0.51911600  0.59308000  0.66582300  1
  Se  Se20  1  0.59308000  0.92725800  0.07396400  1
  Se  Se21  1  0.85329300  0.51911600  0.92603600  1
  Br  Br22  1  0.50000000  0.50000000  0.00000000  1
  Br  Br23  1  0.00000000  0.00000000  0.00000000  1
  Br  Br24  1  0.56993400  0.83153000  0.40146300  1
  Br  Br25  1  0.43006600  0.16847000  0.59853700  1
  Br  Br26  1  0.16847000  0.56993400  0.73840400  1
  Br  Br27  1  0.83153000  0.43006600  0.26159600  1
  Br  Br28  1  0.93312800  0.68754300  0.62067100  1
  Br  Br29  1  0.06687200  0.31245700  0.37932900  1
  Br  Br30  1  0.31245700  0.93312800  0.24558500  1
  Br  Br31  1  0.68754300  0.06687200  0.75441500  1
