# generated using pymatgen
data_ThH4(C2O5)2
_symmetry_space_group_name_H-M   'P 1'
_cell_length_a   6.92665834
_cell_length_b   6.92665834
_cell_length_c   9.73524480
_cell_angle_alpha   89.85650937
_cell_angle_beta   89.85650937
_cell_angle_gamma   76.93881137
_symmetry_Int_Tables_number   1
_chemical_formula_structural   ThH4(C2O5)2
_chemical_formula_sum   'Th2 H8 C8 O20'
_cell_volume   454.99726140
_cell_formula_units_Z   2
loop_
 _symmetry_equiv_pos_site_id
 _symmetry_equiv_pos_as_xyz
  1  'x, y, z'
loop_
 _atom_site_type_symbol
 _atom_site_label
 _atom_site_symmetry_multiplicity
 _atom_site_fract_x
 _atom_site_fract_y
 _atom_site_fract_z
 _atom_site_occupancy
  Th  Th0  1  0.75328000  0.24672000  0.25000000  1
  Th  Th1  1  0.24672000  0.75328000  0.75000000  1
  H  H2  1  0.36261100  0.08468400  0.21197700  1
  H  H3  1  0.91531600  0.63738900  0.28802300  1
  H  H4  1  0.63738900  0.91531600  0.78802300  1
  H  H5  1  0.08468400  0.36261100  0.71197700  1
  H  H6  1  0.48431000  0.92140200  0.31567800  1
  H  H7  1  0.07859800  0.51569000  0.18432200  1
  H  H8  1  0.51569000  0.07859800  0.68432200  1
  H  H9  1  0.92140200  0.48431000  0.81567800  1
  C  C10  1  0.90427900  0.97209000  0.97526900  1
  C  C11  1  0.02791000  0.09572100  0.52473100  1
  C  C12  1  0.09572100  0.02791000  0.02473100  1
  C  C13  1  0.97209000  0.90427900  0.47526900  1
  C  C14  1  0.40399800  0.49570600  0.03802400  1
  C  C15  1  0.50429400  0.59600200  0.46197600  1
  C  C16  1  0.59600200  0.50429400  0.96197600  1
  C  C17  1  0.49570600  0.40399800  0.53802400  1
  O  O18  1  0.48718600  0.04151700  0.26299800  1
  O  O19  1  0.95848300  0.51281400  0.23700200  1
  O  O20  1  0.51281400  0.95848300  0.73700200  1
  O  O21  1  0.04151700  0.48718600  0.76299800  1
  O  O22  1  0.42255200  0.39886300  0.15020600  1
  O  O23  1  0.60113700  0.57744800  0.34979400  1
  O  O24  1  0.57744800  0.60113700  0.84979400  1
  O  O25  1  0.39886300  0.42255200  0.65020600  1
  O  O26  1  0.75684900  0.41495600  0.01530900  1
  O  O27  1  0.58504400  0.24315100  0.48469100  1
  O  O28  1  0.24315100  0.58504400  0.98469100  1
  O  O29  1  0.41495600  0.75684900  0.51530900  1
  O  O30  1  0.08714900  0.11449700  0.14105700  1
  O  O31  1  0.88550300  0.91285100  0.35894300  1
  O  O32  1  0.91285100  0.88550300  0.85894300  1
  O  O33  1  0.11449700  0.08714900  0.64105700  1
  O  O34  1  0.75527400  0.01627100  0.05227600  1
  O  O35  1  0.98372900  0.24472600  0.44772400  1
  O  O36  1  0.24472600  0.98372900  0.94772400  1
  O  O37  1  0.01627100  0.75527400  0.55227600  1
