# generated using pymatgen
data_B(HO)2
_symmetry_space_group_name_H-M   'P 1'
_cell_length_a   7.80892876
_cell_length_b   8.16435654
_cell_length_c   7.70117000
_cell_angle_alpha   90.00000000
_cell_angle_beta   90.00000000
_cell_angle_gamma   122.59037459
_symmetry_Int_Tables_number   1
_chemical_formula_structural   B(HO)2
_chemical_formula_sum   'B8 H16 O16'
_cell_volume   413.67774224
_cell_formula_units_Z   8
loop_
 _symmetry_equiv_pos_site_id
 _symmetry_equiv_pos_as_xyz
  1  'x, y, z'
loop_
 _atom_site_type_symbol
 _atom_site_label
 _atom_site_symmetry_multiplicity
 _atom_site_fract_x
 _atom_site_fract_y
 _atom_site_fract_z
 _atom_site_occupancy
  B  B0  1  0.58527900  0.58210200  0.57360200  1
  B  B1  1  0.91472100  0.41789800  0.07360200  1
  B  B2  1  0.41472100  0.41789800  0.42639800  1
  B  B3  1  0.08527900  0.58210200  0.92639800  1
  B  B4  1  0.57290000  0.07468200  0.58343200  1
  B  B5  1  0.92710000  0.92531800  0.08343200  1
  B  B6  1  0.42710000  0.92531800  0.41656800  1
  B  B7  1  0.07290000  0.07468200  0.91656800  1
  H  H8  1  0.79219900  0.29169600  0.43626900  1
  H  H9  1  0.70780100  0.70830400  0.93626900  1
  H  H10  1  0.20780100  0.70830400  0.56373100  1
  H  H11  1  0.29219900  0.29169600  0.06373100  1
  H  H12  1  0.43878700  0.43520100  0.79121200  1
  H  H13  1  0.06121300  0.56479900  0.29121200  1
  H  H14  1  0.56121300  0.56479900  0.20878800  1
  H  H15  1  0.93878700  0.43520100  0.70878800  1
  H  H16  1  0.84328800  0.83778900  0.61357800  1
  H  H17  1  0.65671200  0.16221100  0.11357800  1
  H  H18  1  0.15671200  0.16221100  0.38642200  1
  H  H19  1  0.34328800  0.83778900  0.88642200  1
  H  H20  1  0.61031200  0.11645500  0.83994600  1
  H  H21  1  0.88968800  0.88354500  0.33994600  1
  H  H22  1  0.38968800  0.88354500  0.16005400  1
  H  H23  1  0.11031200  0.11645500  0.66005400  1
  O  O24  1  0.56260900  0.55687100  0.75028000  1
  O  O25  1  0.93739100  0.44312900  0.25028000  1
  O  O26  1  0.43739100  0.44312900  0.24972000  1
  O  O27  1  0.06260900  0.55687100  0.74972000  1
  O  O28  1  0.75621500  0.75258100  0.51658400  1
  O  O29  1  0.74378500  0.24741900  0.01658400  1
  O  O30  1  0.24378500  0.24741900  0.48341600  1
  O  O31  1  0.25621500  0.75258100  0.98341600  1
  O  O32  1  0.74996900  0.25243400  0.55873200  1
  O  O33  1  0.75003100  0.74756600  0.05873200  1
  O  O34  1  0.25003100  0.74756600  0.44126800  1
  O  O35  1  0.24996900  0.25243400  0.94126800  1
  O  O36  1  0.51414700  0.01933200  0.75343200  1
  O  O37  1  0.98585300  0.98066800  0.25343200  1
  O  O38  1  0.48585300  0.98066800  0.24656800  1
  O  O39  1  0.01414700  0.01933200  0.74656800  1
