# generated using pymatgen
data_Lu2Si2O7
_symmetry_space_group_name_H-M   'P 1'
_cell_length_a   6.59326700
_cell_length_b   6.59326700
_cell_length_c   12.02407100
_cell_angle_alpha   90.00000000
_cell_angle_beta   90.00000000
_cell_angle_gamma   90.00000000
_symmetry_Int_Tables_number   1
_chemical_formula_structural   Lu2Si2O7
_chemical_formula_sum   'Lu8 Si8 O28'
_cell_volume   522.70043133
_cell_formula_units_Z   4
loop_
 _symmetry_equiv_pos_site_id
 _symmetry_equiv_pos_as_xyz
  1  'x, y, z'
loop_
 _atom_site_type_symbol
 _atom_site_label
 _atom_site_symmetry_multiplicity
 _atom_site_fract_x
 _atom_site_fract_y
 _atom_site_fract_z
 _atom_site_occupancy
  Lu  Lu0  1  0.14831700  0.37678000  0.11641400  1
  Lu  Lu1  1  0.85168300  0.62322000  0.61641400  1
  Lu  Lu2  1  0.87678000  0.35168300  0.36641400  1
  Lu  Lu3  1  0.12322000  0.64831700  0.86641400  1
  Lu  Lu4  1  0.62322000  0.85168300  0.38358600  1
  Lu  Lu5  1  0.37678000  0.14831700  0.88358600  1
  Lu  Lu6  1  0.35168300  0.87678000  0.63358600  1
  Lu  Lu7  1  0.64831700  0.12322000  0.13358600  1
  Si  Si8  1  0.15354900  0.90263100  0.12190900  1
  Si  Si9  1  0.84645100  0.09736900  0.62190900  1
  Si  Si10  1  0.40263100  0.34645100  0.37190900  1
  Si  Si11  1  0.59736900  0.65354900  0.87190900  1
  Si  Si12  1  0.09736900  0.84645100  0.37809100  1
  Si  Si13  1  0.90263100  0.15354900  0.87809100  1
  Si  Si14  1  0.34645100  0.40263100  0.62809100  1
  Si  Si15  1  0.65354900  0.59736900  0.12809100  1
  O  O16  1  0.33698700  0.05411000  0.07276500  1
  O  O17  1  0.66301300  0.94589000  0.57276500  1
  O  O18  1  0.55411000  0.16301300  0.32276500  1
  O  O19  1  0.44589000  0.83698700  0.82276500  1
  O  O20  1  0.94589000  0.66301300  0.42723500  1
  O  O21  1  0.05411000  0.33698700  0.92723500  1
  O  O22  1  0.16301300  0.55411000  0.67723500  1
  O  O23  1  0.83698700  0.44589000  0.17723500  1
  O  O24  1  0.97166100  0.07127000  0.12580600  1
  O  O25  1  0.02833900  0.92873000  0.62580600  1
  O  O26  1  0.57127000  0.52833900  0.37580600  1
  O  O27  1  0.42873000  0.47166100  0.87580600  1
  O  O28  1  0.92873000  0.02833900  0.37419400  1
  O  O29  1  0.07127000  0.97166100  0.87419400  1
  O  O30  1  0.52833900  0.57127000  0.62419400  1
  O  O31  1  0.47166100  0.42873000  0.12419400  1
  O  O32  1  0.13795500  0.69431400  0.04789400  1
  O  O33  1  0.86204500  0.30568600  0.54789400  1
  O  O34  1  0.19431400  0.36204500  0.29789400  1
  O  O35  1  0.80568600  0.63795500  0.79789400  1
  O  O36  1  0.30568600  0.86204500  0.45210600  1
  O  O37  1  0.69431400  0.13795500  0.95210600  1
  O  O38  1  0.36204500  0.19431400  0.70210600  1
  O  O39  1  0.63795500  0.80568600  0.20210600  1
  O  O40  1  0.18486400  0.81513600  0.25000000  1
  O  O41  1  0.81513600  0.18486400  0.75000000  1
  O  O42  1  0.31513600  0.31513600  0.50000000  1
  O  O43  1  0.68486400  0.68486400  0.00000000  1
