# generated using pymatgen
data_KFe4(PO4)3
_symmetry_space_group_name_H-M   'P 1'
_cell_length_a   6.35114000
_cell_length_b   9.93671000
_cell_length_c   16.72077300
_cell_angle_alpha   90.00000000
_cell_angle_beta   90.00000000
_cell_angle_gamma   90.00000000
_symmetry_Int_Tables_number   1
_chemical_formula_structural   KFe4(PO4)3
_chemical_formula_sum   'K4 Fe16 P12 O48'
_cell_volume   1055.23855936
_cell_formula_units_Z   4
loop_
 _symmetry_equiv_pos_site_id
 _symmetry_equiv_pos_as_xyz
  1  'x, y, z'
loop_
 _atom_site_type_symbol
 _atom_site_label
 _atom_site_symmetry_multiplicity
 _atom_site_fract_x
 _atom_site_fract_y
 _atom_site_fract_z
 _atom_site_occupancy
  K  K0  1  0.00000000  0.29106300  0.46833900  1
  K  K1  1  0.00000000  0.70893700  0.53166100  1
  K  K2  1  0.50000000  0.79106300  0.03166100  1
  K  K3  1  0.50000000  0.20893700  0.96833900  1
  Fe  Fe4  1  0.50000000  0.03830100  0.40561600  1
  Fe  Fe5  1  0.50000000  0.96169900  0.59438400  1
  Fe  Fe6  1  0.00000000  0.53830100  0.09438400  1
  Fe  Fe7  1  0.00000000  0.46169900  0.90561600  1
  Fe  Fe8  1  0.50000000  0.48284600  0.36243800  1
  Fe  Fe9  1  0.50000000  0.51715400  0.63756200  1
  Fe  Fe10  1  0.00000000  0.98284600  0.13756200  1
  Fe  Fe11  1  0.00000000  0.01715400  0.86243800  1
  Fe  Fe12  1  0.24908300  0.75044500  0.29585700  1
  Fe  Fe13  1  0.24908300  0.24955500  0.70414300  1
  Fe  Fe14  1  0.25091700  0.25044500  0.20414300  1
  Fe  Fe15  1  0.25091700  0.74955500  0.79585700  1
  Fe  Fe16  1  0.75091700  0.24955500  0.70414300  1
  Fe  Fe17  1  0.75091700  0.75044500  0.29585700  1
  Fe  Fe18  1  0.74908300  0.74955500  0.79585700  1
  Fe  Fe19  1  0.74908300  0.25044500  0.20414300  1
  P  P20  1  0.00000000  0.04239800  0.33392200  1
  P  P21  1  0.00000000  0.95760200  0.66607800  1
  P  P22  1  0.50000000  0.54239800  0.16607800  1
  P  P23  1  0.50000000  0.45760200  0.83392200  1
  P  P24  1  0.00000000  0.45902300  0.28471000  1
  P  P25  1  0.00000000  0.54097700  0.71529000  1
  P  P26  1  0.50000000  0.95902300  0.21529000  1
  P  P27  1  0.50000000  0.04097700  0.78471000  1
  P  P28  1  0.50000000  0.71299600  0.46260400  1
  P  P29  1  0.50000000  0.28700400  0.53739600  1
  P  P30  1  0.00000000  0.21299600  0.03739600  1
  P  P31  1  0.00000000  0.78700400  0.96260400  1
  O  O32  1  0.00000000  0.88691500  0.31994500  1
  O  O33  1  0.00000000  0.11308500  0.68005500  1
  O  O34  1  0.50000000  0.38691500  0.18005500  1
  O  O35  1  0.50000000  0.61308500  0.81994500  1
  O  O36  1  0.00000000  0.61492300  0.27742600  1
  O  O37  1  0.00000000  0.38507700  0.72257400  1
  O  O38  1  0.50000000  0.11492300  0.22257400  1
  O  O39  1  0.50000000  0.88507700  0.77742600  1
  O  O40  1  0.19777100  0.08710400  0.37921400  1
  O  O41  1  0.19777100  0.91289600  0.62078600  1
  O  O42  1  0.30222900  0.58710400  0.12078600  1
  O  O43  1  0.30222900  0.41289600  0.87921400  1
  O  O44  1  0.80222900  0.91289600  0.62078600  1
  O  O45  1  0.80222900  0.08710400  0.37921400  1
  O  O46  1  0.69777100  0.41289600  0.87921400  1
  O  O47  1  0.69777100  0.58710400  0.12078600  1
  O  O48  1  0.50000000  0.89632100  0.30274100  1
  O  O49  1  0.50000000  0.10367900  0.69725900  1
  O  O50  1  0.00000000  0.39632100  0.19725900  1
  O  O51  1  0.00000000  0.60367900  0.80274100  1
  O  O52  1  0.00000000  0.11411700  0.24769300  1
  O  O53  1  0.00000000  0.88588300  0.75230700  1
  O  O54  1  0.50000000  0.61411700  0.25230700  1
  O  O55  1  0.50000000  0.38588300  0.74769300  1
  O  O56  1  0.50000000  0.35628600  0.45610900  1
  O  O57  1  0.50000000  0.64371400  0.54389100  1
  O  O58  1  0.00000000  0.85628600  0.04389100  1
  O  O59  1  0.00000000  0.14371400  0.95610900  1
  O  O60  1  0.30433700  0.66917000  0.41132300  1
  O  O61  1  0.30433700  0.33083000  0.58867700  1
  O  O62  1  0.19566300  0.16917000  0.08867700  1
  O  O63  1  0.19566300  0.83083000  0.91132300  1
  O  O64  1  0.69566300  0.33083000  0.58867700  1
  O  O65  1  0.69566300  0.66917000  0.41132300  1
  O  O66  1  0.80433700  0.83083000  0.91132300  1
  O  O67  1  0.80433700  0.16917000  0.08867700  1
  O  O68  1  0.79800500  0.40454400  0.32444100  1
  O  O69  1  0.79800500  0.59545600  0.67555900  1
  O  O70  1  0.70199500  0.90454400  0.17555900  1
  O  O71  1  0.70199500  0.09545600  0.82444100  1
  O  O72  1  0.20199500  0.59545600  0.67555900  1
  O  O73  1  0.20199500  0.40454400  0.32444100  1
  O  O74  1  0.29800500  0.09545600  0.82444100  1
  O  O75  1  0.29800500  0.90454400  0.17555900  1
  O  O76  1  0.50000000  0.86729600  0.47818600  1
  O  O77  1  0.50000000  0.13270400  0.52181400  1
  O  O78  1  0.00000000  0.36729600  0.02181400  1
  O  O79  1  0.00000000  0.63270400  0.97818600  1
