# generated using pymatgen
data_Na6Sn4Ge5O22
_symmetry_space_group_name_H-M   'P 1'
_cell_length_a   6.52927800
_cell_length_b   10.39560974
_cell_length_c   15.79018457
_cell_angle_alpha   91.67294197
_cell_angle_beta   96.74861810
_cell_angle_gamma   107.62575932
_symmetry_Int_Tables_number   1
_chemical_formula_structural   Na6Sn4Ge5O22
_chemical_formula_sum   'Na12 Sn8 Ge10 O44'
_cell_volume   1012.00109031
_cell_formula_units_Z   2
loop_
 _symmetry_equiv_pos_site_id
 _symmetry_equiv_pos_as_xyz
  1  'x, y, z'
loop_
 _atom_site_type_symbol
 _atom_site_label
 _atom_site_symmetry_multiplicity
 _atom_site_fract_x
 _atom_site_fract_y
 _atom_site_fract_z
 _atom_site_occupancy
  Na  Na0  1  0.38187500  0.14051300  0.45431900  1
  Na  Na1  1  0.61812500  0.85948700  0.54568100  1
  Na  Na2  1  0.11585300  0.35843800  0.75490000  1
  Na  Na3  1  0.88414700  0.64156200  0.24510000  1
  Na  Na4  1  0.17926100  0.02637700  0.26421300  1
  Na  Na5  1  0.82073900  0.97362300  0.73578700  1
  Na  Na6  1  0.27138400  0.98050200  0.05306000  1
  Na  Na7  1  0.72861600  0.01949800  0.94694000  1
  Na  Na8  1  0.26473800  0.45516400  0.55288500  1
  Na  Na9  1  0.73526200  0.54483600  0.44711500  1
  Na  Na10  1  0.62019900  0.39048600  0.05150400  1
  Na  Na11  1  0.37980100  0.60951400  0.94849600  1
  Sn  Sn12  1  0.73428200  0.94774300  0.34158800  1
  Sn  Sn13  1  0.26571800  0.05225700  0.65841200  1
  Sn  Sn14  1  0.15251300  0.82363900  0.84561000  1
  Sn  Sn15  1  0.84748700  0.17636100  0.15439000  1
  Sn  Sn16  1  0.27375700  0.53115000  0.15926300  1
  Sn  Sn17  1  0.72624300  0.46885000  0.84073700  1
  Sn  Sn18  1  0.90820800  0.67803900  0.66001400  1
  Sn  Sn19  1  0.09179200  0.32196100  0.33998600  1
  Ge  Ge20  1  0.33019100  0.65961200  0.36766300  1
  Ge  Ge21  1  0.66980900  0.34038800  0.63233700  1
  Ge  Ge22  1  0.69709200  0.83531500  0.13355600  1
  Ge  Ge23  1  0.30290800  0.16468500  0.86644400  1
  Ge  Ge24  1  0.09349300  0.84369100  0.48356300  1
  Ge  Ge25  1  0.90650700  0.15630900  0.51643700  1
  Ge  Ge26  1  0.95066900  0.67660800  0.01886100  1
  Ge  Ge27  1  0.04933100  0.32339200  0.98113900  1
  Ge  Ge28  1  0.42290700  0.66023700  0.73174200  1
  Ge  Ge29  1  0.57709300  0.33976300  0.26825800  1
  O  O30  1  0.82218300  0.39551700  0.34409600  1
  O  O31  1  0.17781700  0.60448300  0.65590400  1
  O  O32  1  0.36205100  0.25236500  0.32525900  1
  O  O33  1  0.63794900  0.74763500  0.67474100  1
  O  O34  1  0.88864200  0.12942400  0.28511900  1
  O  O35  1  0.11135800  0.87057600  0.71488100  1
  O  O36  1  0.82380500  0.84950000  0.24065700  1
  O  O37  1  0.17619500  0.15050000  0.75934300  1
  O  O38  1  0.54121000  0.49246700  0.22903400  1
  O  O39  1  0.45879000  0.50753300  0.77096600  1
  O  O40  1  0.07087800  0.36207400  0.21062300  1
  O  O41  1  0.92912200  0.63792600  0.78937700  1
  O  O42  1  0.58832300  0.23948800  0.17641100  1
  O  O43  1  0.41167700  0.76051200  0.82358900  1
  O  O44  1  0.98965700  0.56514200  0.09779600  1
  O  O45  1  0.01034300  0.43485800  0.90220400  1
  O  O46  1  0.47560900  0.69006000  0.10459600  1
  O  O47  1  0.52439100  0.30994000  0.89540400  1
  O  O48  1  0.90644000  0.82067400  0.07122900  1
  O  O49  1  0.09356000  0.17932600  0.92877100  1
  O  O50  1  0.82208600  0.24523300  0.03285300  1
  O  O51  1  0.17791400  0.75476700  0.96714700  1
  O  O52  1  0.28379700  0.41440600  0.05190200  1
  O  O53  1  0.71620300  0.58559400  0.94809800  1
  O  O54  1  0.35345600  0.01379200  0.90002600  1
  O  O55  1  0.64654400  0.98620800  0.09997400  1
  O  O56  1  0.76181300  0.34437400  0.74180100  1
  O  O57  1  0.23818700  0.65562600  0.25819900  1
  O  O58  1  0.96610300  0.04442100  0.59128400  1
  O  O59  1  0.03389700  0.95557900  0.40871600  1
  O  O60  1  0.40451600  0.23263200  0.60145600  1
  O  O61  1  0.59548400  0.76736800  0.39854400  1
  O  O62  1  0.68134100  0.50225300  0.59715900  1
  O  O63  1  0.31865900  0.49774700  0.40284100  1
  O  O64  1  0.86360600  0.29272200  0.57724300  1
  O  O65  1  0.13639400  0.70727800  0.42275700  1
  O  O66  1  0.88828900  0.74689100  0.53956600  1
  O  O67  1  0.11171100  0.25310900  0.46043400  1
  O  O68  1  0.67789700  0.05975200  0.44497300  1
  O  O69  1  0.32210300  0.94024800  0.55502700  1
  O  O70  1  0.44304800  0.93357300  0.27139600  1
  O  O71  1  0.55695200  0.06642700  0.72860400  1
  O  O72  1  0.10626900  0.10911900  0.13124200  1
  O  O73  1  0.89373100  0.89088100  0.86875800  1
