# generated using pymatgen
data_Cu3P4(SBr)3
_symmetry_space_group_name_H-M   'P 1'
_cell_length_a   6.65795200
_cell_length_b   9.93680400
_cell_length_c   18.88676800
_cell_angle_alpha   90.00000000
_cell_angle_beta   90.00000000
_cell_angle_gamma   90.00000000
_symmetry_Int_Tables_number   1
_chemical_formula_structural   Cu3P4(SBr)3
_chemical_formula_sum   'Cu12 P16 S12 Br12'
_cell_volume   1249.52522807
_cell_formula_units_Z   4
loop_
 _symmetry_equiv_pos_site_id
 _symmetry_equiv_pos_as_xyz
  1  'x, y, z'
loop_
 _atom_site_type_symbol
 _atom_site_label
 _atom_site_symmetry_multiplicity
 _atom_site_fract_x
 _atom_site_fract_y
 _atom_site_fract_z
 _atom_site_occupancy
  Cu  Cu0  1  0.00014000  0.25000000  0.63343500  1
  Cu  Cu1  1  0.49986000  0.25000000  0.13343500  1
  Cu  Cu2  1  0.99986000  0.75000000  0.36656500  1
  Cu  Cu3  1  0.50014000  0.75000000  0.86656500  1
  Cu  Cu4  1  0.50870700  0.51903200  0.31682100  1
  Cu  Cu5  1  0.99129300  0.98096800  0.81682100  1
  Cu  Cu6  1  0.49129300  0.01903200  0.68317900  1
  Cu  Cu7  1  0.00870700  0.48096800  0.18317900  1
  Cu  Cu8  1  0.49129300  0.48096800  0.68317900  1
  Cu  Cu9  1  0.00870700  0.01903200  0.18317900  1
  Cu  Cu10  1  0.50870700  0.98096800  0.31682100  1
  Cu  Cu11  1  0.99129300  0.51903200  0.81682100  1
  P  P12  1  0.90304800  0.25000000  0.52203500  1
  P  P13  1  0.59695200  0.25000000  0.02203500  1
  P  P14  1  0.09695200  0.75000000  0.47796500  1
  P  P15  1  0.40304800  0.75000000  0.97796500  1
  P  P16  1  0.65133500  0.36558400  0.38625200  1
  P  P17  1  0.84866500  0.13441600  0.88625200  1
  P  P18  1  0.34866500  0.86558400  0.61374800  1
  P  P19  1  0.15133500  0.63441600  0.11374800  1
  P  P20  1  0.34866500  0.63441600  0.61374800  1
  P  P21  1  0.15133500  0.86558400  0.11374800  1
  P  P22  1  0.65133500  0.13441600  0.38625200  1
  P  P23  1  0.84866500  0.36558400  0.88625200  1
  P  P24  1  0.92231000  0.25000000  0.34802700  1
  P  P25  1  0.57769000  0.25000000  0.84802700  1
  P  P26  1  0.07769000  0.75000000  0.65197300  1
  P  P27  1  0.42231000  0.75000000  0.15197300  1
  S  S28  1  0.11193300  0.25000000  0.43676400  1
  S  S29  1  0.38806700  0.25000000  0.93676400  1
  S  S30  1  0.88806700  0.75000000  0.56323600  1
  S  S31  1  0.61193300  0.75000000  0.06323600  1
  S  S32  1  0.71813800  0.41402800  0.49201500  1
  S  S33  1  0.78186200  0.08597200  0.99201500  1
  S  S34  1  0.28186200  0.91402800  0.50798500  1
  S  S35  1  0.21813800  0.58597200  0.00798500  1
  S  S36  1  0.28186200  0.58597200  0.50798500  1
  S  S37  1  0.21813800  0.91402800  0.00798500  1
  S  S38  1  0.71813800  0.08597200  0.49201500  1
  S  S39  1  0.78186200  0.41402800  0.99201500  1
  Br  Br40  1  0.85978800  0.45287800  0.69560200  1
  Br  Br41  1  0.64021200  0.04712200  0.19560200  1
  Br  Br42  1  0.14021200  0.95287800  0.30439800  1
  Br  Br43  1  0.35978800  0.54712200  0.80439800  1
  Br  Br44  1  0.14021200  0.54712200  0.30439800  1
  Br  Br45  1  0.35978800  0.95287800  0.80439800  1
  Br  Br46  1  0.85978800  0.04712200  0.69560200  1
  Br  Br47  1  0.64021200  0.45287800  0.19560200  1
  Br  Br48  1  0.63287300  0.75000000  0.35045800  1
  Br  Br49  1  0.86712700  0.75000000  0.85045800  1
  Br  Br50  1  0.36712700  0.25000000  0.64954200  1
  Br  Br51  1  0.13287300  0.25000000  0.14954200  1
