# generated using pymatgen
data_Yb3Zn17
_symmetry_space_group_name_H-M   'P 1'
_cell_length_a   12.23080403
_cell_length_b   12.23080403
_cell_length_c   12.23080403
_cell_angle_alpha   109.47122063
_cell_angle_beta   109.47122063
_cell_angle_gamma   109.47122063
_symmetry_Int_Tables_number   1
_chemical_formula_structural   Yb3Zn17
_chemical_formula_sum   'Yb12 Zn68'
_cell_volume   1408.45550773
_cell_formula_units_Z   4
loop_
 _symmetry_equiv_pos_site_id
 _symmetry_equiv_pos_as_xyz
  1  'x, y, z'
loop_
 _atom_site_type_symbol
 _atom_site_label
 _atom_site_symmetry_multiplicity
 _atom_site_fract_x
 _atom_site_fract_y
 _atom_site_fract_z
 _atom_site_occupancy
  Yb  Yb0  1  0.30196200  0.11790500  0.81594400  1
  Yb  Yb1  1  0.69803800  0.88209500  0.18405600  1
  Yb  Yb2  1  0.69803800  0.51398200  0.81594400  1
  Yb  Yb3  1  0.30196200  0.48601800  0.18405600  1
  Yb  Yb4  1  0.11790500  0.81594400  0.30196200  1
  Yb  Yb5  1  0.88209500  0.18405600  0.69803800  1
  Yb  Yb6  1  0.51398200  0.81594400  0.69803800  1
  Yb  Yb7  1  0.48601800  0.18405600  0.30196200  1
  Yb  Yb8  1  0.81594400  0.30196200  0.11790500  1
  Yb  Yb9  1  0.18405600  0.69803800  0.88209500  1
  Yb  Yb10  1  0.81594400  0.69803800  0.51398200  1
  Yb  Yb11  1  0.18405600  0.30196200  0.48601800  1
  Zn  Zn12  1  0.59108200  0.00000000  0.59108200  1
  Zn  Zn13  1  0.40891800  0.00000000  0.40891800  1
  Zn  Zn14  1  0.00000000  0.59108200  0.59108200  1
  Zn  Zn15  1  0.00000000  0.40891800  0.40891800  1
  Zn  Zn16  1  0.59108200  0.59108200  0.00000000  1
  Zn  Zn17  1  0.40891800  0.40891800  0.00000000  1
  Zn  Zn18  1  0.30619000  0.50000000  0.80619000  1
  Zn  Zn19  1  0.69381000  0.50000000  0.19381000  1
  Zn  Zn20  1  0.50000000  0.80619000  0.30619000  1
  Zn  Zn21  1  0.50000000  0.19381000  0.69381000  1
  Zn  Zn22  1  0.80619000  0.30619000  0.50000000  1
  Zn  Zn23  1  0.19381000  0.69381000  0.50000000  1
  Zn  Zn24  1  0.00000000  0.00000000  0.67428500  1
  Zn  Zn25  1  0.67428500  0.00000000  0.00000000  1
  Zn  Zn26  1  0.00000000  0.67428500  0.00000000  1
  Zn  Zn27  1  0.32571500  0.32571500  0.32571500  1
  Zn  Zn28  1  0.00000000  0.00000000  0.32571500  1
  Zn  Zn29  1  0.32571500  0.00000000  0.00000000  1
  Zn  Zn30  1  0.00000000  0.32571500  0.00000000  1
  Zn  Zn31  1  0.67428500  0.67428500  0.67428500  1
  Zn  Zn32  1  0.09208600  0.85790400  0.76581800  1
  Zn  Zn33  1  0.90791400  0.14209600  0.23418200  1
  Zn  Zn34  1  0.90791400  0.67373200  0.76581800  1
  Zn  Zn35  1  0.09208600  0.32626800  0.23418200  1
  Zn  Zn36  1  0.85790400  0.76581800  0.09208600  1
  Zn  Zn37  1  0.14209600  0.23418200  0.90791400  1
  Zn  Zn38  1  0.67373200  0.76581800  0.90791400  1
  Zn  Zn39  1  0.32626800  0.23418200  0.09208600  1
  Zn  Zn40  1  0.76581800  0.09208600  0.85790400  1
  Zn  Zn41  1  0.23418200  0.90791400  0.14209600  1
  Zn  Zn42  1  0.76581800  0.90791400  0.67373200  1
  Zn  Zn43  1  0.23418200  0.09208600  0.32626800  1
  Zn  Zn44  1  0.34857600  0.94494200  0.59636600  1
  Zn  Zn45  1  0.65142400  0.05505800  0.40363400  1
  Zn  Zn46  1  0.65142400  0.24778900  0.59636600  1
  Zn  Zn47  1  0.34857600  0.75221100  0.40363400  1
  Zn  Zn48  1  0.94494200  0.59636600  0.34857600  1
  Zn  Zn49  1  0.05505800  0.40363400  0.65142400  1
  Zn  Zn50  1  0.24778900  0.59636600  0.65142400  1
  Zn  Zn51  1  0.75221100  0.40363400  0.34857600  1
  Zn  Zn52  1  0.59636600  0.34857600  0.94494200  1
  Zn  Zn53  1  0.40363400  0.65142400  0.05505800  1
  Zn  Zn54  1  0.59636600  0.65142400  0.24778900  1
  Zn  Zn55  1  0.40363400  0.34857600  0.75221100  1
  Zn  Zn56  1  0.13871300  0.22808300  0.68398000  1
  Zn  Zn57  1  0.45589800  0.77191700  0.91063000  1
  Zn  Zn58  1  0.86128700  0.54526800  0.08937000  1
  Zn  Zn59  1  0.54410200  0.45473200  0.31602000  1
  Zn  Zn60  1  0.22808300  0.68398000  0.13871300  1
  Zn  Zn61  1  0.77191700  0.91063000  0.45589800  1
  Zn  Zn62  1  0.54526800  0.08937000  0.86128700  1
  Zn  Zn63  1  0.45473200  0.31602000  0.54410200  1
  Zn  Zn64  1  0.68398000  0.13871300  0.22808300  1
  Zn  Zn65  1  0.91063000  0.45589800  0.77191700  1
  Zn  Zn66  1  0.08937000  0.86128700  0.54526800  1
  Zn  Zn67  1  0.31602000  0.54410200  0.45473200  1
  Zn  Zn68  1  0.86128700  0.77191700  0.31602000  1
  Zn  Zn69  1  0.54410200  0.22808300  0.08937000  1
  Zn  Zn70  1  0.13871300  0.45473200  0.91063000  1
  Zn  Zn71  1  0.45589800  0.54526800  0.68398000  1
  Zn  Zn72  1  0.77191700  0.31602000  0.86128700  1
  Zn  Zn73  1  0.22808300  0.08937000  0.54410200  1
  Zn  Zn74  1  0.45473200  0.91063000  0.13871300  1
  Zn  Zn75  1  0.54526800  0.68398000  0.45589800  1
  Zn  Zn76  1  0.31602000  0.86128700  0.77191700  1
  Zn  Zn77  1  0.08937000  0.54410200  0.22808300  1
  Zn  Zn78  1  0.91063000  0.13871300  0.45473200  1
  Zn  Zn79  1  0.68398000  0.45589800  0.54526800  1
