# generated using pymatgen
data_Dy5Pt4
_symmetry_space_group_name_H-M   'P 1'
_cell_length_a   7.47603600
_cell_length_b   7.54531900
_cell_length_c   14.95638900
_cell_angle_alpha   90.00000000
_cell_angle_beta   90.00000000
_cell_angle_gamma   90.00000000
_symmetry_Int_Tables_number   1
_chemical_formula_structural   Dy5Pt4
_chemical_formula_sum   'Dy20 Pt16'
_cell_volume   843.67609090
_cell_formula_units_Z   4
loop_
 _symmetry_equiv_pos_site_id
 _symmetry_equiv_pos_as_xyz
  1  'x, y, z'
loop_
 _atom_site_type_symbol
 _atom_site_label
 _atom_site_symmetry_multiplicity
 _atom_site_fract_x
 _atom_site_fract_y
 _atom_site_fract_z
 _atom_site_occupancy
  Dy  Dy0  1  0.62001100  0.16477800  0.61942200  1
  Dy  Dy1  1  0.12001100  0.33522200  0.88057800  1
  Dy  Dy2  1  0.37998900  0.83522200  0.11942200  1
  Dy  Dy3  1  0.87998900  0.66477800  0.38057800  1
  Dy  Dy4  1  0.37998900  0.83522200  0.38057800  1
  Dy  Dy5  1  0.87998900  0.66477800  0.11942200  1
  Dy  Dy6  1  0.62001100  0.16477800  0.88057800  1
  Dy  Dy7  1  0.12001100  0.33522200  0.61942200  1
  Dy  Dy8  1  0.46613300  0.67264300  0.59825200  1
  Dy  Dy9  1  0.96613300  0.82735700  0.90174800  1
  Dy  Dy10  1  0.53386700  0.32735700  0.09825200  1
  Dy  Dy11  1  0.03386700  0.17264300  0.40174800  1
  Dy  Dy12  1  0.53386700  0.32735700  0.40174800  1
  Dy  Dy13  1  0.03386700  0.17264300  0.09825200  1
  Dy  Dy14  1  0.46613300  0.67264300  0.90174800  1
  Dy  Dy15  1  0.96613300  0.82735700  0.59825200  1
  Dy  Dy16  1  0.78480400  0.50758400  0.75000000  1
  Dy  Dy17  1  0.28480400  0.99241600  0.75000000  1
  Dy  Dy18  1  0.21519600  0.49241600  0.25000000  1
  Dy  Dy19  1  0.71519600  0.00758400  0.25000000  1
  Pt  Pt20  1  0.71166800  0.97730400  0.45588600  1
  Pt  Pt21  1  0.21166800  0.52269600  0.04411400  1
  Pt  Pt22  1  0.28833200  0.02269600  0.95588600  1
  Pt  Pt23  1  0.78833200  0.47730400  0.54411400  1
  Pt  Pt24  1  0.28833200  0.02269600  0.54411400  1
  Pt  Pt25  1  0.78833200  0.47730400  0.95588600  1
  Pt  Pt26  1  0.71166800  0.97730400  0.04411400  1
  Pt  Pt27  1  0.21166800  0.52269600  0.45588600  1
  Pt  Pt28  1  0.41488100  0.38246600  0.75000000  1
  Pt  Pt29  1  0.91488100  0.11753400  0.75000000  1
  Pt  Pt30  1  0.58511900  0.61753400  0.25000000  1
  Pt  Pt31  1  0.08511900  0.88246600  0.25000000  1
  Pt  Pt32  1  0.64806000  0.85753900  0.75000000  1
  Pt  Pt33  1  0.14806000  0.64246100  0.75000000  1
  Pt  Pt34  1  0.35194000  0.14246100  0.25000000  1
  Pt  Pt35  1  0.85194000  0.35753900  0.25000000  1
