# generated using pymatgen
data_MgB2H13N3
_symmetry_space_group_name_H-M   'P 1'
_cell_length_a   9.03511700
_cell_length_b   8.09364000
_cell_length_c   8.86531558
_cell_angle_alpha   84.59423465
_cell_angle_beta   90.00000000
_cell_angle_gamma   90.00000000
_symmetry_Int_Tables_number   1
_chemical_formula_structural   MgB2H13N3
_chemical_formula_sum   'Mg4 B8 H52 N12'
_cell_volume   645.41050058
_cell_formula_units_Z   4
loop_
 _symmetry_equiv_pos_site_id
 _symmetry_equiv_pos_as_xyz
  1  'x, y, z'
loop_
 _atom_site_type_symbol
 _atom_site_label
 _atom_site_symmetry_multiplicity
 _atom_site_fract_x
 _atom_site_fract_y
 _atom_site_fract_z
 _atom_site_occupancy
  Mg  Mg0  1  0.07570600  0.71795200  0.72818400  1
  Mg  Mg1  1  0.57570600  0.28204800  0.77181600  1
  Mg  Mg2  1  0.92429400  0.28204800  0.27181600  1
  Mg  Mg3  1  0.42429400  0.71795200  0.22818400  1
  B  B4  1  0.22542200  0.80110200  0.03349900  1
  B  B5  1  0.72542200  0.19889800  0.46650100  1
  B  B6  1  0.77457800  0.19889800  0.96650100  1
  B  B7  1  0.27457800  0.80110200  0.53349900  1
  B  B8  1  0.74176800  0.65094400  0.75492800  1
  B  B9  1  0.24176800  0.34905600  0.74507200  1
  B  B10  1  0.25823200  0.34905600  0.24507200  1
  B  B11  1  0.75823200  0.65094400  0.25492800  1
  H  H12  1  0.21867600  0.79176100  0.17539500  1
  H  H13  1  0.71867600  0.20823900  0.32460500  1
  H  H14  1  0.78132400  0.20823900  0.82460500  1
  H  H15  1  0.28132400  0.79176100  0.67539500  1
  H  H16  1  0.20446500  0.94793300  0.99099700  1
  H  H17  1  0.70446500  0.05206700  0.50900300  1
  H  H18  1  0.79553500  0.05206700  0.00900300  1
  H  H19  1  0.29553500  0.94793300  0.49099700  1
  H  H20  1  0.35177300  0.76358600  0.99370100  1
  H  H21  1  0.85177300  0.23641400  0.50629900  1
  H  H22  1  0.64822700  0.23641400  0.00629900  1
  H  H23  1  0.14822700  0.76358600  0.49370100  1
  H  H24  1  0.00711100  0.70597200  0.01431800  1
  H  H25  1  0.50711100  0.29402800  0.48568200  1
  H  H26  1  0.99288900  0.29402800  0.98568200  1
  H  H27  1  0.49288900  0.70597200  0.51431800  1
  H  H28  1  0.13260400  0.56429300  0.00044100  1
  H  H29  1  0.63260400  0.43570700  0.49955900  1
  H  H30  1  0.86739600  0.43570700  0.99955900  1
  H  H31  1  0.36739600  0.56429300  0.50044100  1
  H  H32  1  0.77567500  0.68102200  0.88445900  1
  H  H33  1  0.27567500  0.31897800  0.61554100  1
  H  H34  1  0.22432500  0.31897800  0.11554100  1
  H  H35  1  0.72432500  0.68102200  0.38445900  1
  H  H36  1  0.68210100  0.77434300  0.68974100  1
  H  H37  1  0.18210100  0.22565700  0.81025900  1
  H  H38  1  0.31789900  0.22565700  0.31025900  1
  H  H39  1  0.81789900  0.77434300  0.18974100  1
  H  H40  1  0.64755400  0.53796100  0.76604400  1
  H  H41  1  0.14755400  0.46203900  0.73395600  1
  H  H42  1  0.35244600  0.46203900  0.23395600  1
  H  H43  1  0.85244600  0.53796100  0.26604400  1
  H  H44  1  0.90355000  0.47715600  0.68392000  1
  H  H45  1  0.40355000  0.52284400  0.81608000  1
  H  H46  1  0.09645000  0.52284400  0.31608000  1
  H  H47  1  0.59645000  0.47715600  0.18392000  1
  H  H48  1  0.85846100  0.61843500  0.54963000  1
  H  H49  1  0.35846100  0.38156500  0.95037000  1
  H  H50  1  0.14153900  0.38156500  0.45037000  1
  H  H51  1  0.64153900  0.61843500  0.04963000  1
  H  H52  1  0.06207400  0.06058100  0.70368500  1
  H  H53  1  0.56207400  0.93941900  0.79631500  1
  H  H54  1  0.93792600  0.93941900  0.29631500  1
  H  H55  1  0.43792600  0.06058100  0.20368500  1
  H  H56  1  0.90866900  0.98718800  0.63531000  1
  H  H57  1  0.40866900  0.01281200  0.86469000  1
  H  H58  1  0.09133100  0.01281200  0.36469000  1
  H  H59  1  0.59133100  0.98718800  0.13531000  1
  H  H60  1  0.93256300  0.98274000  0.81660000  1
  H  H61  1  0.43256300  0.01726000  0.68340000  1
  H  H62  1  0.06743700  0.01726000  0.18340000  1
  H  H63  1  0.56743700  0.98274000  0.31660000  1
  N  N64  1  0.10872400  0.68598400  0.96705400  1
  N  N65  1  0.60872400  0.31401600  0.53294600  1
  N  N66  1  0.89127600  0.31401600  0.03294600  1
  N  N67  1  0.39127600  0.68598400  0.46705400  1
  N  N68  1  0.88139300  0.60138600  0.66330100  1
  N  N69  1  0.38139300  0.39861400  0.83669900  1
  N  N70  1  0.11860700  0.39861400  0.33669900  1
  N  N71  1  0.61860700  0.60138600  0.16330100  1
  N  N72  1  0.98733600  0.96476400  0.71833100  1
  N  N73  1  0.48733600  0.03523600  0.78166900  1
  N  N74  1  0.01266400  0.03523600  0.28166900  1
  N  N75  1  0.51266400  0.96476400  0.21833100  1
