# generated using pymatgen
data_Na3Np(H7O6)2
_symmetry_space_group_name_H-M   'P 1'
_cell_length_a   8.11403556
_cell_length_b   8.11403556
_cell_length_c   10.82105652
_cell_angle_alpha   96.53795526
_cell_angle_beta   110.14936032
_cell_angle_gamma   112.87743065
_symmetry_Int_Tables_number   1
_chemical_formula_structural   Na3Np(H7O6)2
_chemical_formula_sum   'Na6 Np2 H28 O24'
_cell_volume   590.39351673
_cell_formula_units_Z   2
loop_
 _symmetry_equiv_pos_site_id
 _symmetry_equiv_pos_as_xyz
  1  'x, y, z'
loop_
 _atom_site_type_symbol
 _atom_site_label
 _atom_site_symmetry_multiplicity
 _atom_site_fract_x
 _atom_site_fract_y
 _atom_site_fract_z
 _atom_site_occupancy
  Na  Na0  1  0.90049500  0.02893800  0.61391900  1
  Na  Na1  1  0.91501800  0.28657600  0.88608100  1
  Na  Na2  1  0.09950500  0.97106200  0.38608100  1
  Na  Na3  1  0.08498200  0.71342400  0.11391900  1
  Na  Na4  1  0.32911500  0.57911500  0.75000000  1
  Na  Na5  1  0.67088500  0.42088500  0.25000000  1
  Np  Np6  1  0.50000000  0.50000000  0.50000000  1
  Np  Np7  1  0.50000000  0.00000000  0.00000000  1
  H  H8  1  0.79432500  0.37194200  0.49309300  1
  H  H9  1  0.37884900  0.30123200  0.00690700  1
  H  H10  1  0.20567500  0.62805800  0.50690700  1
  H  H11  1  0.62115100  0.69876800  0.99309300  1
  H  H12  1  0.81009200  0.13040000  0.34462400  1
  H  H13  1  0.28577600  0.46546800  0.15537600  1
  H  H14  1  0.18990800  0.86960000  0.65537600  1
  H  H15  1  0.71422400  0.53453200  0.84462400  1
  H  H16  1  0.02136000  0.29544200  0.45405300  1
  H  H17  1  0.34138900  0.56730700  0.04594700  1
  H  H18  1  0.97864000  0.70455800  0.54594700  1
  H  H19  1  0.65861100  0.43269300  0.95405300  1
  H  H20  1  0.31094100  0.25108800  0.66058700  1
  H  H21  1  0.09050200  0.65035400  0.83941300  1
  H  H22  1  0.68905900  0.74891200  0.33941300  1
  H  H23  1  0.90949800  0.34964600  0.16058700  1
  H  H24  1  0.33731000  0.25118100  0.81338700  1
  H  H25  1  0.93779400  0.52392300  0.68661300  1
  H  H26  1  0.66269000  0.74881900  0.18661300  1
  H  H27  1  0.06220600  0.47607700  0.31338700  1
  H  H28  1  0.04591700  0.95752400  0.88523300  1
  H  H29  1  0.57229100  0.16068300  0.61476700  1
  H  H30  1  0.95408300  0.04247600  0.11476700  1
  H  H31  1  0.42770900  0.83931700  0.38523300  1
  H  H32  1  0.81842300  0.85742900  0.79241800  1
  H  H33  1  0.56501100  0.02600500  0.70758200  1
  H  H34  1  0.18157700  0.14257100  0.20758200  1
  H  H35  1  0.43498900  0.97399500  0.29241800  1
  O  O36  1  0.61756600  0.62016600  0.69533500  1
  O  O37  1  0.42483100  0.92223100  0.80466500  1
  O  O38  1  0.38243400  0.37983400  0.30466500  1
  O  O39  1  0.57516900  0.07776900  0.19533500  1
  O  O40  1  0.40225200  0.26131600  0.53269800  1
  O  O41  1  0.22861800  0.86955400  0.96730200  1
  O  O42  1  0.59774800  0.73868400  0.46730200  1
  O  O43  1  0.77138200  0.13044600  0.03269800  1
  O  O44  1  0.78923300  0.49000900  0.51348600  1
  O  O45  1  0.47652300  0.27574700  0.98651400  1
  O  O46  1  0.21076700  0.50999100  0.48651400  1
  O  O47  1  0.52347700  0.72425300  0.01348600  1
  O  O48  1  0.92023100  0.16409200  0.43515400  1
  O  O49  1  0.22893800  0.48507700  0.06484600  1
  O  O50  1  0.07976900  0.83590800  0.56484600  1
  O  O51  1  0.77106200  0.51492300  0.93515400  1
  O  O52  1  0.25266600  0.26266400  0.72605600  1
  O  O53  1  0.03660800  0.52661000  0.77394400  1
  O  O54  1  0.74733400  0.73733600  0.27394400  1
  O  O55  1  0.96339200  0.47339000  0.22605600  1
  O  O56  1  0.93681700  0.98151700  0.83033900  1
  O  O57  1  0.65117800  0.10647800  0.66966100  1
  O  O58  1  0.06318300  0.01848300  0.16966100  1
  O  O59  1  0.34882200  0.89352200  0.33033900  1
