# generated using pymatgen
data_Cs2Fe2(MoO4)3
_symmetry_space_group_name_H-M   'P 1'
_cell_length_a   11.09349600
_cell_length_b   11.09349600
_cell_length_c   11.09349600
_cell_angle_alpha   90.00000000
_cell_angle_beta   90.00000000
_cell_angle_gamma   90.00000000
_symmetry_Int_Tables_number   1
_chemical_formula_structural   Cs2Fe2(MoO4)3
_chemical_formula_sum   'Cs8 Fe8 Mo12 O48'
_cell_volume   1365.22833486
_cell_formula_units_Z   4
loop_
 _symmetry_equiv_pos_site_id
 _symmetry_equiv_pos_as_xyz
  1  'x, y, z'
loop_
 _atom_site_type_symbol
 _atom_site_label
 _atom_site_symmetry_multiplicity
 _atom_site_fract_x
 _atom_site_fract_y
 _atom_site_fract_z
 _atom_site_occupancy
  Cs  Cs0  1  0.82061100  0.82061100  0.82061100  1
  Cs  Cs1  1  0.17938900  0.32061100  0.67938900  1
  Cs  Cs2  1  0.32061100  0.67938900  0.17938900  1
  Cs  Cs3  1  0.67938900  0.17938900  0.32061100  1
  Cs  Cs4  1  0.95725600  0.54274400  0.45725600  1
  Cs  Cs5  1  0.54274400  0.45725600  0.95725600  1
  Cs  Cs6  1  0.04274400  0.04274400  0.04274400  1
  Cs  Cs7  1  0.45725600  0.95725600  0.54274400  1
  Fe  Fe8  1  0.16288200  0.66288200  0.83711800  1
  Fe  Fe9  1  0.66288200  0.83711800  0.16288200  1
  Fe  Fe10  1  0.83711800  0.16288200  0.66288200  1
  Fe  Fe11  1  0.33711800  0.33711800  0.33711800  1
  Fe  Fe12  1  0.88778900  0.38778900  0.11221100  1
  Fe  Fe13  1  0.38778900  0.11221100  0.88778900  1
  Fe  Fe14  1  0.11221100  0.88778900  0.38778900  1
  Fe  Fe15  1  0.61221100  0.61221100  0.61221100  1
  Mo  Mo16  1  0.97350400  0.69972300  0.12295800  1
  Mo  Mo17  1  0.87704200  0.47350400  0.80027700  1
  Mo  Mo18  1  0.19972300  0.37704200  0.02649600  1
  Mo  Mo19  1  0.47350400  0.80027700  0.87704200  1
  Mo  Mo20  1  0.37704200  0.02649600  0.19972300  1
  Mo  Mo21  1  0.69972300  0.12295800  0.97350400  1
  Mo  Mo22  1  0.02649600  0.19972300  0.37704200  1
  Mo  Mo23  1  0.12295800  0.97350400  0.69972300  1
  Mo  Mo24  1  0.80027700  0.87704200  0.47350400  1
  Mo  Mo25  1  0.52649600  0.30027700  0.62295800  1
  Mo  Mo26  1  0.62295800  0.52649600  0.30027700  1
  Mo  Mo27  1  0.30027700  0.62295800  0.52649600  1
  O  O28  1  0.05395000  0.72339200  0.98332700  1
  O  O29  1  0.01667300  0.55395000  0.77660800  1
  O  O30  1  0.22339200  0.51667300  0.94605000  1
  O  O31  1  0.55395000  0.77660800  0.01667300  1
  O  O32  1  0.51667300  0.94605000  0.22339200  1
  O  O33  1  0.72339200  0.98332700  0.05395000  1
  O  O34  1  0.94605000  0.22339200  0.51667300  1
  O  O35  1  0.98332700  0.05395000  0.72339200  1
  O  O36  1  0.77660800  0.01667300  0.55395000  1
  O  O37  1  0.44605000  0.27660800  0.48332700  1
  O  O38  1  0.48332700  0.44605000  0.27660800  1
  O  O39  1  0.27660800  0.48332700  0.44605000  1
  O  O40  1  0.98221600  0.54504600  0.17172300  1
  O  O41  1  0.82827700  0.48221600  0.95495400  1
  O  O42  1  0.04504600  0.32827700  0.01778400  1
  O  O43  1  0.48221600  0.95495400  0.82827700  1
  O  O44  1  0.32827700  0.01778400  0.04504600  1
  O  O45  1  0.54504600  0.17172300  0.98221600  1
  O  O46  1  0.01778400  0.04504600  0.32827700  1
  O  O47  1  0.17172300  0.98221600  0.54504600  1
  O  O48  1  0.95495400  0.82827700  0.48221600  1
  O  O49  1  0.51778400  0.45495400  0.67172300  1
  O  O50  1  0.67172300  0.51778400  0.45495400  1
  O  O51  1  0.45495400  0.67172300  0.51778400  1
  O  O52  1  0.82031200  0.74941600  0.10373000  1
  O  O53  1  0.89627000  0.32031200  0.75058400  1
  O  O54  1  0.24941600  0.39627000  0.17968800  1
  O  O55  1  0.32031200  0.75058400  0.89627000  1
  O  O56  1  0.39627000  0.17968800  0.24941600  1
  O  O57  1  0.74941600  0.10373000  0.82031200  1
  O  O58  1  0.17968800  0.24941600  0.39627000  1
  O  O59  1  0.10373000  0.82031200  0.74941600  1
  O  O60  1  0.75058400  0.89627000  0.32031200  1
  O  O61  1  0.67968800  0.25058400  0.60373000  1
  O  O62  1  0.60373000  0.67968800  0.25058400  1
  O  O63  1  0.25058400  0.60373000  0.67968800  1
  O  O64  1  0.04817700  0.78901800  0.23578800  1
  O  O65  1  0.76421200  0.54817700  0.71098200  1
  O  O66  1  0.28901800  0.26421200  0.95182300  1
  O  O67  1  0.54817700  0.71098200  0.76421200  1
  O  O68  1  0.26421200  0.95182300  0.28901800  1
  O  O69  1  0.78901800  0.23578800  0.04817700  1
  O  O70  1  0.95182300  0.28901800  0.26421200  1
  O  O71  1  0.23578800  0.04817700  0.78901800  1
  O  O72  1  0.71098200  0.76421200  0.54817700  1
  O  O73  1  0.45182300  0.21098200  0.73578800  1
  O  O74  1  0.73578800  0.45182300  0.21098200  1
  O  O75  1  0.21098200  0.73578800  0.45182300  1
