# generated using pymatgen
data_AlH4NF4
_symmetry_space_group_name_H-M   'P 1'
_cell_length_a   11.75845351
_cell_length_b   11.75845351
_cell_length_c   12.91850824
_cell_angle_alpha   90.00000000
_cell_angle_beta   90.00000000
_cell_angle_gamma   90.00000000
_symmetry_Int_Tables_number   1
_chemical_formula_structural   AlH4NF4
_chemical_formula_sum   'Al20 H80 N20 F80'
_cell_volume   1786.12882542
_cell_formula_units_Z   20
loop_
 _symmetry_equiv_pos_site_id
 _symmetry_equiv_pos_as_xyz
  1  'x, y, z'
loop_
 _atom_site_type_symbol
 _atom_site_label
 _atom_site_symmetry_multiplicity
 _atom_site_fract_x
 _atom_site_fract_y
 _atom_site_fract_z
 _atom_site_occupancy
  Al  Al0  1  0.25000000  0.25000000  0.74646938  1
  Al  Al1  1  0.25000000  0.25000000  0.24646938  1
  Al  Al2  1  0.75000000  0.75000000  0.25353062  1
  Al  Al3  1  0.75000000  0.75000000  0.75353062  1
  Al  Al4  1  0.17450913  0.54279981  0.75326647  1
  Al  Al5  1  0.17450913  0.95720019  0.25326647  1
  Al  Al6  1  0.32549087  0.54279981  0.25326647  1
  Al  Al7  1  0.32549087  0.95720019  0.75326647  1
  Al  Al8  1  0.54279981  0.17450913  0.75326647  1
  Al  Al9  1  0.95720019  0.17450913  0.25326647  1
  Al  Al10  1  0.54279981  0.32549087  0.25326647  1
  Al  Al11  1  0.95720019  0.32549087  0.75326647  1
  Al  Al12  1  0.82549087  0.45720019  0.24673353  1
  Al  Al13  1  0.82549087  0.04279981  0.74673353  1
  Al  Al14  1  0.67450913  0.45720019  0.74673353  1
  Al  Al15  1  0.67450913  0.04279981  0.24673353  1
  Al  Al16  1  0.45720019  0.82549087  0.24673353  1
  Al  Al17  1  0.04279981  0.82549087  0.74673353  1
  Al  Al18  1  0.45720019  0.67450913  0.74673353  1
  Al  Al19  1  0.04279981  0.67450913  0.24673353  1
  H  H20  1  0.13412459  0.46713947  0.99740414  1
  H  H21  1  0.13412459  0.03286053  0.49740414  1
  H  H22  1  0.36587541  0.46713947  0.49740414  1
  H  H23  1  0.36587541  0.03286053  0.99740414  1
  H  H24  1  0.46713947  0.13412459  0.99740414  1
  H  H25  1  0.03286053  0.13412459  0.49740414  1
  H  H26  1  0.46713947  0.36587541  0.49740414  1
  H  H27  1  0.03286053  0.36587541  0.99740414  1
  H  H28  1  0.86587541  0.53286053  0.00259586  1
  H  H29  1  0.86587541  0.96713947  0.50259586  1
  H  H30  1  0.63412459  0.53286053  0.50259586  1
  H  H31  1  0.63412459  0.96713947  0.00259586  1
  H  H32  1  0.53286053  0.86587541  0.00259586  1
  H  H33  1  0.96713947  0.86587541  0.50259586  1
  H  H34  1  0.53286053  0.63412459  0.50259586  1
  H  H35  1  0.96713947  0.63412459  0.00259586  1
  H  H36  1  0.05826130  0.44173870  0.10796780  1
  H  H37  1  0.05826130  0.05826130  0.60796780  1
  H  H38  1  0.44173870  0.44173870  0.60796780  1
  H  H39  1  0.44173870  0.05826130  0.10796780  1
  H  H40  1  0.94173870  0.55826130  0.89203220  1
  H  H41  1  0.94173870  0.94173870  0.39203220  1
  H  H42  1  0.55826130  0.55826130  0.39203220  1
  H  H43  1  0.55826130  0.94173870  0.89203220  1
  H  H44  1  0.15436867  0.34563133  0.06553365  1
  H  H45  1  0.15436867  0.15436867  0.56553365  1
  H  H46  1  0.34563133  0.34563133  0.56553365  1
  H  H47  1  0.34563133  0.15436867  0.06553365  1
  H  H48  1  0.84563133  0.65436867  0.93446635  1
  H  H49  1  0.84563133  0.84563133  0.43446635  1
  H  H50  1  0.65436867  0.65436867  0.43446635  1
  H  H51  1  0.65436867  0.84563133  0.93446635  1
  H  H52  1  0.11158897  0.01065273  0.91616127  1
  H  H53  1  0.11158897  0.48934727  0.41616127  1
  H  H54  1  0.38841103  0.01065273  0.41616127  1
  H  H55  1  0.38841103  0.48934727  0.91616127  1
  H  H56  1  0.01065273  0.11158897  0.91616127  1
  H  H57  1  0.48934727  0.11158897  0.41616127  1
  H  H58  1  0.01065273  0.38841103  0.41616127  1
  H  H59  1  0.48934727  0.38841103  0.91616127  1
  H  H60  1  0.88841103  0.98934727  0.08383873  1
  H  H61  1  0.88841103  0.51065273  0.58383873  1
  H  H62  1  0.61158897  0.98934727  0.58383873  1
  H  H63  1  0.61158897  0.51065273  0.08383873  1
  H  H64  1  0.98934727  0.88841103  0.08383873  1
  H  H65  1  0.51065273  0.88841103  0.58383873  1
  H  H66  1  0.98934727  0.61158897  0.58383873  1
  H  H67  1  0.51065273  0.61158897  0.08383873  1
  H  H68  1  0.15002285  0.15002285  0.92218707  1
  H  H69  1  0.15002285  0.34997715  0.42218707  1
  H  H70  1  0.34997715  0.15002285  0.42218707  1
  H  H71  1  0.34997715  0.34997715  0.92218707  1
  H  H72  1  0.84997715  0.84997715  0.07781293  1
  H  H73  1  0.84997715  0.65002285  0.57781293  1
  H  H74  1  0.65002285  0.84997715  0.57781293  1
  H  H75  1  0.65002285  0.65002285  0.07781293  1
  H  H76  1  0.08577928  0.08577928  0.02394678  1
  H  H77  1  0.08577928  0.41422072  0.52394678  1
  H  H78  1  0.41422072  0.08577928  0.52394678  1
  H  H79  1  0.41422072  0.41422072  0.02394678  1
  H  H80  1  0.91422072  0.91422072  0.97605322  1
  H  H81  1  0.91422072  0.58577928  0.47605322  1
  H  H82  1  0.58577928  0.91422072  0.47605322  1
  H  H83  1  0.58577928  0.58577928  0.97605322  1
  H  H84  1  0.24887585  0.67773190  0.95428282  1
  H  H85  1  0.24887585  0.82226810  0.45428282  1
  H  H86  1  0.25112415  0.67773190  0.45428282  1
  H  H87  1  0.25112415  0.82226810  0.95428282  1
  H  H88  1  0.67773190  0.24887585  0.95428282  1
  H  H89  1  0.82226810  0.24887585  0.45428282  1
  H  H90  1  0.67773190  0.25112415  0.45428282  1
  H  H91  1  0.82226810  0.25112415  0.95428282  1
  H  H92  1  0.75112415  0.32226810  0.04571718  1
  H  H93  1  0.75112415  0.17773190  0.54571718  1
  H  H94  1  0.74887585  0.32226810  0.54571718  1
  H  H95  1  0.74887585  0.17773190  0.04571718  1
  H  H96  1  0.32226810  0.75112415  0.04571718  1
  H  H97  1  0.17773190  0.75112415  0.54571718  1
  H  H98  1  0.32226810  0.74887585  0.54571718  1
  H  H99  1  0.17773190  0.74887585  0.04571718  1
  N  N100  1  0.09403000  0.40597000  0.04285346  1
  N  N101  1  0.09403000  0.09403000  0.54285346  1
  N  N102  1  0.40597000  0.40597000  0.54285346  1
  N  N103  1  0.40597000  0.09403000  0.04285346  1
  N  N104  1  0.90597000  0.59403000  0.95714654  1
  N  N105  1  0.90597000  0.90597000  0.45714654  1
  N  N106  1  0.59403000  0.59403000  0.45714654  1
  N  N107  1  0.59403000  0.90597000  0.95714654  1
  N  N108  1  0.08985697  0.08985697  0.94408917  1
  N  N109  1  0.08985697  0.41014303  0.44408917  1
  N  N110  1  0.41014303  0.08985697  0.44408917  1
  N  N111  1  0.41014303  0.41014303  0.94408917  1
  N  N112  1  0.91014303  0.91014303  0.05591083  1
  N  N113  1  0.91014303  0.58985697  0.55591083  1
  N  N114  1  0.58985697  0.91014303  0.55591083  1
  N  N115  1  0.58985697  0.58985697  0.05591083  1
  N  N116  1  0.25000000  0.75000000  -0.00000000  1
  N  N117  1  0.25000000  0.75000000  0.50000000  1
  N  N118  1  0.75000000  0.25000000  -0.00000000  1
  N  N119  1  0.75000000  0.25000000  0.50000000  1
  F  F120  1  0.25000000  0.25000000  0.60698681  1
  F  F121  1  0.25000000  0.25000000  0.10698681  1
  F  F122  1  0.75000000  0.75000000  0.39301319  1
  F  F123  1  0.75000000  0.75000000  0.89301319  1
  F  F124  1  0.25000000  0.25000000  0.88530687  1
  F  F125  1  0.25000000  0.25000000  0.38530687  1
  F  F126  1  0.75000000  0.75000000  0.11469313  1
  F  F127  1  0.75000000  0.75000000  0.61469313  1
  F  F128  1  0.03372370  0.46627630  0.77570066  1
  F  F129  1  0.03372370  0.03372370  0.27570066  1
  F  F130  1  0.46627630  0.46627630  0.27570066  1
  F  F131  1  0.46627630  0.03372370  0.77570066  1
  F  F132  1  0.96627630  0.53372370  0.22429934  1
  F  F133  1  0.96627630  0.96627630  0.72429934  1
  F  F134  1  0.53372370  0.53372370  0.72429934  1
  F  F135  1  0.53372370  0.96627630  0.22429934  1
  F  F136  1  0.14910326  0.54289426  0.61855478  1
  F  F137  1  0.14910326  0.95710574  0.11855478  1
  F  F138  1  0.35089674  0.54289426  0.11855478  1
  F  F139  1  0.35089674  0.95710574  0.61855478  1
  F  F140  1  0.54289426  0.14910326  0.61855478  1
  F  F141  1  0.95710574  0.14910326  0.11855478  1
  F  F142  1  0.54289426  0.35089674  0.11855478  1
  F  F143  1  0.95710574  0.35089674  0.61855478  1
  F  F144  1  0.85089674  0.45710574  0.38144522  1
  F  F145  1  0.85089674  0.04289426  0.88144522  1
  F  F146  1  0.64910326  0.45710574  0.88144522  1
  F  F147  1  0.64910326  0.04289426  0.38144522  1
  F  F148  1  0.45710574  0.85089674  0.38144522  1
  F  F149  1  0.04289426  0.85089674  0.88144522  1
  F  F150  1  0.45710574  0.64910326  0.88144522  1
  F  F151  1  0.04289426  0.64910326  0.38144522  1
  F  F152  1  0.10821327  0.68340904  0.76498184  1
  F  F153  1  0.10821327  0.81659096  0.26498184  1
  F  F154  1  0.39178673  0.68340904  0.26498184  1
  F  F155  1  0.39178673  0.81659096  0.76498184  1
  F  F156  1  0.68340904  0.10821327  0.76498184  1
  F  F157  1  0.81659096  0.10821327  0.26498184  1
  F  F158  1  0.68340904  0.39178673  0.26498184  1
  F  F159  1  0.81659096  0.39178673  0.76498184  1
  F  F160  1  0.89178673  0.31659096  0.23501816  1
  F  F161  1  0.89178673  0.18340904  0.73501816  1
  F  F162  1  0.60821327  0.31659096  0.73501816  1
  F  F163  1  0.60821327  0.18340904  0.23501816  1
  F  F164  1  0.31659096  0.89178673  0.23501816  1
  F  F165  1  0.18340904  0.89178673  0.73501816  1
  F  F166  1  0.31659096  0.60821327  0.73501816  1
  F  F167  1  0.18340904  0.60821327  0.23501816  1
  F  F168  1  0.25114336  0.40542487  0.74575118  1
  F  F169  1  0.25114336  0.09457513  0.24575118  1
  F  F170  1  0.24885664  0.40542487  0.24575118  1
  F  F171  1  0.24885664  0.09457513  0.74575118  1
  F  F172  1  0.40542487  0.25114336  0.74575118  1
  F  F173  1  0.09457513  0.25114336  0.24575118  1
  F  F174  1  0.40542487  0.24885664  0.24575118  1
  F  F175  1  0.09457513  0.24885664  0.74575118  1
  F  F176  1  0.74885664  0.59457513  0.25424882  1
  F  F177  1  0.74885664  0.90542487  0.75424882  1
  F  F178  1  0.75114336  0.59457513  0.75424882  1
  F  F179  1  0.75114336  0.90542487  0.25424882  1
  F  F180  1  0.59457513  0.74885664  0.25424882  1
  F  F181  1  0.90542487  0.74885664  0.75424882  1
  F  F182  1  0.59457513  0.75114336  0.75424882  1
  F  F183  1  0.90542487  0.75114336  0.25424882  1
  F  F184  1  0.19423508  0.54372005  0.89215480  1
  F  F185  1  0.19423508  0.95627995  0.39215480  1
  F  F186  1  0.30576492  0.54372005  0.39215480  1
  F  F187  1  0.30576492  0.95627995  0.89215480  1
  F  F188  1  0.54372005  0.19423508  0.89215480  1
  F  F189  1  0.95627995  0.19423508  0.39215480  1
  F  F190  1  0.54372005  0.30576492  0.39215480  1
  F  F191  1  0.95627995  0.30576492  0.89215480  1
  F  F192  1  0.80576492  0.45627995  0.10784520  1
  F  F193  1  0.80576492  0.04372005  0.60784520  1
  F  F194  1  0.69423508  0.45627995  0.60784520  1
  F  F195  1  0.69423508  0.04372005  0.10784520  1
  F  F196  1  0.45627995  0.80576492  0.10784520  1
  F  F197  1  0.04372005  0.80576492  0.60784520  1
  F  F198  1  0.45627995  0.69423508  0.60784520  1
  F  F199  1  0.04372005  0.69423508  0.10784520  1
