# generated using pymatgen
data_P(W3O10)4
_symmetry_space_group_name_H-M   'P 1'
_cell_length_a   12.26802000
_cell_length_b   12.26802000
_cell_length_c   12.26802000
_cell_angle_alpha   90.00000000
_cell_angle_beta   90.00000000
_cell_angle_gamma   90.00000000
_symmetry_Int_Tables_number   1
_chemical_formula_structural   P(W3O10)4
_chemical_formula_sum   'P2 W24 O80'
_cell_volume   1846.38994308
_cell_formula_units_Z   2
loop_
 _symmetry_equiv_pos_site_id
 _symmetry_equiv_pos_as_xyz
  1  'x, y, z'
loop_
 _atom_site_type_symbol
 _atom_site_label
 _atom_site_symmetry_multiplicity
 _atom_site_fract_x
 _atom_site_fract_y
 _atom_site_fract_z
 _atom_site_occupancy
  P  P0  1  0.50000000  0.50000000  0.50000000  1
  P  P1  1  0.00000000  0.00000000  0.00000000  1
  W  W2  1  0.70989100  0.70989100  0.49216700  1
  W  W3  1  0.50783300  0.70989100  0.29010900  1
  W  W4  1  0.70989100  0.50783300  0.29010900  1
  W  W5  1  0.70989100  0.29010900  0.50783300  1
  W  W6  1  0.50783300  0.29010900  0.70989100  1
  W  W7  1  0.70989100  0.49216700  0.70989100  1
  W  W8  1  0.29010900  0.70989100  0.50783300  1
  W  W9  1  0.49216700  0.70989100  0.70989100  1
  W  W10  1  0.29010900  0.50783300  0.70989100  1
  W  W11  1  0.29010900  0.29010900  0.49216700  1
  W  W12  1  0.49216700  0.29010900  0.29010900  1
  W  W13  1  0.29010900  0.49216700  0.29010900  1
  W  W14  1  0.79010900  0.79010900  0.00783300  1
  W  W15  1  0.99216700  0.79010900  0.20989100  1
  W  W16  1  0.79010900  0.99216700  0.20989100  1
  W  W17  1  0.79010900  0.20989100  0.99216700  1
  W  W18  1  0.99216700  0.20989100  0.79010900  1
  W  W19  1  0.79010900  0.00783300  0.79010900  1
  W  W20  1  0.20989100  0.79010900  0.99216700  1
  W  W21  1  0.00783300  0.79010900  0.79010900  1
  W  W22  1  0.20989100  0.99216700  0.79010900  1
  W  W23  1  0.20989100  0.20989100  0.00783300  1
  W  W24  1  0.00783300  0.20989100  0.20989100  1
  W  W25  1  0.20989100  0.00783300  0.20989100  1
  O  O26  1  0.57289800  0.57289800  0.42710200  1
  O  O27  1  0.57289800  0.42710200  0.57289800  1
  O  O28  1  0.42710200  0.57289800  0.57289800  1
  O  O29  1  0.42710200  0.42710200  0.42710200  1
  O  O30  1  0.92710200  0.92710200  0.07289800  1
  O  O31  1  0.92710200  0.07289800  0.92710200  1
  O  O32  1  0.07289800  0.92710200  0.92710200  1
  O  O33  1  0.07289800  0.07289800  0.07289800  1
  O  O34  1  0.59399400  0.59399400  0.74624000  1
  O  O35  1  0.25376000  0.59399400  0.40600600  1
  O  O36  1  0.59399400  0.25376000  0.40600600  1
  O  O37  1  0.59399400  0.40600600  0.25376000  1
  O  O38  1  0.25376000  0.40600600  0.59399400  1
  O  O39  1  0.59399400  0.74624000  0.59399400  1
  O  O40  1  0.40600600  0.59399400  0.25376000  1
  O  O41  1  0.74624000  0.59399400  0.59399400  1
  O  O42  1  0.40600600  0.25376000  0.59399400  1
  O  O43  1  0.40600600  0.40600600  0.74624000  1
  O  O44  1  0.74624000  0.40600600  0.40600600  1
  O  O45  1  0.40600600  0.74624000  0.40600600  1
  O  O46  1  0.90600600  0.90600600  0.75376000  1
  O  O47  1  0.24624000  0.90600600  0.09399400  1
  O  O48  1  0.90600600  0.24624000  0.09399400  1
  O  O49  1  0.90600600  0.09399400  0.24624000  1
  O  O50  1  0.24624000  0.09399400  0.90600600  1
  O  O51  1  0.90600600  0.75376000  0.90600600  1
  O  O52  1  0.09399400  0.90600600  0.24624000  1
  O  O53  1  0.75376000  0.90600600  0.90600600  1
  O  O54  1  0.09399400  0.24624000  0.90600600  1
  O  O55  1  0.09399400  0.09399400  0.75376000  1
  O  O56  1  0.75376000  0.09399400  0.09399400  1
  O  O57  1  0.09399400  0.75376000  0.09399400  1
  O  O58  1  0.62299400  0.62299400  0.22178000  1
  O  O59  1  0.77822000  0.62299400  0.37700600  1
  O  O60  1  0.62299400  0.77822000  0.37700600  1
  O  O61  1  0.62299400  0.37700600  0.77822000  1
  O  O62  1  0.77822000  0.37700600  0.62299400  1
  O  O63  1  0.62299400  0.22178000  0.62299400  1
  O  O64  1  0.37700600  0.62299400  0.77822000  1
  O  O65  1  0.22178000  0.62299400  0.62299400  1
  O  O66  1  0.37700600  0.77822000  0.62299400  1
  O  O67  1  0.37700600  0.37700600  0.22178000  1
  O  O68  1  0.22178000  0.37700600  0.37700600  1
  O  O69  1  0.37700600  0.22178000  0.37700600  1
  O  O70  1  0.87700600  0.87700600  0.27822000  1
  O  O71  1  0.72178000  0.87700600  0.12299400  1
  O  O72  1  0.87700600  0.72178000  0.12299400  1
  O  O73  1  0.87700600  0.12299400  0.72178000  1
  O  O74  1  0.72178000  0.12299400  0.87700600  1
  O  O75  1  0.87700600  0.27822000  0.87700600  1
  O  O76  1  0.12299400  0.87700600  0.72178000  1
  O  O77  1  0.27822000  0.87700600  0.87700600  1
  O  O78  1  0.12299400  0.72178000  0.87700600  1
  O  O79  1  0.12299400  0.12299400  0.27822000  1
  O  O80  1  0.27822000  0.12299400  0.12299400  1
  O  O81  1  0.12299400  0.27822000  0.12299400  1
  O  O82  1  0.80739100  0.80739100  0.51925500  1
  O  O83  1  0.48074500  0.80739100  0.19260900  1
  O  O84  1  0.80739100  0.48074500  0.19260900  1
  O  O85  1  0.80739100  0.19260900  0.48074500  1
  O  O86  1  0.48074500  0.19260900  0.80739100  1
  O  O87  1  0.80739100  0.51925500  0.80739100  1
  O  O88  1  0.19260900  0.80739100  0.48074500  1
  O  O89  1  0.51925500  0.80739100  0.80739100  1
  O  O90  1  0.19260900  0.48074500  0.80739100  1
  O  O91  1  0.19260900  0.19260900  0.51925500  1
  O  O92  1  0.51925500  0.19260900  0.19260900  1
  O  O93  1  0.19260900  0.51925500  0.19260900  1
  O  O94  1  0.69260900  0.69260900  0.98074500  1
  O  O95  1  0.01925500  0.69260900  0.30739100  1
  O  O96  1  0.69260900  0.01925500  0.30739100  1
  O  O97  1  0.69260900  0.30739100  0.01925500  1
  O  O98  1  0.01925500  0.30739100  0.69260900  1
  O  O99  1  0.69260900  0.98074500  0.69260900  1
  O  O100  1  0.30739100  0.69260900  0.01925500  1
  O  O101  1  0.98074500  0.69260900  0.69260900  1
  O  O102  1  0.30739100  0.01925500  0.69260900  1
  O  O103  1  0.30739100  0.30739100  0.98074500  1
  O  O104  1  0.98074500  0.30739100  0.30739100  1
  O  O105  1  0.30739100  0.98074500  0.30739100  1
