# generated using pymatgen
data_Cu(BrO4)2
_symmetry_space_group_name_H-M   'P 1'
_cell_length_a   6.76053300
_cell_length_b   9.23516400
_cell_length_c   12.10673000
_cell_angle_alpha   90.00000000
_cell_angle_beta   90.00000000
_cell_angle_gamma   90.00000000
_symmetry_Int_Tables_number   1
_chemical_formula_structural   Cu(BrO4)2
_chemical_formula_sum   'Cu4 Br8 O32'
_cell_volume   755.87921995
_cell_formula_units_Z   4
loop_
 _symmetry_equiv_pos_site_id
 _symmetry_equiv_pos_as_xyz
  1  'x, y, z'
loop_
 _atom_site_type_symbol
 _atom_site_label
 _atom_site_symmetry_multiplicity
 _atom_site_fract_x
 _atom_site_fract_y
 _atom_site_fract_z
 _atom_site_occupancy
  Cu  Cu0  1  0.50000000  0.00000000  0.50000000  1
  Cu  Cu1  1  0.00000000  0.50000000  0.50000000  1
  Cu  Cu2  1  0.50000000  0.50000000  0.00000000  1
  Cu  Cu3  1  0.00000000  0.00000000  0.00000000  1
  Br  Br4  1  0.74781300  0.22119400  0.35003800  1
  Br  Br5  1  0.24781300  0.27880600  0.64996200  1
  Br  Br6  1  0.25218700  0.72119400  0.14996200  1
  Br  Br7  1  0.75218700  0.77880600  0.85003800  1
  Br  Br8  1  0.25218700  0.77880600  0.64996200  1
  Br  Br9  1  0.75218700  0.72119400  0.35003800  1
  Br  Br10  1  0.74781300  0.27880600  0.85003800  1
  Br  Br11  1  0.24781300  0.22119400  0.14996200  1
  O  O12  1  0.69929900  0.46986200  0.08998800  1
  O  O13  1  0.19929900  0.03013800  0.91001200  1
  O  O14  1  0.30070100  0.96986200  0.41001200  1
  O  O15  1  0.80070100  0.53013800  0.58998800  1
  O  O16  1  0.30070100  0.53013800  0.91001200  1
  O  O17  1  0.80070100  0.96986200  0.08998800  1
  O  O18  1  0.69929900  0.03013800  0.58998800  1
  O  O19  1  0.19929900  0.46986200  0.41001200  1
  O  O20  1  0.76344200  0.39862000  0.37275700  1
  O  O21  1  0.26344200  0.10138000  0.62724300  1
  O  O22  1  0.23655800  0.89862000  0.12724300  1
  O  O23  1  0.73655800  0.60138000  0.87275700  1
  O  O24  1  0.23655800  0.60138000  0.62724300  1
  O  O25  1  0.73655800  0.89862000  0.37275700  1
  O  O26  1  0.76344200  0.10138000  0.87275700  1
  O  O27  1  0.26344200  0.39862000  0.12724300  1
  O  O28  1  0.54920500  0.19042700  0.44985700  1
  O  O29  1  0.04920500  0.30957300  0.55014300  1
  O  O30  1  0.45079500  0.69042700  0.05014300  1
  O  O31  1  0.95079500  0.80957300  0.94985700  1
  O  O32  1  0.45079500  0.80957300  0.55014300  1
  O  O33  1  0.95079500  0.69042700  0.44985700  1
  O  O34  1  0.54920500  0.30957300  0.94985700  1
  O  O35  1  0.04920500  0.19042700  0.05014300  1
  O  O36  1  0.64449700  0.19809600  0.22836400  1
  O  O37  1  0.14449700  0.30190400  0.77163600  1
  O  O38  1  0.35550300  0.69809600  0.27163600  1
  O  O39  1  0.85550300  0.80190400  0.72836400  1
  O  O40  1  0.35550300  0.80190400  0.77163600  1
  O  O41  1  0.85550300  0.69809600  0.22836400  1
  O  O42  1  0.64449700  0.30190400  0.72836400  1
  O  O43  1  0.14449700  0.19809600  0.27163600  1
