# generated using pymatgen
data_Mn(BO4)4
_symmetry_space_group_name_H-M   'P 1'
_cell_length_a   7.48377900
_cell_length_b   8.33674374
_cell_length_c   9.84758531
_cell_angle_alpha   92.72920194
_cell_angle_beta   104.29082653
_cell_angle_gamma   108.48605257
_symmetry_Int_Tables_number   1
_chemical_formula_structural   Mn(BO4)4
_chemical_formula_sum   'Mn2 B8 O32'
_cell_volume   559.33894097
_cell_formula_units_Z   2
loop_
 _symmetry_equiv_pos_site_id
 _symmetry_equiv_pos_as_xyz
  1  'x, y, z'
loop_
 _atom_site_type_symbol
 _atom_site_label
 _atom_site_symmetry_multiplicity
 _atom_site_fract_x
 _atom_site_fract_y
 _atom_site_fract_z
 _atom_site_occupancy
  Mn  Mn0  1  0.61451100  0.85913600  0.75058600  1
  Mn  Mn1  1  0.38548900  0.14086400  0.24941400  1
  B  B2  1  0.00491600  0.22437500  0.56175900  1
  B  B3  1  0.99508400  0.77562500  0.43824100  1
  B  B4  1  0.18688400  0.47767400  0.91034400  1
  B  B5  1  0.81311600  0.52232600  0.08965600  1
  B  B6  1  0.26771400  0.30933600  0.75863300  1
  B  B7  1  0.73228600  0.69066400  0.24136700  1
  B  B8  1  0.97848300  0.17882500  0.80126800  1
  B  B9  1  0.02151700  0.82117500  0.19873200  1
  O  O10  1  0.92253300  0.18262800  0.41979200  1
  O  O11  1  0.07746700  0.81737200  0.58020800  1
  O  O12  1  0.20713500  0.30713600  0.61328400  1
  O  O13  1  0.79286500  0.69286400  0.38671600  1
  O  O14  1  0.33313100  0.46164900  0.84982800  1
  O  O15  1  0.66686900  0.53835100  0.15017200  1
  O  O16  1  0.22364000  0.63703000  0.97824500  1
  O  O17  1  0.77636000  0.36297000  0.02175500  1
  O  O18  1  0.01466300  0.34191700  0.89186300  1
  O  O19  1  0.98533700  0.65808300  0.10813700  1
  O  O20  1  0.85281500  0.03175200  0.84881900  1
  O  O21  1  0.14718500  0.96824800  0.15118100  1
  O  O22  1  0.88761500  0.19020900  0.65308300  1
  O  O23  1  0.11238500  0.80979100  0.34691700  1
  O  O24  1  0.53627100  0.27722600  0.76489800  1
  O  O25  1  0.46372900  0.72277400  0.23510200  1
  O  O26  1  0.17438600  0.16168200  0.81201600  1
  O  O27  1  0.82561400  0.83831800  0.18798400  1
  O  O28  1  0.68208800  0.87335200  0.59082700  1
  O  O29  1  0.31791200  0.12664800  0.40917300  1
  O  O30  1  0.47050200  0.65863800  0.62605000  1
  O  O31  1  0.52949800  0.34136200  0.37395000  1
  O  O32  1  0.65380200  0.72704000  0.87730100  1
  O  O33  1  0.34619800  0.27296000  0.12269900  1
  O  O34  1  0.77219200  0.67490300  0.70480900  1
  O  O35  1  0.22780800  0.32509700  0.29519100  1
  O  O36  1  0.44985100  0.94011000  0.75940900  1
  O  O37  1  0.55014900  0.05989000  0.24059100  1
  O  O38  1  0.62382100  0.34716000  0.68263800  1
  O  O39  1  0.37617900  0.65284000  0.31736200  1
  O  O40  1  0.91191600  0.08690100  0.07636100  1
  O  O41  1  0.08808400  0.91309900  0.92363900  1
