# generated using pymatgen
data_MgH16(IO8)2
_symmetry_space_group_name_H-M   'P 1'
_cell_length_a   5.58695800
_cell_length_b   10.81192100
_cell_length_c   12.14657777
_cell_angle_alpha   66.71334341
_cell_angle_beta   90.00000000
_cell_angle_gamma   90.00000000
_symmetry_Int_Tables_number   1
_chemical_formula_structural   MgH16(IO8)2
_chemical_formula_sum   'Mg2 H32 I4 O32'
_cell_volume   673.95291648
_cell_formula_units_Z   2
loop_
 _symmetry_equiv_pos_site_id
 _symmetry_equiv_pos_as_xyz
  1  'x, y, z'
loop_
 _atom_site_type_symbol
 _atom_site_label
 _atom_site_symmetry_multiplicity
 _atom_site_fract_x
 _atom_site_fract_y
 _atom_site_fract_z
 _atom_site_occupancy
  Mg  Mg0  1  0.00000000  0.00000000  0.00000000  1
  Mg  Mg1  1  0.50000000  0.00000000  0.50000000  1
  H  H2  1  0.59980400  0.64090800  0.38899600  1
  H  H3  1  0.09980400  0.35909200  0.11100400  1
  H  H4  1  0.40019600  0.35909200  0.61100400  1
  H  H5  1  0.90019600  0.64090800  0.88899600  1
  H  H6  1  0.35618300  0.48181400  0.33123400  1
  H  H7  1  0.85618300  0.51818600  0.16876600  1
  H  H8  1  0.64381700  0.51818600  0.66876600  1
  H  H9  1  0.14381700  0.48181400  0.83123400  1
  H  H10  1  0.17339500  0.75340900  0.11171600  1
  H  H11  1  0.67339500  0.24659100  0.38828400  1
  H  H12  1  0.82660500  0.24659100  0.88828400  1
  H  H13  1  0.32660500  0.75340900  0.61171600  1
  H  H14  1  0.26677900  0.81008100  0.97630900  1
  H  H15  1  0.76677900  0.18991900  0.52369100  1
  H  H16  1  0.73322100  0.18991900  0.02369100  1
  H  H17  1  0.23322100  0.81008100  0.47630900  1
  H  H18  1  0.77314600  0.78925900  0.15754500  1
  H  H19  1  0.27314600  0.21074100  0.34245500  1
  H  H20  1  0.22685400  0.21074100  0.84245500  1
  H  H21  1  0.72685400  0.78925900  0.65754500  1
  H  H22  1  0.55475900  0.87409800  0.08235700  1
  H  H23  1  0.05475900  0.12590200  0.41764300  1
  H  H24  1  0.44524100  0.12590200  0.91764300  1
  H  H25  1  0.94524100  0.87409800  0.58235700  1
  H  H26  1  0.17017100  0.10935600  0.15750400  1
  H  H27  1  0.67017100  0.89064400  0.34249600  1
  H  H28  1  0.82982900  0.89064400  0.84249600  1
  H  H29  1  0.32982900  0.10935600  0.65750400  1
  H  H30  1  0.14880300  0.94907000  0.22914200  1
  H  H31  1  0.64880300  0.05093000  0.27085800  1
  H  H32  1  0.85119700  0.05093000  0.77085800  1
  H  H33  1  0.35119700  0.94907000  0.72914200  1
  I  I34  1  0.03848300  0.62352000  0.37732700  1
  I  I35  1  0.53848300  0.37648000  0.12267300  1
  I  I36  1  0.96151700  0.37648000  0.62267300  1
  I  I37  1  0.46151700  0.62352000  0.87732700  1
  O  O38  1  0.95910600  0.64365900  0.22437300  1
  O  O39  1  0.45910600  0.35634100  0.27562700  1
  O  O40  1  0.04089400  0.35634100  0.77562700  1
  O  O41  1  0.54089400  0.64365900  0.72437300  1
  O  O42  1  0.73314200  0.69645600  0.40071300  1
  O  O43  1  0.23314200  0.30354400  0.09928700  1
  O  O44  1  0.26685800  0.30354400  0.59928700  1
  O  O45  1  0.76685800  0.69645600  0.90071300  1
  O  O46  1  0.18099800  0.78252400  0.35497600  1
  O  O47  1  0.68099800  0.21747600  0.14502400  1
  O  O48  1  0.81900200  0.21747600  0.64502400  1
  O  O49  1  0.31900200  0.78252400  0.85497600  1
  O  O50  1  0.35502400  0.55097100  0.36685200  1
  O  O51  1  0.85502400  0.44902900  0.13314800  1
  O  O52  1  0.64497600  0.44902900  0.63314800  1
  O  O53  1  0.14497600  0.55097100  0.86685200  1
  O  O54  1  0.09674900  0.56174300  0.55597300  1
  O  O55  1  0.59674900  0.43825700  0.94402700  1
  O  O56  1  0.90325100  0.43825700  0.44402700  1
  O  O57  1  0.40325100  0.56174300  0.05597300  1
  O  O58  1  0.23579900  0.83550800  0.04631300  1
  O  O59  1  0.73579900  0.16449200  0.45368700  1
  O  O60  1  0.76420100  0.16449200  0.95368700  1
  O  O61  1  0.26420100  0.83550800  0.54631300  1
  O  O62  1  0.72103500  0.88178700  0.10644600  1
  O  O63  1  0.22103500  0.11821300  0.39355400  1
  O  O64  1  0.27896500  0.11821300  0.89355400  1
  O  O65  1  0.77896500  0.88178700  0.60644600  1
  O  O66  1  0.12574500  0.02454500  0.15119500  1
  O  O67  1  0.62574500  0.97545500  0.34880500  1
  O  O68  1  0.87425500  0.97545500  0.84880500  1
  O  O69  1  0.37425500  0.02454500  0.65119500  1
