# generated using pymatgen
data_CoPN5O6
_symmetry_space_group_name_H-M   'P 1'
_cell_length_a   6.90908576
_cell_length_b   11.07576400
_cell_length_c   11.68905038
_cell_angle_alpha   90.00000000
_cell_angle_beta   107.78076709
_cell_angle_gamma   90.00000000
_symmetry_Int_Tables_number   1
_chemical_formula_structural   CoPN5O6
_chemical_formula_sum   'Co4 P4 N20 O24'
_cell_volume   851.75807317
_cell_formula_units_Z   4
loop_
 _symmetry_equiv_pos_site_id
 _symmetry_equiv_pos_as_xyz
  1  'x, y, z'
loop_
 _atom_site_type_symbol
 _atom_site_label
 _atom_site_symmetry_multiplicity
 _atom_site_fract_x
 _atom_site_fract_y
 _atom_site_fract_z
 _atom_site_occupancy
  Co  Co0  1  0.66964000  0.65400000  0.84410600  1
  Co  Co1  1  0.83036000  0.15400000  0.65589400  1
  Co  Co2  1  0.33036000  0.34600000  0.15589400  1
  Co  Co3  1  0.16964000  0.84600000  0.34410600  1
  P  P4  1  0.22612200  0.52449300  0.75741500  1
  P  P5  1  0.27387800  0.02449300  0.74258500  1
  P  P6  1  0.77387800  0.47550700  0.24258500  1
  P  P7  1  0.72612200  0.97550700  0.25741500  1
  N  N8  1  0.45318700  0.69402400  0.90984600  1
  N  N9  1  0.04681300  0.19402400  0.59015400  1
  N  N10  1  0.54681300  0.30597600  0.09015400  1
  N  N11  1  0.95318700  0.80597600  0.40984600  1
  N  N12  1  0.86448600  0.78993200  0.91075400  1
  N  N13  1  0.63551400  0.28993200  0.58924600  1
  N  N14  1  0.13551400  0.21006800  0.08924600  1
  N  N15  1  0.36448600  0.71006800  0.41075400  1
  N  N16  1  0.79332100  0.52567200  0.90046200  1
  N  N17  1  0.70667900  0.02567200  0.59953800  1
  N  N18  1  0.20667900  0.47432800  0.09953800  1
  N  N19  1  0.29332100  0.97432800  0.40046200  1
  N  N20  1  0.52346500  0.63897100  0.69788700  1
  N  N21  1  0.97653500  0.13897100  0.80211300  1
  N  N22  1  0.47653500  0.36102900  0.30211300  1
  N  N23  1  0.02346500  0.86102900  0.19788700  1
  N  N24  1  0.99501300  0.85381300  0.94109400  1
  N  N25  1  0.50498700  0.35381300  0.55890600  1
  N  N26  1  0.00498700  0.14618700  0.05890600  1
  N  N27  1  0.49501300  0.64618700  0.44109400  1
  O  O28  1  0.37601700  0.43154900  0.81802600  1
  O  O29  1  0.12398300  0.93154900  0.68197400  1
  O  O30  1  0.62398300  0.56845100  0.18197400  1
  O  O31  1  0.87601700  0.06845100  0.31802600  1
  O  O32  1  0.83700400  0.42380200  0.90004200  1
  O  O33  1  0.66299600  0.92380200  0.59995800  1
  O  O34  1  0.16299600  0.57619800  0.09995800  1
  O  O35  1  0.33700400  0.07619800  0.40004200  1
  O  O36  1  0.01073200  0.50915600  0.68687400  1
  O  O37  1  0.48926800  0.00915600  0.81312600  1
  O  O38  1  0.98926800  0.49084400  0.31312600  1
  O  O39  1  0.51073200  0.99084400  0.18687400  1
  O  O40  1  0.24208000  0.64556300  0.84328500  1
  O  O41  1  0.25792000  0.14556300  0.65671500  1
  O  O42  1  0.75792000  0.35443700  0.15671500  1
  O  O43  1  0.74208000  0.85443700  0.34328500  1
  O  O44  1  0.34632000  0.59809200  0.65181500  1
  O  O45  1  0.15368000  0.09809200  0.84818500  1
  O  O46  1  0.65368000  0.40190800  0.34818500  1
  O  O47  1  0.84632000  0.90190800  0.15181500  1
  O  O48  1  0.95432600  0.75504900  0.49841700  1
  O  O49  1  0.54567400  0.25504900  0.00158300  1
  O  O50  1  0.04567400  0.24495100  0.50158300  1
  O  O51  1  0.45432600  0.74495100  0.99841700  1
