# generated using pymatgen
data_Ba3NaCaY(C2O7)3
_symmetry_space_group_name_H-M   'P 1'
_cell_length_a   9.40455904
_cell_length_b   9.40455904
_cell_length_c   14.25985015
_cell_angle_alpha   72.72923880
_cell_angle_beta   72.72923880
_cell_angle_gamma   59.49061951
_symmetry_Int_Tables_number   1
_chemical_formula_structural   Ba3NaCaY(C2O7)3
_chemical_formula_sum   'Ba6 Na2 Ca2 Y2 C12 O42'
_cell_volume   1021.10235533
_cell_formula_units_Z   2
loop_
 _symmetry_equiv_pos_site_id
 _symmetry_equiv_pos_as_xyz
  1  'x, y, z'
loop_
 _atom_site_type_symbol
 _atom_site_label
 _atom_site_symmetry_multiplicity
 _atom_site_fract_x
 _atom_site_fract_y
 _atom_site_fract_z
 _atom_site_occupancy
  Ba  Ba0  1  0.15246200  0.97969900  0.29263100  1
  Ba  Ba1  1  0.97969900  0.15246200  0.79263100  1
  Ba  Ba2  1  0.46652200  0.30827800  0.30514500  1
  Ba  Ba3  1  0.30827800  0.46652200  0.80514500  1
  Ba  Ba4  1  0.80748900  0.61466800  0.33522900  1
  Ba  Ba5  1  0.61466800  0.80748900  0.83522900  1
  Na  Na6  1  0.08590400  0.22873600  0.50360200  1
  Na  Na7  1  0.22873600  0.08590400  0.00360200  1
  Ca  Ca8  1  0.75139400  0.91859700  0.48509100  1
  Ca  Ca9  1  0.91859700  0.75139400  0.98509100  1
  Y  Y10  1  0.40918300  0.58144000  0.50405400  1
  Y  Y11  1  0.58144000  0.40918300  0.00405400  1
  C  C12  1  0.77885800  0.27984600  0.38840500  1
  C  C13  1  0.27984600  0.77885800  0.88840500  1
  C  C14  1  0.45432500  0.94271600  0.37961500  1
  C  C15  1  0.94271600  0.45432500  0.87961500  1
  C  C16  1  0.12132500  0.61613200  0.38656100  1
  C  C17  1  0.61613200  0.12132500  0.88656100  1
  C  C18  1  0.16985500  0.86229400  0.59625600  1
  C  C19  1  0.86229400  0.16985500  0.09625600  1
  C  C20  1  0.69015700  0.45543000  0.60065300  1
  C  C21  1  0.45543000  0.69015700  0.10065300  1
  C  C22  1  0.28966400  0.32780100  0.58970200  1
  C  C23  1  0.32780100  0.28966400  0.08970200  1
  O  O24  1  0.77544100  0.14429700  0.38716200  1
  O  O25  1  0.14429700  0.77544100  0.88716200  1
  O  O26  1  0.91798000  0.27678500  0.38660000  1
  O  O27  1  0.27678500  0.91798000  0.88660000  1
  O  O28  1  0.64007200  0.42271300  0.38557500  1
  O  O29  1  0.42271300  0.64007200  0.88557500  1
  O  O30  1  0.31965900  0.08224600  0.37241900  1
  O  O31  1  0.08224600  0.31965900  0.87241900  1
  O  O32  1  0.46180300  0.80283600  0.37337300  1
  O  O33  1  0.80283600  0.46180300  0.87337300  1
  O  O34  1  0.59083300  0.93938900  0.38830400  1
  O  O35  1  0.93938900  0.59083300  0.88830400  1
  O  O36  1  0.98179100  0.75685400  0.38480900  1
  O  O37  1  0.75685400  0.98179100  0.88480900  1
  O  O38  1  0.26096800  0.62045700  0.37953700  1
  O  O39  1  0.62045700  0.26096800  0.87953700  1
  O  O40  1  0.12125300  0.47816500  0.38979500  1
  O  O41  1  0.47816500  0.12125300  0.88979500  1
  O  O42  1  0.28239500  0.73047400  0.64343400  1
  O  O43  1  0.73047400  0.28239500  0.14343400  1
  O  O44  1  0.16303100  0.84823000  0.50961300  1
  O  O45  1  0.84823000  0.16303100  0.00961300  1
  O  O46  1  0.07628700  0.99812100  0.63082600  1
  O  O47  1  0.99812100  0.07628700  0.13082600  1
  O  O48  1  0.65485800  0.58927600  0.53008300  1
  O  O49  1  0.58927600  0.65485800  0.03008300  1
  O  O50  1  0.57648200  0.40346200  0.63405700  1
  O  O51  1  0.40346200  0.57648200  0.13405700  1
  O  O52  1  0.82922700  0.37965100  0.63167700  1
  O  O53  1  0.37965100  0.82922700  0.13167700  1
  O  O54  1  0.40869800  0.30410200  0.51231000  1
  O  O55  1  0.30410200  0.40869800  0.01231000  1
  O  O56  1  0.24672200  0.45436800  0.63070400  1
  O  O57  1  0.45436800  0.24672200  0.13070400  1
  O  O58  1  0.21535600  0.23652200  0.62310900  1
  O  O59  1  0.23652200  0.21535600  0.12310900  1
  O  O60  1  0.76481000  0.94710400  0.65813600  1
  O  O61  1  0.94710400  0.76481000  0.15813600  1
  O  O62  1  0.87986400  0.79431100  0.63340900  1
  O  O63  1  0.79431100  0.87986400  0.13340900  1
  O  O64  1  0.60435600  0.99253900  0.64340500  1
  O  O65  1  0.99253900  0.60435600  0.14340500  1
