# generated using pymatgen
data_K3Be2H7C3O13
_symmetry_space_group_name_H-M   'P 1'
_cell_length_a   9.58400700
_cell_length_b   9.69199073
_cell_length_c   16.17617833
_cell_angle_alpha   79.04090338
_cell_angle_beta   78.72757190
_cell_angle_gamma   64.85874753
_symmetry_Int_Tables_number   1
_chemical_formula_structural   K3Be2H7C3O13
_chemical_formula_sum   'K12 Be8 H28 C12 O52'
_cell_volume   1324.25000202
_cell_formula_units_Z   4
loop_
 _symmetry_equiv_pos_site_id
 _symmetry_equiv_pos_as_xyz
  1  'x, y, z'
loop_
 _atom_site_type_symbol
 _atom_site_label
 _atom_site_symmetry_multiplicity
 _atom_site_fract_x
 _atom_site_fract_y
 _atom_site_fract_z
 _atom_site_occupancy
  K  K0  1  0.74635300  0.24558800  0.63749600  1
  K  K1  1  0.25364700  0.75441200  0.36250400  1
  K  K2  1  0.90971000  0.85582100  0.17273100  1
  K  K3  1  0.09029000  0.14417900  0.82726900  1
  K  K4  1  0.73241500  0.35990100  0.98715600  1
  K  K5  1  0.26758500  0.64009900  0.01284400  1
  K  K6  1  0.79462700  0.88757700  0.43029000  1
  K  K7  1  0.20537300  0.11242300  0.56971000  1
  K  K8  1  0.50575300  0.27759500  0.42792800  1
  K  K9  1  0.49424700  0.72240500  0.57207200  1
  K  K10  1  0.58464800  0.77240000  0.08895600  1
  K  K11  1  0.41535200  0.22760000  0.91104400  1
  Be  Be12  1  0.91608400  0.61582600  0.80116600  1
  Be  Be13  1  0.08391600  0.38417400  0.19883400  1
  Be  Be14  1  0.68749400  0.90160300  0.77615000  1
  Be  Be15  1  0.31250600  0.09839700  0.22385000  1
  Be  Be16  1  0.98490500  0.85822100  0.73215500  1
  Be  Be17  1  0.01509500  0.14177900  0.26784500  1
  Be  Be18  1  0.85358300  0.74538100  0.64353100  1
  Be  Be19  1  0.14641700  0.25461900  0.35646900  1
  H  H20  1  0.95177400  0.66381900  0.97761400  1
  H  H21  1  0.04822600  0.33618100  0.02238600  1
  H  H22  1  0.94216200  0.57597400  0.06938500  1
  H  H23  1  0.05783800  0.42402600  0.93061500  1
  H  H24  1  0.59012300  0.13455800  0.24475900  1
  H  H25  1  0.40987700  0.86544200  0.75524100  1
  H  H26  1  0.72665300  0.17086700  0.26239400  1
  H  H27  1  0.27334700  0.82913300  0.73760600  1
  H  H28  1  0.72944300  0.04221700  0.00636000  1
  H  H29  1  0.27055700  0.95778300  0.99364000  1
  H  H30  1  0.60617800  0.09695800  0.08635000  1
  H  H31  1  0.39382200  0.90304200  0.91365000  1
  H  H32  1  0.87925500  0.42400300  0.47296300  1
  H  H33  1  0.12074500  0.57599700  0.52703700  1
  H  H34  1  0.83236700  0.52634600  0.54851900  1
  H  H35  1  0.16763300  0.47365400  0.45148100  1
  H  H36  1  0.59884900  0.80813000  0.28119200  1
  H  H37  1  0.40115100  0.19187000  0.71880800  1
  H  H38  1  0.76992900  0.66751900  0.26821000  1
  H  H39  1  0.23007100  0.33248100  0.73179000  1
  H  H40  1  0.36144300  0.47778200  0.55653800  1
  H  H41  1  0.63855700  0.52221800  0.44346200  1
  H  H42  1  0.40025900  0.41485300  0.64753100  1
  H  H43  1  0.59974100  0.58514700  0.35246900  1
  H  H44  1  0.64139800  0.51449800  0.77063100  1
  H  H45  1  0.35860200  0.48550200  0.22936900  1
  H  H46  1  0.52292100  0.49081100  0.21227500  1
  H  H47  1  0.47707900  0.50918900  0.78772500  1
  C  C48  1  0.59597600  0.99728200  0.62635900  1
  C  C49  1  0.40402400  0.00271800  0.37364100  1
  C  C50  1  0.83093800  0.37497100  0.17331900  1
  C  C51  1  0.16906200  0.62502900  0.82668100  1
  C  C52  1  0.62708600  0.69152800  0.87927500  1
  C  C53  1  0.37291400  0.30847200  0.12072500  1
  C  C54  1  0.80642700  0.03388200  0.85098700  1
  C  C55  1  0.19357300  0.96611800  0.14901300  1
  C  C56  1  0.92457600  0.15974300  0.42443400  1
  C  C57  1  0.07542400  0.84025700  0.57556600  1
  C  C58  1  0.94747300  0.44814300  0.68536900  1
  C  C59  1  0.05252700  0.55185700  0.31463100  1
  O  O60  1  0.86051600  0.77887500  0.73889000  1
  O  O61  1  0.13948400  0.22112500  0.26111000  1
  O  O62  1  0.69480600  0.86276800  0.60368300  1
  O  O63  1  0.30519400  0.13723200  0.39631700  1
  O  O64  1  0.60066400  0.03041500  0.70146300  1
  O  O65  1  0.39933600  0.96958500  0.29853700  1
  O  O66  1  0.49889600  0.09292900  0.57936900  1
  O  O67  1  0.50110400  0.90707100  0.42063100  1
  O  O68  1  0.84565100  0.27189700  0.23981000  1
  O  O69  1  0.15434900  0.72810300  0.76019000  1
  O  O70  1  0.95643400  0.40103600  0.13798100  1
  O  O71  1  0.04356600  0.59896400  0.86201900  1
  O  O72  1  0.70468800  0.44613100  0.14221500  1
  O  O73  1  0.29531200  0.55386900  0.85778500  1
  O  O74  1  0.57501000  0.81203600  0.82229100  1
  O  O75  1  0.42499000  0.18796400  0.17770900  1
  O  O76  1  0.77270800  0.59457100  0.86768200  1
  O  O77  1  0.22729200  0.40542900  0.13231800  1
  O  O78  1  0.53745300  0.66861200  0.94401600  1
  O  O79  1  0.46254700  0.33138800  0.05598400  1
  O  O80  1  0.92661100  0.99496200  0.79211300  1
  O  O81  1  0.07338900  0.00503800  0.20788700  1
  O  O82  1  0.69359000  0.99220500  0.85043200  1
  O  O83  1  0.30641000  0.00779500  0.14956800  1
  O  O84  1  0.79964700  0.11303700  0.90744400  1
  O  O85  1  0.20035300  0.88696300  0.09255600  1
  O  O86  1  0.97516600  0.07022600  0.36344600  1
  O  O87  1  0.02483400  0.92977400  0.63655400  1
  O  O88  1  0.99576100  0.25053700  0.42509500  1
  O  O89  1  0.00423900  0.74946300  0.57490500  1
  O  O90  1  0.81277100  0.15829800  0.47989000  1
  O  O91  1  0.18722900  0.84170200  0.52011000  1
  O  O92  1  0.85572500  0.57378900  0.64312000  1
  O  O93  1  0.14427500  0.42621100  0.35688000  1
  O  O94  1  0.00483400  0.46389700  0.74914300  1
  O  O95  1  0.99516600  0.53610300  0.25085700  1
  O  O96  1  0.97913800  0.31654200  0.66679800  1
  O  O97  1  0.02086200  0.68345800  0.33320200  1
  O  O98  1  0.93588500  0.67650100  0.03797200  1
  O  O99  1  0.06411500  0.32349900  0.96202800  1
  O  O100  1  0.67170600  0.10109100  0.28175700  1
  O  O101  1  0.32829400  0.89890900  0.71824300  1
  O  O102  1  0.69325300  0.00644600  0.06516100  1
  O  O103  1  0.30674700  0.99355400  0.93483900  1
  O  O104  1  0.79813800  0.51773300  0.49621000  1
  O  O105  1  0.20186200  0.48226700  0.50379000  1
  O  O106  1  0.66450800  0.71647700  0.25186900  1
  O  O107  1  0.33549200  0.28352300  0.74813100  1
  O  O108  1  0.56235200  0.53699800  0.40600500  1
  O  O109  1  0.43764800  0.46300200  0.59399500  1
  O  O110  1  0.58302400  0.46312500  0.75624200  1
  O  O111  1  0.41697600  0.53687500  0.24375800  1
