# generated using pymatgen
data_DyMnSn2
_symmetry_space_group_name_H-M   'P 1'
_cell_length_a   9.04666400
_cell_length_b   10.47286400
_cell_length_c   11.43796000
_cell_angle_alpha   90.00000000
_cell_angle_beta   90.00000000
_cell_angle_gamma   90.00000000
_symmetry_Int_Tables_number   1
_chemical_formula_structural   DyMnSn2
_chemical_formula_sum   'Dy12 Mn12 Sn24'
_cell_volume   1083.68359220
_cell_formula_units_Z   12
loop_
 _symmetry_equiv_pos_site_id
 _symmetry_equiv_pos_as_xyz
  1  'x, y, z'
loop_
 _atom_site_type_symbol
 _atom_site_label
 _atom_site_symmetry_multiplicity
 _atom_site_fract_x
 _atom_site_fract_y
 _atom_site_fract_z
 _atom_site_occupancy
  Dy  Dy0  1  0.24333300  0.82905800  0.45289500  1
  Dy  Dy1  1  0.24333300  0.17094200  0.54710500  1
  Dy  Dy2  1  0.75666700  0.32905800  0.04710500  1
  Dy  Dy3  1  0.75666700  0.67094200  0.95289500  1
  Dy  Dy4  1  0.75666700  0.17094200  0.54710500  1
  Dy  Dy5  1  0.75666700  0.82905800  0.45289500  1
  Dy  Dy6  1  0.24333300  0.67094200  0.95289500  1
  Dy  Dy7  1  0.24333300  0.32905800  0.04710500  1
  Dy  Dy8  1  0.00000000  0.83511100  0.17919300  1
  Dy  Dy9  1  0.00000000  0.16488900  0.82080700  1
  Dy  Dy10  1  0.00000000  0.33511100  0.32080700  1
  Dy  Dy11  1  0.00000000  0.66488900  0.67919300  1
  Mn  Mn12  1  0.24692500  0.58836600  0.25373600  1
  Mn  Mn13  1  0.24692500  0.41163400  0.74626400  1
  Mn  Mn14  1  0.75307500  0.08836600  0.24626400  1
  Mn  Mn15  1  0.75307500  0.91163400  0.75373600  1
  Mn  Mn16  1  0.75307500  0.41163400  0.74626400  1
  Mn  Mn17  1  0.75307500  0.58836600  0.25373600  1
  Mn  Mn18  1  0.24692500  0.91163400  0.75373600  1
  Mn  Mn19  1  0.24692500  0.08836600  0.24626400  1
  Mn  Mn20  1  0.24230500  0.50000000  0.50000000  1
  Mn  Mn21  1  0.75769500  0.00000000  0.00000000  1
  Mn  Mn22  1  0.75769500  0.50000000  0.50000000  1
  Mn  Mn23  1  0.24230500  0.00000000  0.00000000  1
  Sn  Sn24  1  0.33843100  0.83810300  0.18103700  1
  Sn  Sn25  1  0.33843100  0.16189700  0.81896300  1
  Sn  Sn26  1  0.66156900  0.33810300  0.31896300  1
  Sn  Sn27  1  0.66156900  0.66189700  0.68103700  1
  Sn  Sn28  1  0.66156900  0.16189700  0.81896300  1
  Sn  Sn29  1  0.66156900  0.83810300  0.18103700  1
  Sn  Sn30  1  0.33843100  0.66189700  0.68103700  1
  Sn  Sn31  1  0.33843100  0.33810300  0.31896300  1
  Sn  Sn32  1  0.50000000  0.54451600  0.12507400  1
  Sn  Sn33  1  0.50000000  0.45548400  0.87492600  1
  Sn  Sn34  1  0.50000000  0.04451600  0.37492600  1
  Sn  Sn35  1  0.50000000  0.95548400  0.62507400  1
  Sn  Sn36  1  0.00000000  0.54062600  0.12235300  1
  Sn  Sn37  1  0.00000000  0.45937400  0.87764700  1
  Sn  Sn38  1  0.00000000  0.04062600  0.37764700  1
  Sn  Sn39  1  0.00000000  0.95937400  0.62235300  1
  Sn  Sn40  1  0.50000000  0.62493800  0.40571700  1
  Sn  Sn41  1  0.50000000  0.37506200  0.59428300  1
  Sn  Sn42  1  0.50000000  0.12493800  0.09428300  1
  Sn  Sn43  1  0.50000000  0.87506200  0.90571700  1
  Sn  Sn44  1  0.00000000  0.62913400  0.39870200  1
  Sn  Sn45  1  0.00000000  0.37086600  0.60129800  1
  Sn  Sn46  1  0.00000000  0.12913400  0.10129800  1
  Sn  Sn47  1  0.00000000  0.87086600  0.89870200  1
