# generated using pymatgen
data_CaU2(SiO8)2
_symmetry_space_group_name_H-M   'P 1'
_cell_length_a   14.34708100
_cell_length_b   6.75392400
_cell_length_c   14.04614680
_cell_angle_alpha   88.79839372
_cell_angle_beta   90.00000000
_cell_angle_gamma   90.00000000
_symmetry_Int_Tables_number   1
_chemical_formula_structural   CaU2(SiO8)2
_chemical_formula_sum   'Ca4 U8 Si8 O64'
_cell_volume   1360.75960696
_cell_formula_units_Z   4
loop_
 _symmetry_equiv_pos_site_id
 _symmetry_equiv_pos_as_xyz
  1  'x, y, z'
loop_
 _atom_site_type_symbol
 _atom_site_label
 _atom_site_symmetry_multiplicity
 _atom_site_fract_x
 _atom_site_fract_y
 _atom_site_fract_z
 _atom_site_occupancy
  Ca  Ca0  1  0.01337800  0.74662700  0.66729500  1
  Ca  Ca1  1  0.51337800  0.25337300  0.83270500  1
  Ca  Ca2  1  0.98662200  0.25337300  0.33270500  1
  Ca  Ca3  1  0.48662200  0.74662700  0.16729500  1
  U  U4  1  0.25703800  0.76485900  0.52655500  1
  U  U5  1  0.75703800  0.23514100  0.97344500  1
  U  U6  1  0.74296200  0.23514100  0.47344500  1
  U  U7  1  0.24296200  0.76485900  0.02655500  1
  U  U8  1  0.75809100  0.50921500  0.72326600  1
  U  U9  1  0.25809100  0.49078500  0.77673400  1
  U  U10  1  0.24190900  0.49078500  0.27673400  1
  U  U11  1  0.74190900  0.50921500  0.22326600  1
  Si  Si12  1  0.28571900  0.30091100  0.52675200  1
  Si  Si13  1  0.78571900  0.69908900  0.97324800  1
  Si  Si14  1  0.71428100  0.69908900  0.47324800  1
  Si  Si15  1  0.21428100  0.30091100  0.02675200  1
  Si  Si16  1  0.30715600  0.96014700  0.77795100  1
  Si  Si17  1  0.80715600  0.03985300  0.72204900  1
  Si  Si18  1  0.69284400  0.03985300  0.22204900  1
  Si  Si19  1  0.19284400  0.96014700  0.27795100  1
  O  O20  1  0.13254700  0.54635800  0.75519800  1
  O  O21  1  0.63254700  0.45364200  0.74480200  1
  O  O22  1  0.86745300  0.45364200  0.24480200  1
  O  O23  1  0.36745300  0.54635800  0.25519800  1
  O  O24  1  0.38097800  0.78856300  0.50293600  1
  O  O25  1  0.88097800  0.21143700  0.99706400  1
  O  O26  1  0.61902200  0.21143700  0.49706400  1
  O  O27  1  0.11902200  0.78856300  0.00293600  1
  O  O28  1  0.38507100  0.45992200  0.79937500  1
  O  O29  1  0.88507100  0.54007800  0.70062500  1
  O  O30  1  0.61492900  0.54007800  0.20062500  1
  O  O31  1  0.11492900  0.45992200  0.29937500  1
  O  O32  1  0.13194100  0.72132100  0.55342800  1
  O  O33  1  0.63194100  0.27867900  0.94657200  1
  O  O34  1  0.86805900  0.27867900  0.44657200  1
  O  O35  1  0.36805900  0.72132100  0.05342800  1
  O  O36  1  0.28192900  0.80835200  0.68912400  1
  O  O37  1  0.78192900  0.19164800  0.81087600  1
  O  O38  1  0.71807100  0.19164800  0.31087600  1
  O  O39  1  0.21807100  0.80835200  0.18912400  1
  O  O40  1  0.28245500  0.44288800  0.61644300  1
  O  O41  1  0.78245500  0.55711200  0.88355700  1
  O  O42  1  0.71754500  0.55711200  0.38355700  1
  O  O43  1  0.21754500  0.44288800  0.11644300  1
  O  O44  1  0.27699200  0.80665400  0.86744000  1
  O  O45  1  0.77699200  0.19334600  0.63256000  1
  O  O46  1  0.72300800  0.19334600  0.13256000  1
  O  O47  1  0.22300800  0.80665400  0.36744000  1
  O  O48  1  0.22955800  0.44639300  0.93683100  1
  O  O49  1  0.72955800  0.55360700  0.56316900  1
  O  O50  1  0.77044200  0.55360700  0.06316900  1
  O  O51  1  0.27044200  0.44639300  0.43683100  1
  O  O52  1  0.24265200  0.08717900  0.53019700  1
  O  O53  1  0.74265200  0.91282100  0.96980300  1
  O  O54  1  0.75734800  0.91282100  0.46980300  1
  O  O55  1  0.25734800  0.08717900  0.03019700  1
  O  O56  1  0.24484800  0.16611000  0.77494400  1
  O  O57  1  0.74484800  0.83389000  0.72505600  1
  O  O58  1  0.75515200  0.83389000  0.22505600  1
  O  O59  1  0.25515200  0.16611000  0.27494400  1
  O  O60  1  0.41495400  0.23841000  0.51346200  1
  O  O61  1  0.91495400  0.76159000  0.98653800  1
  O  O62  1  0.58504600  0.76159000  0.48653800  1
  O  O63  1  0.08504600  0.23841000  0.01346200  1
  O  O64  1  0.41502700  0.03016800  0.78100800  1
  O  O65  1  0.91502700  0.96983200  0.71899200  1
  O  O66  1  0.58497300  0.96983200  0.21899200  1
  O  O67  1  0.08497300  0.03016800  0.28100800  1
  O  O68  1  0.44614300  0.17910700  0.00736600  1
  O  O69  1  0.94614300  0.82089300  0.49263400  1
  O  O70  1  0.55385700  0.82089300  0.99263400  1
  O  O71  1  0.05385700  0.17910700  0.50736600  1
  O  O72  1  0.97081900  0.69676900  0.92486100  1
  O  O73  1  0.47081900  0.30323100  0.57513900  1
  O  O74  1  0.02918100  0.30323100  0.07513900  1
  O  O75  1  0.52918100  0.69676900  0.42486100  1
  O  O76  1  0.04546600  0.14301400  0.66497100  1
  O  O77  1  0.54546600  0.85698600  0.83502900  1
  O  O78  1  0.95453400  0.85698600  0.33502900  1
  O  O79  1  0.45453400  0.14301400  0.16497100  1
  O  O80  1  0.04055700  0.25999500  0.59071900  1
  O  O81  1  0.54055700  0.74000500  0.90928100  1
  O  O82  1  0.95944300  0.74000500  0.40928100  1
  O  O83  1  0.45944300  0.25999500  0.09071900  1
