# generated using pymatgen
data_FeH7(CO2)4
_symmetry_space_group_name_H-M   'P 1'
_cell_length_a   7.76376537
_cell_length_b   7.84707240
_cell_length_c   8.22296522
_cell_angle_alpha   106.91843950
_cell_angle_beta   94.68676512
_cell_angle_gamma   115.59754733
_symmetry_Int_Tables_number   1
_chemical_formula_structural   FeH7(CO2)4
_chemical_formula_sum   'Fe2 H14 C8 O16'
_cell_volume   419.56511313
_cell_formula_units_Z   2
loop_
 _symmetry_equiv_pos_site_id
 _symmetry_equiv_pos_as_xyz
  1  'x, y, z'
loop_
 _atom_site_type_symbol
 _atom_site_label
 _atom_site_symmetry_multiplicity
 _atom_site_fract_x
 _atom_site_fract_y
 _atom_site_fract_z
 _atom_site_occupancy
  Fe  Fe0  1  0.68923300  0.69686500  0.60650300  1
  Fe  Fe1  1  0.31076700  0.30313500  0.39349700  1
  H  H2  1  0.58400600  0.35204500  0.64544600  1
  H  H3  1  0.41599400  0.64795500  0.35455400  1
  H  H4  1  0.76968200  0.04047000  0.55043200  1
  H  H5  1  0.23031800  0.95953000  0.44956800  1
  H  H6  1  0.86518000  0.10254200  0.75709000  1
  H  H7  1  0.13482000  0.89745800  0.24291000  1
  H  H8  1  0.96037000  0.74118400  0.86659600  1
  H  H9  1  0.03963000  0.25881600  0.13340400  1
  H  H10  1  0.07118100  0.80595200  0.71304200  1
  H  H11  1  0.92881900  0.19404800  0.28695800  1
  H  H12  1  0.38683400  0.01344900  0.72105600  1
  H  H13  1  0.61316600  0.98655100  0.27894400  1
  H  H14  1  0.32366500  0.78915700  0.59194400  1
  H  H15  1  0.67633500  0.21084300  0.40805600  1
  C  C16  1  0.75229300  0.57210000  0.24555000  1
  C  C17  1  0.24770700  0.42790000  0.75445000  1
  C  C18  1  0.57338300  0.38402700  0.14299000  1
  C  C19  1  0.42661700  0.61597300  0.85701000  1
  C  C20  1  0.64516500  0.38405500  0.98224000  1
  C  C21  1  0.35483500  0.61594500  0.01776000  1
  C  C22  1  0.82476100  0.57949800  0.08703000  1
  C  C23  1  0.17523900  0.42050200  0.91297000  1
  O  O24  1  0.82092200  0.69469400  0.40344800  1
  O  O25  1  0.17907800  0.30530600  0.59655200  1
  O  O26  1  0.41158200  0.27090100  0.17009300  1
  O  O27  1  0.58841800  0.72909900  0.82990700  1
  O  O28  1  0.57491600  0.27150400  0.82361000  1
  O  O29  1  0.42508400  0.72849600  0.17639000  1
  O  O30  1  0.97232800  0.70900100  0.05800100  1
  O  O31  1  0.02767200  0.29099900  0.94199900  1
  O  O32  1  0.57750400  0.39328300  0.54250900  1
  O  O33  1  0.42249600  0.60671700  0.45749100  1
  O  O34  1  0.76364800  0.99112700  0.64927200  1
  O  O35  1  0.23635200  0.00887300  0.35072800  1
  O  O36  1  0.94637700  0.76559000  0.75437900  1
  O  O37  1  0.05362300  0.23441000  0.24562100  1
  O  O38  1  0.27378400  0.88613900  0.63588400  1
  O  O39  1  0.72621600  0.11386100  0.36411600  1
