# generated using pymatgen
data_Nd10Se14O
_symmetry_space_group_name_H-M   'P 1'
_cell_length_a   15.24888339
_cell_length_b   15.24888339
_cell_length_c   15.24888339
_cell_angle_alpha   117.73501446
_cell_angle_beta   117.73501446
_cell_angle_gamma   93.96998748
_symmetry_Int_Tables_number   1
_chemical_formula_structural   Nd10Se14O
_chemical_formula_sum   'Nd40 Se56 O4'
_cell_volume   2586.37881603
_cell_formula_units_Z   4
loop_
 _symmetry_equiv_pos_site_id
 _symmetry_equiv_pos_as_xyz
  1  'x, y, z'
loop_
 _atom_site_type_symbol
 _atom_site_label
 _atom_site_symmetry_multiplicity
 _atom_site_fract_x
 _atom_site_fract_y
 _atom_site_fract_z
 _atom_site_occupancy
  Nd  Nd0  1  0.95698500  0.60425000  0.90614200  1
  Nd  Nd1  1  0.45698500  0.55084300  0.35273500  1
  Nd  Nd2  1  0.85425000  0.70698500  0.40614200  1
  Nd  Nd3  1  0.35425000  0.94810700  0.14726500  1
  Nd  Nd4  1  0.79301500  0.64575000  0.59385800  1
  Nd  Nd5  1  0.29301500  0.69915700  0.14726500  1
  Nd  Nd6  1  0.89575000  0.54301500  0.09385800  1
  Nd  Nd7  1  0.39575000  0.30189300  0.35273500  1
  Nd  Nd8  1  0.19810700  0.10425000  0.64726500  1
  Nd  Nd9  1  0.69810700  0.05084300  0.09385800  1
  Nd  Nd10  1  0.80084300  0.20698500  0.85273500  1
  Nd  Nd11  1  0.30084300  0.44810700  0.59385800  1
  Nd  Nd12  1  0.55189300  0.14575000  0.85273500  1
  Nd  Nd13  1  0.05189300  0.19915700  0.40614200  1
  Nd  Nd14  1  0.94915700  0.04301500  0.64726500  1
  Nd  Nd15  1  0.44915700  0.80189300  0.90614200  1
  Nd  Nd16  1  0.18683600  0.82002100  0.37586200  1
  Nd  Nd17  1  0.68683600  0.31097300  0.36681500  1
  Nd  Nd18  1  0.07002100  0.93683600  0.87586200  1
  Nd  Nd19  1  0.57002100  0.69415800  0.13318500  1
  Nd  Nd20  1  0.56316400  0.42997900  0.12413800  1
  Nd  Nd21  1  0.06316400  0.93902700  0.13318500  1
  Nd  Nd22  1  0.67997900  0.31316400  0.62413800  1
  Nd  Nd23  1  0.17997900  0.55584200  0.36681500  1
  Nd  Nd24  1  0.94415800  0.32002100  0.63318500  1
  Nd  Nd25  1  0.44415800  0.81097300  0.62413800  1
  Nd  Nd26  1  0.56097300  0.43683600  0.86681500  1
  Nd  Nd27  1  0.06097300  0.19415800  0.12413800  1
  Nd  Nd28  1  0.80584200  0.92997900  0.86681500  1
  Nd  Nd29  1  0.30584200  0.43902700  0.87586200  1
  Nd  Nd30  1  0.18902700  0.81316400  0.63318500  1
  Nd  Nd31  1  0.68902700  0.05584200  0.37586200  1
  Nd  Nd32  1  0.88400500  0.88400500  0.26801000  1
  Nd  Nd33  1  0.38400500  0.11599500  0.00000000  1
  Nd  Nd34  1  0.13400500  0.63400500  0.76801000  1
  Nd  Nd35  1  0.63400500  0.86599500  0.50000000  1
  Nd  Nd36  1  0.86599500  0.36599500  0.23199000  1
  Nd  Nd37  1  0.36599500  0.13400500  0.50000000  1
  Nd  Nd38  1  0.61599500  0.61599500  0.73199000  1
  Nd  Nd39  1  0.11599500  0.38400500  0.00000000  1
  Se  Se40  1  0.89533500  0.00398800  0.15415500  1
  Se  Se41  1  0.39533500  0.24117900  0.89134600  1
  Se  Se42  1  0.25398800  0.64533500  0.65415500  1
  Se  Se43  1  0.75398800  0.09983300  0.60865400  1
  Se  Se44  1  0.85466500  0.24601200  0.34584500  1
  Se  Se45  1  0.35466500  0.00882100  0.60865400  1
  Se  Se46  1  0.49601200  0.60466500  0.84584500  1
  Se  Se47  1  0.99601200  0.15016700  0.89134600  1
  Se  Se48  1  0.34983300  0.50398800  0.10865400  1
  Se  Se49  1  0.84983300  0.74117900  0.84584500  1
  Se  Se50  1  0.49117900  0.14533500  0.39134600  1
  Se  Se51  1  0.99117900  0.59983300  0.34584500  1
  Se  Se52  1  0.40016700  0.74601200  0.39134600  1
  Se  Se53  1  0.90016700  0.50882100  0.65415500  1
  Se  Se54  1  0.25882100  0.10466500  0.10865400  1
  Se  Se55  1  0.75882100  0.65016700  0.15415500  1
  Se  Se56  1  0.12493200  0.60313100  0.16414600  1
  Se  Se57  1  0.62493200  0.46078700  0.52180100  1
  Se  Se58  1  0.85313100  0.87493200  0.66414600  1
  Se  Se59  1  0.35313100  0.68898500  0.97819900  1
  Se  Se60  1  0.62506800  0.64686900  0.33585400  1
  Se  Se61  1  0.12506800  0.78921300  0.97819900  1
  Se  Se62  1  0.89686900  0.37506800  0.83585400  1
  Se  Se63  1  0.39686900  0.56101500  0.52180100  1
  Se  Se64  1  0.93898500  0.10313100  0.47819900  1
  Se  Se65  1  0.43898500  0.96078700  0.83585400  1
  Se  Se66  1  0.71078700  0.37493200  0.02180100  1
  Se  Se67  1  0.21078700  0.18898500  0.33585400  1
  Se  Se68  1  0.81101500  0.14686900  0.02180100  1
  Se  Se69  1  0.31101500  0.28921300  0.66414600  1
  Se  Se70  1  0.03921300  0.87506800  0.47819900  1
  Se  Se71  1  0.53921300  0.06101500  0.16414600  1
  Se  Se72  1  0.74181700  0.52382300  0.85844400  1
  Se  Se73  1  0.24181700  0.38337300  0.21799400  1
  Se  Se74  1  0.77382300  0.49181700  0.35844400  1
  Se  Se75  1  0.27382300  0.91537900  0.28200600  1
  Se  Se76  1  0.00818300  0.72617700  0.64155600  1
  Se  Se77  1  0.50818300  0.86662700  0.28200600  1
  Se  Se78  1  0.97617700  0.75818300  0.14155600  1
  Se  Se79  1  0.47617700  0.33462100  0.21799400  1
  Se  Se80  1  0.16537900  0.02382300  0.78200600  1
  Se  Se81  1  0.66537900  0.88337300  0.14155600  1
  Se  Se82  1  0.63337300  0.99181700  0.71799400  1
  Se  Se83  1  0.13337300  0.41537900  0.64155600  1
  Se  Se84  1  0.58462100  0.22617700  0.71799400  1
  Se  Se85  1  0.08462100  0.36662700  0.35844400  1
  Se  Se86  1  0.11662700  0.25818300  0.78200600  1
  Se  Se87  1  0.61662700  0.83462100  0.85844400  1
  Se  Se88  1  0.97927500  0.37500000  0.10427500  1
  Se  Se89  1  0.47927500  0.37500000  0.60427500  1
  Se  Se90  1  0.62500000  0.72927500  0.60427500  1
  Se  Se91  1  0.12500000  0.52072500  0.89572500  1
  Se  Se92  1  0.77072500  0.87500000  0.39572500  1
  Se  Se93  1  0.27072500  0.87500000  0.89572500  1
  Se  Se94  1  0.62500000  0.22927500  0.10427500  1
  Se  Se95  1  0.12500000  0.02072500  0.39572500  1
  O  O96  1  0.50000000  0.50000000  0.00000000  1
  O  O97  1  0.00000000  0.00000000  0.00000000  1
  O  O98  1  0.75000000  0.25000000  0.50000000  1
  O  O99  1  0.25000000  0.75000000  0.50000000  1
