# generated using pymatgen
data_K2Cr2AsO10
_symmetry_space_group_name_H-M   'P 1'
_cell_length_a   7.93017251
_cell_length_b   7.93017251
_cell_length_c   14.89709300
_cell_angle_alpha   90.00000000
_cell_angle_beta   90.00000000
_cell_angle_gamma   120.00000427
_symmetry_Int_Tables_number   1
_chemical_formula_structural   K2Cr2AsO10
_chemical_formula_sum   'K6 Cr6 As3 O30'
_cell_volume   811.32977052
_cell_formula_units_Z   3
loop_
 _symmetry_equiv_pos_site_id
 _symmetry_equiv_pos_as_xyz
  1  'x, y, z'
loop_
 _atom_site_type_symbol
 _atom_site_label
 _atom_site_symmetry_multiplicity
 _atom_site_fract_x
 _atom_site_fract_y
 _atom_site_fract_z
 _atom_site_occupancy
  K  K0  1  0.55068500  0.00622400  0.49570600  1
  K  K1  1  0.99377600  0.54446100  0.82904000  1
  K  K2  1  0.45553900  0.44931500  0.16237300  1
  K  K3  1  0.60870700  0.99804100  0.00280600  1
  K  K4  1  0.00195900  0.61066500  0.33613900  1
  K  K5  1  0.38933500  0.39129300  0.66947300  1
  Cr  Cr6  1  0.00634900  0.58266200  0.08856400  1
  Cr  Cr7  1  0.41733800  0.42368700  0.42189700  1
  Cr  Cr8  1  0.57631300  0.99365100  0.75523100  1
  Cr  Cr9  1  0.99329300  0.58149000  0.58042000  1
  Cr  Cr10  1  0.41851000  0.41180300  0.91375300  1
  Cr  Cr11  1  0.58819700  0.00670700  0.24708700  1
  As  As12  1  0.10605700  0.97992000  0.98482700  1
  As  As13  1  0.02008000  0.12613700  0.31816100  1
  As  As14  1  0.87386300  0.89394200  0.65149400  1
  O  O15  1  0.17026900  0.81580400  0.03133300  1
  O  O16  1  0.18419600  0.35446400  0.36466600  1
  O  O17  1  0.64553600  0.82973100  0.69800000  1
  O  O18  1  0.14511400  0.52733300  0.14708800  1
  O  O19  1  0.47266700  0.61778100  0.48042200  1
  O  O20  1  0.38221900  0.85488600  0.81375500  1
  O  O21  1  0.88362800  0.41848700  0.01272200  1
  O  O22  1  0.58151300  0.46514100  0.34605500  1
  O  O23  1  0.53485900  0.11637200  0.67938800  1
  O  O24  1  0.85941800  0.60880000  0.15527800  1
  O  O25  1  0.39120000  0.25061700  0.48861200  1
  O  O26  1  0.74938300  0.14058200  0.82194500  1
  O  O27  1  0.84316500  0.65897600  0.64513900  1
  O  O28  1  0.34102400  0.18418900  0.97847200  1
  O  O29  1  0.81581100  0.15683500  0.31180600  1
  O  O30  1  0.60330800  0.83808600  0.19265400  1
  O  O31  1  0.16191400  0.76522200  0.52598700  1
  O  O32  1  0.23477800  0.39669200  0.85932100  1
  O  O33  1  0.58573800  0.43886600  0.84259800  1
  O  O34  1  0.56113400  0.14687200  0.17593100  1
  O  O35  1  0.85312800  0.41426200  0.50926400  1
  O  O36  1  0.40897400  0.91082900  0.31849000  1
  O  O37  1  0.08917100  0.49814500  0.65182300  1
  O  O38  1  0.50185500  0.59102600  0.98515600  1
  O  O39  1  0.99130900  0.89314300  0.88504700  1
  O  O40  1  0.10685700  0.09816600  0.21838000  1
  O  O41  1  0.90183400  0.00869100  0.55171400  1
  O  O42  1  0.06644300  0.04872700  0.71582300  1
  O  O43  1  0.95127300  0.01771600  0.04915600  1
  O  O44  1  0.98228400  0.93355700  0.38248900  1
