# generated using pymatgen
data_Sr5Ti8O21
_symmetry_space_group_name_H-M   'P 1'
_cell_length_a   5.65100865
_cell_length_b   15.71211447
_cell_length_c   32.01610516
_cell_angle_alpha   90.00000000
_cell_angle_beta   90.80366041
_cell_angle_gamma   90.00000000
_symmetry_Int_Tables_number   1
_chemical_formula_structural   Sr5Ti8O21
_chemical_formula_sum   'Sr20 Ti32 O84'
_cell_volume   2842.40776112
_cell_formula_units_Z   4
loop_
 _symmetry_equiv_pos_site_id
 _symmetry_equiv_pos_as_xyz
  1  'x, y, z'
loop_
 _atom_site_type_symbol
 _atom_site_label
 _atom_site_symmetry_multiplicity
 _atom_site_fract_x
 _atom_site_fract_y
 _atom_site_fract_z
 _atom_site_occupancy
  Sr  Sr0  1  0.51228036  -0.00000000  0.17856084  1
  Sr  Sr1  1  0.48771964  -0.00000000  0.82143916  1
  Sr  Sr2  1  0.50862298  0.74537505  0.17807602  1
  Sr  Sr3  1  0.50862298  0.25462495  0.17807602  1
  Sr  Sr4  1  0.49137702  0.25462495  0.82192398  1
  Sr  Sr5  1  0.49137702  0.74537505  0.82192398  1
  Sr  Sr6  1  0.49938436  0.50000000  0.18232921  1
  Sr  Sr7  1  0.50061564  0.50000000  0.81767079  1
  Sr  Sr8  1  0.00340730  -0.00000000  0.08834718  1
  Sr  Sr9  1  0.99659270  -0.00000000  0.91165282  1
  Sr  Sr10  1  0.00240091  0.75517974  0.08554741  1
  Sr  Sr11  1  0.00240091  0.24482026  0.08554741  1
  Sr  Sr12  1  0.99759909  0.24482026  0.91445259  1
  Sr  Sr13  1  0.99759909  0.75517974  0.91445259  1
  Sr  Sr14  1  0.99856249  0.50000000  0.08344526  1
  Sr  Sr15  1  0.00143751  0.50000000  0.91655474  1
  Sr  Sr16  1  0.50000000  -0.00000000  0.00000000  1
  Sr  Sr17  1  0.50000000  0.75365564  0.00000000  1
  Sr  Sr18  1  0.50000000  0.24634436  0.00000000  1
  Sr  Sr19  1  0.50000000  0.50000000  0.00000000  1
  Ti  Ti20  1  0.34228709  0.89342900  0.27089905  1
  Ti  Ti21  1  0.34228709  0.10657100  0.27089905  1
  Ti  Ti22  1  0.65771291  0.10657100  0.72910095  1
  Ti  Ti23  1  0.65771291  0.89342900  0.72910095  1
  Ti  Ti24  1  0.84612773  0.81606691  0.27580746  1
  Ti  Ti25  1  0.84612773  0.18393309  0.27580746  1
  Ti  Ti26  1  0.15387227  0.18393309  0.72419254  1
  Ti  Ti27  1  0.15387227  0.81606691  0.72419254  1
  Ti  Ti28  1  0.99302161  0.60889430  0.25430403  1
  Ti  Ti29  1  0.99302161  0.39110570  0.25430403  1
  Ti  Ti30  1  0.00697839  0.39110570  0.74569597  1
  Ti  Ti31  1  0.00697839  0.60889430  0.74569597  1
  Ti  Ti32  1  0.00772365  0.87290302  0.17477223  1
  Ti  Ti33  1  0.00772365  0.12709698  0.17477223  1
  Ti  Ti34  1  0.99227635  0.12709698  0.82522777  1
  Ti  Ti35  1  0.99227635  0.87290302  0.82522777  1
  Ti  Ti36  1  0.01886898  0.62422062  0.16642934  1
  Ti  Ti37  1  0.01886898  0.37577938  0.16642934  1
  Ti  Ti38  1  0.98113102  0.37577938  0.83357066  1
  Ti  Ti39  1  0.98113102  0.62422062  0.83357066  1
  Ti  Ti40  1  0.50098081  0.87600853  0.08835671  1
  Ti  Ti41  1  0.50098081  0.12399147  0.08835671  1
  Ti  Ti42  1  0.49901919  0.12399147  0.91164329  1
  Ti  Ti43  1  0.49901919  0.87600853  0.91164329  1
  Ti  Ti44  1  0.50345381  0.62483539  0.08585467  1
  Ti  Ti45  1  0.50345381  0.37516461  0.08585467  1
  Ti  Ti46  1  0.49654619  0.37516461  0.91414533  1
  Ti  Ti47  1  0.49654619  0.62483539  0.91414533  1
  Ti  Ti48  1  0.00000000  0.87655469  0.00000000  1
  Ti  Ti49  1  0.00000000  0.12344531  0.00000000  1
  Ti  Ti50  1  0.00000000  0.62754902  0.00000000  1
  Ti  Ti51  1  0.00000000  0.37245098  0.00000000  1
  O  O52  1  0.06086728  0.89271556  0.29705735  1
  O  O53  1  0.06086728  0.10728444  0.29705735  1
  O  O54  1  0.93913272  0.10728444  0.70294265  1
  O  O55  1  0.93913272  0.89271556  0.70294265  1
  O  O56  1  0.55334581  0.82398161  0.29827064  1
  O  O57  1  0.55334581  0.17601839  0.29827064  1
  O  O58  1  0.44665419  0.17601839  0.70172936  1
  O  O59  1  0.44665419  0.82398161  0.70172936  1
  O  O60  1  0.96412350  0.70884660  0.28393495  1
  O  O61  1  0.96412350  0.29115340  0.28393495  1
  O  O62  1  0.03587650  0.29115340  0.71606505  1
  O  O63  1  0.03587650  0.70884660  0.71606505  1
  O  O64  1  0.47160775  -0.00000000  0.26337678  1
  O  O65  1  0.52839225  -0.00000000  0.73662322  1
  O  O66  1  0.98230652  0.50000000  0.27698369  1
  O  O67  1  0.01769348  0.50000000  0.72301631  1
  O  O68  1  0.27986689  0.86185796  0.21720018  1
  O  O69  1  0.27986689  0.13814204  0.21720018  1
  O  O70  1  0.72013311  0.13814204  0.78279982  1
  O  O71  1  0.72013311  0.86185796  0.78279982  1
  O  O72  1  0.78590670  0.84757258  0.22113282  1
  O  O73  1  0.78590670  0.15242742  0.22113282  1
  O  O74  1  0.21409330  0.15242742  0.77886718  1
  O  O75  1  0.21409330  0.84757258  0.77886718  1
  O  O76  1  0.23809496  0.61834114  0.21923532  1
  O  O77  1  0.23809496  0.38165886  0.21923532  1
  O  O78  1  0.76190504  0.38165886  0.78076468  1
  O  O79  1  0.76190504  0.61834114  0.78076468  1
  O  O80  1  0.77164714  0.61904154  0.21187023  1
  O  O81  1  0.77164714  0.38095846  0.21187023  1
  O  O82  1  0.22835286  0.38095846  0.78812977  1
  O  O83  1  0.22835286  0.61904154  0.78812977  1
  O  O84  1  0.99959073  -0.00000000  0.17921463  1
  O  O85  1  0.00040927  -0.00000000  0.82078537  1
  O  O86  1  0.02880278  0.74846207  0.16601131  1
  O  O87  1  0.02880278  0.25153793  0.16601131  1
  O  O88  1  0.97119722  0.25153793  0.83398869  1
  O  O89  1  0.97119722  0.74846207  0.83398869  1
  O  O90  1  0.01890346  0.50000000  0.16375725  1
  O  O91  1  0.98109654  0.50000000  0.83624275  1
  O  O92  1  0.25691239  0.88344028  0.13136498  1
  O  O93  1  0.25691239  0.11655972  0.13136498  1
  O  O94  1  0.74308761  0.11655972  0.86863502  1
  O  O95  1  0.74308761  0.88344028  0.86863502  1
  O  O96  1  0.75212196  0.87828024  0.13404847  1
  O  O97  1  0.75212196  0.12171976  0.13404847  1
  O  O98  1  0.24787804  0.12171976  0.86595153  1
  O  O99  1  0.24787804  0.87828024  0.86595153  1
  O  O100  1  0.31160699  0.62204842  0.13505651  1
  O  O101  1  0.31160699  0.37795158  0.13505651  1
  O  O102  1  0.68839301  0.37795158  0.86494349  1
  O  O103  1  0.68839301  0.62204842  0.86494349  1
  O  O104  1  0.79357638  0.62699619  0.12236067  1
  O  O105  1  0.79357638  0.37300381  0.12236067  1
  O  O106  1  0.20642362  0.37300381  0.87763933  1
  O  O107  1  0.20642362  0.62699619  0.87763933  1
  O  O108  1  0.50303843  0.75234676  0.08799260  1
  O  O109  1  0.50303843  0.24765324  0.08799260  1
  O  O110  1  0.49696157  0.24765324  0.91200740  1
  O  O111  1  0.49696157  0.75234676  0.91200740  1
  O  O112  1  0.51505978  -0.00000000  0.08559762  1
  O  O113  1  0.48494022  -0.00000000  0.91440238  1
  O  O114  1  0.51132130  0.50000000  0.08323553  1
  O  O115  1  0.48867870  0.50000000  0.91676447  1
  O  O116  1  0.25572886  0.87611779  0.04343974  1
  O  O117  1  0.25572886  0.12388221  0.04343974  1
  O  O118  1  0.74427114  0.12388221  0.95656026  1
  O  O119  1  0.74427114  0.87611779  0.95656026  1
  O  O120  1  0.75860991  0.87471098  0.04461090  1
  O  O121  1  0.75860991  0.12528902  0.04461090  1
  O  O122  1  0.24139009  0.12528902  0.95538910  1
  O  O123  1  0.24139009  0.87471098  0.95538910  1
  O  O124  1  0.22667992  0.62762713  0.04833889  1
  O  O125  1  0.22667992  0.37237287  0.04833889  1
  O  O126  1  0.77332008  0.37237287  0.95166111  1
  O  O127  1  0.77332008  0.62762713  0.95166111  1
  O  O128  1  0.72670601  0.62793692  0.03791980  1
  O  O129  1  0.72670601  0.37206308  0.03791980  1
  O  O130  1  0.27329399  0.37206308  0.96208020  1
  O  O131  1  0.27329399  0.62793692  0.96208020  1
  O  O132  1  0.00000000  -0.00000000  0.00000000  1
  O  O133  1  0.00000000  0.75110529  0.00000000  1
  O  O134  1  0.00000000  0.24889471  0.00000000  1
  O  O135  1  0.00000000  0.50000000  0.00000000  1
