# generated using pymatgen
data_Ga2Sb2H16C4S7N2
_symmetry_space_group_name_H-M   'P 1'
_cell_length_a   12.74622300
_cell_length_b   10.35849700
_cell_length_c   16.41040615
_cell_angle_alpha   89.33174615
_cell_angle_beta   90.00000000
_cell_angle_gamma   90.00000000
_symmetry_Int_Tables_number   1
_chemical_formula_structural   Ga2Sb2H16C4S7N2
_chemical_formula_sum   'Ga8 Sb8 H64 C16 S28 N8'
_cell_volume   2166.54666300
_cell_formula_units_Z   4
loop_
 _symmetry_equiv_pos_site_id
 _symmetry_equiv_pos_as_xyz
  1  'x, y, z'
loop_
 _atom_site_type_symbol
 _atom_site_label
 _atom_site_symmetry_multiplicity
 _atom_site_fract_x
 _atom_site_fract_y
 _atom_site_fract_z
 _atom_site_occupancy
  Ga  Ga0  1  0.93272800  0.10024500  0.71702200  1
  Ga  Ga1  1  0.43272800  0.89975500  0.78297800  1
  Ga  Ga2  1  0.06727200  0.89975500  0.28297800  1
  Ga  Ga3  1  0.56727200  0.10024500  0.21702200  1
  Ga  Ga4  1  0.79911700  0.39560700  0.72484100  1
  Ga  Ga5  1  0.29911700  0.60439300  0.77515900  1
  Ga  Ga6  1  0.20088300  0.60439300  0.27515900  1
  Ga  Ga7  1  0.70088300  0.39560700  0.22484100  1
  Sb  Sb8  1  0.65871500  0.10547800  0.75264800  1
  Sb  Sb9  1  0.15871500  0.89452200  0.74735200  1
  Sb  Sb10  1  0.34128500  0.89452200  0.24735200  1
  Sb  Sb11  1  0.84128500  0.10547800  0.25264800  1
  Sb  Sb12  1  0.07754200  0.39137600  0.74314700  1
  Sb  Sb13  1  0.57754200  0.60862400  0.75685300  1
  Sb  Sb14  1  0.92245800  0.60862400  0.25685300  1
  Sb  Sb15  1  0.42245800  0.39137600  0.24314700  1
  H  H16  1  0.83821200  0.68990400  0.63586600  1
  H  H17  1  0.33821200  0.31009600  0.86413400  1
  H  H18  1  0.16178800  0.31009600  0.36413400  1
  H  H19  1  0.66178800  0.68990400  0.13586600  1
  H  H20  1  0.93222700  0.80530100  0.61901000  1
  H  H21  1  0.43222700  0.19469900  0.88099000  1
  H  H22  1  0.06777300  0.19469900  0.38099000  1
  H  H23  1  0.56777300  0.80530100  0.11901000  1
  H  H24  1  0.99379700  0.59633800  0.58054000  1
  H  H25  1  0.49379700  0.40366200  0.91946000  1
  H  H26  1  0.00620300  0.40366200  0.41946000  1
  H  H27  1  0.50620300  0.59633800  0.08054000  1
  H  H28  1  0.98090000  0.70054300  0.49287000  1
  H  H29  1  0.48090000  0.29945700  0.00713000  1
  H  H30  1  0.01910000  0.29945700  0.50713000  1
  H  H31  1  0.51910000  0.70054300  0.99287000  1
  H  H32  1  0.88201400  0.58028200  0.51451000  1
  H  H33  1  0.38201400  0.41971800  0.98549000  1
  H  H34  1  0.11798600  0.41971800  0.48549000  1
  H  H35  1  0.61798600  0.58028200  0.01451000  1
  H  H36  1  0.76221300  0.88412900  0.58487500  1
  H  H37  1  0.26221300  0.11587100  0.91512500  1
  H  H38  1  0.23778700  0.11587100  0.41512500  1
  H  H39  1  0.73778700  0.88412900  0.08487500  1
  H  H40  1  0.74605300  0.75296200  0.51555100  1
  H  H41  1  0.24605300  0.24703800  0.98444900  1
  H  H42  1  0.25394700  0.24703800  0.48444900  1
  H  H43  1  0.75394700  0.75296200  0.01555100  1
  H  H44  1  0.84511000  0.87370700  0.49590100  1
  H  H45  1  0.34511000  0.12629300  0.00409900  1
  H  H46  1  0.15489000  0.12629300  0.50409900  1
  H  H47  1  0.65489000  0.87370700  0.99590100  1
  H  H48  1  0.81785800  0.28846300  0.03971000  1
  H  H49  1  0.31785800  0.71153700  0.46029000  1
  H  H50  1  0.18214200  0.71153700  0.96029000  1
  H  H51  1  0.68214200  0.28846300  0.53971000  1
  H  H52  1  0.86537400  0.28795800  0.94452800  1
  H  H53  1  0.36537400  0.71204200  0.55547200  1
  H  H54  1  0.13462600  0.71204200  0.05547200  1
  H  H55  1  0.63462600  0.28795800  0.44452800  1
  H  H56  1  0.77539000  0.09426000  0.97245100  1
  H  H57  1  0.27539000  0.90574000  0.52754900  1
  H  H58  1  0.22461000  0.90574000  0.02754900  1
  H  H59  1  0.72461000  0.09426000  0.47245100  1
  H  H60  1  0.86206500  0.06357000  0.05749400  1
  H  H61  1  0.36206500  0.93643000  0.44250600  1
  H  H62  1  0.13793500  0.93643000  0.94250600  1
  H  H63  1  0.63793500  0.06357000  0.55749400  1
  H  H64  1  0.91205400  0.06657300  0.95436600  1
  H  H65  1  0.41205400  0.93342700  0.54563400  1
  H  H66  1  0.08794600  0.93342700  0.04563400  1
  H  H67  1  0.58794600  0.06657300  0.45436600  1
  H  H68  1  0.98853700  0.38471900  0.03968600  1
  H  H69  1  0.48853700  0.61528100  0.46031400  1
  H  H70  1  0.01146300  0.61528100  0.96031400  1
  H  H71  1  0.51146300  0.38471900  0.53968600  1
  H  H72  1  0.04006600  0.24061200  0.99391500  1
  H  H73  1  0.54006600  0.75938800  0.50608500  1
  H  H74  1  0.95993400  0.75938800  0.00608500  1
  H  H75  1  0.45993400  0.24061200  0.49391500  1
  H  H76  1  0.98871900  0.23664700  0.09631400  1
  H  H77  1  0.48871900  0.76335300  0.40368600  1
  H  H78  1  0.01128100  0.76335300  0.90368600  1
  H  H79  1  0.51128100  0.23664700  0.59631400  1
  C  C80  1  0.93834200  0.64789200  0.54095600  1
  C  C81  1  0.43834200  0.35210800  0.95904400  1
  C  C82  1  0.06165800  0.35210800  0.45904400  1
  C  C83  1  0.56165800  0.64789200  0.04095600  1
  C  C84  1  0.80253900  0.81917300  0.54310000  1
  C  C85  1  0.30253900  0.18082700  0.95690000  1
  C  C86  1  0.19746100  0.18082700  0.45690000  1
  C  C87  1  0.69746100  0.81917300  0.04310000  1
  C  C88  1  0.85467900  0.10716200  0.99647500  1
  C  C89  1  0.35467900  0.89283800  0.50352500  1
  C  C90  1  0.14532100  0.89283800  0.00352500  1
  C  C91  1  0.64532100  0.10716200  0.49647500  1
  C  C92  1  0.98109100  0.27974800  0.03532600  1
  C  C93  1  0.48109100  0.72025200  0.46467400  1
  C  C94  1  0.01890900  0.72025200  0.96467400  1
  C  C95  1  0.51890900  0.27974800  0.53532600  1
  S  S96  1  0.81114800  0.96535300  0.77676900  1
  S  S97  1  0.31114800  0.03464700  0.72323100  1
  S  S98  1  0.18885200  0.03464700  0.22323100  1
  S  S99  1  0.68885200  0.96535300  0.27676900  1
  S  S100  1  0.71053800  0.29803400  0.83131300  1
  S  S101  1  0.21053800  0.70196600  0.66868700  1
  S  S102  1  0.28946200  0.70196600  0.16868700  1
  S  S103  1  0.78946200  0.29803400  0.33131300  1
  S  S104  1  0.02971600  0.19319000  0.81969300  1
  S  S105  1  0.52971600  0.80681000  0.68030700  1
  S  S106  1  0.97028400  0.80681000  0.18030700  1
  S  S107  1  0.47028400  0.19319000  0.31969300  1
  S  S108  1  0.92605500  0.52659300  0.77777900  1
  S  S109  1  0.42605500  0.47340700  0.72222100  1
  S  S110  1  0.07394500  0.47340700  0.22222100  1
  S  S111  1  0.57394500  0.52659300  0.27777900  1
  S  S112  1  0.85851800  0.25100300  0.63097800  1
  S  S113  1  0.35851800  0.74899700  0.86902200  1
  S  S114  1  0.14148200  0.74899700  0.36902200  1
  S  S115  1  0.64148200  0.25100300  0.13097800  1
  S  S116  1  0.04366200  0.97619400  0.63711700  1
  S  S117  1  0.54366200  0.02380600  0.86288300  1
  S  S118  1  0.95633800  0.02380600  0.36288300  1
  S  S119  1  0.45633800  0.97619400  0.13711700  1
  S  S120  1  0.69052400  0.52730900  0.64658900  1
  S  S121  1  0.19052400  0.47269100  0.85341100  1
  S  S122  1  0.30947600  0.47269100  0.35341100  1
  S  S123  1  0.80947600  0.52730900  0.14658900  1
  N  N124  1  0.87904000  0.74130400  0.59120400  1
  N  N125  1  0.37904000  0.25869600  0.90879600  1
  N  N126  1  0.12096000  0.25869600  0.40879600  1
  N  N127  1  0.62096000  0.74130400  0.09120400  1
  N  N128  1  0.87522900  0.24816200  0.00264000  1
  N  N129  1  0.37522900  0.75183800  0.49736000  1
  N  N130  1  0.12477100  0.75183800  0.99736000  1
  N  N131  1  0.62477100  0.24816200  0.50264000  1
