# generated using pymatgen
data_Cs9Fe2S7
_symmetry_space_group_name_H-M   'P 1'
_cell_length_a   13.88308900
_cell_length_b   13.88308900
_cell_length_c   13.88308900
_cell_angle_alpha   90.00000000
_cell_angle_beta   90.00000000
_cell_angle_gamma   90.00000000
_symmetry_Int_Tables_number   1
_chemical_formula_structural   Cs9Fe2S7
_chemical_formula_sum   'Cs36 Fe8 S28'
_cell_volume   2675.82879768
_cell_formula_units_Z   4
loop_
 _symmetry_equiv_pos_site_id
 _symmetry_equiv_pos_as_xyz
  1  'x, y, z'
loop_
 _atom_site_type_symbol
 _atom_site_label
 _atom_site_symmetry_multiplicity
 _atom_site_fract_x
 _atom_site_fract_y
 _atom_site_fract_z
 _atom_site_occupancy
  Cs  Cs0  1  0.20236700  0.16709900  0.50301600  1
  Cs  Cs1  1  0.49698400  0.70236700  0.33290100  1
  Cs  Cs2  1  0.66709900  0.99698400  0.79763300  1
  Cs  Cs3  1  0.70236700  0.33290100  0.49698400  1
  Cs  Cs4  1  0.99698400  0.79763300  0.66709900  1
  Cs  Cs5  1  0.16709900  0.50301600  0.20236700  1
  Cs  Cs6  1  0.79763300  0.66709900  0.99698400  1
  Cs  Cs7  1  0.50301600  0.20236700  0.16709900  1
  Cs  Cs8  1  0.33290100  0.49698400  0.70236700  1
  Cs  Cs9  1  0.29763300  0.83290100  0.00301600  1
  Cs  Cs10  1  0.00301600  0.29763300  0.83290100  1
  Cs  Cs11  1  0.83290100  0.00301600  0.29763300  1
  Cs  Cs12  1  0.70785300  0.82386800  0.54234900  1
  Cs  Cs13  1  0.45765100  0.20785300  0.67613200  1
  Cs  Cs14  1  0.32386800  0.95765100  0.29214700  1
  Cs  Cs15  1  0.20785300  0.67613200  0.45765100  1
  Cs  Cs16  1  0.95765100  0.29214700  0.32386800  1
  Cs  Cs17  1  0.82386800  0.54234900  0.70785300  1
  Cs  Cs18  1  0.29214700  0.32386800  0.95765100  1
  Cs  Cs19  1  0.54234900  0.70785300  0.82386800  1
  Cs  Cs20  1  0.67613200  0.45765100  0.20785300  1
  Cs  Cs21  1  0.79214700  0.17613200  0.04234900  1
  Cs  Cs22  1  0.04234900  0.79214700  0.17613200  1
  Cs  Cs23  1  0.17613200  0.04234900  0.79214700  1
  Cs  Cs24  1  0.08460500  0.58460500  0.91539500  1
  Cs  Cs25  1  0.58460500  0.91539500  0.08460500  1
  Cs  Cs26  1  0.91539500  0.08460500  0.58460500  1
  Cs  Cs27  1  0.41539500  0.41539500  0.41539500  1
  Cs  Cs28  1  0.26273400  0.76273400  0.73726600  1
  Cs  Cs29  1  0.76273400  0.73726600  0.26273400  1
  Cs  Cs30  1  0.73726600  0.26273400  0.76273400  1
  Cs  Cs31  1  0.23726600  0.23726600  0.23726600  1
  Cs  Cs32  1  0.44072800  0.94072800  0.55927200  1
  Cs  Cs33  1  0.94072800  0.55927200  0.44072800  1
  Cs  Cs34  1  0.55927200  0.44072800  0.94072800  1
  Cs  Cs35  1  0.05927200  0.05927200  0.05927200  1
  Fe  Fe36  1  0.92931200  0.42931200  0.07068800  1
  Fe  Fe37  1  0.42931200  0.07068800  0.92931200  1
  Fe  Fe38  1  0.07068800  0.92931200  0.42931200  1
  Fe  Fe39  1  0.57068800  0.57068800  0.57068800  1
  Fe  Fe40  1  0.59978100  0.09978100  0.40021900  1
  Fe  Fe41  1  0.09978100  0.40021900  0.59978100  1
  Fe  Fe42  1  0.40021900  0.59978100  0.09978100  1
  Fe  Fe43  1  0.90021900  0.90021900  0.90021900  1
  S  S44  1  0.66064700  0.08841400  0.55555900  1
  S  S45  1  0.44444100  0.16064700  0.41158600  1
  S  S46  1  0.58841400  0.94444100  0.33935300  1
  S  S47  1  0.16064700  0.41158600  0.44444100  1
  S  S48  1  0.94444100  0.33935300  0.58841400  1
  S  S49  1  0.08841400  0.55555900  0.66064700  1
  S  S50  1  0.33935300  0.58841400  0.94444100  1
  S  S51  1  0.55555900  0.66064700  0.08841400  1
  S  S52  1  0.41158600  0.44444100  0.16064700  1
  S  S53  1  0.83935300  0.91158600  0.05555900  1
  S  S54  1  0.05555900  0.83935300  0.91158600  1
  S  S55  1  0.91158600  0.05555900  0.83935300  1
  S  S56  1  0.17970900  0.92294200  0.54965500  1
  S  S57  1  0.45034500  0.67970900  0.57705800  1
  S  S58  1  0.42294200  0.95034500  0.82029100  1
  S  S59  1  0.67970900  0.57705800  0.45034500  1
  S  S60  1  0.95034500  0.82029100  0.42294200  1
  S  S61  1  0.92294200  0.54965500  0.17970900  1
  S  S62  1  0.82029100  0.42294200  0.95034500  1
  S  S63  1  0.54965500  0.17970900  0.92294200  1
  S  S64  1  0.57705800  0.45034500  0.67970900  1
  S  S65  1  0.32029100  0.07705800  0.04965500  1
  S  S66  1  0.04965500  0.32029100  0.07705800  1
  S  S67  1  0.07705800  0.04965500  0.32029100  1
  S  S68  1  0.69826700  0.19826700  0.30173300  1
  S  S69  1  0.19826700  0.30173300  0.69826700  1
  S  S70  1  0.30173300  0.69826700  0.19826700  1
  S  S71  1  0.80173300  0.80173300  0.80173300  1
