# generated using pymatgen
data_VC4N2O11
_symmetry_space_group_name_H-M   'P 1'
_cell_length_a   8.74695100
_cell_length_b   11.15174800
_cell_length_c   15.93047893
_cell_angle_alpha   63.50906160
_cell_angle_beta   90.00000000
_cell_angle_gamma   90.00000000
_symmetry_Int_Tables_number   1
_chemical_formula_structural   VC4N2O11
_chemical_formula_sum   'V4 C16 N8 O44'
_cell_volume   1390.76545640
_cell_formula_units_Z   4
loop_
 _symmetry_equiv_pos_site_id
 _symmetry_equiv_pos_as_xyz
  1  'x, y, z'
loop_
 _atom_site_type_symbol
 _atom_site_label
 _atom_site_symmetry_multiplicity
 _atom_site_fract_x
 _atom_site_fract_y
 _atom_site_fract_z
 _atom_site_occupancy
  V  V0  1  0.54679400  0.64254900  0.68096500  1
  V  V1  1  0.04679400  0.35745100  0.81903500  1
  V  V2  1  0.45320600  0.35745100  0.31903500  1
  V  V3  1  0.95320600  0.64254900  0.18096500  1
  C  C4  1  0.51942000  0.42977100  0.90002400  1
  C  C5  1  0.01942000  0.57022900  0.59997600  1
  C  C6  1  0.48058000  0.57022900  0.09997600  1
  C  C7  1  0.98058000  0.42977100  0.40002400  1
  C  C8  1  0.81672900  0.62595100  0.85968500  1
  C  C9  1  0.31672900  0.37404900  0.64031500  1
  C  C10  1  0.18327100  0.37404900  0.14031500  1
  C  C11  1  0.68327100  0.62595100  0.35968500  1
  C  C12  1  0.69729400  0.94712700  0.56296700  1
  C  C13  1  0.19729400  0.05287300  0.93703300  1
  C  C14  1  0.30270600  0.05287300  0.43703300  1
  C  C15  1  0.80270600  0.94712700  0.06296700  1
  C  C16  1  0.44676000  0.90153900  0.72807200  1
  C  C17  1  0.94676000  0.09846100  0.77192800  1
  C  C18  1  0.55324000  0.09846100  0.27192800  1
  C  C19  1  0.05324000  0.90153900  0.22807200  1
  N  N20  1  0.65353400  0.26530000  0.62730700  1
  N  N21  1  0.15353400  0.73470000  0.87269300  1
  N  N22  1  0.34646600  0.73470000  0.37269300  1
  N  N23  1  0.84646600  0.26530000  0.12730700  1
  N  N24  1  0.59055200  0.91984100  0.91560900  1
  N  N25  1  0.09055200  0.08015900  0.58439100  1
  N  N26  1  0.40944800  0.08015900  0.08439100  1
  N  N27  1  0.90944800  0.91984100  0.41560900  1
  O  O28  1  0.37777900  0.65261400  0.63275700  1
  O  O29  1  0.87777900  0.34738600  0.86724300  1
  O  O30  1  0.62222100  0.34738600  0.36724300  1
  O  O31  1  0.12222100  0.65261400  0.13275700  1
  O  O32  1  0.66828300  0.56014200  0.64756300  1
  O  O33  1  0.16828300  0.43985800  0.85243700  1
  O  O34  1  0.33171700  0.43985800  0.35243700  1
  O  O35  1  0.83171700  0.56014200  0.14756300  1
  O  O36  1  0.50046900  0.49644100  0.81882400  1
  O  O37  1  0.00046900  0.50355900  0.68117600  1
  O  O38  1  0.49953100  0.50355900  0.18117600  1
  O  O39  1  0.99953100  0.49644100  0.31882400  1
  O  O40  1  0.53679800  0.36789600  0.98050100  1
  O  O41  1  0.03679800  0.63210400  0.51949900  1
  O  O42  1  0.46320200  0.63210400  0.01949900  1
  O  O43  1  0.96320200  0.36789600  0.48050100  1
  O  O44  1  0.85352900  0.57943800  0.93839900  1
  O  O45  1  0.35352900  0.42056200  0.56160100  1
  O  O46  1  0.14647100  0.42056200  0.06160100  1
  O  O47  1  0.64647100  0.57943800  0.43839900  1
  O  O48  1  0.77558500  0.67429200  0.78055000  1
  O  O49  1  0.27558500  0.32570800  0.71945000  1
  O  O50  1  0.22441500  0.32570800  0.21945000  1
  O  O51  1  0.72441500  0.67429200  0.28055000  1
  O  O52  1  0.64455400  0.84406900  0.57177700  1
  O  O53  1  0.14455400  0.15593100  0.92822300  1
  O  O54  1  0.35544600  0.15593100  0.42822300  1
  O  O55  1  0.85544600  0.84406900  0.07177700  1
  O  O56  1  0.74127400  0.05020200  0.55513900  1
  O  O57  1  0.24127400  0.94979800  0.94486100  1
  O  O58  1  0.25872600  0.94979800  0.44486100  1
  O  O59  1  0.75872600  0.05020200  0.05513900  1
  O  O60  1  0.41768200  0.01385600  0.70538600  1
  O  O61  1  0.91768200  0.98614400  0.79461400  1
  O  O62  1  0.58231800  0.98614400  0.29461400  1
  O  O63  1  0.08231800  0.01385600  0.20538600  1
  O  O64  1  0.47826400  0.78844200  0.74935500  1
  O  O65  1  0.97826400  0.21155800  0.75064500  1
  O  O66  1  0.52173600  0.21155800  0.25064500  1
  O  O67  1  0.02173600  0.78844200  0.24935500  1
  O  O68  1  0.55583000  0.16331000  0.87153800  1
  O  O69  1  0.05583000  0.83669000  0.62846200  1
  O  O70  1  0.44417000  0.83669000  0.12846200  1
  O  O71  1  0.94417000  0.16331000  0.37153800  1
