# generated using pymatgen
data_As2PHBr3F11
_symmetry_space_group_name_H-M   'P 1'
_cell_length_a   9.06423800
_cell_length_b   6.40734700
_cell_length_c   12.25213277
_cell_angle_alpha   85.27611403
_cell_angle_beta   90.00000000
_cell_angle_gamma   90.00000000
_symmetry_Int_Tables_number   1
_chemical_formula_structural   As2PHBr3F11
_chemical_formula_sum   'As4 P2 H2 Br6 F22'
_cell_volume   709.15879064
_cell_formula_units_Z   2
loop_
 _symmetry_equiv_pos_site_id
 _symmetry_equiv_pos_as_xyz
  1  'x, y, z'
loop_
 _atom_site_type_symbol
 _atom_site_label
 _atom_site_symmetry_multiplicity
 _atom_site_fract_x
 _atom_site_fract_y
 _atom_site_fract_z
 _atom_site_occupancy
  As  As0  1  0.75000000  0.86567000  0.10351600  1
  As  As1  1  0.25000000  0.13433000  0.89648400  1
  As  As2  1  0.75000000  0.79443900  0.41467600  1
  As  As3  1  0.25000000  0.20556100  0.58532400  1
  P  P4  1  0.25000000  0.54061400  0.19212700  1
  P  P5  1  0.75000000  0.45938600  0.80787300  1
  H  H6  1  0.25000000  0.66024100  0.08939700  1
  H  H7  1  0.75000000  0.33975900  0.91060300  1
  Br  Br8  1  0.44321500  0.34939000  0.20414900  1
  Br  Br9  1  0.94321500  0.65061000  0.79585100  1
  Br  Br10  1  0.55678500  0.65061000  0.79585100  1
  Br  Br11  1  0.05678500  0.34939000  0.20414900  1
  Br  Br12  1  0.25000000  0.75628300  0.31619700  1
  Br  Br13  1  0.75000000  0.24371700  0.68380300  1
  F  F14  1  0.55648500  0.85956500  0.11056200  1
  F  F15  1  0.05648500  0.14043500  0.88943800  1
  F  F16  1  0.44351500  0.14043500  0.88943800  1
  F  F17  1  0.94351500  0.85956500  0.11056200  1
  F  F18  1  0.75000000  0.97701800  0.96766100  1
  F  F19  1  0.25000000  0.02298200  0.03233900  1
  F  F20  1  0.75000000  0.11414800  0.15538000  1
  F  F21  1  0.25000000  0.88585200  0.84462000  1
  F  F22  1  0.75000000  0.60806200  0.06241100  1
  F  F23  1  0.25000000  0.39193800  0.93758900  1
  F  F24  1  0.75000000  0.73902000  0.24923100  1
  F  F25  1  0.25000000  0.26098000  0.75076900  1
  F  F26  1  0.61403100  0.98170500  0.37917400  1
  F  F27  1  0.11403100  0.01829500  0.62082600  1
  F  F28  1  0.38596900  0.01829500  0.62082600  1
  F  F29  1  0.88596900  0.98170500  0.37917400  1
  F  F30  1  0.75000000  0.83378100  0.55396800  1
  F  F31  1  0.25000000  0.16621900  0.44603200  1
  F  F32  1  0.61445000  0.60099100  0.42347800  1
  F  F33  1  0.11445000  0.39900900  0.57652200  1
  F  F34  1  0.38555000  0.39900900  0.57652200  1
  F  F35  1  0.88555000  0.60099100  0.42347800  1
