# generated using pymatgen
data_K3(TcCl4)2
_symmetry_space_group_name_H-M   'P 1'
_cell_length_a   13.05745498
_cell_length_b   13.05745498
_cell_length_c   8.22306800
_cell_angle_alpha   90.00000000
_cell_angle_beta   90.00000000
_cell_angle_gamma   120.00000495
_symmetry_Int_Tables_number   1
_chemical_formula_structural   K3(TcCl4)2
_chemical_formula_sum   'K9 Tc6 Cl24'
_cell_volume   1214.17578070
_cell_formula_units_Z   3
loop_
 _symmetry_equiv_pos_site_id
 _symmetry_equiv_pos_as_xyz
  1  'x, y, z'
loop_
 _atom_site_type_symbol
 _atom_site_label
 _atom_site_symmetry_multiplicity
 _atom_site_fract_x
 _atom_site_fract_y
 _atom_site_fract_z
 _atom_site_occupancy
  K  K0  1  0.33399300  0.82158400  0.91206400  1
  K  K1  1  0.48759100  0.66600700  0.57873100  1
  K  K2  1  0.17841600  0.51240900  0.24539800  1
  K  K3  1  0.66600700  0.48759100  0.42126900  1
  K  K4  1  0.82158400  0.33399300  0.08793600  1
  K  K5  1  0.51240900  0.17841600  0.75460200  1
  K  K6  1  0.70575100  0.00000000  0.33333300  1
  K  K7  1  0.29424900  0.29424900  0.00000000  1
  K  K8  1  0.00000000  0.70575100  0.66666700  1
  Tc  Tc9  1  0.35846000  0.91637100  0.39601300  1
  Tc  Tc10  1  0.55791100  0.64154000  0.06268000  1
  Tc  Tc11  1  0.08362900  0.44208900  0.72934700  1
  Tc  Tc12  1  0.64154000  0.55791100  0.93732000  1
  Tc  Tc13  1  0.91637100  0.35846000  0.60398700  1
  Tc  Tc14  1  0.44208900  0.08362900  0.27065300  1
  Cl  Cl15  1  0.25392400  0.94226100  0.61513600  1
  Cl  Cl16  1  0.68833700  0.74607600  0.28180300  1
  Cl  Cl17  1  0.05773900  0.31166300  0.94846900  1
  Cl  Cl18  1  0.74607600  0.68833700  0.71819700  1
  Cl  Cl19  1  0.94226100  0.25392400  0.38486400  1
  Cl  Cl20  1  0.31166300  0.05773900  0.05153100  1
  Cl  Cl21  1  0.49927200  0.93593000  0.60052100  1
  Cl  Cl22  1  0.43665800  0.50072800  0.26718800  1
  Cl  Cl23  1  0.06407000  0.56334200  0.93385400  1
  Cl  Cl24  1  0.50072800  0.43665800  0.73281200  1
  Cl  Cl25  1  0.93593000  0.49927200  0.39947900  1
  Cl  Cl26  1  0.56334200  0.06407000  0.06614600  1
  Cl  Cl27  1  0.17838600  0.80302400  0.25978100  1
  Cl  Cl28  1  0.62463800  0.82161400  0.92644800  1
  Cl  Cl29  1  0.19697600  0.37536200  0.59311400  1
  Cl  Cl30  1  0.82161400  0.62463800  0.07355200  1
  Cl  Cl31  1  0.80302400  0.17838600  0.74021900  1
  Cl  Cl32  1  0.37536200  0.19697600  0.40688600  1
  Cl  Cl33  1  0.42167000  0.79551500  0.26093400  1
  Cl  Cl34  1  0.37384500  0.57833000  0.92760000  1
  Cl  Cl35  1  0.20448500  0.62615500  0.59426700  1
  Cl  Cl36  1  0.57833000  0.37384500  0.07240000  1
  Cl  Cl37  1  0.79551500  0.42167000  0.73906600  1
  Cl  Cl38  1  0.62615500  0.20448500  0.40573300  1
