# generated using pymatgen
data_MnH9C4(NO2)3
_symmetry_space_group_name_H-M   'P 1'
_cell_length_a   8.76695300
_cell_length_b   12.21354800
_cell_length_c   9.14940700
_cell_angle_alpha   90.00000000
_cell_angle_beta   90.00000000
_cell_angle_gamma   90.00000000
_symmetry_Int_Tables_number   1
_chemical_formula_structural   MnH9C4(NO2)3
_chemical_formula_sum   'Mn4 H36 C16 N12 O24'
_cell_volume   979.67825587
_cell_formula_units_Z   4
loop_
 _symmetry_equiv_pos_site_id
 _symmetry_equiv_pos_as_xyz
  1  'x, y, z'
loop_
 _atom_site_type_symbol
 _atom_site_label
 _atom_site_symmetry_multiplicity
 _atom_site_fract_x
 _atom_site_fract_y
 _atom_site_fract_z
 _atom_site_occupancy
  Mn  Mn0  1  0.24902000  0.75000000  0.25000000  1
  Mn  Mn1  1  0.25098000  0.25000000  0.25000000  1
  Mn  Mn2  1  0.75098000  0.25000000  0.75000000  1
  Mn  Mn3  1  0.74902000  0.75000000  0.75000000  1
  H  H4  1  0.25000000  0.50000000  0.18692400  1
  H  H5  1  0.25000000  0.00000000  0.31307600  1
  H  H6  1  0.75000000  0.50000000  0.81307600  1
  H  H7  1  0.75000000  0.00000000  0.68692400  1
  H  H8  1  0.59038600  0.72507400  0.42665400  1
  H  H9  1  0.90961400  0.27492600  0.42665400  1
  H  H10  1  0.59038600  0.77492600  0.07334600  1
  H  H11  1  0.90961400  0.22507400  0.07334600  1
  H  H12  1  0.40961400  0.27492600  0.57334600  1
  H  H13  1  0.09038600  0.72507400  0.57334600  1
  H  H14  1  0.40961400  0.22507400  0.92665400  1
  H  H15  1  0.09038600  0.77492600  0.92665400  1
  H  H16  1  0.32765600  0.57596400  0.57587000  1
  H  H17  1  0.17234400  0.42403600  0.57587000  1
  H  H18  1  0.32765600  0.92403600  0.92413000  1
  H  H19  1  0.17234400  0.07596400  0.92413000  1
  H  H20  1  0.67234400  0.42403600  0.42413000  1
  H  H21  1  0.82765600  0.57596400  0.42413000  1
  H  H22  1  0.67234400  0.07596400  0.07587000  1
  H  H23  1  0.82765600  0.92403600  0.07587000  1
  H  H24  1  0.40635400  0.62318200  0.74510400  1
  H  H25  1  0.09364600  0.37681800  0.74510400  1
  H  H26  1  0.40635400  0.87681800  0.75489600  1
  H  H27  1  0.09364600  0.12318200  0.75489600  1
  H  H28  1  0.59364600  0.37681800  0.25489600  1
  H  H29  1  0.90635400  0.62318200  0.25489600  1
  H  H30  1  0.59364600  0.12318200  0.24510400  1
  H  H31  1  0.90635400  0.87681800  0.24510400  1
  H  H32  1  0.18884000  0.44186400  0.96231000  1
  H  H33  1  0.31116000  0.55813600  0.96231000  1
  H  H34  1  0.18884000  0.05813600  0.53769000  1
  H  H35  1  0.31116000  0.94186400  0.53769000  1
  H  H36  1  0.81116000  0.55813600  0.03769000  1
  H  H37  1  0.68884000  0.44186400  0.03769000  1
  H  H38  1  0.81116000  0.94186400  0.46231000  1
  H  H39  1  0.68884000  0.05813600  0.46231000  1
  C  C40  1  0.25000000  0.50000000  0.30785700  1
  C  C41  1  0.25000000  0.00000000  0.19214300  1
  C  C42  1  0.75000000  0.50000000  0.69214300  1
  C  C43  1  0.75000000  0.00000000  0.80785700  1
  C  C44  1  0.51536700  0.78251200  0.48758600  1
  C  C45  1  0.98463300  0.21748800  0.48758600  1
  C  C46  1  0.51536700  0.71748800  0.01241400  1
  C  C47  1  0.98463300  0.28251200  0.01241400  1
  C  C48  1  0.48463300  0.21748800  0.51241400  1
  C  C49  1  0.01536700  0.78251200  0.51241400  1
  C  C50  1  0.48463300  0.28251200  0.98758600  1
  C  C51  1  0.01536700  0.71748800  0.98758600  1
  C  C52  1  0.25000000  0.50000000  0.76044900  1
  C  C53  1  0.25000000  0.00000000  0.73955100  1
  C  C54  1  0.75000000  0.50000000  0.23955100  1
  C  C55  1  0.75000000  0.00000000  0.26044900  1
  N  N56  1  0.33516500  0.57258200  0.68756100  1
  N  N57  1  0.16483500  0.42741800  0.68756100  1
  N  N58  1  0.33516500  0.92741800  0.81243900  1
  N  N59  1  0.16483500  0.07258200  0.81243900  1
  N  N60  1  0.66483500  0.42741800  0.31243900  1
  N  N61  1  0.83516500  0.57258200  0.31243900  1
  N  N62  1  0.66483500  0.07258200  0.18756100  1
  N  N63  1  0.83516500  0.92741800  0.18756100  1
  N  N64  1  0.25000000  0.50000000  0.90671700  1
  N  N65  1  0.25000000  0.00000000  0.59328300  1
  N  N66  1  0.75000000  0.50000000  0.09328300  1
  N  N67  1  0.75000000  0.00000000  0.40671700  1
  O  O68  1  0.25763800  0.59191000  0.37251500  1
  O  O69  1  0.24236200  0.40809000  0.37251500  1
  O  O70  1  0.25763800  0.90809000  0.12748500  1
  O  O71  1  0.24236200  0.09191000  0.12748500  1
  O  O72  1  0.74236200  0.40809000  0.62748500  1
  O  O73  1  0.75763800  0.59191000  0.62748500  1
  O  O74  1  0.74236200  0.09191000  0.87251500  1
  O  O75  1  0.75763800  0.90809000  0.87251500  1
  O  O76  1  0.39547300  0.81724300  0.42439900  1
  O  O77  1  0.10452700  0.18275700  0.42439900  1
  O  O78  1  0.39547300  0.68275700  0.07560100  1
  O  O79  1  0.10452700  0.31724300  0.07560100  1
  O  O80  1  0.60452700  0.18275700  0.57560100  1
  O  O81  1  0.89547300  0.81724300  0.57560100  1
  O  O82  1  0.60452700  0.31724300  0.92439900  1
  O  O83  1  0.89547300  0.68275700  0.92439900  1
  O  O84  1  0.55399800  0.80935800  0.61624000  1
  O  O85  1  0.94600200  0.19064200  0.61624000  1
  O  O86  1  0.55399800  0.69064200  0.88376000  1
  O  O87  1  0.94600200  0.30935800  0.88376000  1
  O  O88  1  0.44600200  0.19064200  0.38376000  1
  O  O89  1  0.05399800  0.80935800  0.38376000  1
  O  O90  1  0.44600200  0.30935800  0.11624000  1
  O  O91  1  0.05399800  0.69064200  0.11624000  1
