# generated using pymatgen
data_HgN2Cl4O
_symmetry_space_group_name_H-M   'P 1'
_cell_length_a   8.58212800
_cell_length_b   8.81277600
_cell_length_c   13.73342200
_cell_angle_alpha   90.00000000
_cell_angle_beta   90.00000000
_cell_angle_gamma   90.00000000
_symmetry_Int_Tables_number   1
_chemical_formula_structural   HgN2Cl4O
_chemical_formula_sum   'Hg4 N8 Cl16 O4'
_cell_volume   1038.69127697
_cell_formula_units_Z   4
loop_
 _symmetry_equiv_pos_site_id
 _symmetry_equiv_pos_as_xyz
  1  'x, y, z'
loop_
 _atom_site_type_symbol
 _atom_site_label
 _atom_site_symmetry_multiplicity
 _atom_site_fract_x
 _atom_site_fract_y
 _atom_site_fract_z
 _atom_site_occupancy
  Hg  Hg0  1  0.50000000  0.28737700  0.50000000  1
  Hg  Hg1  1  0.00000000  0.71262300  0.00000000  1
  Hg  Hg2  1  0.50000000  0.71262300  0.50000000  1
  Hg  Hg3  1  0.00000000  0.28737700  0.00000000  1
  N  N4  1  0.03975400  0.50000000  0.33698500  1
  N  N5  1  0.96024600  0.50000000  0.66301500  1
  N  N6  1  0.46024600  0.50000000  0.83698500  1
  N  N7  1  0.53975400  0.50000000  0.16301500  1
  N  N8  1  0.20233600  0.00000000  0.26280100  1
  N  N9  1  0.79766400  0.00000000  0.73719900  1
  N  N10  1  0.29766400  0.00000000  0.76280100  1
  N  N11  1  0.70233600  0.00000000  0.23719900  1
  Cl  Cl12  1  0.30955800  0.15961600  0.28222800  1
  Cl  Cl13  1  0.69044200  0.15961600  0.71777200  1
  Cl  Cl14  1  0.19044200  0.84038400  0.78222800  1
  Cl  Cl15  1  0.80955800  0.84038400  0.21777200  1
  Cl  Cl16  1  0.69044200  0.84038400  0.71777200  1
  Cl  Cl17  1  0.30955800  0.84038400  0.28222800  1
  Cl  Cl18  1  0.80955800  0.15961600  0.21777200  1
  Cl  Cl19  1  0.19044200  0.15961600  0.78222800  1
  Cl  Cl20  1  0.12393500  0.50000000  0.60776100  1
  Cl  Cl21  1  0.87606500  0.50000000  0.39223900  1
  Cl  Cl22  1  0.37606500  0.50000000  0.10776100  1
  Cl  Cl23  1  0.62393500  0.50000000  0.89223900  1
  Cl  Cl24  1  0.34404900  0.00000000  0.02934200  1
  Cl  Cl25  1  0.65595100  0.00000000  0.97065800  1
  Cl  Cl26  1  0.15595100  0.00000000  0.52934200  1
  Cl  Cl27  1  0.84404900  0.00000000  0.47065800  1
  O  O28  1  0.00000000  0.13131700  0.50000000  1
  O  O29  1  0.50000000  0.86868300  0.00000000  1
  O  O30  1  0.00000000  0.86868300  0.50000000  1
  O  O31  1  0.50000000  0.13131700  0.00000000  1
