# generated using pymatgen
data_CaRe3H9(S2O3)2
_symmetry_space_group_name_H-M   'P 1'
_cell_length_a   8.97424822
_cell_length_b   8.97424822
_cell_length_c   9.09907400
_cell_angle_alpha   90.00000000
_cell_angle_beta   90.00000000
_cell_angle_gamma   120.00000161
_symmetry_Int_Tables_number   1
_chemical_formula_structural   CaRe3H9(S2O3)2
_chemical_formula_sum   'Ca2 Re6 H18 S8 O12'
_cell_volume   634.63493715
_cell_formula_units_Z   2
loop_
 _symmetry_equiv_pos_site_id
 _symmetry_equiv_pos_as_xyz
  1  'x, y, z'
loop_
 _atom_site_type_symbol
 _atom_site_label
 _atom_site_symmetry_multiplicity
 _atom_site_fract_x
 _atom_site_fract_y
 _atom_site_fract_z
 _atom_site_occupancy
  Ca  Ca0  1  0.33333300  0.66666700  0.66870700  1
  Ca  Ca1  1  0.66666700  0.33333300  0.33129300  1
  Re  Re2  1  0.05657200  0.18958600  0.88349700  1
  Re  Re3  1  0.81041400  0.86698600  0.88349700  1
  Re  Re4  1  0.13301400  0.94342800  0.88349700  1
  Re  Re5  1  0.94342800  0.81041400  0.11650300  1
  Re  Re6  1  0.18958600  0.13301400  0.11650300  1
  Re  Re7  1  0.86698600  0.05657200  0.11650300  1
  H  H8  1  0.02394700  0.37157300  0.68509000  1
  H  H9  1  0.62842700  0.65237400  0.68509000  1
  H  H10  1  0.34762600  0.97605300  0.68509000  1
  H  H11  1  0.97605300  0.62842700  0.31491000  1
  H  H12  1  0.37157300  0.34762600  0.31491000  1
  H  H13  1  0.65237400  0.02394700  0.31491000  1
  H  H14  1  0.66231500  0.82880700  0.48256800  1
  H  H15  1  0.17119300  0.83350900  0.48256800  1
  H  H16  1  0.16649100  0.33768500  0.48256800  1
  H  H17  1  0.33768500  0.17119300  0.51743200  1
  H  H18  1  0.82880700  0.16649100  0.51743200  1
  H  H19  1  0.83350900  0.66231500  0.51743200  1
  H  H20  1  0.53385000  0.77079600  0.35354600  1
  H  H21  1  0.22920400  0.76305400  0.35354600  1
  H  H22  1  0.23694600  0.46615000  0.35354600  1
  H  H23  1  0.46615000  0.22920400  0.64645400  1
  H  H24  1  0.77079600  0.23694600  0.64645400  1
  H  H25  1  0.76305400  0.53385000  0.64645400  1
  S  S26  1  0.00000000  0.00000000  0.67484700  1
  S  S27  1  0.00000000  0.00000000  0.32515300  1
  S  S28  1  0.75179500  0.10334400  0.88976700  1
  S  S29  1  0.89665600  0.64845100  0.88976700  1
  S  S30  1  0.35154900  0.24820500  0.88976700  1
  S  S31  1  0.24820500  0.89665600  0.11023300  1
  S  S32  1  0.10334400  0.35154900  0.11023300  1
  S  S33  1  0.64845100  0.75179500  0.11023300  1
  O  O34  1  0.12248800  0.40537900  0.75018900  1
  O  O35  1  0.59462100  0.71710900  0.75018900  1
  O  O36  1  0.28289100  0.87751200  0.75018900  1
  O  O37  1  0.87751200  0.59462100  0.24981100  1
  O  O38  1  0.40537900  0.28289100  0.24981100  1
  O  O39  1  0.71710900  0.12248800  0.24981100  1
  O  O40  1  0.55337100  0.82028500  0.45302200  1
  O  O41  1  0.17971500  0.73308600  0.45302200  1
  O  O42  1  0.26691400  0.44662900  0.45302200  1
  O  O43  1  0.44662900  0.17971500  0.54697800  1
  O  O44  1  0.82028500  0.26691400  0.54697800  1
  O  O45  1  0.73308600  0.55337100  0.54697800  1
