# generated using pymatgen
data_ZnCu5P2O15
_symmetry_space_group_name_H-M   'P 1'
_cell_length_a   8.59533300
_cell_length_b   10.86353300
_cell_length_c   11.74861160
_cell_angle_alpha   84.12129037
_cell_angle_beta   90.00000000
_cell_angle_gamma   90.00000000
_symmetry_Int_Tables_number   1
_chemical_formula_structural   ZnCu5P2O15
_chemical_formula_sum   'Zn4 Cu20 P8 O60'
_cell_volume   1091.26527456
_cell_formula_units_Z   4
loop_
 _symmetry_equiv_pos_site_id
 _symmetry_equiv_pos_as_xyz
  1  'x, y, z'
loop_
 _atom_site_type_symbol
 _atom_site_label
 _atom_site_symmetry_multiplicity
 _atom_site_fract_x
 _atom_site_fract_y
 _atom_site_fract_z
 _atom_site_occupancy
  Zn  Zn0  1  0.59577900  0.16883900  0.03317800  1
  Zn  Zn1  1  0.09577900  0.33116100  0.96682200  1
  Zn  Zn2  1  0.40422100  0.83116100  0.96682200  1
  Zn  Zn3  1  0.90422100  0.66883900  0.03317800  1
  Cu  Cu4  1  0.90811000  0.30063900  0.30301900  1
  Cu  Cu5  1  0.40811000  0.19936100  0.69698100  1
  Cu  Cu6  1  0.09189000  0.69936100  0.69698100  1
  Cu  Cu7  1  0.59189000  0.80063900  0.30301900  1
  Cu  Cu8  1  0.75171300  0.04732400  0.28914100  1
  Cu  Cu9  1  0.25171300  0.45267600  0.71085900  1
  Cu  Cu10  1  0.24828700  0.95267600  0.71085900  1
  Cu  Cu11  1  0.74828700  0.54732400  0.28914100  1
  Cu  Cu12  1  0.09297700  0.05915000  0.30723500  1
  Cu  Cu13  1  0.59297700  0.44085000  0.69276500  1
  Cu  Cu14  1  0.90702300  0.94085000  0.69276500  1
  Cu  Cu15  1  0.40702300  0.55915000  0.30723500  1
  Cu  Cu16  1  0.26268900  0.30834200  0.30935600  1
  Cu  Cu17  1  0.76268900  0.19165800  0.69064400  1
  Cu  Cu18  1  0.73731100  0.69165800  0.69064400  1
  Cu  Cu19  1  0.23731100  0.80834200  0.30935600  1
  Cu  Cu20  1  0.42713900  0.05080000  0.28966900  1
  Cu  Cu21  1  0.92713900  0.44920000  0.71033100  1
  Cu  Cu22  1  0.57286100  0.94920000  0.71033100  1
  Cu  Cu23  1  0.07286100  0.55080000  0.28966900  1
  P  P24  1  0.74015900  0.42358300  0.04280100  1
  P  P25  1  0.24015900  0.07641700  0.95719900  1
  P  P26  1  0.25984100  0.57641700  0.95719900  1
  P  P27  1  0.75984100  0.92358300  0.04280100  1
  P  P28  1  0.59272700  0.32194300  0.43571700  1
  P  P29  1  0.09272700  0.17805700  0.56428300  1
  P  P30  1  0.40727300  0.67805700  0.56428300  1
  P  P31  1  0.90727300  0.82194300  0.43571700  1
  O  O32  1  0.91403600  0.15244300  0.23860000  1
  O  O33  1  0.41403600  0.34755700  0.76140000  1
  O  O34  1  0.08596400  0.84755700  0.76140000  1
  O  O35  1  0.58596400  0.65244300  0.23860000  1
  O  O36  1  0.10318500  0.18606100  0.43189500  1
  O  O37  1  0.60318500  0.31393900  0.56810500  1
  O  O38  1  0.89681500  0.81393900  0.56810500  1
  O  O39  1  0.39681500  0.68606100  0.43189500  1
  O  O40  1  0.08539100  0.34138700  0.22307400  1
  O  O41  1  0.58539100  0.15861300  0.77692600  1
  O  O42  1  0.91460900  0.65861300  0.77692600  1
  O  O43  1  0.41460900  0.84138700  0.22307400  1
  O  O44  1  0.91153800  0.45340800  0.35704200  1
  O  O45  1  0.41153800  0.04659200  0.64295800  1
  O  O46  1  0.08846200  0.54659200  0.64295800  1
  O  O47  1  0.58846200  0.95340800  0.35704200  1
  O  O48  1  0.69364900  0.41851300  0.17277200  1
  O  O49  1  0.19364900  0.08148700  0.82722800  1
  O  O50  1  0.30635100  0.58148700  0.82722800  1
  O  O51  1  0.80635100  0.91851300  0.17277200  1
  O  O52  1  0.73077000  0.25039300  0.38956100  1
  O  O53  1  0.23077000  0.24960700  0.61043900  1
  O  O54  1  0.26923000  0.74960700  0.61043900  1
  O  O55  1  0.76923000  0.75039300  0.38956100  1
  O  O56  1  0.90728600  0.96478700  0.38946400  1
  O  O57  1  0.40728600  0.53521300  0.61053600  1
  O  O58  1  0.09271400  0.03521300  0.61053600  1
  O  O59  1  0.59271400  0.46478700  0.38946400  1
  O  O60  1  0.58956100  0.12832700  0.20552800  1
  O  O61  1  0.08956100  0.37167300  0.79447200  1
  O  O62  1  0.41043900  0.87167300  0.79447200  1
  O  O63  1  0.91043900  0.62832700  0.20552800  1
  O  O64  1  0.27151200  0.15772200  0.23754800  1
  O  O65  1  0.77151200  0.34227800  0.76245200  1
  O  O66  1  0.72848800  0.84227800  0.76245200  1
  O  O67  1  0.22848800  0.65772200  0.23754800  1
  O  O68  1  0.27153500  0.96111800  0.37172200  1
  O  O69  1  0.77153500  0.53888200  0.62827800  1
  O  O70  1  0.72846500  0.03888200  0.62827800  1
  O  O71  1  0.22846500  0.46111800  0.37172200  1
  O  O72  1  0.10034100  0.93188100  0.20343900  1
  O  O73  1  0.60034100  0.56811900  0.79656100  1
  O  O74  1  0.89965900  0.06811900  0.79656100  1
  O  O75  1  0.39965900  0.43188100  0.20343900  1
  O  O76  1  0.43882300  0.26119100  0.40307400  1
  O  O77  1  0.93882300  0.23880900  0.59692600  1
  O  O78  1  0.56117700  0.73880900  0.59692600  1
  O  O79  1  0.06117700  0.76119100  0.40307400  1
  O  O80  1  0.90184000  0.36633800  0.03738700  1
  O  O81  1  0.40184000  0.13366200  0.96261300  1
  O  O82  1  0.09816000  0.63366200  0.96261300  1
  O  O83  1  0.59816000  0.86633800  0.03738700  1
  O  O84  1  0.73874700  0.55905900  0.98738300  1
  O  O85  1  0.23874700  0.94094100  0.01261700  1
  O  O86  1  0.26125300  0.44094100  0.01261700  1
  O  O87  1  0.76125300  0.05905900  0.98738300  1
  O  O88  1  0.61521000  0.34497900  0.99063900  1
  O  O89  1  0.11521000  0.15502100  0.00936100  1
  O  O90  1  0.38479000  0.65502100  0.00936100  1
  O  O91  1  0.88479000  0.84497900  0.99063900  1
