# generated using pymatgen
data_KHo2F7
_symmetry_space_group_name_H-M   'P 1'
_cell_length_a   8.26169302
_cell_length_b   8.26169302
_cell_length_c   12.01155085
_cell_angle_alpha   59.74744745
_cell_angle_beta   59.74744745
_cell_angle_gamma   58.29068225
_symmetry_Int_Tables_number   1
_chemical_formula_structural   KHo2F7
_chemical_formula_sum   'K4 Ho8 F28'
_cell_volume   569.73048446
_cell_formula_units_Z   4
loop_
 _symmetry_equiv_pos_site_id
 _symmetry_equiv_pos_as_xyz
  1  'x, y, z'
loop_
 _atom_site_type_symbol
 _atom_site_label
 _atom_site_symmetry_multiplicity
 _atom_site_fract_x
 _atom_site_fract_y
 _atom_site_fract_z
 _atom_site_occupancy
  K  K0  1  0.22248100  0.22248100  0.34516100  1
  K  K1  1  0.25369800  0.25369800  0.98135300  1
  K  K2  1  0.75514500  0.75514500  0.65168100  1
  K  K3  1  0.73005700  0.73005700  0.02091500  1
  Ho  Ho4  1  0.73371200  0.25230900  0.99812900  1
  Ho  Ho5  1  0.25230900  0.73371200  0.99812900  1
  Ho  Ho6  1  0.75049500  0.75049500  0.32016800  1
  Ho  Ho7  1  0.75500400  0.22995700  0.31878900  1
  Ho  Ho8  1  0.22995700  0.75500400  0.31878900  1
  Ho  Ho9  1  0.75201800  0.22710700  0.68067400  1
  Ho  Ho10  1  0.22710700  0.75201800  0.68067400  1
  Ho  Ho11  1  0.23291500  0.23291500  0.67720300  1
  F  F12  1  0.33135600  0.85414400  0.08430300  1
  F  F13  1  0.85414400  0.33135600  0.08430300  1
  F  F14  1  0.66028500  0.12335200  0.91440400  1
  F  F15  1  0.12335200  0.66028500  0.91440400  1
  F  F16  1  0.34390800  0.87673400  0.76170800  1
  F  F17  1  0.87673400  0.34390800  0.76170800  1
  F  F18  1  0.88784800  0.88784800  0.74785400  1
  F  F19  1  0.38869600  0.38869600  0.06918800  1
  F  F20  1  0.87762800  0.87762800  0.37954100  1
  F  F21  1  0.48677400  0.81901300  0.49847600  1
  F  F22  1  0.81901300  0.48677400  0.49847600  1
  F  F23  1  0.63543800  0.11360200  0.23490100  1
  F  F24  1  0.11360200  0.63543800  0.23490100  1
  F  F25  1  0.10405900  0.10405900  0.61754200  1
  F  F26  1  0.59737000  0.59737000  0.92278600  1
  F  F27  1  0.49486100  0.16078800  0.49940900  1
  F  F28  1  0.16078800  0.49486100  0.49940900  1
  F  F29  1  0.49274300  0.83717100  0.26065200  1
  F  F30  1  0.83717100  0.49274300  0.26065200  1
  F  F31  1  0.48836100  0.15256700  0.73741500  1
  F  F32  1  0.15256700  0.48836100  0.73741500  1
  F  F33  1  0.48908800  0.48908800  0.73641900  1
  F  F34  1  0.49801700  0.49801700  0.26953200  1
  F  F35  1  0.81032800  0.16968100  0.49998400  1
  F  F36  1  0.16968100  0.81032800  0.49998400  1
  F  F37  1  0.88816100  0.88816100  0.08734100  1
  F  F38  1  0.09348500  0.09348500  0.25023100  1
  F  F39  1  0.09894500  0.09894500  0.91259400  1
