# generated using pymatgen
data_NaSi4O13
_symmetry_space_group_name_H-M   'P 1'
_cell_length_a   19.52291859
_cell_length_b   19.52291859
_cell_length_c   19.52291859
_cell_angle_alpha   157.55387354
_cell_angle_beta   157.55387354
_cell_angle_gamma   31.95349865
_symmetry_Int_Tables_number   1
_chemical_formula_structural   NaSi4O13
_chemical_formula_sum   'Na4 Si16 O52'
_cell_volume   1083.93276319
_cell_formula_units_Z   4
loop_
 _symmetry_equiv_pos_site_id
 _symmetry_equiv_pos_as_xyz
  1  'x, y, z'
loop_
 _atom_site_type_symbol
 _atom_site_label
 _atom_site_symmetry_multiplicity
 _atom_site_fract_x
 _atom_site_fract_y
 _atom_site_fract_z
 _atom_site_occupancy
  Na  Na0  1  0.87533900  0.37533900  0.50000000  1
  Na  Na1  1  0.12533900  0.12533900  0.00000000  1
  Na  Na2  1  0.87466100  0.87466100  0.00000000  1
  Na  Na3  1  0.62466100  0.12466100  0.50000000  1
  Si  Si4  1  0.54408400  0.04408400  0.08816800  1
  Si  Si5  1  0.95591600  0.04408400  0.50000000  1
  Si  Si6  1  0.79408400  0.79408400  0.58816800  1
  Si  Si7  1  0.20591600  0.79408400  0.00000000  1
  Si  Si8  1  0.54408400  0.45591600  0.50000000  1
  Si  Si9  1  0.95591600  0.45591600  0.91183200  1
  Si  Si10  1  0.79408400  0.20591600  0.00000000  1
  Si  Si11  1  0.20591600  0.20591600  0.41183200  1
  Si  Si12  1  0.30803900  0.60537800  0.29733800  1
  Si  Si13  1  0.35537800  0.55803900  0.79733800  1
  Si  Si14  1  0.76070100  0.55803900  0.20266200  1
  Si  Si15  1  0.30803900  0.01070100  0.70266200  1
  Si  Si16  1  0.44196100  0.64462200  0.20266200  1
  Si  Si17  1  0.39462200  0.69196100  0.70266200  1
  Si  Si18  1  0.98929900  0.69196100  0.29733800  1
  Si  Si19  1  0.44196100  0.23929900  0.79733800  1
  O  O20  1  0.46151700  0.02286700  0.91558200  1
  O  O21  1  0.10728500  0.02286700  0.56135000  1
  O  O22  1  0.77286700  0.71151700  0.41558200  1
  O  O23  1  0.29593500  0.71151700  0.93865000  1
  O  O24  1  0.46151700  0.54593500  0.43865000  1
  O  O25  1  0.10728500  0.54593500  0.08441800  1
  O  O26  1  0.77286700  0.35728500  0.06135000  1
  O  O27  1  0.29593500  0.35728500  0.58441800  1
  O  O28  1  0.28848300  0.22713300  0.58441800  1
  O  O29  1  0.64271500  0.22713300  0.93865000  1
  O  O30  1  0.97713300  0.53848300  0.08441800  1
  O  O31  1  0.45406500  0.53848300  0.56135000  1
  O  O32  1  0.28848300  0.70406500  0.06135000  1
  O  O33  1  0.64271500  0.70406500  0.41558200  1
  O  O34  1  0.97713300  0.89271500  0.43865000  1
  O  O35  1  0.45406500  0.89271500  0.91558200  1
  O  O36  1  0.49805000  0.24096200  0.25708800  1
  O  O37  1  0.98387400  0.24096200  0.74291200  1
  O  O38  1  0.99096200  0.74805000  0.75708800  1
  O  O39  1  0.99096200  0.23387400  0.24291200  1
  O  O40  1  0.25195000  0.00903800  0.24291200  1
  O  O41  1  0.76612600  0.00903800  0.75708800  1
  O  O42  1  0.75903800  0.50195000  0.74291200  1
  O  O43  1  0.75903800  0.01612600  0.25708800  1
  O  O44  1  0.32117600  0.82117600  0.50000000  1
  O  O45  1  0.57117600  0.57117600  0.00000000  1
  O  O46  1  0.42882400  0.42882400  0.00000000  1
  O  O47  1  0.17882400  0.67882400  0.50000000  1
  O  O48  1  0.34314000  0.17677500  0.83363500  1
  O  O49  1  0.92677500  0.59314000  0.33363500  1
  O  O50  1  0.25950500  0.59314000  0.66636500  1
  O  O51  1  0.34314000  0.50950500  0.16636500  1
  O  O52  1  0.40686000  0.07322500  0.66636500  1
  O  O53  1  0.82322500  0.65686000  0.16636500  1
  O  O54  1  0.49049500  0.65686000  0.83363500  1
  O  O55  1  0.40686000  0.74049500  0.33363500  1
  O  O56  1  0.59125200  0.62500000  0.46625200  1
  O  O57  1  0.15874800  0.62500000  0.03374800  1
  O  O58  1  0.37500000  0.84125200  0.96625200  1
  O  O59  1  0.87500000  0.84125200  0.46625200  1
  O  O60  1  0.59125200  0.12500000  0.96625200  1
  O  O61  1  0.15874800  0.12500000  0.53374800  1
  O  O62  1  0.37500000  0.40874800  0.53374800  1
  O  O63  1  0.87500000  0.40874800  0.03374800  1
  O  O64  1  0.81301900  0.81301900  0.00000000  1
  O  O65  1  0.56301900  0.06301900  0.50000000  1
  O  O66  1  0.93698100  0.43698100  0.50000000  1
  O  O67  1  0.18698100  0.18698100  0.00000000  1
  O  O68  1  0.81447500  0.31447500  0.50000000  1
  O  O69  1  0.06447500  0.06447500  0.00000000  1
  O  O70  1  0.93552500  0.93552500  0.00000000  1
  O  O71  1  0.68552500  0.18552500  0.50000000  1
