# generated using pymatgen
data_Ni(BO3)6
_symmetry_space_group_name_H-M   'P 1'
_cell_length_a   8.36298406
_cell_length_b   8.93655204
_cell_length_c   10.31920227
_cell_angle_alpha   70.58085097
_cell_angle_beta   72.24567400
_cell_angle_gamma   87.19833765
_symmetry_Int_Tables_number   1
_chemical_formula_structural   Ni(BO3)6
_chemical_formula_sum   'Ni2 B12 O36'
_cell_volume   691.51903632
_cell_formula_units_Z   2
loop_
 _symmetry_equiv_pos_site_id
 _symmetry_equiv_pos_as_xyz
  1  'x, y, z'
loop_
 _atom_site_type_symbol
 _atom_site_label
 _atom_site_symmetry_multiplicity
 _atom_site_fract_x
 _atom_site_fract_y
 _atom_site_fract_z
 _atom_site_occupancy
  Ni  Ni0  1  0.83700300  0.35450400  0.32223000  1
  Ni  Ni1  1  0.16299700  0.64549600  0.67777000  1
  B  B2  1  0.89667000  0.66766800  0.35772600  1
  B  B3  1  0.10333000  0.33233200  0.64227400  1
  B  B4  1  0.63917700  0.79155500  0.26182000  1
  B  B5  1  0.36082300  0.20844500  0.73818000  1
  B  B6  1  0.89775100  0.67930400  0.10378900  1
  B  B7  1  0.10224900  0.32069600  0.89621100  1
  B  B8  1  0.16348000  0.68389500  0.16253500  1
  B  B9  1  0.83652000  0.31610500  0.83746500  1
  B  B10  1  0.70785000  0.84971400  0.45690500  1
  B  B11  1  0.29215000  0.15028600  0.54309500  1
  B  B12  1  0.70869300  0.86765400  0.99758600  1
  B  B13  1  0.29130700  0.13234600  0.00241400  1
  O  O14  1  0.82053000  0.73691900  0.23273900  1
  O  O15  1  0.17947000  0.26308100  0.76726100  1
  O  O16  1  0.33315900  0.66706800  0.11814900  1
  O  O17  1  0.66684100  0.33293200  0.88185100  1
  O  O18  1  0.07968100  0.68343600  0.29994200  1
  O  O19  1  0.92031900  0.31656400  0.70005800  1
  O  O20  1  0.83112300  0.74467600  0.46364700  1
  O  O21  1  0.16887700  0.25532400  0.53635300  1
  O  O22  1  0.67724400  0.94274600  0.54576100  1
  O  O23  1  0.32275600  0.05725400  0.45423900  1
  O  O24  1  0.60838700  0.86982600  0.36901000  1
  O  O25  1  0.39161300  0.13017400  0.63099000  1
  O  O26  1  0.61407800  0.88843400  0.12584500  1
  O  O27  1  0.38592200  0.11156600  0.87415500  1
  O  O28  1  0.68938400  0.96710300  0.86991200  1
  O  O29  1  0.31061600  0.03289700  0.13008800  1
  O  O30  1  0.83089300  0.76021800  0.98831700  1
  O  O31  1  0.16910700  0.23978200  0.01168300  1
  O  O32  1  0.08186200  0.70027600  0.06046400  1
  O  O33  1  0.91813800  0.29972400  0.93953600  1
  O  O34  1  0.86329600  0.49590100  0.42059900  1
  O  O35  1  0.13670400  0.50409900  0.57940100  1
  O  O36  1  0.51914300  0.65684600  0.31348700  1
  O  O37  1  0.48085700  0.34315400  0.68651300  1
  O  O38  1  0.87411300  0.50695200  0.14436200  1
  O  O39  1  0.12588700  0.49304800  0.85563800  1
  O  O40  1  0.74513200  0.20693800  0.22964000  1
  O  O41  1  0.25486800  0.79306200  0.77036000  1
  O  O42  1  0.82211400  0.18836700  0.48284300  1
  O  O43  1  0.17788600  0.81163300  0.51715700  1
  O  O44  1  0.04551300  0.25963200  0.30979900  1
  O  O45  1  0.95448700  0.74036800  0.69020100  1
  O  O46  1  0.57864700  0.36775800  0.32091200  1
  O  O47  1  0.42135300  0.63224200  0.67908800  1
  O  O48  1  0.59649400  0.26491100  0.25075000  1
  O  O49  1  0.40350600  0.73508900  0.74925000  1
