# generated using pymatgen
data_NiP2H26C8S4(NO)2
_symmetry_space_group_name_H-M   'P 1'
_cell_length_a   10.43517948
_cell_length_b   13.81536008
_cell_length_c   15.01705520
_cell_angle_alpha   90.00000000
_cell_angle_beta   100.64293898
_cell_angle_gamma   90.00000000
_symmetry_Int_Tables_number   1
_chemical_formula_structural   NiP2H26C8S4(NO)2
_chemical_formula_sum   'Ni4 P8 H104 C32 S16 N8 O8'
_cell_volume   2127.70211881
_cell_formula_units_Z   4
loop_
 _symmetry_equiv_pos_site_id
 _symmetry_equiv_pos_as_xyz
  1  'x, y, z'
loop_
 _atom_site_type_symbol
 _atom_site_label
 _atom_site_symmetry_multiplicity
 _atom_site_fract_x
 _atom_site_fract_y
 _atom_site_fract_z
 _atom_site_occupancy
  Ni  Ni0  1  0.00674671  0.29043357  0.27946192  1
  Ni  Ni1  1  0.50674671  0.20956643  0.77946192  1
  Ni  Ni2  1  0.99325329  0.70956643  0.72053808  1
  Ni  Ni3  1  0.49325329  0.79043357  0.22053808  1
  P  P4  1  0.95855348  0.08750729  0.20413443  1
  P  P5  1  0.45855348  0.41249271  0.70413443  1
  P  P6  1  0.04144652  0.91249271  0.79586557  1
  P  P7  1  0.54144652  0.58750729  0.29586557  1
  P  P8  1  0.04317797  0.50213441  0.32522444  1
  P  P9  1  0.54317797  0.99786559  0.82522444  1
  P  P10  1  0.95682203  0.49786559  0.67477556  1
  P  P11  1  0.45682203  0.00213441  0.17477556  1
  H  H12  1  0.12465428  0.04528215  0.96162887  1
  H  H13  1  0.62465428  0.45471785  0.46162887  1
  H  H14  1  0.87534572  0.95471785  0.03837113  1
  H  H15  1  0.37534572  0.54528215  0.53837113  1
  H  H16  1  0.11291485  0.10303005  0.05965858  1
  H  H17  1  0.61291485  0.39696995  0.55965858  1
  H  H18  1  0.88708515  0.89696995  0.94034142  1
  H  H19  1  0.38708515  0.60303005  0.44034142  1
  H  H20  1  0.26002332  0.08969987  0.03158889  1
  H  H21  1  0.76002332  0.41030013  0.53158889  1
  H  H22  1  0.73997668  0.91030013  0.96841111  1
  H  H23  1  0.23997668  0.58969987  0.46841111  1
  H  H24  1  0.76750885  0.62132267  0.42574862  1
  H  H25  1  0.26750885  0.87867733  0.92574862  1
  H  H26  1  0.23249115  0.37867733  0.57425138  1
  H  H27  1  0.73249115  0.12132267  0.07425138  1
  H  H28  1  0.93427345  0.61362296  0.44519551  1
  H  H29  1  0.43427345  0.88637704  0.94519551  1
  H  H30  1  0.06572655  0.38637704  0.55480449  1
  H  H31  1  0.56572655  0.11362296  0.05480449  1
  H  H32  1  0.84910013  0.62351613  0.53246607  1
  H  H33  1  0.34910013  0.87648387  0.03246607  1
  H  H34  1  0.15089987  0.37648387  0.46753393  1
  H  H35  1  0.65089987  0.12351613  0.96753393  1
  H  H36  1  0.05119459  0.93280974  0.24638870  1
  H  H37  1  0.55119459  0.56719026  0.74638870  1
  H  H38  1  0.94880541  0.06719026  0.75361130  1
  H  H39  1  0.44880541  0.43280974  0.25361130  1
  H  H40  1  0.88500295  0.94312569  0.26005859  1
  H  H41  1  0.38500295  0.55687431  0.76005859  1
  H  H42  1  0.11499705  0.05687431  0.73994141  1
  H  H43  1  0.61499705  0.44312569  0.23994141  1
  H  H44  1  0.12769891  0.02010993  0.39091826  1
  H  H45  1  0.62769891  0.47989007  0.89091826  1
  H  H46  1  0.87230109  0.97989007  0.60908174  1
  H  H47  1  0.37230109  0.52010993  0.10908174  1
  H  H48  1  0.01887594  0.92833551  0.41347171  1
  H  H49  1  0.51887594  0.57166449  0.91347171  1
  H  H50  1  0.98112406  0.07166449  0.58652829  1
  H  H51  1  0.48112406  0.42833551  0.08652829  1
  H  H52  1  0.96503221  0.05030448  0.40062173  1
  H  H53  1  0.46503221  0.44969552  0.90062173  1
  H  H54  1  0.03496779  0.94969552  0.59937827  1
  H  H55  1  0.53496779  0.55030448  0.09937827  1
  H  H56  1  0.03756867  0.21247665  0.94128781  1
  H  H57  1  0.53756867  0.28752335  0.44128781  1
  H  H58  1  0.96243133  0.78752335  0.05871219  1
  H  H59  1  0.46243133  0.71247665  0.55871219  1
  H  H60  1  0.17783757  0.18941975  0.89300119  1
  H  H61  1  0.67783757  0.31058025  0.39300119  1
  H  H62  1  0.82216243  0.81058025  0.10699881  1
  H  H63  1  0.32216243  0.68941975  0.60699881  1
  H  H64  1  0.19816766  0.34776509  0.97714339  1
  H  H65  1  0.69816766  0.15223491  0.47714339  1
  H  H66  1  0.80183234  0.65223491  0.02285661  1
  H  H67  1  0.30183234  0.84776509  0.52285661  1
  H  H68  1  0.32136008  0.26513406  0.02667806  1
  H  H69  1  0.82136008  0.23486594  0.52667806  1
  H  H70  1  0.67863992  0.73486594  0.97332194  1
  H  H71  1  0.17863992  0.76513406  0.47332194  1
  H  H72  1  0.18462690  0.28608325  0.07935927  1
  H  H73  1  0.68462690  0.21391675  0.57935927  1
  H  H74  1  0.81537310  0.71391675  0.92064073  1
  H  H75  1  0.31537310  0.78608325  0.42064073  1
  H  H76  1  0.10846900  0.61848188  0.22752611  1
  H  H77  1  0.60846900  0.88151812  0.72752611  1
  H  H78  1  0.89153100  0.38151812  0.77247389  1
  H  H79  1  0.39153100  0.11848188  0.27247389  1
  H  H80  1  0.93589948  0.61970758  0.22311964  1
  H  H81  1  0.43589948  0.88029242  0.72311964  1
  H  H82  1  0.06410052  0.38029242  0.77688036  1
  H  H83  1  0.56410052  0.11970758  0.27688036  1
  H  H84  1  0.99793347  0.56164010  0.07427443  1
  H  H85  1  0.49793347  0.93835990  0.57427443  1
  H  H86  1  0.00206653  0.43835990  0.92572557  1
  H  H87  1  0.50206653  0.06164010  0.42572557  1
  H  H88  1  0.90992796  0.47250047  0.12371375  1
  H  H89  1  0.40992796  0.02749953  0.62371375  1
  H  H90  1  0.09007204  0.52749953  0.87628625  1
  H  H91  1  0.59007204  0.97250047  0.37628625  1
  H  H92  1  0.08183607  0.46249958  0.13359872  1
  H  H93  1  0.58183607  0.03750042  0.63359872  1
  H  H94  1  0.91816393  0.53750042  0.86640128  1
  H  H95  1  0.41816393  0.96249958  0.36640128  1
  H  H96  1  0.87416498  0.77350568  0.39515625  1
  H  H97  1  0.37416498  0.72649432  0.89515625  1
  H  H98  1  0.12583502  0.22649432  0.60484375  1
  H  H99  1  0.62583502  0.27350568  0.10484375  1
  H  H100  1  0.94896107  0.77479165  0.51218384  1
  H  H101  1  0.44896107  0.72520835  0.01218384  1
  H  H102  1  0.05103893  0.22520835  0.48781616  1
  H  H103  1  0.55103893  0.27479165  0.98781616  1
  H  H104  1  0.75060174  0.87997431  0.48465631  1
  H  H105  1  0.25060174  0.62002569  0.98465631  1
  H  H106  1  0.24939826  0.12002569  0.51534369  1
  H  H107  1  0.74939826  0.37997431  0.01534369  1
  H  H108  1  0.72615114  0.78095747  0.55495511  1
  H  H109  1  0.22615114  0.71904253  0.05495511  1
  H  H110  1  0.27384886  0.21904253  0.44504489  1
  H  H111  1  0.77384886  0.28095747  0.94504489  1
  H  H112  1  0.65366063  0.78029175  0.43690413  1
  H  H113  1  0.15366063  0.71970825  0.93690413  1
  H  H114  1  0.34633937  0.21970825  0.56309587  1
  H  H115  1  0.84633937  0.28029175  0.06309587  1
  C  C116  1  0.98140819  0.97853500  0.27417744  1
  C  C117  1  0.48140819  0.52146500  0.77417744  1
  C  C118  1  0.01859181  0.02146500  0.72582256  1
  C  C119  1  0.51859181  0.47853500  0.22582256  1
  C  C120  1  0.02602806  0.99552240  0.37560819  1
  C  C121  1  0.52602806  0.50447760  0.87560819  1
  C  C122  1  0.97397194  0.00447760  0.62439181  1
  C  C123  1  0.47397194  0.49552240  0.12439181  1
  C  C124  1  0.14300728  0.19828301  0.95715818  1
  C  C125  1  0.64300728  0.30171699  0.45715818  1
  C  C126  1  0.85699272  0.80171699  0.04284182  1
  C  C127  1  0.35699272  0.69828301  0.54284182  1
  C  C128  1  0.21593795  0.27900489  0.01376657  1
  C  C129  1  0.71593795  0.22099511  0.51376657  1
  C  C130  1  0.78406205  0.72099511  0.98623343  1
  C  C131  1  0.28406205  0.77900489  0.48623343  1
  C  C132  1  0.02066259  0.57274572  0.22056091  1
  C  C133  1  0.52066259  0.92725428  0.72056091  1
  C  C134  1  0.97933741  0.42725428  0.77943909  1
  C  C135  1  0.47933741  0.07274572  0.27943909  1
  C  C136  1  0.00129880  0.51385111  0.13314119  1
  C  C137  1  0.50129880  0.98614889  0.63314119  1
  C  C138  1  0.99870120  0.48614889  0.86685881  1
  C  C139  1  0.49870120  0.01385111  0.36685881  1
  C  C140  1  0.86116557  0.75369499  0.46369166  1
  C  C141  1  0.36116557  0.74630501  0.96369166  1
  C  C142  1  0.13883443  0.24630501  0.53630834  1
  C  C143  1  0.63883443  0.25369499  0.03630834  1
  C  C144  1  0.74010229  0.80104266  0.48664515  1
  C  C145  1  0.24010229  0.69895734  0.98664515  1
  C  C146  1  0.25989771  0.19895734  0.51335485  1
  C  C147  1  0.75989771  0.30104266  0.01335485  1
  S  S148  1  0.83062583  0.17755414  0.25200116  1
  S  S149  1  0.33062583  0.32244586  0.75200116  1
  S  S150  1  0.16937417  0.82244586  0.74799884  1
  S  S151  1  0.66937417  0.67755414  0.24799884  1
  S  S152  1  0.12757576  0.16840264  0.22609558  1
  S  S153  1  0.62757576  0.33159736  0.72609558  1
  S  S154  1  0.87242424  0.83159736  0.77390442  1
  S  S155  1  0.37242424  0.66840264  0.27390442  1
  S  S156  1  0.88100342  0.41618787  0.32084879  1
  S  S157  1  0.38100342  0.08381213  0.82084879  1
  S  S158  1  0.11899658  0.58381213  0.67915121  1
  S  S159  1  0.61899658  0.91618787  0.17915121  1
  S  S160  1  0.18756587  0.40142582  0.32266606  1
  S  S161  1  0.68756587  0.09857418  0.82266606  1
  S  S162  1  0.81243413  0.59857418  0.67733394  1
  S  S163  1  0.31243413  0.90142582  0.17733394  1
  N  N164  1  0.16098743  0.10277317  0.00517488  1
  N  N165  1  0.66098743  0.39722683  0.50517488  1
  N  N166  1  0.83901257  0.89722683  0.99482512  1
  N  N167  1  0.33901257  0.60277317  0.49482512  1
  N  N168  1  0.85282665  0.64583578  0.46645183  1
  N  N169  1  0.35282665  0.85416422  0.96645183  1
  N  N170  1  0.14717335  0.35416422  0.53354817  1
  N  N171  1  0.64717335  0.14583578  0.03354817  1
  O  O172  1  0.91587442  0.05743068  0.10447512  1
  O  O173  1  0.41587442  0.44256932  0.60447512  1
  O  O174  1  0.08412558  0.94256932  0.89552488  1
  O  O175  1  0.58412558  0.55743068  0.39552488  1
  O  O176  1  0.07051788  0.57143483  0.40629415  1
  O  O177  1  0.57051788  0.92856517  0.90629415  1
  O  O178  1  0.92948212  0.42856517  0.59370585  1
  O  O179  1  0.42948212  0.07143483  0.09370585  1
