# generated using pymatgen
data_Yb5(Co2Si7)2
_symmetry_space_group_name_H-M   'P 1'
_cell_length_a   7.87086000
_cell_length_b   7.68645300
_cell_length_c   12.74409445
_cell_angle_alpha   81.61826856
_cell_angle_beta   90.00000000
_cell_angle_gamma   90.00000000
_symmetry_Int_Tables_number   1
_chemical_formula_structural   Yb5(Co2Si7)2
_chemical_formula_sum   'Yb10 Co8 Si28'
_cell_volume   762.76970128
_cell_formula_units_Z   2
loop_
 _symmetry_equiv_pos_site_id
 _symmetry_equiv_pos_as_xyz
  1  'x, y, z'
loop_
 _atom_site_type_symbol
 _atom_site_label
 _atom_site_symmetry_multiplicity
 _atom_site_fract_x
 _atom_site_fract_y
 _atom_site_fract_z
 _atom_site_occupancy
  Yb  Yb0  1  0.00000000  0.00000000  0.50000000  1
  Yb  Yb1  1  0.50000000  0.50000000  0.50000000  1
  Yb  Yb2  1  0.25434900  0.15695800  0.85743400  1
  Yb  Yb3  1  0.75434900  0.34304200  0.14256600  1
  Yb  Yb4  1  0.74565100  0.84304200  0.14256600  1
  Yb  Yb5  1  0.24565100  0.65695800  0.85743400  1
  Yb  Yb6  1  0.24667500  0.83590600  0.14222800  1
  Yb  Yb7  1  0.74667500  0.66409400  0.85777200  1
  Yb  Yb8  1  0.75332500  0.16409400  0.85777200  1
  Yb  Yb9  1  0.25332500  0.33590600  0.14222800  1
  Co  Co10  1  0.37802200  0.87043400  0.49944400  1
  Co  Co11  1  0.87802200  0.62956600  0.50055600  1
  Co  Co12  1  0.62197800  0.12956600  0.50055600  1
  Co  Co13  1  0.12197800  0.37043400  0.49944400  1
  Co  Co14  1  0.99983500  0.94078400  0.74587500  1
  Co  Co15  1  0.49983500  0.55921600  0.25412500  1
  Co  Co16  1  0.00016500  0.05921600  0.25412500  1
  Co  Co17  1  0.50016500  0.44078400  0.74587500  1
  Si  Si18  1  0.66843000  0.83691500  0.49966400  1
  Si  Si19  1  0.16843000  0.66308500  0.50033600  1
  Si  Si20  1  0.33157000  0.16308500  0.50033600  1
  Si  Si21  1  0.83157000  0.33691500  0.49966400  1
  Si  Si22  1  0.99197000  0.76636500  0.32827100  1
  Si  Si23  1  0.49197000  0.73363500  0.67172900  1
  Si  Si24  1  0.00803000  0.23363500  0.67172900  1
  Si  Si25  1  0.50803000  0.26636500  0.32827100  1
  Si  Si26  1  0.99221700  0.68283300  0.67210000  1
  Si  Si27  1  0.49221700  0.81716700  0.32790000  1
  Si  Si28  1  0.00778300  0.31716700  0.32790000  1
  Si  Si29  1  0.50778300  0.18283300  0.67210000  1
  Si  Si30  1  0.49834700  0.88132200  0.95309900  1
  Si  Si31  1  0.99834700  0.61867800  0.04690100  1
  Si  Si32  1  0.50165300  0.11867800  0.04690100  1
  Si  Si33  1  0.00165300  0.38132200  0.95309900  1
  Si  Si34  1  0.27118100  0.95049800  0.67021800  1
  Si  Si35  1  0.77118100  0.54950200  0.32978200  1
  Si  Si36  1  0.72881900  0.04950200  0.32978200  1
  Si  Si37  1  0.22881900  0.45049800  0.67021800  1
  Si  Si38  1  0.00008100  0.89287200  0.93560300  1
  Si  Si39  1  0.50008100  0.60712800  0.06439700  1
  Si  Si40  1  0.99991900  0.10712800  0.06439700  1
  Si  Si41  1  0.49991900  0.39287200  0.93560300  1
  Si  Si42  1  0.72844200  0.96540700  0.67037800  1
  Si  Si43  1  0.22844200  0.53459300  0.32962200  1
  Si  Si44  1  0.27155800  0.03459300  0.32962200  1
  Si  Si45  1  0.77155800  0.46540700  0.67037800  1
