# generated using pymatgen
data_K2SnH2Cl4O
_symmetry_space_group_name_H-M   'P 1'
_cell_length_a   8.37411100
_cell_length_b   9.27835900
_cell_length_c   12.17434800
_cell_angle_alpha   90.00000000
_cell_angle_beta   90.00000000
_cell_angle_gamma   90.00000000
_symmetry_Int_Tables_number   1
_chemical_formula_structural   K2SnH2Cl4O
_chemical_formula_sum   'K8 Sn4 H8 Cl16 O4'
_cell_volume   945.92259029
_cell_formula_units_Z   4
loop_
 _symmetry_equiv_pos_site_id
 _symmetry_equiv_pos_as_xyz
  1  'x, y, z'
loop_
 _atom_site_type_symbol
 _atom_site_label
 _atom_site_symmetry_multiplicity
 _atom_site_fract_x
 _atom_site_fract_y
 _atom_site_fract_z
 _atom_site_occupancy
  K  K0  1  0.63012900  0.98242300  0.81571000  1
  K  K1  1  0.86987100  0.51757700  0.31571000  1
  K  K2  1  0.36987100  0.48242300  0.18429000  1
  K  K3  1  0.13012900  0.01757700  0.68429000  1
  K  K4  1  0.36987100  0.01757700  0.18429000  1
  K  K5  1  0.13012900  0.48242300  0.68429000  1
  K  K6  1  0.63012900  0.51757700  0.81571000  1
  K  K7  1  0.86987100  0.98242300  0.31571000  1
  Sn  Sn8  1  0.00825700  0.25000000  0.01000400  1
  Sn  Sn9  1  0.49174300  0.25000000  0.51000400  1
  Sn  Sn10  1  0.99174300  0.75000000  0.98999600  1
  Sn  Sn11  1  0.50825700  0.75000000  0.48999600  1
  H  H12  1  0.57740200  0.75000000  0.04006700  1
  H  H13  1  0.92259800  0.75000000  0.54006700  1
  H  H14  1  0.42259800  0.25000000  0.95993300  1
  H  H15  1  0.07740200  0.25000000  0.45993300  1
  H  H16  1  0.43747400  0.75000000  0.95544400  1
  H  H17  1  0.06252600  0.75000000  0.45544400  1
  H  H18  1  0.56252600  0.25000000  0.04455600  1
  H  H19  1  0.93747400  0.25000000  0.54455600  1
  Cl  Cl20  1  0.89401500  0.25000000  0.80718200  1
  Cl  Cl21  1  0.60598500  0.25000000  0.30718200  1
  Cl  Cl22  1  0.10598500  0.75000000  0.19281800  1
  Cl  Cl23  1  0.39401500  0.75000000  0.69281800  1
  Cl  Cl24  1  0.79432900  0.05326100  0.05718200  1
  Cl  Cl25  1  0.70567100  0.44673900  0.55718200  1
  Cl  Cl26  1  0.20567100  0.55326100  0.94281800  1
  Cl  Cl27  1  0.29432900  0.94673900  0.44281800  1
  Cl  Cl28  1  0.20567100  0.94673900  0.94281800  1
  Cl  Cl29  1  0.29432900  0.55326100  0.44281800  1
  Cl  Cl30  1  0.79432900  0.44673900  0.05718200  1
  Cl  Cl31  1  0.70567100  0.05326100  0.55718200  1
  Cl  Cl32  1  0.89899100  0.75000000  0.73499200  1
  Cl  Cl33  1  0.60100900  0.75000000  0.23499200  1
  Cl  Cl34  1  0.10100900  0.25000000  0.26500800  1
  Cl  Cl35  1  0.39899100  0.25000000  0.76500800  1
  O  O36  1  0.55395000  0.75000000  0.96057900  1
  O  O37  1  0.94605000  0.75000000  0.46057900  1
  O  O38  1  0.44605000  0.25000000  0.03942100  1
  O  O39  1  0.05395000  0.25000000  0.53942100  1
