# generated using pymatgen
data_Cs3HgBr5
_symmetry_space_group_name_H-M   'P 1'
_cell_length_a   9.62538100
_cell_length_b   11.42012600
_cell_length_c   14.53941200
_cell_angle_alpha   90.00000000
_cell_angle_beta   90.00000000
_cell_angle_gamma   90.00000000
_symmetry_Int_Tables_number   1
_chemical_formula_structural   Cs3HgBr5
_chemical_formula_sum   'Cs12 Hg4 Br20'
_cell_volume   1598.21671315
_cell_formula_units_Z   4
loop_
 _symmetry_equiv_pos_site_id
 _symmetry_equiv_pos_as_xyz
  1  'x, y, z'
loop_
 _atom_site_type_symbol
 _atom_site_label
 _atom_site_symmetry_multiplicity
 _atom_site_fract_x
 _atom_site_fract_y
 _atom_site_fract_z
 _atom_site_occupancy
  Cs  Cs0  1  0.91689100  0.25000000  0.05029100  1
  Cs  Cs1  1  0.41689100  0.25000000  0.44970900  1
  Cs  Cs2  1  0.08310900  0.75000000  0.94970900  1
  Cs  Cs3  1  0.58310900  0.75000000  0.55029100  1
  Cs  Cs4  1  0.91679300  0.02175100  0.33078400  1
  Cs  Cs5  1  0.41679300  0.47824900  0.16921600  1
  Cs  Cs6  1  0.08320700  0.52175100  0.66921600  1
  Cs  Cs7  1  0.58320700  0.97824900  0.83078400  1
  Cs  Cs8  1  0.08320700  0.97824900  0.66921600  1
  Cs  Cs9  1  0.58320700  0.52175100  0.83078400  1
  Cs  Cs10  1  0.91679300  0.47824900  0.33078400  1
  Cs  Cs11  1  0.41679300  0.02175100  0.16921600  1
  Hg  Hg12  1  0.80486600  0.25000000  0.61305500  1
  Hg  Hg13  1  0.30486600  0.25000000  0.88694500  1
  Hg  Hg14  1  0.19513400  0.75000000  0.38694500  1
  Hg  Hg15  1  0.69513400  0.75000000  0.11305500  1
  Br  Br16  1  0.66890900  0.25000000  0.26129400  1
  Br  Br17  1  0.16890900  0.25000000  0.23870600  1
  Br  Br18  1  0.33109100  0.75000000  0.73870600  1
  Br  Br19  1  0.83109100  0.75000000  0.76129400  1
  Br  Br20  1  0.68457700  0.05085100  0.56544000  1
  Br  Br21  1  0.18457700  0.44914900  0.93456000  1
  Br  Br22  1  0.31542300  0.55085100  0.43456000  1
  Br  Br23  1  0.81542300  0.94914900  0.06544000  1
  Br  Br24  1  0.31542300  0.94914900  0.43456000  1
  Br  Br25  1  0.81542300  0.55085100  0.06544000  1
  Br  Br26  1  0.68457700  0.44914900  0.56544000  1
  Br  Br27  1  0.18457700  0.05085100  0.93456000  1
  Br  Br28  1  0.54042500  0.25000000  0.98946600  1
  Br  Br29  1  0.04042500  0.25000000  0.51053400  1
  Br  Br30  1  0.45957500  0.75000000  0.01053400  1
  Br  Br31  1  0.95957500  0.75000000  0.48946600  1
  Br  Br32  1  0.87458000  0.25000000  0.78948200  1
  Br  Br33  1  0.37458000  0.25000000  0.71051800  1
  Br  Br34  1  0.12542000  0.75000000  0.21051800  1
  Br  Br35  1  0.62542000  0.75000000  0.28948200  1
