# generated using pymatgen
data_Nd4(SiS4)3
_symmetry_space_group_name_H-M   'P 1'
_cell_length_a   11.43594939
_cell_length_b   11.43594939
_cell_length_c   11.43594998
_cell_angle_alpha   114.75076863
_cell_angle_beta   114.75076863
_cell_angle_gamma   114.75076830
_symmetry_Int_Tables_number   1
_chemical_formula_structural   Nd4(SiS4)3
_chemical_formula_sum   'Nd8 Si6 S24'
_cell_volume   855.72442954
_cell_formula_units_Z   2
loop_
 _symmetry_equiv_pos_site_id
 _symmetry_equiv_pos_as_xyz
  1  'x, y, z'
loop_
 _atom_site_type_symbol
 _atom_site_label
 _atom_site_symmetry_multiplicity
 _atom_site_fract_x
 _atom_site_fract_y
 _atom_site_fract_z
 _atom_site_occupancy
  Nd  Nd0  1  0.49815900  0.49815900  0.49815900  1
  Nd  Nd1  1  0.99815900  0.99815900  0.99815900  1
  Nd  Nd2  1  0.43163100  0.20705100  0.97198000  1
  Nd  Nd3  1  0.97198000  0.43163100  0.20705100  1
  Nd  Nd4  1  0.20705100  0.97198000  0.43163100  1
  Nd  Nd5  1  0.47198000  0.70705100  0.93163100  1
  Nd  Nd6  1  0.93163100  0.47198000  0.70705100  1
  Nd  Nd7  1  0.70705100  0.93163100  0.47198000  1
  Si  Si8  1  0.85298600  0.63981000  0.46683400  1
  Si  Si9  1  0.46683400  0.85298600  0.63981000  1
  Si  Si10  1  0.63981000  0.46683400  0.85298600  1
  Si  Si11  1  0.96683400  0.13981000  0.35298600  1
  Si  Si12  1  0.35298600  0.96683400  0.13981000  1
  Si  Si13  1  0.13981000  0.35298600  0.96683400  1
  S  S14  1  0.78405100  0.39153300  0.31772600  1
  S  S15  1  0.31772600  0.78405100  0.39153300  1
  S  S16  1  0.39153300  0.31772600  0.78405100  1
  S  S17  1  0.81772600  0.89153300  0.28405100  1
  S  S18  1  0.28405100  0.81772600  0.89153300  1
  S  S19  1  0.89153300  0.28405100  0.81772600  1
  S  S20  1  0.87292900  0.68718300  0.68232100  1
  S  S21  1  0.68232100  0.87292900  0.68718300  1
  S  S22  1  0.68718300  0.68232100  0.87292900  1
  S  S23  1  0.18232100  0.18718300  0.37292900  1
  S  S24  1  0.37292900  0.18232100  0.18718300  1
  S  S25  1  0.18718300  0.37292900  0.18232100  1
  S  S26  1  0.62050000  0.58648100  0.30075600  1
  S  S27  1  0.30075600  0.62050000  0.58648100  1
  S  S28  1  0.58648100  0.30075600  0.62050000  1
  S  S29  1  0.80075600  0.08648100  0.12050000  1
  S  S30  1  0.12050000  0.80075600  0.08648100  1
  S  S31  1  0.08648100  0.12050000  0.80075600  1
  S  S32  1  0.11555500  0.84708000  0.57843400  1
  S  S33  1  0.57843400  0.11555500  0.84708000  1
  S  S34  1  0.84708000  0.57843400  0.11555500  1
  S  S35  1  0.07843400  0.34708000  0.61555500  1
  S  S36  1  0.61555500  0.07843400  0.34708000  1
  S  S37  1  0.34708000  0.61555500  0.07843400  1
