# generated using pymatgen
data_USiH2PbO7
_symmetry_space_group_name_H-M   'P 1'
_cell_length_a   6.94512900
_cell_length_b   6.86996000
_cell_length_c   13.39132725
_cell_angle_alpha   76.77458521
_cell_angle_beta   90.00000000
_cell_angle_gamma   90.00000000
_symmetry_Int_Tables_number   1
_chemical_formula_structural   USiH2PbO7
_chemical_formula_sum   'U4 Si4 H8 Pb4 O28'
_cell_volume   621.99096202
_cell_formula_units_Z   4
loop_
 _symmetry_equiv_pos_site_id
 _symmetry_equiv_pos_as_xyz
  1  'x, y, z'
loop_
 _atom_site_type_symbol
 _atom_site_label
 _atom_site_symmetry_multiplicity
 _atom_site_fract_x
 _atom_site_fract_y
 _atom_site_fract_z
 _atom_site_occupancy
  U  U0  1  0.72842800  0.96881800  0.32632200  1
  U  U1  1  0.22842800  0.03118200  0.17367800  1
  U  U2  1  0.27157200  0.03118200  0.67367800  1
  U  U3  1  0.77157200  0.96881800  0.82632200  1
  Si  Si4  1  0.78892900  0.09617500  0.57406400  1
  Si  Si5  1  0.28892900  0.90382500  0.92593600  1
  Si  Si6  1  0.21107100  0.90382500  0.42593600  1
  Si  Si7  1  0.71107100  0.09617500  0.07406400  1
  H  H8  1  0.53005400  0.35488300  0.37940500  1
  H  H9  1  0.03005400  0.64511700  0.12059500  1
  H  H10  1  0.46994600  0.64511700  0.62059500  1
  H  H11  1  0.96994600  0.35488300  0.87940500  1
  H  H12  1  0.48981500  0.55397500  0.41485100  1
  H  H13  1  0.98981500  0.44602500  0.08514900  1
  H  H14  1  0.51018500  0.44602500  0.58514900  1
  H  H15  1  0.01018500  0.55397500  0.91485100  1
  Pb  Pb16  1  0.07038400  0.42739500  0.37986400  1
  Pb  Pb17  1  0.57038400  0.57260500  0.12013600  1
  Pb  Pb18  1  0.92961600  0.57260500  0.62013600  1
  Pb  Pb19  1  0.42961600  0.42739500  0.87986400  1
  O  O20  1  0.58577900  0.09085800  0.63875200  1
  O  O21  1  0.08577900  0.90914200  0.86124800  1
  O  O22  1  0.41422100  0.90914200  0.36124800  1
  O  O23  1  0.91422100  0.09085800  0.13875200  1
  O  O24  1  0.69317300  0.24437000  0.30733000  1
  O  O25  1  0.19317300  0.75563000  0.19267000  1
  O  O26  1  0.30682700  0.75563000  0.69267000  1
  O  O27  1  0.80682700  0.24437000  0.80733000  1
  O  O28  1  0.93453800  0.98275100  0.66938900  1
  O  O29  1  0.43453800  0.01724900  0.83061100  1
  O  O30  1  0.06546200  0.01724900  0.33061100  1
  O  O31  1  0.56546200  0.98275100  0.16938900  1
  O  O32  1  0.86693500  0.32278600  0.52568000  1
  O  O33  1  0.36693500  0.67721400  0.97432000  1
  O  O34  1  0.13306500  0.67721400  0.47432000  1
  O  O35  1  0.63306500  0.32278600  0.02568000  1
  O  O36  1  0.77727600  0.95450200  0.49072700  1
  O  O37  1  0.27727600  0.04549800  0.00927300  1
  O  O38  1  0.22272400  0.04549800  0.50927300  1
  O  O39  1  0.72272400  0.95450200  0.99072700  1
  O  O40  1  0.77632300  0.69943700  0.33473200  1
  O  O41  1  0.27632300  0.30056300  0.16526800  1
  O  O42  1  0.22367700  0.30056300  0.66526800  1
  O  O43  1  0.72367700  0.69943700  0.83473200  1
  O  O44  1  0.43322700  0.42391600  0.41327400  1
  O  O45  1  0.93322700  0.57608400  0.08672600  1
  O  O46  1  0.56677300  0.57608400  0.58672600  1
  O  O47  1  0.06677300  0.42391600  0.91327400  1
