# generated using pymatgen
data_CNClO4
_symmetry_space_group_name_H-M   'P 1'
_cell_length_a   8.19951100
_cell_length_b   10.89934300
_cell_length_c   15.63293560
_cell_angle_alpha   55.24630509
_cell_angle_beta   90.00000000
_cell_angle_gamma   90.00000000
_symmetry_Int_Tables_number   1
_chemical_formula_structural   CNClO4
_chemical_formula_sum   'C8 N8 Cl8 O32'
_cell_volume   1147.87506566
_cell_formula_units_Z   8
loop_
 _symmetry_equiv_pos_site_id
 _symmetry_equiv_pos_as_xyz
  1  'x, y, z'
loop_
 _atom_site_type_symbol
 _atom_site_label
 _atom_site_symmetry_multiplicity
 _atom_site_fract_x
 _atom_site_fract_y
 _atom_site_fract_z
 _atom_site_occupancy
  C  C0  1  0.20257500  0.32233800  0.06730400  1
  C  C1  1  0.29742500  0.32233800  0.56730400  1
  C  C2  1  0.79742500  0.67766200  0.93269600  1
  C  C3  1  0.70257500  0.67766200  0.43269600  1
  C  C4  1  0.85180200  0.38675000  0.32990300  1
  C  C5  1  0.64819800  0.38675000  0.82990300  1
  C  C6  1  0.14819800  0.61325000  0.67009700  1
  C  C7  1  0.35180200  0.61325000  0.17009700  1
  N  N8  1  0.17109000  0.19543600  0.12779400  1
  N  N9  1  0.32891000  0.19543600  0.62779400  1
  N  N10  1  0.82891000  0.80456400  0.87220600  1
  N  N11  1  0.67109000  0.80456400  0.37220600  1
  N  N12  1  0.83045000  0.25679800  0.38518400  1
  N  N13  1  0.66955000  0.25679800  0.88518400  1
  N  N14  1  0.16955000  0.74320200  0.61481600  1
  N  N15  1  0.33045000  0.74320200  0.11481600  1
  Cl  Cl16  1  0.18239300  0.76725700  0.34981300  1
  Cl  Cl17  1  0.31760700  0.76725700  0.84981300  1
  Cl  Cl18  1  0.81760700  0.23274300  0.65018700  1
  Cl  Cl19  1  0.68239300  0.23274300  0.15018700  1
  Cl  Cl20  1  0.80917500  0.84576700  0.10845400  1
  Cl  Cl21  1  0.69082500  0.84576700  0.60845400  1
  Cl  Cl22  1  0.19082500  0.15423300  0.89154600  1
  Cl  Cl23  1  0.30917500  0.15423300  0.39154600  1
  O  O24  1  0.30812800  0.84992100  0.26698800  1
  O  O25  1  0.19187200  0.84992100  0.76698800  1
  O  O26  1  0.69187200  0.15007900  0.73301200  1
  O  O27  1  0.80812800  0.15007900  0.23301200  1
  O  O28  1  0.29525100  0.70295200  0.44122300  1
  O  O29  1  0.20474900  0.70295200  0.94122300  1
  O  O30  1  0.70474900  0.29704800  0.55877700  1
  O  O31  1  0.79525100  0.29704800  0.05877700  1
  O  O32  1  0.06625100  0.86473800  0.34993200  1
  O  O33  1  0.43374900  0.86473800  0.84993200  1
  O  O34  1  0.93374900  0.13526200  0.65006800  1
  O  O35  1  0.56625100  0.13526200  0.15006800  1
  O  O36  1  0.10907900  0.65168400  0.34516200  1
  O  O37  1  0.39092100  0.65168400  0.84516200  1
  O  O38  1  0.89092100  0.34831600  0.65483800  1
  O  O39  1  0.60907900  0.34831600  0.15483800  1
  O  O40  1  0.69110100  0.90381100  0.02067700  1
  O  O41  1  0.80889900  0.90381100  0.52067700  1
  O  O42  1  0.30889900  0.09618900  0.97932300  1
  O  O43  1  0.19110100  0.09618900  0.47932300  1
  O  O44  1  0.88519600  0.96326200  0.10905900  1
  O  O45  1  0.61480400  0.96326200  0.60905900  1
  O  O46  1  0.11480400  0.03673800  0.89094100  1
  O  O47  1  0.38519600  0.03673800  0.39094100  1
  O  O48  1  0.68536000  0.76541600  0.19392000  1
  O  O49  1  0.81464000  0.76541600  0.69392000  1
  O  O50  1  0.31464000  0.23458400  0.80608000  1
  O  O51  1  0.18536000  0.23458400  0.30608000  1
  O  O52  1  0.92379100  0.74461700  0.11102900  1
  O  O53  1  0.57620900  0.74461700  0.61102900  1
  O  O54  1  0.07620900  0.25538300  0.88897100  1
  O  O55  1  0.42379100  0.25538300  0.38897100  1
