# generated using pymatgen
data_Si10(H3C)19
_symmetry_space_group_name_H-M   'P 1'
_cell_length_a   10.09463185
_cell_length_b   10.09463185
_cell_length_c   22.86568194
_cell_angle_alpha   76.03456738
_cell_angle_beta   76.03456738
_cell_angle_gamma   66.13786381
_symmetry_Int_Tables_number   1
_chemical_formula_structural   Si10(H3C)19
_chemical_formula_sum   'Si20 H114 C38'
_cell_volume   2040.60473244
_cell_formula_units_Z   2
loop_
 _symmetry_equiv_pos_site_id
 _symmetry_equiv_pos_as_xyz
  1  'x, y, z'
loop_
 _atom_site_type_symbol
 _atom_site_label
 _atom_site_symmetry_multiplicity
 _atom_site_fract_x
 _atom_site_fract_y
 _atom_site_fract_z
 _atom_site_occupancy
  Si  Si0  1  0.07185500  0.93119500  0.55279000  1
  Si  Si1  1  0.06880500  0.92814500  0.44721000  1
  Si  Si2  1  0.94127900  0.81036900  0.63868100  1
  Si  Si3  1  0.18963100  0.05872100  0.36131900  1
  Si  Si4  1  0.03554800  0.79180000  0.72860000  1
  Si  Si5  1  0.20820000  0.96445200  0.27140000  1
  Si  Si6  1  0.87883000  0.76929700  0.82399000  1
  Si  Si7  1  0.23070300  0.12117000  0.17601000  1
  Si  Si8  1  0.65407000  0.97454500  0.83480000  1
  Si  Si9  1  0.02545500  0.34593000  0.16520000  1
  Si  Si10  1  0.58728500  0.08712100  0.73675600  1
  Si  Si11  1  0.91287900  0.41271500  0.26324400  1
  Si  Si12  1  0.67953700  0.92664300  0.66291300  1
  Si  Si13  1  0.07335700  0.32046300  0.33708700  1
  Si  Si14  1  0.99517900  0.56916500  0.62052900  1
  Si  Si15  1  0.43083500  0.00482100  0.37947100  1
  Si  Si16  1  0.66908100  0.14797600  0.88554800  1
  Si  Si17  1  0.85202400  0.33091900  0.11445200  1
  Si  Si18  1  0.46635100  0.89530600  0.89880500  1
  Si  Si19  1  0.10469400  0.53364900  0.10119500  1
  H  H20  1  0.27854400  0.85376600  0.61159100  1
  H  H21  1  0.14623400  0.72145600  0.38840900  1
  H  H22  1  0.32040900  0.72762600  0.56160700  1
  H  H23  1  0.27237400  0.67959100  0.43839300  1
  H  H24  1  0.33714000  0.90093800  0.53256400  1
  H  H25  1  0.09906200  0.66286000  0.46743600  1
  H  H26  1  0.07730600  0.18329500  0.52871900  1
  H  H27  1  0.81670500  0.92269400  0.47128100  1
  H  H28  1  0.89321300  0.19347400  0.55235200  1
  H  H29  1  0.80652600  0.10678700  0.44764800  1
  H  H30  1  0.00969700  0.14176700  0.60759200  1
  H  H31  1  0.85823300  0.99030300  0.39240800  1
  H  H32  1  0.15676300  0.97844800  0.68689700  1
  H  H33  1  0.02155200  0.84323700  0.31310300  1
  H  H34  1  0.98036700  0.05980600  0.72921200  1
  H  H35  1  0.94019400  0.01963300  0.27078800  1
  H  H36  1  0.12887000  0.94189600  0.76791800  1
  H  H37  1  0.05810400  0.87113000  0.23208200  1
  H  H38  1  0.26221900  0.62819600  0.77380000  1
  H  H39  1  0.37180400  0.73778100  0.22620000  1
  H  H40  1  0.20701900  0.52326300  0.73907100  1
  H  H41  1  0.47673700  0.79298100  0.26092900  1
  H  H42  1  0.29824000  0.63968500  0.69316700  1
  H  H43  1  0.36031500  0.70176000  0.30683300  1
  H  H44  1  0.77572900  0.57802400  0.88227000  1
  H  H45  1  0.42197600  0.22427100  0.11773000  1
  H  H46  1  0.79247800  0.58373400  0.80273500  1
  H  H47  1  0.41626600  0.20752200  0.19726500  1
  H  H48  1  0.95047800  0.49831100  0.83869100  1
  H  H49  1  0.50168900  0.04952200  0.16130900  1
  H  H50  1  0.08642700  0.63924600  0.88388500  1
  H  H51  1  0.36075400  0.91357300  0.11611500  1
  H  H52  1  0.02627600  0.83112200  0.88308300  1
  H  H53  1  0.16887800  0.97372400  0.11691700  1
  H  H54  1  0.92162900  0.72989300  0.93123600  1
  H  H55  1  0.27010700  0.07837100  0.06876400  1
  H  H56  1  0.34521300  0.22590700  0.69941600  1
  H  H57  1  0.77409300  0.65478700  0.30058400  1
  H  H58  1  0.32785600  0.08358600  0.76017400  1
  H  H59  1  0.91641400  0.67214400  0.23982600  1
  H  H60  1  0.33183700  0.24536900  0.77611300  1
  H  H61  1  0.75463100  0.66816300  0.22388700  1
  H  H62  1  0.58823300  0.33869200  0.73152900  1
  H  H63  1  0.66130800  0.41176700  0.26847100  1
  H  H64  1  0.76237100  0.22447400  0.69778400  1
  H  H65  1  0.77552600  0.23762900  0.30221600  1
  H  H66  1  0.61125900  0.29699800  0.65779100  1
  H  H67  1  0.70300200  0.38874100  0.34220900  1
  H  H68  1  0.47521100  0.08236800  0.60335500  1
  H  H69  1  0.91763200  0.52478900  0.39664500  1
  H  H70  1  0.63313800  0.12739800  0.56997000  1
  H  H71  1  0.87260200  0.36686200  0.43003000  1
  H  H72  1  0.62444600  0.96358400  0.55828000  1
  H  H73  1  0.03641600  0.37555400  0.44172000  1
  H  H74  1  0.60972600  0.71762600  0.65694700  1
  H  H75  1  0.28237400  0.39027400  0.34305300  1
  H  H76  1  0.63159700  0.70771900  0.73290300  1
  H  H77  1  0.29228100  0.36840300  0.26709700  1
  H  H78  1  0.47205900  0.83879000  0.70439500  1
  H  H79  1  0.16121000  0.52794100  0.29560500  1
  H  H80  1  0.92331200  0.47308700  0.54710200  1
  H  H81  1  0.52691300  0.07668800  0.45289800  1
  H  H82  1  0.76591900  0.59640800  0.58654200  1
  H  H83  1  0.40359200  0.23408100  0.41345800  1
  H  H84  1  0.87762700  0.66554200  0.52503100  1
  H  H85  1  0.33445800  0.12237300  0.47496900  1
  H  H86  1  0.23311500  0.53705800  0.54586600  1
  H  H87  1  0.46294200  0.76688500  0.45413400  1
  H  H88  1  0.26690700  0.46111900  0.62173200  1
  H  H89  1  0.53888100  0.73309300  0.37826800  1
  H  H90  1  0.21351700  0.36738100  0.58052100  1
  H  H91  1  0.63261900  0.78648300  0.41947900  1
  H  H92  1  0.02521400  0.41868500  0.72513400  1
  H  H93  1  0.58131500  0.97478600  0.27486600  1
  H  H94  1  0.84195700  0.47447100  0.71227900  1
  H  H95  1  0.52552900  0.15804300  0.28772100  1
  H  H96  1  0.98488500  0.33102300  0.67684000  1
  H  H97  1  0.66897700  0.01511500  0.32316000  1
  H  H98  1  0.51815400  0.38385500  0.82577000  1
  H  H99  1  0.61614500  0.48184600  0.17423000  1
  H  H100  1  0.40471300  0.32091200  0.88887900  1
  H  H101  1  0.67908800  0.59528700  0.11112100  1
  H  H102  1  0.51767800  0.40550400  0.90057400  1
  H  H103  1  0.59449600  0.48232200  0.09942600  1
  H  H104  1  0.94304600  0.08397600  0.86556000  1
  H  H105  1  0.91602400  0.05695400  0.13444000  1
  H  H106  1  0.85774500  0.23691900  0.81197200  1
  H  H107  1  0.76308100  0.14225500  0.18802800  1
  H  H108  1  0.84554300  0.25910400  0.88798800  1
  H  H109  1  0.74089600  0.15445700  0.11201200  1
  H  H110  1  0.67520800  0.16359900  0.99088200  1
  H  H111  1  0.83640100  0.32479200  0.00911800  1
  H  H112  1  0.54534800  0.08499400  0.99248600  1
  H  H113  1  0.91500600  0.45465200  0.00751400  1
  H  H114  1  0.73582600  0.97586700  0.98391800  1
  H  H115  1  0.02413300  0.26417400  0.01608200  1
  H  H116  1  0.32399300  0.74701000  0.89588100  1
  H  H117  1  0.25299000  0.67600700  0.10411900  1
  H  H118  1  0.35324700  0.84919100  0.82233400  1
  H  H119  1  0.15080900  0.64675300  0.17766600  1
  H  H120  1  0.49644900  0.68685200  0.84792800  1
  H  H121  1  0.31314800  0.50355100  0.15207200  1
  H  H122  1  0.61240600  0.66602300  0.96306400  1
  H  H123  1  0.33397700  0.38759400  0.03693600  1
  H  H124  1  0.57730500  0.82259000  0.99543500  1
  H  H125  1  0.17741000  0.42269500  0.00456500  1
  H  H126  1  0.43529500  0.75564500  0.00283500  1
  H  H127  1  0.24435500  0.56470500  0.99716500  1
  H  H128  1  0.21272900  0.01079900  0.95130500  1
  H  H129  1  0.98920100  0.78727100  0.04869500  1
  H  H130  1  0.31448800  0.12073400  0.94859100  1
  H  H131  1  0.87926600  0.68551200  0.05140900  1
  H  H132  1  0.24532700  0.12887100  0.88283000  1
  H  H133  1  0.87112900  0.75467300  0.11717000  1
  C  C134  1  0.27064600  0.84467600  0.56573400  1
  C  C135  1  0.15532400  0.72935400  0.43426600  1
  C  C136  1  0.00608900  0.13124600  0.56135700  1
  C  C137  1  0.86875400  0.99391100  0.43864300  1
  C  C138  1  0.07874800  0.95938300  0.72743700  1
  C  C139  1  0.04061700  0.92125200  0.27256300  1
  C  C140  1  0.21721400  0.62978400  0.73412700  1
  C  C141  1  0.37021600  0.78278600  0.26587300  1
  C  C142  1  0.84474800  0.59170200  0.83786300  1
  C  C143  1  0.40829800  0.15525200  0.16213700  1
  C  C144  1  0.98878300  0.74145500  0.88606900  1
  C  C145  1  0.25854500  0.01121700  0.11393100  1
  C  C146  1  0.37842600  0.16636200  0.74385500  1
  C  C147  1  0.83363800  0.62157400  0.25614500  1
  C  C148  1  0.64397400  0.25142000  0.70327600  1
  C  C149  1  0.74858000  0.35602600  0.29672400  1
  C  C150  1  0.59594300  0.03643700  0.59186400  1
  C  C151  1  0.96356300  0.40405700  0.40813600  1
  C  C152  1  0.59159600  0.78308700  0.69213800  1
  C  C153  1  0.21691300  0.40840400  0.30786200  1
  C  C154  1  0.88007200  0.57781500  0.56440600  1
  C  C155  1  0.42218500  0.11992800  0.43559400  1
  C  C156  1  0.19604600  0.47682200  0.58895600  1
  C  C157  1  0.52317800  0.80395400  0.41104400  1
  C  C158  1  0.95735100  0.43771300  0.69073800  1
  C  C159  1  0.56228700  0.04264900  0.30926200  1
  C  C160  1  0.51258200  0.33097100  0.87379000  1
  C  C161  1  0.66902900  0.48741800  0.12621000  1
  C  C162  1  0.84551200  0.18440700  0.85986600  1
  C  C163  1  0.81559300  0.15448800  0.14013400  1
  C  C164  1  0.65475300  0.08542500  0.97108900  1
  C  C165  1  0.91457500  0.34524700  0.02891100  1
  C  C166  1  0.40527600  0.78464000  0.86236200  1
  C  C167  1  0.21536000  0.59472400  0.13763800  1
  C  C168  1  0.53024000  0.77405400  0.97163400  1
  C  C169  1  0.22594600  0.46976000  0.02836600  1
  C  C170  1  0.29466900  0.05491400  0.92219300  1
  C  C171  1  0.94508600  0.70533100  0.07780700  1
