# generated using pymatgen
data_Yb5(Co2Ge5)2
_symmetry_space_group_name_H-M   'P 1'
_cell_length_a   12.75501800
_cell_length_b   12.75501800
_cell_length_c   4.22428600
_cell_angle_alpha   90.00000000
_cell_angle_beta   90.00000000
_cell_angle_gamma   90.00000000
_symmetry_Int_Tables_number   1
_chemical_formula_structural   Yb5(Co2Ge5)2
_chemical_formula_sum   'Yb10 Co8 Ge20'
_cell_volume   687.25113466
_cell_formula_units_Z   2
loop_
 _symmetry_equiv_pos_site_id
 _symmetry_equiv_pos_as_xyz
  1  'x, y, z'
loop_
 _atom_site_type_symbol
 _atom_site_label
 _atom_site_symmetry_multiplicity
 _atom_site_fract_x
 _atom_site_fract_y
 _atom_site_fract_z
 _atom_site_occupancy
  Yb  Yb0  1  0.50000000  0.50000000  0.00000000  1
  Yb  Yb1  1  0.00000000  0.00000000  0.00000000  1
  Yb  Yb2  1  0.67693400  0.17693400  0.50000000  1
  Yb  Yb3  1  0.32306600  0.82306600  0.50000000  1
  Yb  Yb4  1  0.17693400  0.32306600  0.50000000  1
  Yb  Yb5  1  0.82306600  0.67693400  0.50000000  1
  Yb  Yb6  1  0.10985800  0.60985800  0.50000000  1
  Yb  Yb7  1  0.89014200  0.39014200  0.50000000  1
  Yb  Yb8  1  0.60985800  0.89014200  0.50000000  1
  Yb  Yb9  1  0.39014200  0.10985800  0.50000000  1
  Co  Co10  1  0.74552600  0.52317500  0.00000000  1
  Co  Co11  1  0.25447400  0.47682500  0.00000000  1
  Co  Co12  1  0.24552600  0.97682500  0.00000000  1
  Co  Co13  1  0.75447400  0.02317500  0.00000000  1
  Co  Co14  1  0.47682500  0.74552600  0.00000000  1
  Co  Co15  1  0.52317500  0.25447400  0.00000000  1
  Co  Co16  1  0.02317500  0.24552600  0.00000000  1
  Co  Co17  1  0.97682500  0.75447400  0.00000000  1
  Ge  Ge18  1  0.56929400  0.06929400  0.00000000  1
  Ge  Ge19  1  0.43070600  0.93070600  0.00000000  1
  Ge  Ge20  1  0.06929400  0.43070600  0.00000000  1
  Ge  Ge21  1  0.93070600  0.56929400  0.00000000  1
  Ge  Ge22  1  0.65281300  0.69205000  0.00000000  1
  Ge  Ge23  1  0.34718700  0.30795000  0.00000000  1
  Ge  Ge24  1  0.15281300  0.80795000  0.00000000  1
  Ge  Ge25  1  0.84718700  0.19205000  0.00000000  1
  Ge  Ge26  1  0.30795000  0.65281300  0.00000000  1
  Ge  Ge27  1  0.69205000  0.34718700  0.00000000  1
  Ge  Ge28  1  0.19205000  0.15281300  0.00000000  1
  Ge  Ge29  1  0.80795000  0.84718700  0.00000000  1
  Ge  Ge30  1  0.66279300  0.50538300  0.50000000  1
  Ge  Ge31  1  0.33720700  0.49461700  0.50000000  1
  Ge  Ge32  1  0.16279300  0.99461700  0.50000000  1
  Ge  Ge33  1  0.83720700  0.00538300  0.50000000  1
  Ge  Ge34  1  0.49461700  0.66279300  0.50000000  1
  Ge  Ge35  1  0.50538300  0.33720700  0.50000000  1
  Ge  Ge36  1  0.00538300  0.16279300  0.50000000  1
  Ge  Ge37  1  0.99461700  0.83720700  0.50000000  1
