# generated using pymatgen
data_Na2Mo(H2O3)4
_symmetry_space_group_name_H-M   'P 1'
_cell_length_a   8.73489900
_cell_length_b   9.17008500
_cell_length_c   12.56227054
_cell_angle_alpha   86.30679313
_cell_angle_beta   90.00000000
_cell_angle_gamma   90.00000000
_symmetry_Int_Tables_number   1
_chemical_formula_structural   Na2Mo(H2O3)4
_chemical_formula_sum   'Na8 Mo4 H32 O48'
_cell_volume   1004.14524845
_cell_formula_units_Z   4
loop_
 _symmetry_equiv_pos_site_id
 _symmetry_equiv_pos_as_xyz
  1  'x, y, z'
loop_
 _atom_site_type_symbol
 _atom_site_label
 _atom_site_symmetry_multiplicity
 _atom_site_fract_x
 _atom_site_fract_y
 _atom_site_fract_z
 _atom_site_occupancy
  Na  Na0  1  0.84834300  0.81018700  0.51593700  1
  Na  Na1  1  0.34834300  0.18981300  0.98406300  1
  Na  Na2  1  0.15165700  0.18981300  0.48406300  1
  Na  Na3  1  0.65165700  0.81018700  0.01593700  1
  Na  Na4  1  0.81405100  0.66722700  0.78206600  1
  Na  Na5  1  0.31405100  0.33277300  0.71793400  1
  Na  Na6  1  0.18594900  0.33277300  0.21793400  1
  Na  Na7  1  0.68594900  0.66722700  0.28206600  1
  Mo  Mo8  1  0.23124800  0.76238900  0.62737200  1
  Mo  Mo9  1  0.73124800  0.23761100  0.87262800  1
  Mo  Mo10  1  0.76875200  0.23761100  0.37262800  1
  Mo  Mo11  1  0.26875200  0.76238900  0.12737200  1
  H  H12  1  0.72225200  0.98530400  0.20061500  1
  H  H13  1  0.22225200  0.01469600  0.29938500  1
  H  H14  1  0.27774800  0.01469600  0.79938500  1
  H  H15  1  0.77774800  0.98530400  0.70061500  1
  H  H16  1  0.86513300  0.88959200  0.17591100  1
  H  H17  1  0.36513300  0.11040800  0.32408900  1
  H  H18  1  0.13486700  0.11040800  0.82408900  1
  H  H19  1  0.63486700  0.88959200  0.67591100  1
  H  H20  1  0.51188300  0.78239100  0.45968100  1
  H  H21  1  0.01188300  0.21760900  0.04031900  1
  H  H22  1  0.48811700  0.21760900  0.54031900  1
  H  H23  1  0.98811700  0.78239100  0.95968100  1
  H  H24  1  0.58616900  0.91965200  0.39504200  1
  H  H25  1  0.08616900  0.08034800  0.10495800  1
  H  H26  1  0.41383100  0.08034800  0.60495800  1
  H  H27  1  0.91383100  0.91965200  0.89504200  1
  H  H28  1  0.94904100  0.56081400  0.37910700  1
  H  H29  1  0.44904100  0.43918600  0.12089300  1
  H  H30  1  0.05095900  0.43918600  0.62089300  1
  H  H31  1  0.55095900  0.56081400  0.87910700  1
  H  H32  1  0.01542900  0.71180200  0.32973600  1
  H  H33  1  0.51542900  0.28819800  0.17026400  1
  H  H34  1  0.98457100  0.28819800  0.67026400  1
  H  H35  1  0.48457100  0.71180200  0.82973600  1
  H  H36  1  0.70820900  0.50222400  0.57383400  1
  H  H37  1  0.20820900  0.49777600  0.92616600  1
  H  H38  1  0.29179100  0.49777600  0.42616600  1
  H  H39  1  0.79179100  0.50222400  0.07383400  1
  H  H40  1  0.59292300  0.60514100  0.62163000  1
  H  H41  1  0.09292300  0.39485900  0.87837000  1
  H  H42  1  0.40707700  0.39485900  0.37837000  1
  H  H43  1  0.90707700  0.60514100  0.12163000  1
  O  O44  1  0.42119600  0.88234400  0.65300900  1
  O  O45  1  0.92119600  0.11765600  0.84699100  1
  O  O46  1  0.57880400  0.11765600  0.34699100  1
  O  O47  1  0.07880400  0.88234400  0.15300900  1
  O  O48  1  0.34411400  0.83629400  0.75453900  1
  O  O49  1  0.84411400  0.16370600  0.74546100  1
  O  O50  1  0.65588600  0.16370600  0.24546100  1
  O  O51  1  0.15588600  0.83629400  0.25453900  1
  O  O52  1  0.04637700  0.63591800  0.61327700  1
  O  O53  1  0.54637700  0.36408200  0.88672300  1
  O  O54  1  0.95362300  0.36408200  0.38672300  1
  O  O55  1  0.45362300  0.63591800  0.11327700  1
  O  O56  1  0.08094500  0.66318400  0.72624700  1
  O  O57  1  0.58094500  0.33681600  0.77375300  1
  O  O58  1  0.91905500  0.33681600  0.27375300  1
  O  O59  1  0.41905500  0.66318400  0.22624700  1
  O  O60  1  0.34415400  0.65049300  0.51957100  1
  O  O61  1  0.84415400  0.34950700  0.98042900  1
  O  O62  1  0.65584600  0.34950700  0.48042900  1
  O  O63  1  0.15584600  0.65049300  0.01957100  1
  O  O64  1  0.37116300  0.58736100  0.62945000  1
  O  O65  1  0.87116300  0.41263900  0.87055000  1
  O  O66  1  0.62883700  0.41263900  0.37055000  1
  O  O67  1  0.12883700  0.58736100  0.12945000  1
  O  O68  1  0.10849100  0.94285800  0.61411200  1
  O  O69  1  0.60849100  0.05714200  0.88588800  1
  O  O70  1  0.89150900  0.05714200  0.38588800  1
  O  O71  1  0.39150900  0.94285800  0.11411200  1
  O  O72  1  0.16030400  0.89771100  0.50833200  1
  O  O73  1  0.66030400  0.10228900  0.99166800  1
  O  O74  1  0.83969600  0.10228900  0.49166800  1
  O  O75  1  0.33969600  0.89771100  0.00833200  1
  O  O76  1  0.75291200  0.88666300  0.18198100  1
  O  O77  1  0.25291200  0.11333700  0.31801900  1
  O  O78  1  0.24708800  0.11333700  0.81801900  1
  O  O79  1  0.74708800  0.88666300  0.68198100  1
  O  O80  1  0.60485900  0.81795000  0.42290400  1
  O  O81  1  0.10485900  0.18205000  0.07709600  1
  O  O82  1  0.39514100  0.18205000  0.57709600  1
  O  O83  1  0.89514100  0.81795000  0.92290400  1
  O  O84  1  0.92857400  0.66706400  0.36981900  1
  O  O85  1  0.42857400  0.33293600  0.13018100  1
  O  O86  1  0.07142600  0.33293600  0.63018100  1
  O  O87  1  0.57142600  0.66706400  0.86981900  1
  O  O88  1  0.70367600  0.59277800  0.61169700  1
  O  O89  1  0.20367600  0.40722200  0.88830300  1
  O  O90  1  0.29632400  0.40722200  0.38830300  1
  O  O91  1  0.79632400  0.59277800  0.11169700  1
