# generated using pymatgen
data_PrH3CSO7
_symmetry_space_group_name_H-M   'P 1'
_cell_length_a   7.04453700
_cell_length_b   7.04453700
_cell_length_c   12.01095200
_cell_angle_alpha   90.00000000
_cell_angle_beta   90.00000000
_cell_angle_gamma   90.00000000
_symmetry_Int_Tables_number   1
_chemical_formula_structural   PrH3CSO7
_chemical_formula_sum   'Pr4 H12 C4 S4 O28'
_cell_volume   596.04951703
_cell_formula_units_Z   4
loop_
 _symmetry_equiv_pos_site_id
 _symmetry_equiv_pos_as_xyz
  1  'x, y, z'
loop_
 _atom_site_type_symbol
 _atom_site_label
 _atom_site_symmetry_multiplicity
 _atom_site_fract_x
 _atom_site_fract_y
 _atom_site_fract_z
 _atom_site_occupancy
  Pr  Pr0  1  0.13062300  0.38519700  0.47901400  1
  Pr  Pr1  1  0.86937700  0.61480300  0.97901400  1
  Pr  Pr2  1  0.38519700  0.86937700  0.72901400  1
  Pr  Pr3  1  0.61480300  0.13062300  0.22901400  1
  H  H4  1  0.63950500  0.47987200  0.51547600  1
  H  H5  1  0.36049500  0.52012800  0.01547600  1
  H  H6  1  0.47987200  0.36049500  0.76547600  1
  H  H7  1  0.52012800  0.63950500  0.26547600  1
  H  H8  1  0.89567100  0.32545000  0.69563800  1
  H  H9  1  0.10432900  0.67455000  0.19563800  1
  H  H10  1  0.32545000  0.10432900  0.94563800  1
  H  H11  1  0.67455000  0.89567100  0.44563800  1
  H  H12  1  0.95909300  0.11735300  0.66146000  1
  H  H13  1  0.04090700  0.88264700  0.16146000  1
  H  H14  1  0.11735300  0.04090700  0.91146000  1
  H  H15  1  0.88264700  0.95909300  0.41146000  1
  C  C16  1  0.63540800  0.39122500  0.44008900  1
  C  C17  1  0.36459200  0.60877500  0.94008900  1
  C  C18  1  0.39122500  0.36459200  0.69008900  1
  C  C19  1  0.60877500  0.63540800  0.19008900  1
  S  S20  1  0.11330500  0.26494500  0.17275000  1
  S  S21  1  0.88669500  0.73505500  0.67275000  1
  S  S22  1  0.26494500  0.88669500  0.42275000  1
  S  S23  1  0.73505500  0.11330500  0.92275000  1
  O  O24  1  0.29491400  0.16883500  0.14698000  1
  O  O25  1  0.70508600  0.83116500  0.64698000  1
  O  O26  1  0.16883500  0.70508600  0.39698000  1
  O  O27  1  0.83116500  0.29491400  0.89698000  1
  O  O28  1  0.13320600  0.38900600  0.27199400  1
  O  O29  1  0.86679400  0.61099400  0.77199400  1
  O  O30  1  0.38900600  0.86679400  0.52199400  1
  O  O31  1  0.61099400  0.13320600  0.02199400  1
  O  O32  1  0.05979500  0.38217400  0.07567300  1
  O  O33  1  0.94020500  0.61782600  0.57567300  1
  O  O34  1  0.38217400  0.94020500  0.32567300  1
  O  O35  1  0.61782600  0.05979500  0.82567300  1
  O  O36  1  0.96230400  0.11761300  0.19331400  1
  O  O37  1  0.03769600  0.88238700  0.69331400  1
  O  O38  1  0.11761300  0.03769600  0.44331400  1
  O  O39  1  0.88238700  0.96230400  0.94331400  1
  O  O40  1  0.47448600  0.33982200  0.40054200  1
  O  O41  1  0.52551400  0.66017800  0.90054200  1
  O  O42  1  0.33982200  0.52551400  0.65054200  1
  O  O43  1  0.66017800  0.47448600  0.15054200  1
  O  O44  1  0.79050200  0.34538000  0.39325300  1
  O  O45  1  0.20949800  0.65462000  0.89325300  1
  O  O46  1  0.34538000  0.20949800  0.64325300  1
  O  O47  1  0.65462000  0.79050200  0.14325300  1
  O  O48  1  0.92903000  0.24497500  0.63195700  1
  O  O49  1  0.07097000  0.75502500  0.13195700  1
  O  O50  1  0.24497500  0.07097000  0.88195700  1
  O  O51  1  0.75502500  0.92903000  0.38195700  1
