# generated using pymatgen
data_U3NF13
_symmetry_space_group_name_H-M   'P 1'
_cell_length_a   7.31470000
_cell_length_b   7.99638000
_cell_length_c   8.43714800
_cell_angle_alpha   90.00000000
_cell_angle_beta   90.00000000
_cell_angle_gamma   90.00000000
_symmetry_Int_Tables_number   1
_chemical_formula_structural   U3NF13
_chemical_formula_sum   'U6 N2 F26'
_cell_volume   493.49824276
_cell_formula_units_Z   2
loop_
 _symmetry_equiv_pos_site_id
 _symmetry_equiv_pos_as_xyz
  1  'x, y, z'
loop_
 _atom_site_type_symbol
 _atom_site_label
 _atom_site_symmetry_multiplicity
 _atom_site_fract_x
 _atom_site_fract_y
 _atom_site_fract_z
 _atom_site_occupancy
  U  U0  1  0.88594800  0.00000000  0.50255400  1
  U  U1  1  0.11405200  0.00000000  0.00255400  1
  U  U2  1  0.38994900  0.25686800  0.65931400  1
  U  U3  1  0.38994900  0.74313200  0.65931400  1
  U  U4  1  0.61005100  0.74313200  0.15931400  1
  U  U5  1  0.61005100  0.25686800  0.15931400  1
  N  N6  1  0.89392900  0.50000000  0.79688700  1
  N  N7  1  0.10607100  0.50000000  0.29688700  1
  F  F8  1  0.55736700  0.50000000  0.65818700  1
  F  F9  1  0.44263300  0.50000000  0.15818700  1
  F  F10  1  0.54495200  0.30071100  0.91024100  1
  F  F11  1  0.54495200  0.69928900  0.91024100  1
  F  F12  1  0.45504800  0.69928900  0.41024100  1
  F  F13  1  0.45504800  0.30071100  0.41024100  1
  F  F14  1  0.81277000  0.25152100  0.35761800  1
  F  F15  1  0.81277000  0.74847900  0.35761800  1
  F  F16  1  0.18723000  0.74847900  0.85761800  1
  F  F17  1  0.18723000  0.25152100  0.85761800  1
  F  F18  1  0.88913700  0.18698200  0.04588500  1
  F  F19  1  0.88913700  0.81301800  0.04588500  1
  F  F20  1  0.11086300  0.81301800  0.54588500  1
  F  F21  1  0.11086300  0.18698200  0.54588500  1
  F  F22  1  0.68592100  0.16661000  0.63879100  1
  F  F23  1  0.68592100  0.83339000  0.63879100  1
  F  F24  1  0.31407900  0.83339000  0.13879100  1
  F  F25  1  0.31407900  0.16661000  0.13879100  1
  F  F26  1  0.77072600  0.50000000  0.13849400  1
  F  F27  1  0.22927400  0.50000000  0.63849400  1
  F  F28  1  0.96531000  0.00000000  0.77272400  1
  F  F29  1  0.03469000  0.00000000  0.27272400  1
  F  F30  1  0.63113000  0.00000000  0.32512200  1
  F  F31  1  0.36887000  0.00000000  0.82512200  1
  F  F32  1  0.60589800  0.00000000  0.04293600  1
  F  F33  1  0.39410200  0.00000000  0.54293600  1
