# generated using pymatgen
data_Co2H2CO5
_symmetry_space_group_name_H-M   'P 1'
_cell_length_a   3.19535090
_cell_length_b   11.30583517
_cell_length_c   12.30609000
_cell_angle_alpha   90.00000000
_cell_angle_beta   90.00000000
_cell_angle_gamma   121.31252120
_symmetry_Int_Tables_number   1
_chemical_formula_structural   Co2H2CO5
_chemical_formula_sum   'Co8 H8 C4 O20'
_cell_volume   379.81727776
_cell_formula_units_Z   4
loop_
 _symmetry_equiv_pos_site_id
 _symmetry_equiv_pos_as_xyz
  1  'x, y, z'
loop_
 _atom_site_type_symbol
 _atom_site_label
 _atom_site_symmetry_multiplicity
 _atom_site_fract_x
 _atom_site_fract_y
 _atom_site_fract_z
 _atom_site_occupancy
  Co  Co0  1  0.78317100  0.98270900  0.21350700  1
  Co  Co1  1  0.21682900  0.51729100  0.71350700  1
  Co  Co2  1  0.21682900  0.01729100  0.78649300  1
  Co  Co3  1  0.78317100  0.48270900  0.28649300  1
  Co  Co4  1  0.93877100  0.71467500  0.11283400  1
  Co  Co5  1  0.06122900  0.78532500  0.61283400  1
  Co  Co6  1  0.06122900  0.28532500  0.88716600  1
  Co  Co7  1  0.93877100  0.21467500  0.38716600  1
  H  H8  1  0.24796400  0.10815300  0.98141700  1
  H  H9  1  0.75203600  0.39184700  0.48141700  1
  H  H10  1  0.75203600  0.89184700  0.01858300  1
  H  H11  1  0.24796400  0.60815300  0.51858300  1
  H  H12  1  0.93538600  0.50054500  0.89925500  1
  H  H13  1  0.06461400  0.99945500  0.39925500  1
  H  H14  1  0.06461400  0.49945500  0.10074500  1
  H  H15  1  0.93538600  0.00054500  0.60074500  1
  C  C16  1  0.02127300  0.75883600  0.36808200  1
  C  C17  1  0.97872700  0.74116400  0.86808200  1
  C  C18  1  0.97872700  0.24116400  0.63191800  1
  C  C19  1  0.02127300  0.25883600  0.13191800  1
  O  O20  1  0.75086300  0.62516400  0.37980600  1
  O  O21  1  0.24913700  0.87483600  0.87980600  1
  O  O22  1  0.24913700  0.37483600  0.62019400  1
  O  O23  1  0.75086300  0.12516400  0.12019400  1
  O  O24  1  0.14771900  0.81021700  0.26922100  1
  O  O25  1  0.85228100  0.68978300  0.76922100  1
  O  O26  1  0.85228100  0.18978300  0.73077900  1
  O  O27  1  0.14771900  0.31021700  0.23077900  1
  O  O28  1  0.16183600  0.84170400  0.44883100  1
  O  O29  1  0.83816400  0.65829600  0.94883100  1
  O  O30  1  0.83816400  0.15829600  0.55116900  1
  O  O31  1  0.16183600  0.34170400  0.05116900  1
  O  O32  1  0.16685300  0.57496100  0.15376900  1
  O  O33  1  0.83314700  0.92503900  0.65376900  1
  O  O34  1  0.83314700  0.42503900  0.84623100  1
  O  O35  1  0.16685300  0.07496100  0.34623100  1
  O  O36  1  0.69748900  0.85615500  0.09261900  1
  O  O37  1  0.30251100  0.64384500  0.59261900  1
  O  O38  1  0.30251100  0.14384500  0.90738100  1
  O  O39  1  0.69748900  0.35615500  0.40738100  1
