# generated using pymatgen
data_MgBPO6
_symmetry_space_group_name_H-M   'P 1'
_cell_length_a   7.59308791
_cell_length_b   7.59308791
_cell_length_c   12.66706600
_cell_angle_alpha   90.00000000
_cell_angle_beta   90.00000000
_cell_angle_gamma   119.99999924
_symmetry_Int_Tables_number   1
_chemical_formula_structural   MgBPO6
_chemical_formula_sum   'Mg6 B6 P6 O36'
_cell_volume   632.47523446
_cell_formula_units_Z   6
loop_
 _symmetry_equiv_pos_site_id
 _symmetry_equiv_pos_as_xyz
  1  'x, y, z'
loop_
 _atom_site_type_symbol
 _atom_site_label
 _atom_site_symmetry_multiplicity
 _atom_site_fract_x
 _atom_site_fract_y
 _atom_site_fract_z
 _atom_site_occupancy
  Mg  Mg0  1  0.00000000  0.87513800  0.66666700  1
  Mg  Mg1  1  0.87513800  0.00000000  0.33333300  1
  Mg  Mg2  1  0.12486200  0.12486200  0.00000000  1
  Mg  Mg3  1  0.00000000  0.76363000  0.16666700  1
  Mg  Mg4  1  0.76363000  0.00000000  0.83333300  1
  Mg  Mg5  1  0.23637000  0.23637000  0.50000000  1
  B  B6  1  0.43496700  0.75167300  0.45568100  1
  B  B7  1  0.31670600  0.56503300  0.12234700  1
  B  B8  1  0.24832700  0.68329400  0.78901400  1
  B  B9  1  0.56503300  0.31670600  0.87765300  1
  B  B10  1  0.75167300  0.43496700  0.54431900  1
  B  B11  1  0.68329400  0.24832700  0.21098600  1
  P  P12  1  0.32245000  0.25401200  0.23862100  1
  P  P13  1  0.93156200  0.67755000  0.90528800  1
  P  P14  1  0.74598800  0.06843800  0.57195400  1
  P  P15  1  0.67755000  0.93156200  0.09471200  1
  P  P16  1  0.25401200  0.32245000  0.76137900  1
  P  P17  1  0.06843800  0.74598800  0.42804600  1
  O  O18  1  0.19404700  0.63968000  0.16978700  1
  O  O19  1  0.44563300  0.80595300  0.83645400  1
  O  O20  1  0.36032000  0.55436700  0.50312000  1
  O  O21  1  0.80595300  0.44563300  0.16354600  1
  O  O22  1  0.63968000  0.19404700  0.83021300  1
  O  O23  1  0.55436700  0.36032000  0.49688000  1
  O  O24  1  0.51719400  0.24775900  0.27158800  1
  O  O25  1  0.73056500  0.48280600  0.93825500  1
  O  O26  1  0.75224100  0.26943500  0.60492200  1
  O  O27  1  0.48280600  0.73056500  0.06174500  1
  O  O28  1  0.24775900  0.51719400  0.72841200  1
  O  O29  1  0.26943500  0.75224100  0.39507800  1
  O  O30  1  0.11070200  0.90602200  0.51443500  1
  O  O31  1  0.79532100  0.88929800  0.18110200  1
  O  O32  1  0.09397800  0.20467900  0.84776900  1
  O  O33  1  0.88929800  0.79532100  0.81889800  1
  O  O34  1  0.90602200  0.11070200  0.48556500  1
  O  O35  1  0.20467900  0.09397800  0.15223100  1
  O  O36  1  0.98163400  0.78893200  0.32853700  1
  O  O37  1  0.80729800  0.01836600  0.99520300  1
  O  O38  1  0.21106800  0.19270200  0.66187000  1
  O  O39  1  0.01836600  0.80729800  0.00479700  1
  O  O40  1  0.78893200  0.98163400  0.67146300  1
  O  O41  1  0.19270200  0.21106800  0.33813000  1
  O  O42  1  0.75482700  0.58755300  0.61098000  1
  O  O43  1  0.83272600  0.24517300  0.27764700  1
  O  O44  1  0.41244700  0.16727400  0.94431300  1
  O  O45  1  0.24517300  0.83272600  0.72235300  1
  O  O46  1  0.58755300  0.75482700  0.38902000  1
  O  O47  1  0.16727400  0.41244700  0.05568700  1
  O  O48  1  0.92609800  0.52569100  0.47014300  1
  O  O49  1  0.59959200  0.07390200  0.13681000  1
  O  O50  1  0.47430900  0.40040800  0.80347600  1
  O  O51  1  0.07390200  0.59959200  0.86319000  1
  O  O52  1  0.52569100  0.92609800  0.52985700  1
  O  O53  1  0.40040800  0.47430900  0.19652400  1
