# generated using pymatgen
data_NiSO10
_symmetry_space_group_name_H-M   'P 1'
_cell_length_a   5.75352572
_cell_length_b   5.75352572
_cell_length_c   23.14672020
_cell_angle_alpha   80.98097146
_cell_angle_beta   80.98097146
_cell_angle_gamma   70.53191084
_symmetry_Int_Tables_number   1
_chemical_formula_structural   NiSO10
_chemical_formula_sum   'Ni4 S4 O40'
_cell_volume   708.97955714
_cell_formula_units_Z   4
loop_
 _symmetry_equiv_pos_site_id
 _symmetry_equiv_pos_as_xyz
  1  'x, y, z'
loop_
 _atom_site_type_symbol
 _atom_site_label
 _atom_site_symmetry_multiplicity
 _atom_site_fract_x
 _atom_site_fract_y
 _atom_site_fract_z
 _atom_site_occupancy
  Ni  Ni0  1  0.00000000  0.00000000  0.50000000  1
  Ni  Ni1  1  0.00000000  0.00000000  0.00000000  1
  Ni  Ni2  1  0.04342000  0.95658000  0.25000000  1
  Ni  Ni3  1  0.95658000  0.04342000  0.75000000  1
  S  S4  1  0.42277400  0.32046900  0.37701200  1
  S  S5  1  0.67953100  0.57722600  0.12298800  1
  S  S6  1  0.57722600  0.67953100  0.62298800  1
  S  S7  1  0.32046900  0.42277400  0.87701200  1
  O  O8  1  0.15535400  0.36643100  0.36932700  1
  O  O9  1  0.63356900  0.84464600  0.13067300  1
  O  O10  1  0.84464600  0.63356900  0.63067300  1
  O  O11  1  0.36643100  0.15535400  0.86932700  1
  O  O12  1  0.54152300  0.44287500  0.32540900  1
  O  O13  1  0.55712500  0.45847700  0.17459100  1
  O  O14  1  0.45847700  0.55712500  0.67459100  1
  O  O15  1  0.44287500  0.54152300  0.82540900  1
  O  O16  1  0.42487600  0.42400100  0.43221800  1
  O  O17  1  0.57599900  0.57512400  0.06778200  1
  O  O18  1  0.57512400  0.57599900  0.56778200  1
  O  O19  1  0.42400100  0.42487600  0.93221800  1
  O  O20  1  0.55361100  0.04924000  0.38292700  1
  O  O21  1  0.95076000  0.44638900  0.11707300  1
  O  O22  1  0.44638900  0.95076000  0.61707300  1
  O  O23  1  0.04924000  0.55361100  0.88292700  1
  O  O24  1  0.89060600  0.31036700  0.46072100  1
  O  O25  1  0.68963300  0.10939400  0.03927900  1
  O  O26  1  0.10939400  0.68963300  0.53927900  1
  O  O27  1  0.31036700  0.89060600  0.96072100  1
  O  O28  1  0.13615300  0.87275200  0.42987800  1
  O  O29  1  0.12724800  0.86384700  0.07012200  1
  O  O30  1  0.86384700  0.12724800  0.57012200  1
  O  O31  1  0.87275200  0.13615300  0.92987800  1
  O  O32  1  0.80113400  0.85121300  0.47502100  1
  O  O33  1  0.14878700  0.19886600  0.02497900  1
  O  O34  1  0.19886600  0.14878700  0.52497900  1
  O  O35  1  0.85121300  0.80113400  0.97502100  1
  O  O36  1  0.75249300  0.00123300  0.22119000  1
  O  O37  1  0.99876700  0.24750700  0.27881000  1
  O  O38  1  0.24750700  0.99876700  0.77881000  1
  O  O39  1  0.00123300  0.75249300  0.72119000  1
  O  O40  1  0.06871300  0.66066800  0.22497500  1
  O  O41  1  0.33933200  0.93128700  0.27502500  1
  O  O42  1  0.93128700  0.33933200  0.77502500  1
  O  O43  1  0.66066800  0.06871300  0.72497500  1
  O  O44  1  0.92225400  0.78367100  0.31282100  1
  O  O45  1  0.21632900  0.07774600  0.18717900  1
  O  O46  1  0.07774600  0.21632900  0.68717900  1
  O  O47  1  0.78367100  0.92225400  0.81282100  1
