# generated using pymatgen
data_Au3N3(Cl6O)2
_symmetry_space_group_name_H-M   'P 1'
_cell_length_a   9.14126025
_cell_length_b   9.14126025
_cell_length_c   16.07395517
_cell_angle_alpha   73.39539489
_cell_angle_beta   73.39539489
_cell_angle_gamma   77.65390275
_symmetry_Int_Tables_number   1
_chemical_formula_structural   Au3N3(Cl6O)2
_chemical_formula_sum   'Au6 N6 Cl24 O4'
_cell_volume   1220.65632352
_cell_formula_units_Z   2
loop_
 _symmetry_equiv_pos_site_id
 _symmetry_equiv_pos_as_xyz
  1  'x, y, z'
loop_
 _atom_site_type_symbol
 _atom_site_label
 _atom_site_symmetry_multiplicity
 _atom_site_fract_x
 _atom_site_fract_y
 _atom_site_fract_z
 _atom_site_occupancy
  Au  Au0  1  0.95497000  0.86710800  0.40646900  1
  Au  Au1  1  0.13289200  0.04503000  0.09353100  1
  Au  Au2  1  0.04503000  0.13289200  0.59353100  1
  Au  Au3  1  0.86710800  0.95497000  0.90646900  1
  Au  Au4  1  0.58665400  0.41334600  0.25000000  1
  Au  Au5  1  0.41334600  0.58665400  0.75000000  1
  N  N6  1  0.00000000  0.50000000  0.00000000  1
  N  N7  1  0.50000000  0.00000000  0.50000000  1
  N  N8  1  0.99305200  0.40132500  0.34692800  1
  N  N9  1  0.59867500  0.00694800  0.15307200  1
  N  N10  1  0.00694800  0.59867500  0.65307200  1
  N  N11  1  0.40132500  0.99305200  0.84692800  1
  Cl  Cl12  1  0.83392300  0.65073100  0.45695200  1
  Cl  Cl13  1  0.34926900  0.16607700  0.04304800  1
  Cl  Cl14  1  0.16607700  0.34926900  0.54304800  1
  Cl  Cl15  1  0.65073100  0.83392300  0.95695200  1
  Cl  Cl16  1  0.09392300  0.07057800  0.34257600  1
  Cl  Cl17  1  0.92942200  0.90607700  0.15742400  1
  Cl  Cl18  1  0.90607700  0.92942200  0.65742400  1
  Cl  Cl19  1  0.07057800  0.09392300  0.84257600  1
  Cl  Cl20  1  0.72297300  0.04136100  0.43129600  1
  Cl  Cl21  1  0.95863900  0.27702700  0.06870400  1
  Cl  Cl22  1  0.27702700  0.95863900  0.56870400  1
  Cl  Cl23  1  0.04136100  0.72297300  0.93129600  1
  Cl  Cl24  1  0.18681800  0.67957500  0.39037100  1
  Cl  Cl25  1  0.32042500  0.81318200  0.10962900  1
  Cl  Cl26  1  0.81318200  0.32042500  0.60962900  1
  Cl  Cl27  1  0.67957500  0.18681800  0.89037100  1
  Cl  Cl28  1  0.75290200  0.58899900  0.16749000  1
  Cl  Cl29  1  0.41100100  0.24709800  0.33251000  1
  Cl  Cl30  1  0.24709800  0.41100100  0.83251000  1
  Cl  Cl31  1  0.58899900  0.75290200  0.66749000  1
  Cl  Cl32  1  0.62351700  0.44579100  0.37909900  1
  Cl  Cl33  1  0.55420900  0.37648300  0.12090100  1
  Cl  Cl34  1  0.37648300  0.55420900  0.62090100  1
  Cl  Cl35  1  0.44579100  0.62351700  0.87909900  1
  O  O36  1  0.25495100  0.66087200  0.13573100  1
  O  O37  1  0.33912800  0.74504900  0.36426900  1
  O  O38  1  0.74504900  0.33912800  0.86426900  1
  O  O39  1  0.66087200  0.25495100  0.63573100  1
