# generated using pymatgen
data_BaU2(AsO11)2
_symmetry_space_group_name_H-M   'P 1'
_cell_length_a   7.18155200
_cell_length_b   7.23109400
_cell_length_c   19.75243168
_cell_angle_alpha   72.80995352
_cell_angle_beta   90.00000000
_cell_angle_gamma   90.00000000
_symmetry_Int_Tables_number   1
_chemical_formula_structural   BaU2(AsO11)2
_chemical_formula_sum   'Ba2 U4 As4 O44'
_cell_volume   979.93252599
_cell_formula_units_Z   2
loop_
 _symmetry_equiv_pos_site_id
 _symmetry_equiv_pos_as_xyz
  1  'x, y, z'
loop_
 _atom_site_type_symbol
 _atom_site_label
 _atom_site_symmetry_multiplicity
 _atom_site_fract_x
 _atom_site_fract_y
 _atom_site_fract_z
 _atom_site_occupancy
  Ba  Ba0  1  0.01033200  0.50000000  0.25000000  1
  Ba  Ba1  1  0.98966800  0.50000000  0.75000000  1
  U  U2  1  0.74845900  0.70796900  0.05211800  1
  U  U3  1  0.74845900  0.29203100  0.44788200  1
  U  U4  1  0.25154100  0.29203100  0.94788200  1
  U  U5  1  0.25154100  0.70796900  0.55211800  1
  As  As6  1  0.24842200  0.74713700  0.00096500  1
  As  As7  1  0.24842200  0.25286300  0.49903500  1
  As  As8  1  0.75157800  0.25286300  0.99903500  1
  As  As9  1  0.75157800  0.74713700  0.50096500  1
  O  O10  1  0.76451100  0.62665800  0.15205800  1
  O  O11  1  0.76451100  0.37334200  0.34794200  1
  O  O12  1  0.23548900  0.37334200  0.84794200  1
  O  O13  1  0.23548900  0.62665800  0.65205800  1
  O  O14  1  0.44017600  0.67332700  0.05454300  1
  O  O15  1  0.44017600  0.32667300  0.44545700  1
  O  O16  1  0.55982400  0.32667300  0.94545700  1
  O  O17  1  0.55982400  0.67332700  0.55454300  1
  O  O18  1  0.06352600  0.73072200  0.05812800  1
  O  O19  1  0.06352600  0.26927800  0.44187200  1
  O  O20  1  0.93647400  0.26927800  0.94187200  1
  O  O21  1  0.93647400  0.73072200  0.55812800  1
  O  O22  1  0.21443200  0.60390700  0.94645600  1
  O  O23  1  0.21443200  0.39609300  0.55354400  1
  O  O24  1  0.78556800  0.39609300  0.05354400  1
  O  O25  1  0.78556800  0.60390700  0.44645600  1
  O  O26  1  0.27649800  0.98133500  0.94816800  1
  O  O27  1  0.27649800  0.01866500  0.55183200  1
  O  O28  1  0.72350200  0.01866500  0.05183200  1
  O  O29  1  0.72350200  0.98133500  0.44816800  1
  O  O30  1  0.74316700  0.78144100  0.95599500  1
  O  O31  1  0.74316700  0.21855900  0.54400500  1
  O  O32  1  0.25683300  0.21855900  0.04400500  1
  O  O33  1  0.25683300  0.78144100  0.45599500  1
  O  O34  1  0.09637100  0.97024900  0.17460300  1
  O  O35  1  0.09637100  0.02975100  0.32539700  1
  O  O36  1  0.90362900  0.02975100  0.82539700  1
  O  O37  1  0.90362900  0.97024900  0.67460300  1
  O  O38  1  0.05027000  0.13732300  0.17026300  1
  O  O39  1  0.05027000  0.86267700  0.32973700  1
  O  O40  1  0.94973000  0.86267700  0.82973700  1
  O  O41  1  0.94973000  0.13732300  0.67026300  1
  O  O42  1  0.35711900  0.36800900  0.21696400  1
  O  O43  1  0.35711900  0.63199100  0.28303600  1
  O  O44  1  0.64288100  0.63199100  0.78303600  1
  O  O45  1  0.64288100  0.36800900  0.71696400  1
  O  O46  1  0.51458800  0.72282000  0.26174000  1
  O  O47  1  0.51458800  0.27718000  0.23826000  1
  O  O48  1  0.48541200  0.27718000  0.73826000  1
  O  O49  1  0.48541200  0.72282000  0.76174000  1
  O  O50  1  0.50581400  0.11267200  0.28568300  1
  O  O51  1  0.50581400  0.88732800  0.21431700  1
  O  O52  1  0.49418600  0.88732800  0.71431700  1
  O  O53  1  0.49418600  0.11267200  0.78568300  1
