# generated using pymatgen
data_FeC7(O2F)2
_symmetry_space_group_name_H-M   'P 1'
_cell_length_a   27.63956700
_cell_length_b   6.90525400
_cell_length_c   11.01997317
_cell_angle_alpha   54.69927706
_cell_angle_beta   90.00000000
_cell_angle_gamma   90.00000000
_symmetry_Int_Tables_number   1
_chemical_formula_structural   FeC7(O2F)2
_chemical_formula_sum   'Fe8 C56 O32 F16'
_cell_volume   1716.52815759
_cell_formula_units_Z   8
loop_
 _symmetry_equiv_pos_site_id
 _symmetry_equiv_pos_as_xyz
  1  'x, y, z'
loop_
 _atom_site_type_symbol
 _atom_site_label
 _atom_site_symmetry_multiplicity
 _atom_site_fract_x
 _atom_site_fract_y
 _atom_site_fract_z
 _atom_site_occupancy
  Fe  Fe0  1  0.56901600  0.95936200  0.26264500  1
  Fe  Fe1  1  0.93098400  0.95936200  0.76264500  1
  Fe  Fe2  1  0.43098400  0.04063800  0.73735500  1
  Fe  Fe3  1  0.06901600  0.04063800  0.23735500  1
  Fe  Fe4  1  0.67035300  0.99550600  0.31915600  1
  Fe  Fe5  1  0.82964700  0.99550600  0.81915600  1
  Fe  Fe6  1  0.32964700  0.00449400  0.68084400  1
  Fe  Fe7  1  0.17035300  0.00449400  0.18084400  1
  C  C8  1  0.58017600  0.43412400  0.94957800  1
  C  C9  1  0.91982400  0.43412400  0.44957800  1
  C  C10  1  0.41982400  0.56587600  0.05042200  1
  C  C11  1  0.08017600  0.56587600  0.55042200  1
  C  C12  1  0.60752300  0.62464500  0.83775500  1
  C  C13  1  0.89247700  0.62464500  0.33775500  1
  C  C14  1  0.39247700  0.37535500  0.16224500  1
  C  C15  1  0.10752300  0.37535500  0.66224500  1
  C  C16  1  0.65620500  0.63921500  0.86269000  1
  C  C17  1  0.84379500  0.63921500  0.36269000  1
  C  C18  1  0.34379500  0.36078500  0.13731000  1
  C  C19  1  0.15620500  0.36078500  0.63731000  1
  C  C20  1  0.67666000  0.46340800  0.99933500  1
  C  C21  1  0.82334000  0.46340800  0.49933500  1
  C  C22  1  0.32334000  0.53659200  0.00066500  1
  C  C23  1  0.17666000  0.53659200  0.50066500  1
  C  C24  1  0.64949400  0.27485600  0.11142300  1
  C  C25  1  0.85050600  0.27485600  0.61142300  1
  C  C26  1  0.35050600  0.72514400  0.88857700  1
  C  C27  1  0.14949400  0.72514400  0.38857700  1
  C  C28  1  0.60047100  0.25947800  0.08568200  1
  C  C29  1  0.89952900  0.25947800  0.58568200  1
  C  C30  1  0.39952900  0.74052200  0.91431800  1
  C  C31  1  0.10047100  0.74052200  0.41431800  1
  C  C32  1  0.50949100  0.98260200  0.18928000  1
  C  C33  1  0.99050900  0.98260200  0.68928000  1
  C  C34  1  0.49050900  0.01739800  0.81072000  1
  C  C35  1  0.00949100  0.01739800  0.31072000  1
  C  C36  1  0.56091500  0.67902900  0.44288200  1
  C  C37  1  0.93908500  0.67902900  0.94288200  1
  C  C38  1  0.43908500  0.32097100  0.55711800  1
  C  C39  1  0.06091500  0.32097100  0.05711800  1
  C  C40  1  0.59197000  0.82531000  0.17259000  1
  C  C41  1  0.90803000  0.82531000  0.67259000  1
  C  C42  1  0.40803000  0.17469000  0.82741000  1
  C  C43  1  0.09197000  0.17469000  0.32741000  1
  C  C44  1  0.55065200  0.13845900  0.32720300  1
  C  C45  1  0.94934800  0.13845900  0.82720300  1
  C  C46  1  0.44934800  0.86154100  0.67279700  1
  C  C47  1  0.05065200  0.86154100  0.17279700  1
  C  C48  1  0.73097800  0.08167600  0.32829200  1
  C  C49  1  0.76902200  0.08167600  0.82829200  1
  C  C50  1  0.26902200  0.91832400  0.67170800  1
  C  C51  1  0.23097800  0.91832400  0.17170800  1
  C  C52  1  0.66813300  0.71238700  0.50066200  1
  C  C53  1  0.83186700  0.71238700  0.00066200  1
  C  C54  1  0.33186700  0.28761300  0.49933800  1
  C  C55  1  0.16813300  0.28761300  0.99933800  1
  C  C56  1  0.69103100  0.85711100  0.22921000  1
  C  C57  1  0.80896900  0.85711100  0.72921000  1
  C  C58  1  0.30896900  0.14288900  0.77079000  1
  C  C59  1  0.19103100  0.14288900  0.27079000  1
  C  C60  1  0.64861300  0.16866300  0.38455200  1
  C  C61  1  0.85138700  0.16866300  0.88455200  1
  C  C62  1  0.35138700  0.83133700  0.61544800  1
  C  C63  1  0.14861300  0.83133700  0.11544800  1
  O  O64  1  0.47104100  0.98925700  0.14653800  1
  O  O65  1  0.02895900  0.98925700  0.64653800  1
  O  O66  1  0.52895900  0.01074300  0.85346200  1
  O  O67  1  0.97104100  0.01074300  0.35346200  1
  O  O68  1  0.55531900  0.50056100  0.55690500  1
  O  O69  1  0.94468100  0.50056100  0.05690500  1
  O  O70  1  0.44468100  0.49943900  0.44309500  1
  O  O71  1  0.05531900  0.49943900  0.94309500  1
  O  O72  1  0.60271100  0.74547000  0.10888000  1
  O  O73  1  0.89728900  0.74547000  0.60888000  1
  O  O74  1  0.39728900  0.25453000  0.89112000  1
  O  O75  1  0.10271100  0.25453000  0.39112000  1
  O  O76  1  0.53549100  0.25304400  0.36386700  1
  O  O77  1  0.96450900  0.25304400  0.86386700  1
  O  O78  1  0.46450900  0.74695600  0.63613300  1
  O  O79  1  0.03549100  0.74695600  0.13613300  1
  O  O80  1  0.76913900  0.13271600  0.34282500  1
  O  O81  1  0.73086100  0.13271600  0.84282500  1
  O  O82  1  0.23086100  0.86728400  0.65717500  1
  O  O83  1  0.26913900  0.86728400  0.15717500  1
  O  O84  1  0.66674900  0.53068400  0.61447000  1
  O  O85  1  0.83325100  0.53068400  0.11447000  1
  O  O86  1  0.33325100  0.46931600  0.38553000  1
  O  O87  1  0.16674900  0.46931600  0.88553000  1
  O  O88  1  0.70764300  0.77240200  0.17417800  1
  O  O89  1  0.79235700  0.77240200  0.67417800  1
  O  O90  1  0.29235700  0.22759800  0.82582200  1
  O  O91  1  0.20764300  0.22759800  0.32582200  1
  O  O92  1  0.63997400  0.28610400  0.42520200  1
  O  O93  1  0.86002600  0.28610400  0.92520200  1
  O  O94  1  0.36002600  0.71389600  0.57479800  1
  O  O95  1  0.13997400  0.71389600  0.07479800  1
  F  F96  1  0.53266600  0.42883500  0.91718200  1
  F  F97  1  0.96733400  0.42883500  0.41718200  1
  F  F98  1  0.46733400  0.57116500  0.08281800  1
  F  F99  1  0.03266600  0.57116500  0.58281800  1
  F  F100  1  0.58759500  0.79395100  0.70435500  1
  F  F101  1  0.91240500  0.79395100  0.20435500  1
  F  F102  1  0.41240500  0.20604900  0.29564500  1
  F  F103  1  0.08759500  0.20604900  0.79564500  1
  F  F104  1  0.68311500  0.82184600  0.75300100  1
  F  F105  1  0.81688500  0.82184600  0.25300100  1
  F  F106  1  0.31688500  0.17815400  0.24699900  1
  F  F107  1  0.18311500  0.17815400  0.74699900  1
  F  F108  1  0.72503800  0.48592400  0.01556400  1
  F  F109  1  0.77496200  0.48592400  0.51556400  1
  F  F110  1  0.27496200  0.51407600  0.98443600  1
  F  F111  1  0.22503800  0.51407600  0.48443600  1
