# generated using pymatgen
data_Cu(N2O3)2
_symmetry_space_group_name_H-M   'P 1'
_cell_length_a   5.51463200
_cell_length_b   9.56576200
_cell_length_c   11.16322600
_cell_angle_alpha   90.00000000
_cell_angle_beta   90.00000000
_cell_angle_gamma   90.00000000
_symmetry_Int_Tables_number   1
_chemical_formula_structural   Cu(N2O3)2
_chemical_formula_sum   'Cu4 N16 O24'
_cell_volume   588.87867153
_cell_formula_units_Z   4
loop_
 _symmetry_equiv_pos_site_id
 _symmetry_equiv_pos_as_xyz
  1  'x, y, z'
loop_
 _atom_site_type_symbol
 _atom_site_label
 _atom_site_symmetry_multiplicity
 _atom_site_fract_x
 _atom_site_fract_y
 _atom_site_fract_z
 _atom_site_occupancy
  Cu  Cu0  1  0.50000000  0.00000000  0.50000000  1
  Cu  Cu1  1  0.00000000  0.50000000  0.50000000  1
  Cu  Cu2  1  0.50000000  0.50000000  0.00000000  1
  Cu  Cu3  1  0.00000000  0.00000000  0.00000000  1
  N  N4  1  0.73064800  0.01337600  0.37090400  1
  N  N5  1  0.23064800  0.48662400  0.62909600  1
  N  N6  1  0.26935200  0.51337600  0.12909600  1
  N  N7  1  0.76935200  0.98662400  0.87090400  1
  N  N8  1  0.26935200  0.98662400  0.62909600  1
  N  N9  1  0.76935200  0.51337600  0.37090400  1
  N  N10  1  0.73064800  0.48662400  0.87090400  1
  N  N11  1  0.23064800  0.01337600  0.12909600  1
  N  N12  1  0.74751400  0.20769500  0.61852100  1
  N  N13  1  0.24751400  0.29230500  0.38147900  1
  N  N14  1  0.25248600  0.70769500  0.88147900  1
  N  N15  1  0.75248600  0.79230500  0.11852100  1
  N  N16  1  0.25248600  0.79230500  0.38147900  1
  N  N17  1  0.75248600  0.70769500  0.61852100  1
  N  N18  1  0.74751400  0.29230500  0.11852100  1
  N  N19  1  0.24751400  0.20769500  0.88147900  1
  O  O20  1  0.73108500  0.06674600  0.61170300  1
  O  O21  1  0.23108500  0.43325400  0.38829700  1
  O  O22  1  0.26891500  0.56674600  0.88829700  1
  O  O23  1  0.76891500  0.93325400  0.11170300  1
  O  O24  1  0.26891500  0.93325400  0.38829700  1
  O  O25  1  0.76891500  0.56674600  0.61170300  1
  O  O26  1  0.73108500  0.43325400  0.11170300  1
  O  O27  1  0.23108500  0.06674600  0.88829700  1
  O  O28  1  0.88898300  0.25225500  0.69469900  1
  O  O29  1  0.38898300  0.24774500  0.30530100  1
  O  O30  1  0.11101700  0.75225500  0.80530100  1
  O  O31  1  0.61101700  0.74774500  0.19469900  1
  O  O32  1  0.11101700  0.74774500  0.30530100  1
  O  O33  1  0.61101700  0.75225500  0.69469900  1
  O  O34  1  0.88898300  0.24774500  0.19469900  1
  O  O35  1  0.38898300  0.25225500  0.80530100  1
  O  O36  1  0.62563200  0.27862500  0.54827900  1
  O  O37  1  0.12563200  0.22137500  0.45172100  1
  O  O38  1  0.37436800  0.77862500  0.95172100  1
  O  O39  1  0.87436800  0.72137500  0.04827900  1
  O  O40  1  0.37436800  0.72137500  0.45172100  1
  O  O41  1  0.87436800  0.77862500  0.54827900  1
  O  O42  1  0.62563200  0.22137500  0.04827900  1
  O  O43  1  0.12563200  0.27862500  0.95172100  1
