# generated using pymatgen
data_CsB5(H2O3)4
_symmetry_space_group_name_H-M   'P 1'
_cell_length_a   7.26113598
_cell_length_b   7.26113598
_cell_length_c   11.94602918
_cell_angle_alpha   91.78228200
_cell_angle_beta   91.78228200
_cell_angle_gamma   106.38020720
_symmetry_Int_Tables_number   1
_chemical_formula_structural   CsB5(H2O3)4
_chemical_formula_sum   'Cs2 B10 H16 O24'
_cell_volume   603.46448357
_cell_formula_units_Z   2
loop_
 _symmetry_equiv_pos_site_id
 _symmetry_equiv_pos_as_xyz
  1  'x, y, z'
loop_
 _atom_site_type_symbol
 _atom_site_label
 _atom_site_symmetry_multiplicity
 _atom_site_fract_x
 _atom_site_fract_y
 _atom_site_fract_z
 _atom_site_occupancy
  Cs  Cs0  1  0.71935900  0.28064100  0.75000000  1
  Cs  Cs1  1  0.28064100  0.71935900  0.25000000  1
  B  B2  1  0.78304700  0.21695300  0.25000000  1
  B  B3  1  0.21695300  0.78304700  0.75000000  1
  B  B4  1  0.99009300  0.25525900  0.42556400  1
  B  B5  1  0.74474100  0.00990700  0.07443600  1
  B  B6  1  0.00990700  0.74474100  0.57443600  1
  B  B7  1  0.25525900  0.99009300  0.92556400  1
  B  B8  1  0.65316300  0.22677200  0.44152800  1
  B  B9  1  0.77322800  0.34683700  0.05847200  1
  B  B10  1  0.34683700  0.77322800  0.55847200  1
  B  B11  1  0.22677200  0.65316300  0.94152800  1
  H  H12  1  0.20165400  0.39548400  0.74933100  1
  H  H13  1  0.60451600  0.79834600  0.75066900  1
  H  H14  1  0.79834600  0.60451600  0.25066900  1
  H  H15  1  0.39548400  0.20165400  0.24933100  1
  H  H16  1  0.19582200  0.17329700  0.74361400  1
  H  H17  1  0.82670300  0.80417800  0.75638600  1
  H  H18  1  0.80417800  0.82670300  0.25638600  1
  H  H19  1  0.17329700  0.19582200  0.24361400  1
  H  H20  1  0.16001000  0.27611200  0.56206300  1
  H  H21  1  0.72388800  0.83999000  0.93793700  1
  H  H22  1  0.83999000  0.72388800  0.43793700  1
  H  H23  1  0.27611200  0.16001000  0.06206300  1
  H  H24  1  0.38709400  0.23655000  0.48003400  1
  H  H25  1  0.76345000  0.61290600  0.01996600  1
  H  H26  1  0.61290600  0.76345000  0.51996600  1
  H  H27  1  0.23655000  0.38709400  0.98003400  1
  O  O28  1  0.83317300  0.24051800  0.49161600  1
  O  O29  1  0.75948200  0.16682700  0.00838400  1
  O  O30  1  0.16682700  0.75948200  0.50838400  1
  O  O31  1  0.24051800  0.83317300  0.99161600  1
  O  O32  1  0.62666000  0.21129900  0.32714300  1
  O  O33  1  0.78870100  0.37334000  0.17285700  1
  O  O34  1  0.37334000  0.78870100  0.67285700  1
  O  O35  1  0.21129900  0.62666000  0.82714300  1
  O  O36  1  0.97366800  0.25488600  0.31105200  1
  O  O37  1  0.74511400  0.02633200  0.18894800  1
  O  O38  1  0.02633200  0.74511400  0.68894800  1
  O  O39  1  0.25488600  0.97366800  0.81105200  1
  O  O40  1  0.16593900  0.27479900  0.47814100  1
  O  O41  1  0.72520100  0.83406100  0.02185900  1
  O  O42  1  0.83406100  0.72520100  0.52185900  1
  O  O43  1  0.27479900  0.16593900  0.97814100  1
  O  O44  1  0.51271000  0.23221900  0.51333600  1
  O  O45  1  0.76778100  0.48729000  0.98666400  1
  O  O46  1  0.48729000  0.76778100  0.48666400  1
  O  O47  1  0.23221900  0.51271000  0.01333600  1
  O  O48  1  0.15338900  0.27340200  0.70449900  1
  O  O49  1  0.72659800  0.84661100  0.79550100  1
  O  O50  1  0.84661100  0.72659800  0.29550100  1
  O  O51  1  0.27340200  0.15338900  0.20449900  1
