# generated using pymatgen
data_AlSiH11C3O
_symmetry_space_group_name_H-M   'P 1'
_cell_length_a   8.34516700
_cell_length_b   10.31087722
_cell_length_c   10.97004333
_cell_angle_alpha   100.81669537
_cell_angle_beta   112.35608712
_cell_angle_gamma   90.00000000
_symmetry_Int_Tables_number   1
_chemical_formula_structural   AlSiH11C3O
_chemical_formula_sum   'Al4 Si4 H44 C12 O4'
_cell_volume   854.81858880
_cell_formula_units_Z   4
loop_
 _symmetry_equiv_pos_site_id
 _symmetry_equiv_pos_as_xyz
  1  'x, y, z'
loop_
 _atom_site_type_symbol
 _atom_site_label
 _atom_site_symmetry_multiplicity
 _atom_site_fract_x
 _atom_site_fract_y
 _atom_site_fract_z
 _atom_site_occupancy
  Al  Al0  1  0.39180900  0.88848900  0.99312500  1
  Al  Al1  1  0.39868400  0.61151100  0.00687500  1
  Al  Al2  1  0.60819100  0.11151100  0.00687500  1
  Al  Al3  1  0.60131600  0.38848900  0.99312500  1
  Si  Si4  1  0.45362100  0.13555200  0.24188900  1
  Si  Si5  1  0.21173200  0.36444800  0.75811100  1
  Si  Si6  1  0.54637900  0.86444800  0.75811100  1
  Si  Si7  1  0.78826800  0.63555200  0.24188900  1
  H  H8  1  0.19228200  0.99364900  0.20975000  1
  H  H9  1  0.98253200  0.50635100  0.79025000  1
  H  H10  1  0.80771800  0.00635100  0.79025000  1
  H  H11  1  0.01746800  0.49364900  0.20975000  1
  H  H12  1  0.38679200  0.92451900  0.30111300  1
  H  H13  1  0.08568000  0.57548100  0.69888700  1
  H  H14  1  0.61320800  0.07548100  0.69888700  1
  H  H15  1  0.91432000  0.42451900  0.30111300  1
  H  H16  1  0.31535800  0.06584400  0.38141400  1
  H  H17  1  0.93394400  0.43415600  0.61858600  1
  H  H18  1  0.68464200  0.93415600  0.61858600  1
  H  H19  1  0.06605600  0.56584400  0.38141400  1
  H  H20  1  0.40275800  0.36164800  0.19278600  1
  H  H21  1  0.20997200  0.13835200  0.80721400  1
  H  H22  1  0.59724200  0.63835200  0.80721400  1
  H  H23  1  0.79002800  0.86164800  0.19278600  1
  H  H24  1  0.20311200  0.26207900  0.13537800  1
  H  H25  1  0.06773500  0.23792100  0.86462200  1
  H  H26  1  0.79688800  0.73792100  0.86462200  1
  H  H27  1  0.93226500  0.76207900  0.13537800  1
  H  H28  1  0.31493500  0.32950300  0.30982200  1
  H  H29  1  0.00511400  0.17049700  0.69017800  1
  H  H30  1  0.68506500  0.67049700  0.69017800  1
  H  H31  1  0.99488600  0.82950300  0.30982200  1
  H  H32  1  0.75178100  0.24840100  0.35840400  1
  H  H33  1  0.39337700  0.25159900  0.64159600  1
  H  H34  1  0.24821900  0.75159900  0.64159600  1
  H  H35  1  0.60662300  0.74840100  0.35840400  1
  H  H36  1  0.65824600  0.22222600  0.47454100  1
  H  H37  1  0.18370600  0.27777400  0.52545900  1
  H  H38  1  0.34175400  0.77777400  0.52545900  1
  H  H39  1  0.81629400  0.72222600  0.47454100  1
  H  H40  1  0.74490500  0.08872200  0.39653700  1
  H  H41  1  0.34836700  0.41127800  0.60346300  1
  H  H42  1  0.25509500  0.91127800  0.60346300  1
  H  H43  1  0.65163300  0.58872200  0.39653700  1
  H  H44  1  0.18637700  0.89535200  0.92943600  1
  H  H45  1  0.25694000  0.60464800  0.07056400  1
  H  H46  1  0.81362300  0.10464800  0.07056400  1
  H  H47  1  0.74306000  0.39535200  0.92943600  1
  H  H48  1  0.47503800  0.80113800  0.11317200  1
  H  H49  1  0.36186600  0.69886200  0.88682800  1
  H  H50  1  0.52496200  0.19886200  0.88682800  1
  H  H51  1  0.63813400  0.30113800  0.11317200  1
  C  C52  1  0.32478300  0.01737900  0.28595200  1
  C  C53  1  0.03883100  0.48262100  0.71404800  1
  C  C54  1  0.67521700  0.98262100  0.71404800  1
  C  C55  1  0.96116900  0.51737900  0.28595200  1
  C  C56  1  0.33230400  0.28637700  0.21604500  1
  C  C57  1  0.11625900  0.21362300  0.78395500  1
  C  C58  1  0.66769600  0.71362300  0.78395500  1
  C  C59  1  0.88374100  0.78637700  0.21604500  1
  C  C60  1  0.67330300  0.17761700  0.38031200  1
  C  C61  1  0.29299100  0.32238300  0.61968800  1
  C  C62  1  0.32669700  0.82238300  0.61968800  1
  C  C63  1  0.70700900  0.67761700  0.38031200  1
  O  O64  1  0.47976300  0.06373800  0.09879100  1
  O  O65  1  0.38097200  0.43626200  0.90120900  1
  O  O66  1  0.52023700  0.93626200  0.90120900  1
  O  O67  1  0.61902800  0.56373800  0.09879100  1
