# generated using pymatgen
data_NaZn2(BH4)5
_symmetry_space_group_name_H-M   'P 1'
_cell_length_a   16.65396100
_cell_length_b   9.46401900
_cell_length_c   9.96433539
_cell_angle_alpha   63.57149390
_cell_angle_beta   90.00000000
_cell_angle_gamma   90.00000000
_symmetry_Int_Tables_number   1
_chemical_formula_structural   NaZn2(BH4)5
_chemical_formula_sum   'Na4 Zn8 B20 H80'
_cell_volume   1406.37919666
_cell_formula_units_Z   4
loop_
 _symmetry_equiv_pos_site_id
 _symmetry_equiv_pos_as_xyz
  1  'x, y, z'
loop_
 _atom_site_type_symbol
 _atom_site_label
 _atom_site_symmetry_multiplicity
 _atom_site_fract_x
 _atom_site_fract_y
 _atom_site_fract_z
 _atom_site_occupancy
  Na  Na0  1  0.93794600  0.35981300  0.28310900  1
  Na  Na1  1  0.43794600  0.14018700  0.71689100  1
  Na  Na2  1  0.06205400  0.64018700  0.71689100  1
  Na  Na3  1  0.56205400  0.85981300  0.28310900  1
  Zn  Zn4  1  0.26437300  0.85270900  0.29586600  1
  Zn  Zn5  1  0.76437300  0.64729100  0.70413400  1
  Zn  Zn6  1  0.73562700  0.14729100  0.70413400  1
  Zn  Zn7  1  0.23562700  0.35270900  0.29586600  1
  Zn  Zn8  1  0.11948000  0.07303200  0.85912600  1
  Zn  Zn9  1  0.61948000  0.42696800  0.14087400  1
  Zn  Zn10  1  0.88052000  0.92696800  0.14087400  1
  Zn  Zn11  1  0.38052000  0.57303200  0.85912600  1
  B  B12  1  0.82505100  0.23761300  0.52582800  1
  B  B13  1  0.32505100  0.26238700  0.47417200  1
  B  B14  1  0.17494900  0.76238700  0.47417200  1
  B  B15  1  0.67494900  0.73761300  0.52582800  1
  B  B16  1  0.60343900  0.14461300  0.71027000  1
  B  B17  1  0.10343900  0.35538700  0.28973000  1
  B  B18  1  0.39656100  0.85538700  0.28973000  1
  B  B19  1  0.89656100  0.64461300  0.71027000  1
  B  B20  1  0.19485800  0.96738600  0.07231500  1
  B  B21  1  0.69485800  0.53261400  0.92768500  1
  B  B22  1  0.80514200  0.03261400  0.92768500  1
  B  B23  1  0.30514200  0.46738600  0.07231500  1
  B  B24  1  0.09283600  0.89567400  0.78265400  1
  B  B25  1  0.59283600  0.60432600  0.21734600  1
  B  B26  1  0.90716400  0.10432600  0.21734600  1
  B  B27  1  0.40716400  0.39567400  0.78265400  1
  B  B28  1  0.40683700  0.82210200  0.78524900  1
  B  B29  1  0.90683700  0.67789800  0.21475100  1
  B  B30  1  0.59316300  0.17789800  0.21475100  1
  B  B31  1  0.09316300  0.32210200  0.78524900  1
  H  H32  1  0.81257600  0.30520500  0.39184000  1
  H  H33  1  0.31257600  0.19479500  0.60816000  1
  H  H34  1  0.18742400  0.69479500  0.60816000  1
  H  H35  1  0.68742400  0.80520500  0.39184000  1
  H  H36  1  0.89336200  0.21759300  0.57010800  1
  H  H37  1  0.39336200  0.28240700  0.42989200  1
  H  H38  1  0.10663800  0.78240700  0.42989200  1
  H  H39  1  0.60663800  0.71759300  0.57010800  1
  H  H40  1  0.71016400  0.82422000  0.57443900  1
  H  H41  1  0.21016400  0.67578000  0.42556100  1
  H  H42  1  0.28983600  0.17578000  0.42556100  1
  H  H43  1  0.78983600  0.32422000  0.57443900  1
  H  H44  1  0.79180100  0.10483900  0.56668400  1
  H  H45  1  0.29180100  0.39516100  0.43331600  1
  H  H46  1  0.20819900  0.89516100  0.43331600  1
  H  H47  1  0.70819900  0.60483900  0.56668400  1
  H  H48  1  0.63886000  0.20383600  0.58741200  1
  H  H49  1  0.13886000  0.29616400  0.41258800  1
  H  H50  1  0.36114000  0.79616400  0.41258800  1
  H  H51  1  0.86114000  0.70383600  0.58741200  1
  H  H52  1  0.64702900  0.08946600  0.82499900  1
  H  H53  1  0.14702900  0.41053400  0.17500100  1
  H  H54  1  0.35297100  0.91053400  0.17500100  1
  H  H55  1  0.85297100  0.58946600  0.82499900  1
  H  H56  1  0.93343000  0.75027200  0.71917200  1
  H  H57  1  0.43343000  0.74972800  0.28082800  1
  H  H58  1  0.06657000  0.24972800  0.28082800  1
  H  H59  1  0.56657000  0.25027200  0.71917200  1
  H  H60  1  0.56666700  0.03175200  0.71600100  1
  H  H61  1  0.06666700  0.46824800  0.28399900  1
  H  H62  1  0.43333300  0.96824800  0.28399900  1
  H  H63  1  0.93333300  0.53175200  0.71600100  1
  H  H64  1  0.23226000  0.02618200  0.95358700  1
  H  H65  1  0.73226000  0.47381800  0.04641300  1
  H  H66  1  0.76774000  0.97381800  0.04641300  1
  H  H67  1  0.26774000  0.52618200  0.95358700  1
  H  H68  1  0.12046300  0.97296900  0.06760700  1
  H  H69  1  0.62046300  0.52703100  0.93239300  1
  H  H70  1  0.87953700  0.02703100  0.93239300  1
  H  H71  1  0.37953700  0.47296900  0.06760700  1
  H  H72  1  0.21030400  0.82523200  0.13209700  1
  H  H73  1  0.71030400  0.67476800  0.86790300  1
  H  H74  1  0.78969600  0.17476800  0.86790300  1
  H  H75  1  0.28969600  0.32523200  0.13209700  1
  H  H76  1  0.28725400  0.54373200  0.14099600  1
  H  H77  1  0.78725400  0.95626800  0.85900400  1
  H  H78  1  0.71274600  0.45626800  0.85900400  1
  H  H79  1  0.21274600  0.04373200  0.14099600  1
  H  H80  1  0.04058600  0.93951500  0.84728300  1
  H  H81  1  0.54058600  0.56048500  0.15271700  1
  H  H82  1  0.95941400  0.06048500  0.15271700  1
  H  H83  1  0.45941400  0.43951500  0.84728300  1
  H  H84  1  0.11390200  0.76370800  0.86916300  1
  H  H85  1  0.61390200  0.73629200  0.13083700  1
  H  H86  1  0.88609800  0.23629200  0.13083700  1
  H  H87  1  0.38609800  0.26370800  0.86916300  1
  H  H88  1  0.15474600  0.98105700  0.74191300  1
  H  H89  1  0.65474600  0.51894300  0.25808700  1
  H  H90  1  0.84525400  0.01894300  0.25808700  1
  H  H91  1  0.34525400  0.48105700  0.74191300  1
  H  H92  1  0.06155800  0.91477600  0.66618500  1
  H  H93  1  0.56155800  0.58522400  0.33381500  1
  H  H94  1  0.93844200  0.08522400  0.33381500  1
  H  H95  1  0.43844200  0.41477600  0.66618500  1
  H  H96  1  0.45912600  0.71824800  0.85083500  1
  H  H97  1  0.95912600  0.78175200  0.14916500  1
  H  H98  1  0.54087400  0.28175200  0.14916500  1
  H  H99  1  0.04087400  0.21824800  0.85083500  1
  H  H100  1  0.38561800  0.87423800  0.87083300  1
  H  H101  1  0.88561800  0.62576200  0.12916700  1
  H  H102  1  0.61438200  0.12576200  0.12916700  1
  H  H103  1  0.11438200  0.37423800  0.87083300  1
  H  H104  1  0.34444600  0.77326900  0.74697400  1
  H  H105  1  0.84444600  0.72673100  0.25302600  1
  H  H106  1  0.65555400  0.22673100  0.25302600  1
  H  H107  1  0.15555400  0.27326900  0.74697400  1
  H  H108  1  0.43696200  0.91126300  0.66742200  1
  H  H109  1  0.93696200  0.58873700  0.33257800  1
  H  H110  1  0.56303800  0.08873700  0.33257800  1
  H  H111  1  0.06303800  0.41126300  0.66742200  1
