# generated using pymatgen
data_Zn2Fe3As3O26
_symmetry_space_group_name_H-M   'P 1'
_cell_length_a   8.03559806
_cell_length_b   8.03559806
_cell_length_c   8.58009334
_cell_angle_alpha   77.19195498
_cell_angle_beta   77.19195498
_cell_angle_gamma   89.33256696
_symmetry_Int_Tables_number   1
_chemical_formula_structural   Zn2Fe3As3O26
_chemical_formula_sum   'Zn2 Fe3 As3 O26'
_cell_volume   526.38687157
_cell_formula_units_Z   1
loop_
 _symmetry_equiv_pos_site_id
 _symmetry_equiv_pos_as_xyz
  1  'x, y, z'
loop_
 _atom_site_type_symbol
 _atom_site_label
 _atom_site_symmetry_multiplicity
 _atom_site_fract_x
 _atom_site_fract_y
 _atom_site_fract_z
 _atom_site_occupancy
  Zn  Zn0  1  0.70275200  0.70275200  0.59974100  1
  Zn  Zn1  1  0.22757400  0.22757400  0.64943600  1
  Fe  Fe2  1  0.97016000  0.97016000  0.62481500  1
  Fe  Fe3  1  0.04791800  0.77664200  0.34589000  1
  Fe  Fe4  1  0.77664200  0.04791800  0.34589000  1
  As  As5  1  0.01477300  0.01477300  0.99019700  1
  As  As6  1  0.37812600  0.87516500  0.49201400  1
  As  As7  1  0.87516500  0.37812600  0.49201400  1
  O  O8  1  0.16924600  0.16924600  0.88337800  1
  O  O9  1  0.92403700  0.92403700  0.85986600  1
  O  O10  1  0.10888500  0.85576300  0.10743500  1
  O  O11  1  0.85576300  0.10888500  0.10743500  1
  O  O12  1  0.52750100  0.03053500  0.37609700  1
  O  O13  1  0.03053500  0.52750100  0.37609700  1
  O  O14  1  0.28288400  0.77853400  0.37313100  1
  O  O15  1  0.77853400  0.28288400  0.37313100  1
  O  O16  1  0.22279500  0.98174300  0.61102700  1
  O  O17  1  0.98174300  0.22279500  0.61102700  1
  O  O18  1  0.45616100  0.72304400  0.62905100  1
  O  O19  1  0.72304400  0.45616100  0.62905100  1
  O  O20  1  0.01752400  0.01752400  0.39088500  1
  O  O21  1  0.80509400  0.80509400  0.34986700  1
  O  O22  1  0.95352100  0.73755400  0.61444100  1
  O  O23  1  0.73755400  0.95352100  0.61444100  1
  O  O24  1  0.64736500  0.64736500  0.98845700  1
  O  O25  1  0.38750000  0.38750000  0.49937200  1
  O  O26  1  0.55288600  0.11810900  0.75826100  1
  O  O27  1  0.11810900  0.55288600  0.75826100  1
  O  O28  1  0.65131200  0.65131200  0.12928700  1
  O  O29  1  0.36498200  0.36498200  0.14397800  1
  O  O30  1  0.06119200  0.52474000  0.90563800  1
  O  O31  1  0.52474000  0.06119200  0.90563800  1
  O  O32  1  0.30914600  0.50403500  0.06997500  1
  O  O33  1  0.50403500  0.30914600  0.06997500  1
