# generated using pymatgen
data_SmB7IO15
_symmetry_space_group_name_H-M   'P 1'
_cell_length_a   17.39289100
_cell_length_b   8.15522000
_cell_length_c   12.64558817
_cell_angle_alpha   50.69277838
_cell_angle_beta   90.00000000
_cell_angle_gamma   90.00000000
_symmetry_Int_Tables_number   1
_chemical_formula_structural   SmB7IO15
_chemical_formula_sum   'Sm4 B28 I4 O60'
_cell_volume   1387.88337633
_cell_formula_units_Z   4
loop_
 _symmetry_equiv_pos_site_id
 _symmetry_equiv_pos_as_xyz
  1  'x, y, z'
loop_
 _atom_site_type_symbol
 _atom_site_label
 _atom_site_symmetry_multiplicity
 _atom_site_fract_x
 _atom_site_fract_y
 _atom_site_fract_z
 _atom_site_occupancy
  Sm  Sm0  1  0.81247500  0.44809900  0.74755100  1
  Sm  Sm1  1  0.68752500  0.44809900  0.24755100  1
  Sm  Sm2  1  0.18752500  0.55190100  0.25244900  1
  Sm  Sm3  1  0.31247500  0.55190100  0.75244900  1
  B  B4  1  0.91649300  0.09783900  0.21452500  1
  B  B5  1  0.58350700  0.09783900  0.71452500  1
  B  B6  1  0.08350700  0.90216100  0.78547500  1
  B  B7  1  0.41649300  0.90216100  0.28547500  1
  B  B8  1  0.80613900  0.93139300  0.36586800  1
  B  B9  1  0.69386100  0.93139300  0.86586800  1
  B  B10  1  0.19386100  0.06860700  0.63413200  1
  B  B11  1  0.30613900  0.06860700  0.13413200  1
  B  B12  1  0.79785700  0.84840500  0.74834900  1
  B  B13  1  0.70214300  0.84840500  0.24834900  1
  B  B14  1  0.20214300  0.15159500  0.25165100  1
  B  B15  1  0.29785700  0.15159500  0.75165100  1
  B  B16  1  0.78801500  0.19586300  0.10855300  1
  B  B17  1  0.71198500  0.19586300  0.60855300  1
  B  B18  1  0.21198500  0.80413700  0.89144700  1
  B  B19  1  0.28801500  0.80413700  0.39144700  1
  B  B20  1  0.75267700  0.56775600  0.47801600  1
  B  B21  1  0.74732300  0.56775600  0.97801600  1
  B  B22  1  0.24732300  0.43224400  0.52198400  1
  B  B23  1  0.25267700  0.43224400  0.02198400  1
  B  B24  1  0.94344400  0.91491700  0.72927000  1
  B  B25  1  0.55655600  0.91491700  0.22927000  1
  B  B26  1  0.05655600  0.08508300  0.27073000  1
  B  B27  1  0.44344400  0.08508300  0.77073000  1
  B  B28  1  0.72872900  0.04558300  0.00289300  1
  B  B29  1  0.77127100  0.04558300  0.50289300  1
  B  B30  1  0.27127100  0.95441700  0.99710700  1
  B  B31  1  0.22872900  0.95441700  0.49710700  1
  I  I32  1  0.53705600  0.58500200  0.72000200  1
  I  I33  1  0.96294400  0.58500200  0.22000200  1
  I  I34  1  0.46294400  0.41499800  0.27999800  1
  I  I35  1  0.03705600  0.41499800  0.77999800  1
  O  O36  1  0.87015900  0.89965000  0.77506200  1
  O  O37  1  0.62984100  0.89965000  0.27506200  1
  O  O38  1  0.12984100  0.10035000  0.22493800  1
  O  O39  1  0.37015900  0.10035000  0.72493800  1
  O  O40  1  0.78531300  0.71292200  0.48620300  1
  O  O41  1  0.71468700  0.71292200  0.98620300  1
  O  O42  1  0.21468700  0.28707800  0.51379700  1
  O  O43  1  0.28531300  0.28707800  0.01379700  1
  O  O44  1  0.76252400  0.20887800  0.99170400  1
  O  O45  1  0.73747600  0.20887800  0.49170400  1
  O  O46  1  0.23747600  0.79112200  0.00829600  1
  O  O47  1  0.26252400  0.79112200  0.50829600  1
  O  O48  1  0.73496700  0.98420700  0.73992700  1
  O  O49  1  0.76503300  0.98420700  0.23992700  1
  O  O50  1  0.26503300  0.01579300  0.26007300  1
  O  O51  1  0.23496700  0.01579300  0.76007300  1
  O  O52  1  0.79534400  0.86248400  0.62623100  1
  O  O53  1  0.70465600  0.86248400  0.12623100  1
  O  O54  1  0.20465600  0.13751600  0.37376900  1
  O  O55  1  0.29534400  0.13751600  0.87376900  1
  O  O56  1  0.99504500  0.12323400  0.18984500  1
  O  O57  1  0.50495500  0.12323400  0.68984500  1
  O  O58  1  0.00495500  0.87676600  0.81015500  1
  O  O59  1  0.49504500  0.87676600  0.31015500  1
  O  O60  1  0.86943200  0.22392400  0.10342700  1
  O  O61  1  0.63056800  0.22392400  0.60342700  1
  O  O62  1  0.13056800  0.77607600  0.89657300  1
  O  O63  1  0.36943200  0.77607600  0.39657300  1
  O  O64  1  0.88748200  0.94947300  0.34331800  1
  O  O65  1  0.61251800  0.94947300  0.84331800  1
  O  O66  1  0.11251800  0.05052700  0.65668200  1
  O  O67  1  0.38748200  0.05052700  0.15668200  1
  O  O68  1  0.75325600  0.36571600  0.60041900  1
  O  O69  1  0.74674400  0.36571600  0.10041900  1
  O  O70  1  0.24674400  0.63428400  0.39958100  1
  O  O71  1  0.25325600  0.63428400  0.89958100  1
  O  O72  1  0.93774900  0.46975800  0.82549900  1
  O  O73  1  0.56225100  0.46975800  0.32549900  1
  O  O74  1  0.06225100  0.53024200  0.17450100  1
  O  O75  1  0.43774900  0.53024200  0.67450100  1
  O  O76  1  0.77763000  0.62231800  0.85926700  1
  O  O77  1  0.72237000  0.62231800  0.35926700  1
  O  O78  1  0.22237000  0.37768200  0.14073300  1
  O  O79  1  0.27763000  0.37768200  0.64073300  1
  O  O80  1  0.89849800  0.18300700  0.84756500  1
  O  O81  1  0.60150200  0.18300700  0.34756500  1
  O  O82  1  0.10150200  0.81699300  0.15243500  1
  O  O83  1  0.39849800  0.81699300  0.65243500  1
  O  O84  1  0.72403000  0.08483800  0.88129000  1
  O  O85  1  0.77597000  0.08483800  0.38129000  1
  O  O86  1  0.27597000  0.91516200  0.11871000  1
  O  O87  1  0.22403000  0.91516200  0.61871000  1
  O  O88  1  0.93591600  0.48576300  0.64892800  1
  O  O89  1  0.56408400  0.48576300  0.14892800  1
  O  O90  1  0.06408400  0.51423700  0.35107200  1
  O  O91  1  0.43591600  0.51423700  0.85107200  1
  O  O92  1  0.95224500  0.96455800  0.60505000  1
  O  O93  1  0.54775500  0.96455800  0.10505000  1
  O  O94  1  0.04775500  0.03544200  0.39495000  1
  O  O95  1  0.45224500  0.03544200  0.89495000  1
