# generated using pymatgen
data_Si6O13
_symmetry_space_group_name_H-M   'P 1'
_cell_length_a   13.20199554
_cell_length_b   13.20199554
_cell_length_c   10.23269804
_cell_angle_alpha   76.42410284
_cell_angle_beta   76.42410284
_cell_angle_gamma   33.14135309
_symmetry_Int_Tables_number   1
_chemical_formula_structural   Si6O13
_chemical_formula_sum   'Si12 O26'
_cell_volume   945.34967740
_cell_formula_units_Z   2
loop_
 _symmetry_equiv_pos_site_id
 _symmetry_equiv_pos_as_xyz
  1  'x, y, z'
loop_
 _atom_site_type_symbol
 _atom_site_label
 _atom_site_symmetry_multiplicity
 _atom_site_fract_x
 _atom_site_fract_y
 _atom_site_fract_z
 _atom_site_occupancy
  Si  Si0  1  0.51894600  0.91729900  0.15224100  1
  Si  Si1  1  0.91729900  0.51894600  0.15224100  1
  Si  Si2  1  0.48105400  0.08270100  0.84775900  1
  Si  Si3  1  0.08270100  0.48105400  0.84775900  1
  Si  Si4  1  0.49625800  0.92104700  0.64459500  1
  Si  Si5  1  0.92104700  0.49625800  0.64459500  1
  Si  Si6  1  0.50374200  0.07895300  0.35540500  1
  Si  Si7  1  0.07895300  0.50374200  0.35540500  1
  Si  Si8  1  0.13276000  0.13276000  0.28270800  1
  Si  Si9  1  0.86724000  0.86724000  0.71729200  1
  Si  Si10  1  0.12395100  0.12395100  0.60756200  1
  Si  Si11  1  0.87604900  0.87604900  0.39243800  1
  O  O12  1  0.34144600  0.99062600  0.21590500  1
  O  O13  1  0.99062600  0.34144600  0.21590500  1
  O  O14  1  0.65855400  0.00937400  0.78409500  1
  O  O15  1  0.00937400  0.65855400  0.78409500  1
  O  O16  1  0.33128800  0.97418600  0.65008800  1
  O  O17  1  0.97418600  0.33128800  0.65008800  1
  O  O18  1  0.66871200  0.02581400  0.34991200  1
  O  O19  1  0.02581400  0.66871200  0.34991200  1
  O  O20  1  0.55182800  0.97431300  0.24073200  1
  O  O21  1  0.97431300  0.55182800  0.24073200  1
  O  O22  1  0.44817200  0.02568700  0.75926800  1
  O  O23  1  0.02568700  0.44817200  0.75926800  1
  O  O24  1  0.12641300  0.12641300  0.44601700  1
  O  O25  1  0.87358700  0.87358700  0.55398300  1
  O  O26  1  0.69670700  0.69670700  0.66692900  1
  O  O27  1  0.30329300  0.30329300  0.33307100  1
  O  O28  1  0.69363300  0.69363300  0.15370600  1
  O  O29  1  0.30636700  0.30636700  0.84629400  1
  O  O30  1  0.50000000  0.00000000  0.00000000  1
  O  O31  1  0.00000000  0.50000000  0.00000000  1
  O  O32  1  0.50000000  0.00000000  0.50000000  1
  O  O33  1  0.00000000  0.50000000  0.50000000  1
  O  O34  1  0.07343800  0.07343800  0.24116800  1
  O  O35  1  0.92656200  0.92656200  0.75883200  1
  O  O36  1  0.05854300  0.05854300  0.68538700  1
  O  O37  1  0.94145700  0.94145700  0.31461300  1
