# generated using pymatgen
data_Nd6Fe13Au
_symmetry_space_group_name_H-M   'P 1'
_cell_length_a   8.03791200
_cell_length_b   8.03791200
_cell_length_c   12.84279935
_cell_angle_alpha   108.23617111
_cell_angle_beta   108.23617111
_cell_angle_gamma   90.00000000
_symmetry_Int_Tables_number   1
_chemical_formula_structural   Nd6Fe13Au
_chemical_formula_sum   'Nd12 Fe26 Au2'
_cell_volume   744.06877155
_cell_formula_units_Z   2
loop_
 _symmetry_equiv_pos_site_id
 _symmetry_equiv_pos_as_xyz
  1  'x, y, z'
loop_
 _atom_site_type_symbol
 _atom_site_label
 _atom_site_symmetry_multiplicity
 _atom_site_fract_x
 _atom_site_fract_y
 _atom_site_fract_z
 _atom_site_occupancy
  Nd  Nd0  1  0.97660300  0.47660300  0.62544700  1
  Nd  Nd1  1  0.64884400  0.14884400  0.62544700  1
  Nd  Nd2  1  0.14884400  0.97660300  0.62544700  1
  Nd  Nd3  1  0.47660300  0.64884400  0.62544700  1
  Nd  Nd4  1  0.02339700  0.52339700  0.37455300  1
  Nd  Nd5  1  0.35115600  0.85115600  0.37455300  1
  Nd  Nd6  1  0.85115600  0.02339700  0.37455300  1
  Nd  Nd7  1  0.52339700  0.35115600  0.37455300  1
  Nd  Nd8  1  0.60717400  0.60717400  0.21434800  1
  Nd  Nd9  1  0.10717400  0.10717400  0.21434800  1
  Nd  Nd10  1  0.39282600  0.39282600  0.78565200  1
  Nd  Nd11  1  0.89282600  0.89282600  0.78565200  1
  Fe  Fe12  1  0.11893800  0.61893800  0.88084100  1
  Fe  Fe13  1  0.76190300  0.26190300  0.88084100  1
  Fe  Fe14  1  0.26190300  0.11893800  0.88084100  1
  Fe  Fe15  1  0.61893800  0.76190300  0.88084100  1
  Fe  Fe16  1  0.88106200  0.38106200  0.11915900  1
  Fe  Fe17  1  0.23809700  0.73809700  0.11915900  1
  Fe  Fe18  1  0.73809700  0.88106200  0.11915900  1
  Fe  Fe19  1  0.38106200  0.23809700  0.11915900  1
  Fe  Fe20  1  0.70980600  0.56671700  0.00000000  1
  Fe  Fe21  1  0.29019400  0.43328300  0.00000000  1
  Fe  Fe22  1  0.79019400  0.06671700  0.00000000  1
  Fe  Fe23  1  0.20980600  0.93328300  0.00000000  1
  Fe  Fe24  1  0.56671700  0.29019400  0.00000000  1
  Fe  Fe25  1  0.43328300  0.70980600  0.00000000  1
  Fe  Fe26  1  0.06671700  0.20980600  0.00000000  1
  Fe  Fe27  1  0.93328300  0.79019400  0.00000000  1
  Fe  Fe28  1  0.29030700  0.79030700  0.80827000  1
  Fe  Fe29  1  0.51796300  0.01796300  0.80827000  1
  Fe  Fe30  1  0.01796300  0.29030700  0.80827000  1
  Fe  Fe31  1  0.79030700  0.51796300  0.80827000  1
  Fe  Fe32  1  0.70969300  0.20969300  0.19173000  1
  Fe  Fe33  1  0.48203700  0.98203700  0.19173000  1
  Fe  Fe34  1  0.98203700  0.70969300  0.19173000  1
  Fe  Fe35  1  0.20969300  0.48203700  0.19173000  1
  Fe  Fe36  1  0.00000000  0.50000000  0.00000000  1
  Fe  Fe37  1  0.50000000  0.00000000  0.00000000  1
  Au  Au38  1  0.25000000  0.25000000  0.50000000  1
  Au  Au39  1  0.75000000  0.75000000  0.50000000  1
