# generated using pymatgen
data_UH14Cl3O7
_symmetry_space_group_name_H-M   'P 1'
_cell_length_a   7.98071140
_cell_length_b   8.29616189
_cell_length_c   9.37056002
_cell_angle_alpha   69.94479468
_cell_angle_beta   73.30721606
_cell_angle_gamma   81.78034369
_symmetry_Int_Tables_number   1
_chemical_formula_structural   UH14Cl3O7
_chemical_formula_sum   'U2 H28 Cl6 O14'
_cell_volume   557.55550411
_cell_formula_units_Z   2
loop_
 _symmetry_equiv_pos_site_id
 _symmetry_equiv_pos_as_xyz
  1  'x, y, z'
loop_
 _atom_site_type_symbol
 _atom_site_label
 _atom_site_symmetry_multiplicity
 _atom_site_fract_x
 _atom_site_fract_y
 _atom_site_fract_z
 _atom_site_occupancy
  U  U0  1  0.78447200  0.82080900  0.17187100  1
  U  U1  1  0.21552800  0.17919100  0.82812900  1
  H  H2  1  0.99835200  0.85099500  0.41047700  1
  H  H3  1  0.00164800  0.14900500  0.58952300  1
  H  H4  1  0.86972500  0.01767600  0.37778200  1
  H  H5  1  0.13027500  0.98232400  0.62221800  1
  H  H6  1  0.08566100  0.54082800  0.26729300  1
  H  H7  1  0.91433900  0.45917200  0.73270700  1
  H  H8  1  0.91086600  0.47344500  0.39114400  1
  H  H9  1  0.08913400  0.52655500  0.60885600  1
  H  H10  1  0.73308100  0.82518600  0.84551900  1
  H  H11  1  0.26691900  0.17481400  0.15448100  1
  H  H12  1  0.87443600  0.96077400  0.80846400  1
  H  H13  1  0.12556400  0.03922600  0.19153600  1
  H  H14  1  0.39010900  0.86997500  0.15417800  1
  H  H15  1  0.60989100  0.13002500  0.84582200  1
  H  H16  1  0.43372100  0.67540700  0.15747000  1
  H  H17  1  0.56627900  0.32459300  0.84253000  1
  H  H18  1  0.52044000  0.13235300  0.25417500  1
  H  H19  1  0.47956000  0.86764700  0.74582500  1
  H  H20  1  0.44570100  0.95650400  0.37658400  1
  H  H21  1  0.55429900  0.04349600  0.62341600  1
  H  H22  1  0.64691900  0.64476600  0.54388700  1
  H  H23  1  0.35308100  0.35523400  0.45611300  1
  H  H24  1  0.48755400  0.66703000  0.47059700  1
  H  H25  1  0.51244600  0.33297000  0.52940300  1
  H  H26  1  0.80903200  0.43360600  0.17569200  1
  H  H27  1  0.19096800  0.56639400  0.82430800  1
  H  H28  1  0.73410000  0.53454200  0.02891800  1
  H  H29  1  0.26590000  0.46545800  0.97108200  1
  Cl  Cl30  1  0.85575800  0.17913900  0.01357200  1
  Cl  Cl31  1  0.14424200  0.82086100  0.98642800  1
  Cl  Cl32  1  0.21310000  0.78085700  0.53193100  1
  Cl  Cl33  1  0.78690000  0.21914300  0.46806900  1
  Cl  Cl34  1  0.66270100  0.61721800  0.78454700  1
  Cl  Cl35  1  0.33729900  0.38278200  0.21545300  1
  O  O36  1  0.93163300  0.92403700  0.33493700  1
  O  O37  1  0.06836700  0.07596300  0.66506300  1
  O  O38  1  0.96937000  0.57986100  0.32098800  1
  O  O39  1  0.03063000  0.42013900  0.67901200  1
  O  O40  1  0.76135300  0.91556400  0.88098900  1
  O  O41  1  0.23864700  0.08443600  0.11901100  1
  O  O42  1  0.48168400  0.77599400  0.16058400  1
  O  O43  1  0.51831600  0.22400600  0.83941600  1
  O  O44  1  0.55109100  0.00927300  0.29756800  1
  O  O45  1  0.44890900  0.99072700  0.70243200  1
  O  O46  1  0.61676200  0.65365300  0.44600400  1
  O  O47  1  0.38323800  0.34634700  0.55399600  1
  O  O48  1  0.78141700  0.54888700  0.10970300  1
  O  O49  1  0.21858300  0.45111300  0.89029700  1
