# generated using pymatgen
data_Fe(SiO3)2
_symmetry_space_group_name_H-M   'P 1'
_cell_length_a   5.32766622
_cell_length_b   5.32766622
_cell_length_c   19.43031089
_cell_angle_alpha   87.19578408
_cell_angle_beta   87.19578408
_cell_angle_gamma   120.86448909
_symmetry_Int_Tables_number   1
_chemical_formula_structural   Fe(SiO3)2
_chemical_formula_sum   'Fe4 Si8 O24'
_cell_volume   471.07475875
_cell_formula_units_Z   4
loop_
 _symmetry_equiv_pos_site_id
 _symmetry_equiv_pos_as_xyz
  1  'x, y, z'
loop_
 _atom_site_type_symbol
 _atom_site_label
 _atom_site_symmetry_multiplicity
 _atom_site_fract_x
 _atom_site_fract_y
 _atom_site_fract_z
 _atom_site_occupancy
  Fe  Fe0  1  0.16320200  0.32971000  0.49990900  1
  Fe  Fe1  1  0.67029000  0.83679800  0.00009100  1
  Fe  Fe2  1  0.83679800  0.67029000  0.50009100  1
  Fe  Fe3  1  0.32971000  0.16320200  0.99990900  1
  Si  Si4  1  0.10704800  0.59991900  0.64471200  1
  Si  Si5  1  0.40008100  0.89295200  0.85528800  1
  Si  Si6  1  0.89295200  0.40008100  0.35528800  1
  Si  Si7  1  0.59991900  0.10704800  0.14471200  1
  Si  Si8  1  0.44721000  0.28856500  0.64479300  1
  Si  Si9  1  0.71143500  0.55279000  0.85520700  1
  Si  Si10  1  0.55279000  0.71143500  0.35520700  1
  Si  Si11  1  0.28856500  0.44721000  0.14479300  1
  O  O12  1  0.10871600  0.58804100  0.55955700  1
  O  O13  1  0.41195900  0.89128400  0.94044300  1
  O  O14  1  0.89128400  0.41195900  0.44044300  1
  O  O15  1  0.58804100  0.10871600  0.05955700  1
  O  O16  1  0.49318500  0.36541400  0.55970500  1
  O  O17  1  0.63458600  0.50681500  0.94029500  1
  O  O18  1  0.50681500  0.63458600  0.44029500  1
  O  O19  1  0.36541400  0.49318500  0.05970500  1
  O  O20  1  0.87615000  0.97873900  0.55077500  1
  O  O21  1  0.02126100  0.12385000  0.94922500  1
  O  O22  1  0.12385000  0.02126100  0.44922500  1
  O  O23  1  0.97873900  0.87615000  0.05077500  1
  O  O24  1  0.27238700  0.93593700  0.66525500  1
  O  O25  1  0.06406300  0.72761300  0.83474500  1
  O  O26  1  0.72761300  0.06406300  0.33474500  1
  O  O27  1  0.93593700  0.27238700  0.16525500  1
  O  O28  1  0.76492500  0.43580600  0.67615300  1
  O  O29  1  0.56419400  0.23507500  0.82384700  1
  O  O30  1  0.23507500  0.56419400  0.32384700  1
  O  O31  1  0.43580600  0.76492500  0.17615300  1
  O  O32  1  0.25951700  0.42708600  0.67672600  1
  O  O33  1  0.57291400  0.74048300  0.82327400  1
  O  O34  1  0.74048300  0.57291400  0.32327400  1
  O  O35  1  0.42708600  0.25951700  0.17672600  1
