# generated using pymatgen
data_H6CN6O5
_symmetry_space_group_name_H-M   'P 1'
_cell_length_a   6.96890300
_cell_length_b   4.18419200
_cell_length_c   14.42855411
_cell_angle_alpha   90.00000000
_cell_angle_beta   101.06089281
_cell_angle_gamma   90.00000000
_symmetry_Int_Tables_number   1
_chemical_formula_structural   H6CN6O5
_chemical_formula_sum   'H12 C2 N12 O10'
_cell_volume   412.91003796
_cell_formula_units_Z   2
loop_
 _symmetry_equiv_pos_site_id
 _symmetry_equiv_pos_as_xyz
  1  'x, y, z'
loop_
 _atom_site_type_symbol
 _atom_site_label
 _atom_site_symmetry_multiplicity
 _atom_site_fract_x
 _atom_site_fract_y
 _atom_site_fract_z
 _atom_site_occupancy
  H  H0  1  0.42389600  0.34695800  0.29970700  1
  H  H1  1  0.42389600  0.65304200  0.79970700  1
  H  H2  1  0.40844800  0.57021200  0.45666600  1
  H  H3  1  0.40844800  0.42978800  0.95666600  1
  H  H4  1  0.03619600  0.72145800  0.37424100  1
  H  H5  1  0.03619600  0.27854200  0.87424100  1
  H  H6  1  0.90157500  0.82542800  0.26281400  1
  H  H7  1  0.90157500  0.17457200  0.76281400  1
  H  H8  1  0.07014800  0.74661200  0.12754400  1
  H  H9  1  0.07014800  0.25338800  0.62754400  1
  H  H10  1  0.28755900  0.52797100  0.14792800  1
  H  H11  1  0.28755900  0.47202900  0.64792800  1
  C  C12  1  0.17072800  0.61522500  0.26576400  1
  C  C13  1  0.17072800  0.38477500  0.76576400  1
  N  N14  1  0.32886800  0.49477400  0.32483800  1
  N  N15  1  0.32886800  0.50522600  0.82483800  1
  N  N16  1  0.76792800  0.03716400  0.10582600  1
  N  N17  1  0.76792800  0.96283600  0.60582600  1
  N  N18  1  0.79264800  0.11348500  0.01483300  1
  N  N19  1  0.79264800  0.88651500  0.51483300  1
  N  N20  1  0.60678400  0.15387500  0.13489200  1
  N  N21  1  0.60678400  0.84612500  0.63489200  1
  N  N22  1  0.02541000  0.73333700  0.30300200  1
  N  N23  1  0.02541000  0.26666300  0.80300200  1
  N  N24  1  0.17052000  0.61608100  0.17304800  1
  N  N25  1  0.17052000  0.38391900  0.67304800  1
  O  O26  1  0.67217000  0.25163300  0.95337500  1
  O  O27  1  0.67217000  0.74836700  0.45337500  1
  O  O28  1  0.95589100  0.01924200  0.00150200  1
  O  O29  1  0.95589100  0.98075800  0.50150200  1
  O  O30  1  0.47598000  0.32385600  0.08690000  1
  O  O31  1  0.47598000  0.67614400  0.58690000  1
  O  O32  1  0.60269300  0.07629000  0.21878000  1
  O  O33  1  0.60269300  0.92371000  0.71878000  1
  O  O34  1  0.30835600  0.43301000  0.41734100  1
  O  O35  1  0.30835600  0.56699000  0.91734100  1
