# generated using pymatgen
data_KYbP2H4O9
_symmetry_space_group_name_H-M   'P 1'
_cell_length_a   11.03757300
_cell_length_b   7.78595800
_cell_length_c   10.36566261
_cell_angle_alpha   88.85117324
_cell_angle_beta   90.00000000
_cell_angle_gamma   90.00000000
_symmetry_Int_Tables_number   1
_chemical_formula_structural   KYbP2H4O9
_chemical_formula_sum   'K4 Yb4 P8 H16 O36'
_cell_volume   890.62607911
_cell_formula_units_Z   4
loop_
 _symmetry_equiv_pos_site_id
 _symmetry_equiv_pos_as_xyz
  1  'x, y, z'
loop_
 _atom_site_type_symbol
 _atom_site_label
 _atom_site_symmetry_multiplicity
 _atom_site_fract_x
 _atom_site_fract_y
 _atom_site_fract_z
 _atom_site_occupancy
  K  K0  1  0.29781600  0.73241100  0.12444800  1
  K  K1  1  0.79781600  0.26758900  0.37555200  1
  K  K2  1  0.70218400  0.26758900  0.87555200  1
  K  K3  1  0.20218400  0.73241100  0.62444800  1
  Yb  Yb4  1  0.37116900  0.24735600  0.17422600  1
  Yb  Yb5  1  0.87116900  0.75264400  0.32577400  1
  Yb  Yb6  1  0.62883100  0.75264400  0.82577400  1
  Yb  Yb7  1  0.12883100  0.24735600  0.67422600  1
  P  P8  1  0.10736500  0.40183000  0.34175500  1
  P  P9  1  0.60736500  0.59817000  0.15824500  1
  P  P10  1  0.89263500  0.59817000  0.65824500  1
  P  P11  1  0.39263500  0.40183000  0.84175500  1
  P  P12  1  0.14152300  0.03192000  0.36633100  1
  P  P13  1  0.64152300  0.96808000  0.13366900  1
  P  P14  1  0.85847700  0.96808000  0.63366900  1
  P  P15  1  0.35847700  0.03192000  0.86633100  1
  H  H16  1  0.17778000  0.55557000  0.90456200  1
  H  H17  1  0.67778000  0.44443000  0.59543800  1
  H  H18  1  0.82222000  0.44443000  0.09543800  1
  H  H19  1  0.32222000  0.55557000  0.40456200  1
  H  H20  1  0.07980300  0.69476200  0.87695600  1
  H  H21  1  0.57980300  0.30523800  0.62304400  1
  H  H22  1  0.92019700  0.30523800  0.12304400  1
  H  H23  1  0.42019700  0.69476200  0.37695600  1
  H  H24  1  0.45115300  0.32399300  0.44950000  1
  H  H25  1  0.95115300  0.67600700  0.05050000  1
  H  H26  1  0.54884700  0.67600700  0.55050000  1
  H  H27  1  0.04884700  0.32399300  0.94950000  1
  H  H28  1  0.52220900  0.16962800  0.40130700  1
  H  H29  1  0.02220900  0.83037200  0.09869300  1
  H  H30  1  0.47779100  0.83037200  0.59869300  1
  H  H31  1  0.97779100  0.16962800  0.90130700  1
  O  O32  1  0.14629400  0.42220100  0.48251300  1
  O  O33  1  0.64629400  0.57779900  0.01748700  1
  O  O34  1  0.85370600  0.57779900  0.51748700  1
  O  O35  1  0.35370600  0.42220100  0.98251300  1
  O  O36  1  0.99441900  0.50366500  0.30384300  1
  O  O37  1  0.49441900  0.49633500  0.19615700  1
  O  O38  1  0.00558100  0.49633500  0.69615700  1
  O  O39  1  0.50558100  0.50366500  0.80384300  1
  O  O40  1  0.21614000  0.43098600  0.25216600  1
  O  O41  1  0.71614000  0.56901400  0.24783400  1
  O  O42  1  0.78386000  0.56901400  0.74783400  1
  O  O43  1  0.28386000  0.43098600  0.75216600  1
  O  O44  1  0.06123400  0.20284600  0.32418000  1
  O  O45  1  0.56123400  0.79715400  0.17582000  1
  O  O46  1  0.93876600  0.79715400  0.67582000  1
  O  O47  1  0.43876600  0.20284600  0.82418000  1
  O  O48  1  0.17264300  0.05054900  0.50907900  1
  O  O49  1  0.67264300  0.94945100  0.99092100  1
  O  O50  1  0.82735700  0.94945100  0.49092100  1
  O  O51  1  0.32735700  0.05054900  0.00907900  1
  O  O52  1  0.05699600  0.88084200  0.34430800  1
  O  O53  1  0.55699600  0.11915800  0.15569200  1
  O  O54  1  0.94300400  0.11915800  0.65569200  1
  O  O55  1  0.44300400  0.88084200  0.84430800  1
  O  O56  1  0.25185800  0.02871900  0.27798400  1
  O  O57  1  0.75185800  0.97128100  0.22201600  1
  O  O58  1  0.74814200  0.97128100  0.72201600  1
  O  O59  1  0.24814200  0.02871900  0.77798400  1
  O  O60  1  0.12821000  0.64365200  0.94603600  1
  O  O61  1  0.62821000  0.35634800  0.55396400  1
  O  O62  1  0.87179000  0.35634800  0.05396400  1
  O  O63  1  0.37179000  0.64365200  0.44603600  1
  O  O64  1  0.44133500  0.21989100  0.39980900  1
  O  O65  1  0.94133500  0.78010900  0.10019100  1
  O  O66  1  0.55866500  0.78010900  0.60019100  1
  O  O67  1  0.05866500  0.21989100  0.89980900  1
