# generated using pymatgen
data_Er2Mo3H2Se2O17
_symmetry_space_group_name_H-M   'P 1'
_cell_length_a   7.28713700
_cell_length_b   6.83018600
_cell_length_c   14.32592520
_cell_angle_alpha   80.40517002
_cell_angle_beta   90.00000000
_cell_angle_gamma   90.00000000
_symmetry_Int_Tables_number   1
_chemical_formula_structural   Er2Mo3H2Se2O17
_chemical_formula_sum   'Er4 Mo6 H4 Se4 O34'
_cell_volume   703.06250976
_cell_formula_units_Z   2
loop_
 _symmetry_equiv_pos_site_id
 _symmetry_equiv_pos_as_xyz
  1  'x, y, z'
loop_
 _atom_site_type_symbol
 _atom_site_label
 _atom_site_symmetry_multiplicity
 _atom_site_fract_x
 _atom_site_fract_y
 _atom_site_fract_z
 _atom_site_occupancy
  Er  Er0  1  0.25000000  0.38994600  0.54151400  1
  Er  Er1  1  0.75000000  0.61005400  0.45848600  1
  Er  Er2  1  0.25000000  0.74154300  0.12259600  1
  Er  Er3  1  0.75000000  0.25845700  0.87740400  1
  Mo  Mo4  1  0.00427400  0.20823200  0.13708400  1
  Mo  Mo5  1  0.50427400  0.79176800  0.86291600  1
  Mo  Mo6  1  0.99572600  0.79176800  0.86291600  1
  Mo  Mo7  1  0.49572600  0.20823200  0.13708400  1
  Mo  Mo8  1  0.75000000  0.12761200  0.33283900  1
  Mo  Mo9  1  0.25000000  0.87238800  0.66716100  1
  H  H10  1  0.35665000  0.24757100  0.36236200  1
  H  H11  1  0.85665000  0.75242900  0.63763800  1
  H  H12  1  0.64335000  0.75242900  0.63763800  1
  H  H13  1  0.14335000  0.24757100  0.36236200  1
  Se  Se14  1  0.25000000  0.78854800  0.38215800  1
  Se  Se15  1  0.75000000  0.21145200  0.61784200  1
  Se  Se16  1  0.75000000  0.74355300  0.18953800  1
  Se  Se17  1  0.25000000  0.25644700  0.81046200  1
  O  O18  1  0.07293900  0.64816300  0.44456700  1
  O  O19  1  0.57293900  0.35183700  0.55543300  1
  O  O20  1  0.92706100  0.35183700  0.55543300  1
  O  O21  1  0.42706100  0.64816300  0.44456700  1
  O  O22  1  0.25000000  0.71054300  0.27485900  1
  O  O23  1  0.75000000  0.28945700  0.72514100  1
  O  O24  1  0.75000000  0.79795800  0.30201800  1
  O  O25  1  0.25000000  0.20204200  0.69798200  1
  O  O26  1  0.94020300  0.88184600  0.14219800  1
  O  O27  1  0.44020300  0.11815400  0.85780200  1
  O  O28  1  0.05979700  0.11815400  0.85780200  1
  O  O29  1  0.55979700  0.88184600  0.14219800  1
  O  O30  1  0.25000000  0.08958500  0.12789200  1
  O  O31  1  0.75000000  0.91041500  0.87210800  1
  O  O32  1  0.93233300  0.23649800  0.01781800  1
  O  O33  1  0.43233300  0.76350200  0.98218200  1
  O  O34  1  0.06766700  0.76350200  0.98218200  1
  O  O35  1  0.56766700  0.23649800  0.01781800  1
  O  O36  1  0.07485400  0.45242300  0.14423200  1
  O  O37  1  0.57485400  0.54757700  0.85576800  1
  O  O38  1  0.92514600  0.54757700  0.85576800  1
  O  O39  1  0.42514600  0.45242300  0.14423200  1
  O  O40  1  0.99728400  0.12214100  0.28645200  1
  O  O41  1  0.49728400  0.87785900  0.71354800  1
  O  O42  1  0.00271600  0.87785900  0.71354800  1
  O  O43  1  0.50271600  0.12214100  0.28645200  1
  O  O44  1  0.75000000  0.23015000  0.17770400  1
  O  O45  1  0.25000000  0.76985000  0.82229600  1
  O  O46  1  0.75000000  0.36904600  0.36415200  1
  O  O47  1  0.25000000  0.63095400  0.63584800  1
  O  O48  1  0.75000000  0.96895800  0.44381200  1
  O  O49  1  0.25000000  0.03104200  0.55618800  1
  O  O50  1  0.25000000  0.30011000  0.39278400  1
  O  O51  1  0.75000000  0.69989000  0.60721600  1
