# generated using pymatgen
data_Ca10Si5(ClO10)2
_symmetry_space_group_name_H-M   'P 1'
_cell_length_a   10.15057018
_cell_length_b   10.15057018
_cell_length_c   15.63347147
_cell_angle_alpha   84.78671540
_cell_angle_beta   84.78671540
_cell_angle_gamma   135.24349771
_symmetry_Int_Tables_number   1
_chemical_formula_structural   Ca10Si5(ClO10)2
_chemical_formula_sum   'Ca20 Si10 Cl4 O40'
_cell_volume   1101.36900697
_cell_formula_units_Z   2
loop_
 _symmetry_equiv_pos_site_id
 _symmetry_equiv_pos_as_xyz
  1  'x, y, z'
loop_
 _atom_site_type_symbol
 _atom_site_label
 _atom_site_symmetry_multiplicity
 _atom_site_fract_x
 _atom_site_fract_y
 _atom_site_fract_z
 _atom_site_occupancy
  Ca  Ca0  1  0.13734300  0.34358200  0.25042600  1
  Ca  Ca1  1  0.65641800  0.86265700  0.24957400  1
  Ca  Ca2  1  0.86265700  0.65641800  0.74957400  1
  Ca  Ca3  1  0.34358200  0.13734300  0.75042600  1
  Ca  Ca4  1  0.37526000  0.48150600  0.88242400  1
  Ca  Ca5  1  0.51849400  0.62474000  0.61757600  1
  Ca  Ca6  1  0.62474000  0.51849400  0.11757600  1
  Ca  Ca7  1  0.48150600  0.37526000  0.38242400  1
  Ca  Ca8  1  0.11910200  0.03237200  0.09651600  1
  Ca  Ca9  1  0.96762800  0.88089800  0.40348400  1
  Ca  Ca10  1  0.88089800  0.96762800  0.90348400  1
  Ca  Ca11  1  0.03237200  0.11910200  0.59651600  1
  Ca  Ca12  1  0.54877600  0.09459800  0.09983900  1
  Ca  Ca13  1  0.90540200  0.45122400  0.40016100  1
  Ca  Ca14  1  0.45122400  0.90540200  0.90016100  1
  Ca  Ca15  1  0.09459800  0.54877600  0.59983900  1
  Ca  Ca16  1  0.06989800  0.59845800  0.10520700  1
  Ca  Ca17  1  0.40154200  0.93010200  0.39479300  1
  Ca  Ca18  1  0.93010200  0.40154200  0.89479300  1
  Ca  Ca19  1  0.59845800  0.06989800  0.60520700  1
  Si  Si20  1  0.98605600  0.75064800  0.93845700  1
  Si  Si21  1  0.24935200  0.01394400  0.56154300  1
  Si  Si22  1  0.01394400  0.24935200  0.06154300  1
  Si  Si23  1  0.75064800  0.98605600  0.43845700  1
  Si  Si24  1  0.56028000  0.32821900  0.93586900  1
  Si  Si25  1  0.67178100  0.43972000  0.56413100  1
  Si  Si26  1  0.43972000  0.67178100  0.06413100  1
  Si  Si27  1  0.32821900  0.56028000  0.43586900  1
  Si  Si28  1  0.72252000  0.27748000  0.25000000  1
  Si  Si29  1  0.27748000  0.72252000  0.75000000  1
  Cl  Cl30  1  0.71232000  0.80607700  0.75451500  1
  Cl  Cl31  1  0.19392300  0.28768000  0.74548500  1
  Cl  Cl32  1  0.28768000  0.19392300  0.24548500  1
  Cl  Cl33  1  0.80607700  0.71232000  0.25451500  1
  O  O34  1  0.20362900  0.46181800  0.08436100  1
  O  O35  1  0.53818200  0.79637100  0.41563900  1
  O  O36  1  0.79637100  0.53818200  0.91563900  1
  O  O37  1  0.46181800  0.20362900  0.58436100  1
  O  O38  1  0.49579300  0.34905400  0.84838800  1
  O  O39  1  0.65094600  0.50420700  0.65161200  1
  O  O40  1  0.50420700  0.65094600  0.15161200  1
  O  O41  1  0.34905400  0.49579300  0.34838800  1
  O  O42  1  0.57232000  0.17574700  0.94444900  1
  O  O43  1  0.82425300  0.42768000  0.55555100  1
  O  O44  1  0.42768000  0.82425300  0.05555100  1
  O  O45  1  0.17574700  0.57232000  0.44444900  1
  O  O46  1  0.62148100  0.27290800  0.34121000  1
  O  O47  1  0.72709200  0.37851900  0.15879000  1
  O  O48  1  0.37851900  0.72709200  0.65879000  1
  O  O49  1  0.27290800  0.62148100  0.84121000  1
  O  O50  1  0.44699900  0.30177600  0.02800700  1
  O  O51  1  0.69822400  0.55300100  0.47199300  1
  O  O52  1  0.55300100  0.69822400  0.97199300  1
  O  O53  1  0.30177600  0.44699900  0.52800700  1
  O  O54  1  0.91322000  0.78834200  0.02137900  1
  O  O55  1  0.21165800  0.08678000  0.47862100  1
  O  O56  1  0.08678000  0.21165800  0.97862100  1
  O  O57  1  0.78834200  0.91322000  0.52137900  1
  O  O58  1  0.90041600  0.05580300  0.34931100  1
  O  O59  1  0.94419700  0.09958300  0.15068900  1
  O  O60  1  0.09958300  0.94419700  0.65068900  1
  O  O61  1  0.05580300  0.90041700  0.84931100  1
  O  O62  1  0.94984900  0.40538900  0.25266900  1
  O  O63  1  0.59461100  0.05015100  0.24733100  1
  O  O64  1  0.05015100  0.59461100  0.74733100  1
  O  O65  1  0.40538900  0.94984900  0.75266900  1
  O  O66  1  0.72750600  0.12360200  0.45878700  1
  O  O67  1  0.87639800  0.27249400  0.04121300  1
  O  O68  1  0.27249400  0.87639800  0.54121300  1
  O  O69  1  0.12360200  0.72750600  0.95878700  1
  O  O70  1  0.21196200  0.88788800  0.13967100  1
  O  O71  1  0.11211200  0.78803800  0.36032900  1
  O  O72  1  0.78803800  0.11211200  0.86032900  1
  O  O73  1  0.88788800  0.21196200  0.63967100  1
