# generated using pymatgen
data_LiPH3NO3
_symmetry_space_group_name_H-M   'P 1'
_cell_length_a   5.07828975
_cell_length_b   8.60424724
_cell_length_c   8.99535295
_cell_angle_alpha   100.74271714
_cell_angle_beta   103.79628885
_cell_angle_gamma   94.61916072
_symmetry_Int_Tables_number   1
_chemical_formula_structural   LiPH3NO3
_chemical_formula_sum   'Li4 P4 H12 N4 O12'
_cell_volume   371.78986293
_cell_formula_units_Z   4
loop_
 _symmetry_equiv_pos_site_id
 _symmetry_equiv_pos_as_xyz
  1  'x, y, z'
loop_
 _atom_site_type_symbol
 _atom_site_label
 _atom_site_symmetry_multiplicity
 _atom_site_fract_x
 _atom_site_fract_y
 _atom_site_fract_z
 _atom_site_occupancy
  Li  Li0  1  0.64415600  0.13272200  0.98995600  1
  Li  Li1  1  0.35584400  0.86727800  0.01004400  1
  Li  Li2  1  0.68502700  0.43000200  0.57172200  1
  Li  Li3  1  0.31497300  0.56999800  0.42827800  1
  P  P4  1  0.89990100  0.76962300  0.50881400  1
  P  P5  1  0.10009900  0.23037700  0.49118600  1
  P  P6  1  0.96579200  0.92688000  0.23248100  1
  P  P7  1  0.03420800  0.07312000  0.76751900  1
  H  H8  1  0.59599000  0.82434700  0.29757900  1
  H  H9  1  0.40401000  0.17565300  0.70242100  1
  H  H10  1  0.63639200  0.90224900  0.65067000  1
  H  H11  1  0.36360800  0.09775100  0.34933000  1
  H  H12  1  0.00258100  0.54348400  0.82911500  1
  H  H13  1  0.99741900  0.45651600  0.17088500  1
  H  H14  1  0.84578800  0.37534300  0.82694800  1
  H  H15  1  0.15421200  0.62465700  0.17305200  1
  H  H16  1  0.30879700  0.70455000  0.74349100  1
  H  H17  1  0.69120300  0.29545000  0.25650900  1
  H  H18  1  0.50320500  0.61149000  0.84783700  1
  H  H19  1  0.49679500  0.38851000  0.15216300  1
  N  N20  1  0.83754700  0.90905600  0.64990400  1
  N  N21  1  0.16245300  0.09094400  0.35009600  1
  N  N22  1  0.80375000  0.83092100  0.33833100  1
  N  N23  1  0.19625000  0.16907900  0.66166900  1
  O  O24  1  0.70692400  0.62076600  0.49159000  1
  O  O25  1  0.29307600  0.37923400  0.50841000  1
  O  O26  1  0.20369400  0.75809900  0.54786600  1
  O  O27  1  0.79630600  0.24190100  0.45213400  1
  O  O28  1  0.83267800  0.17262600  0.82991400  1
  O  O29  1  0.16732200  0.82737400  0.17008600  1
  O  O30  1  0.73440300  0.97020100  0.11282700  1
  O  O31  1  0.26559700  0.02979900  0.88717300  1
  O  O32  1  0.81917100  0.48175000  0.80065800  1
  O  O33  1  0.18082900  0.51825000  0.19934200  1
  O  O34  1  0.34771500  0.67290000  0.84644000  1
  O  O35  1  0.65228500  0.32710000  0.15356000  1
