# generated using pymatgen
data_Cs3B12AsF18
_symmetry_space_group_name_H-M   'P 1'
_cell_length_a   14.30553590
_cell_length_b   14.30553590
_cell_length_c   14.30553590
_cell_angle_alpha   109.47122063
_cell_angle_beta   109.47122063
_cell_angle_gamma   109.47122063
_symmetry_Int_Tables_number   1
_chemical_formula_structural   Cs3B12AsF18
_chemical_formula_sum   'Cs12 B48 As4 F72'
_cell_volume   2253.67093369
_cell_formula_units_Z   4
loop_
 _symmetry_equiv_pos_site_id
 _symmetry_equiv_pos_as_xyz
  1  'x, y, z'
loop_
 _atom_site_type_symbol
 _atom_site_label
 _atom_site_symmetry_multiplicity
 _atom_site_fract_x
 _atom_site_fract_y
 _atom_site_fract_z
 _atom_site_occupancy
  Cs  Cs0  1  0.96800200  0.21800200  0.75000000  1
  Cs  Cs1  1  0.53199800  0.28199800  0.25000000  1
  Cs  Cs2  1  0.21800200  0.75000000  0.96800200  1
  Cs  Cs3  1  0.28199800  0.25000000  0.53199800  1
  Cs  Cs4  1  0.75000000  0.96800200  0.21800200  1
  Cs  Cs5  1  0.25000000  0.53199800  0.28199800  1
  Cs  Cs6  1  0.03199800  0.78199800  0.25000000  1
  Cs  Cs7  1  0.46800200  0.71800200  0.75000000  1
  Cs  Cs8  1  0.78199800  0.25000000  0.03199800  1
  Cs  Cs9  1  0.71800200  0.75000000  0.46800200  1
  Cs  Cs10  1  0.25000000  0.03199800  0.78199800  1
  Cs  Cs11  1  0.75000000  0.46800200  0.71800200  1
  B  B12  1  0.93974600  0.05884900  0.06823500  1
  B  B13  1  0.00938600  0.44115100  0.38089700  1
  B  B14  1  0.56025400  0.62848900  0.11910300  1
  B  B15  1  0.49061400  0.87151100  0.43176500  1
  B  B16  1  0.05884900  0.06823500  0.93974600  1
  B  B17  1  0.44115100  0.38089700  0.00938600  1
  B  B18  1  0.62848900  0.11910300  0.56025400  1
  B  B19  1  0.87151100  0.43176500  0.49061400  1
  B  B20  1  0.06823500  0.93974600  0.05884900  1
  B  B21  1  0.38089700  0.00938600  0.44115100  1
  B  B22  1  0.11910300  0.56025400  0.62848900  1
  B  B23  1  0.43176500  0.49061400  0.87151100  1
  B  B24  1  0.06025400  0.94115100  0.93176500  1
  B  B25  1  0.99061400  0.55884900  0.61910300  1
  B  B26  1  0.43974600  0.37151100  0.88089700  1
  B  B27  1  0.50938600  0.12848900  0.56823500  1
  B  B28  1  0.94115100  0.93176500  0.06025400  1
  B  B29  1  0.55884900  0.61910300  0.99061400  1
  B  B30  1  0.37151100  0.88089700  0.43974600  1
  B  B31  1  0.12848900  0.56823500  0.50938600  1
  B  B32  1  0.93176500  0.06025400  0.94115100  1
  B  B33  1  0.61910300  0.99061400  0.55884900  1
  B  B34  1  0.88089700  0.43974600  0.37151100  1
  B  B35  1  0.56823500  0.50938600  0.12848900  1
  B  B36  1  0.56704400  0.49419700  0.92035500  1
  B  B37  1  0.42615800  0.00580300  0.57284600  1
  B  B38  1  0.93295600  0.85331200  0.92715400  1
  B  B39  1  0.07384200  0.64668800  0.57964500  1
  B  B40  1  0.49419700  0.92035500  0.56704400  1
  B  B41  1  0.00580300  0.57284600  0.42615800  1
  B  B42  1  0.85331200  0.92715400  0.93295600  1
  B  B43  1  0.64668800  0.57964500  0.07384200  1
  B  B44  1  0.92035500  0.56704400  0.49419700  1
  B  B45  1  0.57284600  0.42615800  0.00580300  1
  B  B46  1  0.92715400  0.93295600  0.85331200  1
  B  B47  1  0.57964500  0.07384200  0.64668800  1
  B  B48  1  0.43295600  0.50580300  0.07964500  1
  B  B49  1  0.57384200  0.99419700  0.42715400  1
  B  B50  1  0.06704400  0.14668800  0.07284600  1
  B  B51  1  0.92615800  0.35331200  0.42035500  1
  B  B52  1  0.50580300  0.07964500  0.43295600  1
  B  B53  1  0.99419700  0.42715400  0.57384200  1
  B  B54  1  0.14668800  0.07284600  0.06704400  1
  B  B55  1  0.35331200  0.42035500  0.92615800  1
  B  B56  1  0.07964500  0.43295600  0.50580300  1
  B  B57  1  0.42715400  0.57384200  0.99419700  1
  B  B58  1  0.07284600  0.06704400  0.14668800  1
  B  B59  1  0.42035500  0.92615800  0.35331200  1
  As  As60  1  0.50000000  0.00000000  0.00000000  1
  As  As61  1  0.00000000  0.50000000  0.00000000  1
  As  As62  1  0.00000000  0.00000000  0.50000000  1
  As  As63  1  0.50000000  0.50000000  0.50000000  1
  F  F64  1  0.88810700  0.10546100  0.12253400  1
  F  F65  1  0.01707300  0.39453900  0.28264500  1
  F  F66  1  0.61189300  0.73442800  0.21735500  1
  F  F67  1  0.48292700  0.76557200  0.37746600  1
  F  F68  1  0.10546100  0.12253400  0.88810700  1
  F  F69  1  0.39453900  0.28264500  0.01707300  1
  F  F70  1  0.73442800  0.21735500  0.61189300  1
  F  F71  1  0.76557200  0.37746600  0.48292700  1
  F  F72  1  0.12253400  0.88810700  0.10546100  1
  F  F73  1  0.28264500  0.01707300  0.39453900  1
  F  F74  1  0.21735500  0.61189300  0.73442800  1
  F  F75  1  0.37746600  0.48292700  0.76557200  1
  F  F76  1  0.11189300  0.89453900  0.87746600  1
  F  F77  1  0.98292700  0.60546100  0.71735500  1
  F  F78  1  0.38810700  0.26557200  0.78264500  1
  F  F79  1  0.51707300  0.23442800  0.62253400  1
  F  F80  1  0.89453900  0.87746600  0.11189300  1
  F  F81  1  0.60546100  0.71735500  0.98292700  1
  F  F82  1  0.26557200  0.78264500  0.38810700  1
  F  F83  1  0.23442800  0.62253400  0.51707300  1
  F  F84  1  0.87746600  0.11189300  0.89453900  1
  F  F85  1  0.71735500  0.98292700  0.60546100  1
  F  F86  1  0.78264500  0.38810700  0.26557200  1
  F  F87  1  0.62253400  0.51707300  0.23442800  1
  F  F88  1  0.62036700  0.48935100  0.85479000  1
  F  F89  1  0.36543900  0.01064900  0.63101600  1
  F  F90  1  0.87963300  0.73442300  0.86898400  1
  F  F91  1  0.13456100  0.76557700  0.64521000  1
  F  F92  1  0.48935100  0.85479000  0.62036700  1
  F  F93  1  0.01064900  0.63101600  0.36543900  1
  F  F94  1  0.73442300  0.86898400  0.87963300  1
  F  F95  1  0.76557700  0.64521000  0.13456100  1
  F  F96  1  0.85479000  0.62036700  0.48935100  1
  F  F97  1  0.63101600  0.36543900  0.01064900  1
  F  F98  1  0.86898400  0.87963300  0.73442300  1
  F  F99  1  0.64521000  0.13456100  0.76557700  1
  F  F100  1  0.37963300  0.51064900  0.14521000  1
  F  F101  1  0.63456100  0.98935100  0.36898400  1
  F  F102  1  0.12036700  0.26557700  0.13101600  1
  F  F103  1  0.86543900  0.23442300  0.35479000  1
  F  F104  1  0.51064900  0.14521000  0.37963300  1
  F  F105  1  0.98935100  0.36898400  0.63456100  1
  F  F106  1  0.26557700  0.13101600  0.12036700  1
  F  F107  1  0.23442300  0.35479000  0.86543900  1
  F  F108  1  0.14521000  0.37963300  0.51064900  1
  F  F109  1  0.36898400  0.63456100  0.98935100  1
  F  F110  1  0.13101600  0.12036700  0.26557700  1
  F  F111  1  0.35479000  0.86543900  0.23442300  1
  F  F112  1  0.02876300  0.48794900  0.88610400  1
  F  F113  1  0.39815500  0.01205100  0.04081400  1
  F  F114  1  0.47123700  0.35734100  0.45918600  1
  F  F115  1  0.10184500  0.14265900  0.61389600  1
  F  F116  1  0.48794900  0.88610400  0.02876300  1
  F  F117  1  0.01205100  0.04081400  0.39815500  1
  F  F118  1  0.35734100  0.45918600  0.47123700  1
  F  F119  1  0.14265900  0.61389600  0.10184500  1
  F  F120  1  0.88610400  0.02876300  0.48794900  1
  F  F121  1  0.04081400  0.39815500  0.01205100  1
  F  F122  1  0.45918600  0.47123700  0.35734100  1
  F  F123  1  0.61389600  0.10184500  0.14265900  1
  F  F124  1  0.97123700  0.51205100  0.11389600  1
  F  F125  1  0.60184500  0.98794900  0.95918600  1
  F  F126  1  0.52876300  0.64265900  0.54081400  1
  F  F127  1  0.89815500  0.85734100  0.38610400  1
  F  F128  1  0.51205100  0.11389600  0.97123700  1
  F  F129  1  0.98794900  0.95918600  0.60184500  1
  F  F130  1  0.64265900  0.54081400  0.52876300  1
  F  F131  1  0.85734100  0.38610400  0.89815500  1
  F  F132  1  0.11389600  0.97123700  0.51205100  1
  F  F133  1  0.95918600  0.60184500  0.98794900  1
  F  F134  1  0.54081400  0.52876300  0.64265900  1
  F  F135  1  0.38610400  0.89815500  0.85734100  1
