# generated using pymatgen
data_Ru3C9Se2O9
_symmetry_space_group_name_H-M   'P 1'
_cell_length_a   7.04951100
_cell_length_b   9.80639969
_cell_length_c   13.89004449
_cell_angle_alpha   82.64893986
_cell_angle_beta   85.02839697
_cell_angle_gamma   69.05088034
_symmetry_Int_Tables_number   1
_chemical_formula_structural   Ru3C9Se2O9
_chemical_formula_sum   'Ru6 C18 Se4 O18'
_cell_volume   888.51211494
_cell_formula_units_Z   2
loop_
 _symmetry_equiv_pos_site_id
 _symmetry_equiv_pos_as_xyz
  1  'x, y, z'
loop_
 _atom_site_type_symbol
 _atom_site_label
 _atom_site_symmetry_multiplicity
 _atom_site_fract_x
 _atom_site_fract_y
 _atom_site_fract_z
 _atom_site_occupancy
  Ru  Ru0  1  0.58430200  0.69625300  0.65674800  1
  Ru  Ru1  1  0.41569800  0.30374700  0.34325200  1
  Ru  Ru2  1  0.65934300  0.76723200  0.84261800  1
  Ru  Ru3  1  0.34065700  0.23276800  0.15738200  1
  Ru  Ru4  1  0.71282500  0.39906000  0.75518400  1
  Ru  Ru5  1  0.28717500  0.60094000  0.24481600  1
  C  C6  1  0.69018700  0.59235500  0.54585200  1
  C  C7  1  0.30981300  0.40764500  0.45414800  1
  C  C8  1  0.63448500  0.87377100  0.61486200  1
  C  C9  1  0.36551500  0.12622900  0.38513800  1
  C  C10  1  0.31204100  0.77346300  0.61434400  1
  C  C11  1  0.68795900  0.22653700  0.38565600  1
  C  C12  1  0.83054800  0.88366600  0.81997900  1
  C  C13  1  0.16945200  0.11633400  0.18002100  1
  C  C14  1  0.73980000  0.68879800  0.96994700  1
  C  C15  1  0.26020000  0.31120200  0.03005300  1
  C  C16  1  0.42744500  0.93088300  0.87906800  1
  C  C17  1  0.57255500  0.06911700  0.12093200  1
  C  C18  1  0.51785200  0.31133000  0.73453400  1
  C  C19  1  0.48214800  0.68867000  0.26546600  1
  C  C20  1  0.91912900  0.26993600  0.67505900  1
  C  C21  1  0.08087100  0.73006400  0.32494100  1
  C  C22  1  0.79526800  0.28850900  0.87512900  1
  C  C23  1  0.20473200  0.71149100  0.12487100  1
  Se  Se24  1  0.44423600  0.61742300  0.82113200  1
  Se  Se25  1  0.55576400  0.38257700  0.17886800  1
  Se  Se26  1  0.91150200  0.56998700  0.74866500  1
  Se  Se27  1  0.08849800  0.43001300  0.25133500  1
  O  O28  1  0.75574300  0.53377800  0.47623200  1
  O  O29  1  0.24425700  0.46622200  0.52376800  1
  O  O30  1  0.66389500  0.98137900  0.58546100  1
  O  O31  1  0.33610500  0.01862100  0.41453900  1
  O  O32  1  0.14706200  0.81943900  0.58812200  1
  O  O33  1  0.85293800  0.18056100  0.41187800  1
  O  O34  1  0.93676000  0.95197300  0.80652000  1
  O  O35  1  0.06324000  0.04802700  0.19348000  1
  O  O36  1  0.78761600  0.63640700  0.04797900  1
  O  O37  1  0.21238400  0.36359300  0.95202100  1
  O  O38  1  0.29086400  0.03032900  0.90302100  1
  O  O39  1  0.70913600  0.96967100  0.09697900  1
  O  O40  1  0.40237700  0.25526900  0.72402000  1
  O  O41  1  0.59762300  0.74473100  0.27598000  1
  O  O42  1  0.04449500  0.19240700  0.62741000  1
  O  O43  1  0.95550500  0.80759300  0.37259000  1
  O  O44  1  0.83864000  0.22510900  0.95121800  1
  O  O45  1  0.16136000  0.77489100  0.04878200  1
