# generated using pymatgen
data_Na2(CoO2)3
_symmetry_space_group_name_H-M   'P 1'
_cell_length_a   12.62181099
_cell_length_b   12.62181099
_cell_length_c   12.62181088
_cell_angle_alpha   47.55336034
_cell_angle_beta   47.55336034
_cell_angle_gamma   47.55336305
_symmetry_Int_Tables_number   1
_chemical_formula_structural   Na2(CoO2)3
_chemical_formula_sum   'Na16 Co24 O48'
_cell_volume   1002.05987542
_cell_formula_units_Z   8
loop_
 _symmetry_equiv_pos_site_id
 _symmetry_equiv_pos_as_xyz
  1  'x, y, z'
loop_
 _atom_site_type_symbol
 _atom_site_label
 _atom_site_symmetry_multiplicity
 _atom_site_fract_x
 _atom_site_fract_y
 _atom_site_fract_z
 _atom_site_occupancy
  Na  Na0  1  0.91596800  0.91596800  0.91596800  1
  Na  Na1  1  0.41596800  0.41596800  0.41596800  1
  Na  Na2  1  0.08403200  0.08403200  0.08403200  1
  Na  Na3  1  0.58403200  0.58403200  0.58403200  1
  Na  Na4  1  0.11409800  0.38590200  0.75000000  1
  Na  Na5  1  0.75000000  0.11409800  0.38590200  1
  Na  Na6  1  0.38590200  0.75000000  0.11409800  1
  Na  Na7  1  0.25000000  0.88590200  0.61409800  1
  Na  Na8  1  0.61409800  0.25000000  0.88590200  1
  Na  Na9  1  0.88590200  0.61409800  0.25000000  1
  Na  Na10  1  0.55955100  0.94044900  0.75000000  1
  Na  Na11  1  0.75000000  0.55955100  0.94044900  1
  Na  Na12  1  0.94044900  0.75000000  0.55955100  1
  Na  Na13  1  0.25000000  0.44044900  0.05955100  1
  Na  Na14  1  0.05955100  0.25000000  0.44044900  1
  Na  Na15  1  0.44044900  0.05955100  0.25000000  1
  Co  Co16  1  0.00000000  0.00000000  0.00000000  1
  Co  Co17  1  0.50000000  0.50000000  0.50000000  1
  Co  Co18  1  0.66976900  0.66976900  0.66976900  1
  Co  Co19  1  0.16976900  0.16976900  0.16976900  1
  Co  Co20  1  0.33023100  0.33023100  0.33023100  1
  Co  Co21  1  0.83023100  0.83023100  0.83023100  1
  Co  Co22  1  0.50000000  0.50000000  0.00000000  1
  Co  Co23  1  0.00000000  0.50000000  0.50000000  1
  Co  Co24  1  0.50000000  0.00000000  0.50000000  1
  Co  Co25  1  0.50000000  0.00000000  0.00000000  1
  Co  Co26  1  0.00000000  0.50000000  0.00000000  1
  Co  Co27  1  0.00000000  0.00000000  0.50000000  1
  Co  Co28  1  0.66861500  0.16892100  0.16078700  1
  Co  Co29  1  0.16078700  0.66861500  0.16892100  1
  Co  Co30  1  0.16892100  0.16078700  0.66861500  1
  Co  Co31  1  0.66078700  0.66892100  0.16861500  1
  Co  Co32  1  0.16861500  0.66078700  0.66892100  1
  Co  Co33  1  0.66892100  0.16861500  0.66078700  1
  Co  Co34  1  0.33138500  0.83107900  0.83921300  1
  Co  Co35  1  0.83921300  0.33138500  0.83107900  1
  Co  Co36  1  0.83107900  0.83921300  0.33138500  1
  Co  Co37  1  0.33921300  0.33107900  0.83138500  1
  Co  Co38  1  0.83138500  0.33921300  0.33107900  1
  Co  Co39  1  0.33107900  0.83138500  0.33921300  1
  O  O40  1  0.80759400  0.12905800  0.97020000  1
  O  O41  1  0.97020000  0.80759400  0.12905800  1
  O  O42  1  0.12905800  0.97020000  0.80759400  1
  O  O43  1  0.47020000  0.62905800  0.30759400  1
  O  O44  1  0.30759400  0.47020000  0.62905800  1
  O  O45  1  0.62905800  0.30759400  0.47020000  1
  O  O46  1  0.19240600  0.87094200  0.02980000  1
  O  O47  1  0.02980000  0.19240600  0.87094200  1
  O  O48  1  0.87094200  0.02980000  0.19240600  1
  O  O49  1  0.52980000  0.37094200  0.69240600  1
  O  O50  1  0.69240600  0.52980000  0.37094200  1
  O  O51  1  0.37094200  0.69240600  0.52980000  1
  O  O52  1  0.31363600  0.62892200  0.96971600  1
  O  O53  1  0.96971600  0.31363600  0.62892200  1
  O  O54  1  0.62892200  0.96971600  0.31363600  1
  O  O55  1  0.46971600  0.12892200  0.81363600  1
  O  O56  1  0.81363600  0.46971600  0.12892200  1
  O  O57  1  0.12892200  0.81363600  0.46971600  1
  O  O58  1  0.68636400  0.37107800  0.03028400  1
  O  O59  1  0.03028400  0.68636400  0.37107800  1
  O  O60  1  0.37107800  0.03028400  0.68636400  1
  O  O61  1  0.53028400  0.87107800  0.18636400  1
  O  O62  1  0.18636400  0.53028400  0.87107800  1
  O  O63  1  0.87107800  0.18636400  0.53028400  1
  O  O64  1  0.46757100  0.30897000  0.12407500  1
  O  O65  1  0.12407500  0.46757100  0.30897000  1
  O  O66  1  0.30897000  0.12407500  0.46757100  1
  O  O67  1  0.62407500  0.80897000  0.96757100  1
  O  O68  1  0.96757100  0.62407500  0.80897000  1
  O  O69  1  0.80897000  0.96757100  0.62407500  1
  O  O70  1  0.53242900  0.69103000  0.87592500  1
  O  O71  1  0.87592500  0.53242900  0.69103000  1
  O  O72  1  0.69103000  0.87592500  0.53242900  1
  O  O73  1  0.37592500  0.19103000  0.03242900  1
  O  O74  1  0.03242900  0.37592500  0.19103000  1
  O  O75  1  0.19103000  0.03242900  0.37592500  1
  O  O76  1  0.80937600  0.62947800  0.47408800  1
  O  O77  1  0.47408800  0.80937600  0.62947800  1
  O  O78  1  0.62947800  0.47408800  0.80937600  1
  O  O79  1  0.97408800  0.12947800  0.30937600  1
  O  O80  1  0.30937600  0.97408800  0.12947800  1
  O  O81  1  0.12947800  0.30937600  0.97408800  1
  O  O82  1  0.19062400  0.37052200  0.52591200  1
  O  O83  1  0.52591200  0.19062400  0.37052200  1
  O  O84  1  0.37052200  0.52591200  0.19062400  1
  O  O85  1  0.02591200  0.87052200  0.69062400  1
  O  O86  1  0.69062400  0.02591200  0.87052200  1
  O  O87  1  0.87052200  0.69062400  0.02591200  1
