# generated using pymatgen
data_ScAs2H4NO7
_symmetry_space_group_name_H-M   'P 1'
_cell_length_a   8.04392934
_cell_length_b   8.99291700
_cell_length_c   10.85691300
_cell_angle_alpha   90.00000000
_cell_angle_beta   90.00000000
_cell_angle_gamma   106.80865604
_symmetry_Int_Tables_number   1
_chemical_formula_structural   ScAs2H4NO7
_chemical_formula_sum   'Sc4 As8 H16 N4 O28'
_cell_volume   751.81723804
_cell_formula_units_Z   4
loop_
 _symmetry_equiv_pos_site_id
 _symmetry_equiv_pos_as_xyz
  1  'x, y, z'
loop_
 _atom_site_type_symbol
 _atom_site_label
 _atom_site_symmetry_multiplicity
 _atom_site_fract_x
 _atom_site_fract_y
 _atom_site_fract_z
 _atom_site_occupancy
  Sc  Sc0  1  0.23859500  0.75936100  0.60163600  1
  Sc  Sc1  1  0.76140500  0.74063900  0.10163600  1
  Sc  Sc2  1  0.76140500  0.24063900  0.39836400  1
  Sc  Sc3  1  0.23859500  0.25936100  0.89836400  1
  As  As4  1  0.13363700  0.83137600  0.90574200  1
  As  As5  1  0.86636300  0.66862400  0.40574200  1
  As  As6  1  0.86636300  0.16862400  0.09425800  1
  As  As7  1  0.13363700  0.33137600  0.59425800  1
  As  As8  1  0.43651200  0.18640100  0.63306000  1
  As  As9  1  0.56348800  0.31359900  0.13306000  1
  As  As10  1  0.56348800  0.81359900  0.36694000  1
  As  As11  1  0.43651200  0.68640100  0.86694000  1
  H  H12  1  0.89234100  0.87756700  0.63031300  1
  H  H13  1  0.10765900  0.62243300  0.13031300  1
  H  H14  1  0.10765900  0.12243300  0.36968700  1
  H  H15  1  0.89234100  0.37756700  0.86968700  1
  H  H16  1  0.89743900  0.01332500  0.73936500  1
  H  H17  1  0.10256100  0.48667500  0.23936500  1
  H  H18  1  0.10256100  0.98667500  0.26063500  1
  H  H19  1  0.89743900  0.51332500  0.76063500  1
  H  H20  1  0.77918900  0.00672500  0.61236200  1
  H  H21  1  0.22081100  0.49327500  0.11236200  1
  H  H22  1  0.22081100  0.99327500  0.38763800  1
  H  H23  1  0.77918900  0.50672500  0.88763800  1
  H  H24  1  0.71031100  0.86369900  0.71580300  1
  H  H25  1  0.28968900  0.63630100  0.21580300  1
  H  H26  1  0.28968900  0.13630100  0.28419700  1
  H  H27  1  0.71031100  0.36369900  0.78419700  1
  N  N28  1  0.81972500  0.93983700  0.67611800  1
  N  N29  1  0.18027500  0.56016300  0.17611800  1
  N  N30  1  0.18027500  0.06016300  0.32388200  1
  N  N31  1  0.81972500  0.43983700  0.82388200  1
  O  O32  1  0.15196900  0.52223000  0.59236100  1
  O  O33  1  0.84803100  0.97777000  0.09236100  1
  O  O34  1  0.84803100  0.47777000  0.40763900  1
  O  O35  1  0.15196900  0.02223000  0.90763900  1
  O  O36  1  0.31133600  0.00252400  0.60821200  1
  O  O37  1  0.68866400  0.49747600  0.10821200  1
  O  O38  1  0.68866400  0.99747600  0.39178800  1
  O  O39  1  0.31133600  0.50252400  0.89178800  1
  O  O40  1  0.00665300  0.77347300  0.51293200  1
  O  O41  1  0.99334700  0.72652700  0.01293200  1
  O  O42  1  0.99334700  0.22652700  0.48706800  1
  O  O43  1  0.00665300  0.27347300  0.98706800  1
  O  O44  1  0.08566900  0.74943500  0.76401700  1
  O  O45  1  0.91433100  0.75056500  0.26401700  1
  O  O46  1  0.91433100  0.25056500  0.23598300  1
  O  O47  1  0.08566900  0.24943500  0.73598300  1
  O  O48  1  0.36193700  0.77492500  0.42858100  1
  O  O49  1  0.63806300  0.72507500  0.92858100  1
  O  O50  1  0.63806300  0.22507500  0.57141900  1
  O  O51  1  0.36193700  0.27492500  0.07141900  1
  O  O52  1  0.45280600  0.74940800  0.71794400  1
  O  O53  1  0.54719400  0.75059200  0.21794400  1
  O  O54  1  0.54719400  0.25059200  0.28205600  1
  O  O55  1  0.45280600  0.24940800  0.78205600  1
  O  O56  1  0.33939100  0.31053200  0.54642300  1
  O  O57  1  0.66060900  0.18946800  0.04642300  1
  O  O58  1  0.66060900  0.68946800  0.45357700  1
  O  O59  1  0.33939100  0.81053200  0.95357700  1
