# generated using pymatgen
data_AsBrKr2OF12
_symmetry_space_group_name_H-M   'P 1'
_cell_length_a   14.10849900
_cell_length_b   6.01462800
_cell_length_c   15.73562427
_cell_angle_alpha   67.74247538
_cell_angle_beta   90.00000000
_cell_angle_gamma   90.00000000
_symmetry_Int_Tables_number   1
_chemical_formula_structural   AsBrKr2OF12
_chemical_formula_sum   'As4 Br4 Kr8 O4 F48'
_cell_volume   1235.79277484
_cell_formula_units_Z   4
loop_
 _symmetry_equiv_pos_site_id
 _symmetry_equiv_pos_as_xyz
  1  'x, y, z'
loop_
 _atom_site_type_symbol
 _atom_site_label
 _atom_site_symmetry_multiplicity
 _atom_site_fract_x
 _atom_site_fract_y
 _atom_site_fract_z
 _atom_site_occupancy
  As  As0  1  0.23157000  0.71060000  0.29430500  1
  As  As1  1  0.73157000  0.28940000  0.20569500  1
  As  As2  1  0.76843000  0.28940000  0.70569500  1
  As  As3  1  0.26843000  0.71060000  0.79430500  1
  Br  Br4  1  0.39718900  0.16707500  0.09711300  1
  Br  Br5  1  0.89718900  0.83292500  0.40288700  1
  Br  Br6  1  0.60281100  0.83292500  0.90288700  1
  Br  Br7  1  0.10281100  0.16707500  0.59711300  1
  Kr  Kr8  1  0.54254900  0.69780700  0.30217300  1
  Kr  Kr9  1  0.04254900  0.30219300  0.19782700  1
  Kr  Kr10  1  0.45745100  0.30219300  0.69782700  1
  Kr  Kr11  1  0.95745100  0.69780700  0.80217300  1
  Kr  Kr12  1  0.16298500  0.04213700  0.96621900  1
  Kr  Kr13  1  0.66298500  0.95786300  0.53378100  1
  Kr  Kr14  1  0.83701500  0.95786300  0.03378100  1
  Kr  Kr15  1  0.33701500  0.04213700  0.46621900  1
  O  O16  1  0.46689700  0.23619400  0.01154600  1
  O  O17  1  0.96689700  0.76380600  0.48845400  1
  O  O18  1  0.53310300  0.76380600  0.98845400  1
  O  O19  1  0.03310300  0.23619400  0.51154600  1
  F  F20  1  0.45527500  0.29498500  0.16896900  1
  F  F21  1  0.95527500  0.70501500  0.33103100  1
  F  F22  1  0.54472500  0.70501500  0.83103100  1
  F  F23  1  0.04472500  0.29498500  0.66896900  1
  F  F24  1  0.31633900  0.41409500  0.06119200  1
  F  F25  1  0.81633900  0.58590500  0.43880800  1
  F  F26  1  0.68366100  0.58590500  0.93880800  1
  F  F27  1  0.18366100  0.41409500  0.56119200  1
  F  F28  1  0.48999000  0.83229700  0.17477300  1
  F  F29  1  0.98999000  0.16770300  0.32522700  1
  F  F30  1  0.51001000  0.16770300  0.82522700  1
  F  F31  1  0.01001000  0.83229700  0.67477300  1
  F  F32  1  0.59256200  0.56684300  0.42264000  1
  F  F33  1  0.09256200  0.43315700  0.07736000  1
  F  F34  1  0.40743800  0.43315700  0.57736000  1
  F  F35  1  0.90743800  0.56684300  0.92264000  1
  F  F36  1  0.28903900  0.00057400  0.23959700  1
  F  F37  1  0.78903900  0.99942600  0.26040300  1
  F  F38  1  0.71096100  0.99942600  0.76040300  1
  F  F39  1  0.21096100  0.00057400  0.73959700  1
  F  F40  1  0.28626400  0.98055900  0.03253200  1
  F  F41  1  0.78626400  0.01944100  0.46746800  1
  F  F42  1  0.71373600  0.01944100  0.96746800  1
  F  F43  1  0.21373600  0.98055900  0.53253200  1
  F  F44  1  0.16438200  0.83318800  0.36055400  1
  F  F45  1  0.66438200  0.16681200  0.13944600  1
  F  F46  1  0.83561800  0.16681200  0.63944600  1
  F  F47  1  0.33561800  0.83318800  0.86055400  1
  F  F48  1  0.14344000  0.80157800  0.20722600  1
  F  F49  1  0.64344000  0.19842200  0.29277400  1
  F  F50  1  0.85656000  0.19842200  0.79277400  1
  F  F51  1  0.35656000  0.80157800  0.70722600  1
  F  F52  1  0.32183600  0.62994000  0.37975400  1
  F  F53  1  0.82183600  0.37006000  0.12024600  1
  F  F54  1  0.67816400  0.37006000  0.62024600  1
  F  F55  1  0.17816400  0.62994000  0.87975400  1
  F  F56  1  0.30186700  0.59935200  0.22640600  1
  F  F57  1  0.80186700  0.40064800  0.27359400  1
  F  F58  1  0.69813300  0.40064800  0.77359400  1
  F  F59  1  0.19813300  0.59935200  0.72640600  1
  F  F60  1  0.17634300  0.42817100  0.34768700  1
  F  F61  1  0.67634300  0.57182900  0.15231300  1
  F  F62  1  0.82365700  0.57182900  0.65231300  1
  F  F63  1  0.32365700  0.42817100  0.84768700  1
  F  F64  1  0.04532500  0.09452000  0.90293300  1
  F  F65  1  0.54532500  0.90548000  0.59706700  1
  F  F66  1  0.95467500  0.90548000  0.09706700  1
  F  F67  1  0.45467500  0.09452000  0.40293300  1
