# generated using pymatgen
data_Zn4Cu5(TeO6)3
_symmetry_space_group_name_H-M   'P 1'
_cell_length_a   8.73092794
_cell_length_b   8.73092794
_cell_length_c   10.54364598
_cell_angle_alpha   86.64337189
_cell_angle_beta   86.64337189
_cell_angle_gamma   60.86110039
_symmetry_Int_Tables_number   1
_chemical_formula_structural   Zn4Cu5(TeO6)3
_chemical_formula_sum   'Zn8 Cu10 Te6 O36'
_cell_volume   700.39334433
_cell_formula_units_Z   2
loop_
 _symmetry_equiv_pos_site_id
 _symmetry_equiv_pos_as_xyz
  1  'x, y, z'
loop_
 _atom_site_type_symbol
 _atom_site_label
 _atom_site_symmetry_multiplicity
 _atom_site_fract_x
 _atom_site_fract_y
 _atom_site_fract_z
 _atom_site_occupancy
  Zn  Zn0  1  0.43877800  0.51517300  0.79999400  1
  Zn  Zn1  1  0.48482700  0.56122200  0.20000600  1
  Zn  Zn2  1  0.12717000  0.82964800  0.29916000  1
  Zn  Zn3  1  0.17035200  0.87283000  0.70084000  1
  Zn  Zn4  1  0.46232100  0.13338400  0.67565300  1
  Zn  Zn5  1  0.86661600  0.53767900  0.32434700  1
  Zn  Zn6  1  0.74078900  0.85587300  0.17567400  1
  Zn  Zn7  1  0.14412700  0.25921100  0.82432600  1
  Cu  Cu8  1  0.98716900  0.01283100  0.00000000  1
  Cu  Cu9  1  0.93588700  0.74150700  0.80165200  1
  Cu  Cu10  1  0.25849300  0.06411300  0.19834800  1
  Cu  Cu11  1  0.34120500  0.33793500  0.30139500  1
  Cu  Cu12  1  0.66206500  0.65879500  0.69860500  1
  Cu  Cu13  1  0.50599400  0.19912200  0.01101100  1
  Cu  Cu14  1  0.80087800  0.49400600  0.98898900  1
  Cu  Cu15  1  0.80752900  0.89262000  0.51069600  1
  Cu  Cu16  1  0.10738000  0.19247100  0.48930400  1
  Cu  Cu17  1  0.62172000  0.37828000  0.50000000  1
  Te  Te18  1  0.80445100  0.19464000  0.25078100  1
  Te  Te19  1  0.80536000  0.19554900  0.74921900  1
  Te  Te20  1  0.13897600  0.53796900  0.05321000  1
  Te  Te21  1  0.46203100  0.86102400  0.94679000  1
  Te  Te22  1  0.14598100  0.53199700  0.55371500  1
  Te  Te23  1  0.46800300  0.85401900  0.44628500  1
  O  O24  1  0.22786600  0.61919700  0.68483600  1
  O  O25  1  0.38080300  0.77213400  0.31516400  1
  O  O26  1  0.36868200  0.43361000  0.45526200  1
  O  O27  1  0.56639000  0.63131800  0.54473800  1
  O  O28  1  0.54058500  0.96946800  0.07233900  1
  O  O29  1  0.03053200  0.45941500  0.92766100  1
  O  O30  1  0.04330700  0.75990300  0.95383200  1
  O  O31  1  0.24009700  0.95669300  0.04616800  1
  O  O32  1  0.23010400  0.61646600  0.18519300  1
  O  O33  1  0.38353400  0.76989600  0.81480700  1
  O  O34  1  0.71529300  0.43374600  0.30835500  1
  O  O35  1  0.56625400  0.28470700  0.69164500  1
  O  O36  1  0.56785300  0.28676400  0.18562200  1
  O  O37  1  0.71323600  0.43214700  0.81437800  1
  O  O38  1  0.04092200  0.10350300  0.31587200  1
  O  O39  1  0.89649700  0.95907800  0.68412800  1
  O  O40  1  0.06923800  0.42341100  0.42605600  1
  O  O41  1  0.57658900  0.93076200  0.57394400  1
  O  O42  1  0.89510900  0.95615600  0.19176600  1
  O  O43  1  0.04384400  0.10489100  0.80823400  1
  O  O44  1  0.04602400  0.75050800  0.45159100  1
  O  O45  1  0.24949200  0.95397600  0.54840900  1
  O  O46  1  0.35811900  0.43544700  0.95165800  1
  O  O47  1  0.56455300  0.64188100  0.04834200  1
  O  O48  1  0.75148400  0.11092400  0.91330800  1
  O  O49  1  0.88907600  0.24851600  0.08669200  1
  O  O50  1  0.72069400  0.13978600  0.41453700  1
  O  O51  1  0.86021400  0.27930600  0.58546300  1
  O  O52  1  0.39449300  0.08442100  0.85291600  1
  O  O53  1  0.91557900  0.60550700  0.14708400  1
  O  O54  1  0.69184500  0.78873400  0.35306400  1
  O  O55  1  0.21126600  0.30815500  0.64693600  1
  O  O56  1  0.25174000  0.30590900  0.14432600  1
  O  O57  1  0.69409100  0.74826000  0.85567400  1
  O  O58  1  0.91209900  0.64681500  0.64173500  1
  O  O59  1  0.35318500  0.08790100  0.35826500  1
