# generated using pymatgen
data_Mg2PO8
_symmetry_space_group_name_H-M   'P 1'
_cell_length_a   4.64405899
_cell_length_b   10.08439621
_cell_length_c   12.06834600
_cell_angle_alpha   90.00000000
_cell_angle_beta   90.00000000
_cell_angle_gamma   100.84955083
_symmetry_Int_Tables_number   1
_chemical_formula_structural   Mg2PO8
_chemical_formula_sum   'Mg8 P4 O32'
_cell_volume   555.08829898
_cell_formula_units_Z   4
loop_
 _symmetry_equiv_pos_site_id
 _symmetry_equiv_pos_as_xyz
  1  'x, y, z'
loop_
 _atom_site_type_symbol
 _atom_site_label
 _atom_site_symmetry_multiplicity
 _atom_site_fract_x
 _atom_site_fract_y
 _atom_site_fract_z
 _atom_site_occupancy
  Mg  Mg0  1  0.09532100  0.68263100  0.01025100  1
  Mg  Mg1  1  0.90467900  0.81736900  0.51025100  1
  Mg  Mg2  1  0.90467900  0.31736900  0.98974900  1
  Mg  Mg3  1  0.09532100  0.18263100  0.48974900  1
  Mg  Mg4  1  0.97787600  0.51749200  0.23444800  1
  Mg  Mg5  1  0.02212400  0.98250800  0.73444800  1
  Mg  Mg6  1  0.02212400  0.48250800  0.76555200  1
  Mg  Mg7  1  0.97787600  0.01749200  0.26555200  1
  P  P8  1  0.59851900  0.74482600  0.18630800  1
  P  P9  1  0.40148100  0.75517400  0.68630800  1
  P  P10  1  0.40148100  0.25517400  0.81369200  1
  P  P11  1  0.59851900  0.24482600  0.31369200  1
  O  O12  1  0.58840500  0.88952100  0.22856400  1
  O  O13  1  0.41159500  0.61047900  0.72856400  1
  O  O14  1  0.41159500  0.11047900  0.77143600  1
  O  O15  1  0.58840500  0.38952100  0.27143600  1
  O  O16  1  0.75934300  0.67085300  0.27247700  1
  O  O17  1  0.24065700  0.82914700  0.77247700  1
  O  O18  1  0.24065700  0.32914700  0.72752300  1
  O  O19  1  0.75934300  0.17085300  0.22752300  1
  O  O20  1  0.29167900  0.66185000  0.16300900  1
  O  O21  1  0.70832100  0.83815000  0.66300900  1
  O  O22  1  0.70832100  0.33815000  0.83699100  1
  O  O23  1  0.29167900  0.16185000  0.33699100  1
  O  O24  1  0.77205600  0.76413300  0.07490800  1
  O  O25  1  0.22794400  0.73586700  0.57490800  1
  O  O26  1  0.22794400  0.23586700  0.92509200  1
  O  O27  1  0.77205600  0.26413300  0.42509200  1
  O  O28  1  0.82703500  0.48917300  0.06416900  1
  O  O29  1  0.17296500  0.01082700  0.56416900  1
  O  O30  1  0.17296500  0.51082700  0.93583100  1
  O  O31  1  0.82703500  0.98917300  0.43583100  1
  O  O32  1  0.91806700  0.64812400  0.85126400  1
  O  O33  1  0.08193300  0.85187600  0.35126400  1
  O  O34  1  0.08193300  0.35187600  0.14873600  1
  O  O35  1  0.91806700  0.14812400  0.64873600  1
  O  O36  1  0.43211800  0.85901800  0.97412400  1
  O  O37  1  0.56788200  0.64098200  0.47412400  1
  O  O38  1  0.56788200  0.14098200  0.02587600  1
  O  O39  1  0.43211800  0.35901800  0.52587600  1
  O  O40  1  0.26418800  0.46817600  0.38711700  1
  O  O41  1  0.73581200  0.03182400  0.88711700  1
  O  O42  1  0.73581200  0.53182400  0.61288300  1
  O  O43  1  0.26418800  0.96817600  0.11288300  1
