# generated using pymatgen
data_KSmH2S2O9
_symmetry_space_group_name_H-M   'P 1'
_cell_length_a   8.55288900
_cell_length_b   10.12993500
_cell_length_c   10.45975500
_cell_angle_alpha   61.40281722
_cell_angle_beta   90.00000000
_cell_angle_gamma   90.00000000
_symmetry_Int_Tables_number   1
_chemical_formula_structural   KSmH2S2O9
_chemical_formula_sum   'K4 Sm4 H8 S8 O36'
_cell_volume   795.68055233
_cell_formula_units_Z   4
loop_
 _symmetry_equiv_pos_site_id
 _symmetry_equiv_pos_as_xyz
  1  'x, y, z'
loop_
 _atom_site_type_symbol
 _atom_site_label
 _atom_site_symmetry_multiplicity
 _atom_site_fract_x
 _atom_site_fract_y
 _atom_site_fract_z
 _atom_site_occupancy
  K  K0  1  0.81500300  0.21390500  0.30759800  1
  K  K1  1  0.31500300  0.78609500  0.19240200  1
  K  K2  1  0.18499700  0.78609500  0.69240200  1
  K  K3  1  0.68499700  0.21390500  0.80759800  1
  Sm  Sm4  1  0.84669100  0.73890800  0.03226200  1
  Sm  Sm5  1  0.34669100  0.26109200  0.46773800  1
  Sm  Sm6  1  0.15330900  0.26109200  0.96773800  1
  Sm  Sm7  1  0.65330900  0.73890800  0.53226200  1
  H  H8  1  0.51426100  0.71417300  0.94689300  1
  H  H9  1  0.01426100  0.28582700  0.55310700  1
  H  H10  1  0.48573900  0.28582700  0.05310700  1
  H  H11  1  0.98573900  0.71417300  0.44689300  1
  H  H12  1  0.51940800  0.59211100  0.11092600  1
  H  H13  1  0.01940800  0.40788900  0.38907400  1
  H  H14  1  0.48059200  0.40788900  0.88907400  1
  H  H15  1  0.98059200  0.59211100  0.61092600  1
  S  S16  1  0.18685200  0.48463800  0.11006800  1
  S  S17  1  0.68685200  0.51536200  0.38993200  1
  S  S18  1  0.81314800  0.51536200  0.88993200  1
  S  S19  1  0.31314800  0.48463800  0.61006800  1
  S  S20  1  0.86771100  0.94966400  0.17763800  1
  S  S21  1  0.36771100  0.05033600  0.32236200  1
  S  S22  1  0.13228900  0.05033600  0.82236200  1
  S  S23  1  0.63228900  0.94966400  0.67763800  1
  O  O24  1  0.31488900  0.45858400  0.21726100  1
  O  O25  1  0.81488900  0.54141600  0.28273900  1
  O  O26  1  0.68511100  0.54141600  0.78273900  1
  O  O27  1  0.18511100  0.45858400  0.71726100  1
  O  O28  1  0.07916600  0.59632400  0.11706000  1
  O  O29  1  0.57916600  0.40367600  0.38294000  1
  O  O30  1  0.92083400  0.40367600  0.88294000  1
  O  O31  1  0.42083400  0.59632400  0.61706000  1
  O  O32  1  0.10339300  0.33947000  0.15257400  1
  O  O33  1  0.60339300  0.66053000  0.34742600  1
  O  O34  1  0.89660700  0.66053000  0.84742600  1
  O  O35  1  0.39660700  0.33947000  0.65257400  1
  O  O36  1  0.25174200  0.53800400  0.96225800  1
  O  O37  1  0.75174200  0.46199600  0.53774200  1
  O  O38  1  0.74825800  0.46199600  0.03774200  1
  O  O39  1  0.24825800  0.53800400  0.46225800  1
  O  O40  1  0.78677800  0.92893400  0.31146900  1
  O  O41  1  0.28677800  0.07106600  0.18853100  1
  O  O42  1  0.21322200  0.07106600  0.68853100  1
  O  O43  1  0.71322200  0.92893400  0.81146900  1
  O  O44  1  0.94640400  0.09870500  0.11233300  1
  O  O45  1  0.44640400  0.90129500  0.38766700  1
  O  O46  1  0.05359600  0.90129500  0.88766700  1
  O  O47  1  0.55359600  0.09870500  0.61233300  1
  O  O48  1  0.75378600  0.94582900  0.07039200  1
  O  O49  1  0.25378600  0.05417100  0.42960800  1
  O  O50  1  0.24621400  0.05417100  0.92960800  1
  O  O51  1  0.74621400  0.94582900  0.57039200  1
  O  O52  1  0.98125500  0.82471300  0.21133300  1
  O  O53  1  0.48125500  0.17528700  0.28866700  1
  O  O54  1  0.01874500  0.17528700  0.78866700  1
  O  O55  1  0.51874500  0.82471300  0.71133300  1
  O  O56  1  0.55391200  0.69476300  0.04233200  1
  O  O57  1  0.05391200  0.30523700  0.45766800  1
  O  O58  1  0.44608800  0.30523700  0.95766800  1
  O  O59  1  0.94608800  0.69476300  0.54233200  1
