# generated using pymatgen
data_K4Ge2B8H2O19
_symmetry_space_group_name_H-M   'P 1'
_cell_length_a   6.89255800
_cell_length_b   7.05369366
_cell_length_c   20.66456099
_cell_angle_alpha   91.93044980
_cell_angle_beta   90.00000000
_cell_angle_gamma   119.24715537
_symmetry_Int_Tables_number   1
_chemical_formula_structural   K4Ge2B8H2O19
_chemical_formula_sum   'K8 Ge4 B16 H4 O38'
_cell_volume   875.94091442
_cell_formula_units_Z   2
loop_
 _symmetry_equiv_pos_site_id
 _symmetry_equiv_pos_as_xyz
  1  'x, y, z'
loop_
 _atom_site_type_symbol
 _atom_site_label
 _atom_site_symmetry_multiplicity
 _atom_site_fract_x
 _atom_site_fract_y
 _atom_site_fract_z
 _atom_site_occupancy
  K  K0  1  0.02847400  0.71877300  0.20264400  1
  K  K1  1  0.30970100  0.28122700  0.29735600  1
  K  K2  1  0.97152600  0.28122700  0.79735600  1
  K  K3  1  0.69029900  0.71877300  0.70264400  1
  K  K4  1  0.27828000  0.73893000  0.01255400  1
  K  K5  1  0.53935000  0.26107000  0.48744600  1
  K  K6  1  0.72172000  0.26107000  0.98744600  1
  K  K7  1  0.46065000  0.73893000  0.51255400  1
  Ge  Ge8  1  0.66356000  0.04161300  0.17550100  1
  Ge  Ge9  1  0.62194600  0.95838700  0.32449900  1
  Ge  Ge10  1  0.33644000  0.95838700  0.82449900  1
  Ge  Ge11  1  0.37805400  0.04161300  0.67550100  1
  B  B12  1  0.51346500  0.58860000  0.14927800  1
  B  B13  1  0.92486500  0.41140000  0.35072200  1
  B  B14  1  0.48653500  0.41140000  0.85072200  1
  B  B15  1  0.07513500  0.58860000  0.64927800  1
  B  B16  1  0.40551600  0.21437200  0.11603400  1
  B  B17  1  0.19114400  0.78562800  0.38396600  1
  B  B18  1  0.59448400  0.78562800  0.88396600  1
  B  B19  1  0.80885600  0.21437200  0.61603400  1
  B  B20  1  0.12040700  0.29802700  0.14653200  1
  B  B21  1  0.82238000  0.70197300  0.35346800  1
  B  B22  1  0.87959300  0.70197300  0.85346800  1
  B  B23  1  0.17762000  0.29802700  0.64653200  1
  B  B24  1  0.16795900  0.24005800  0.03138000  1
  B  B25  1  0.92790100  0.75994200  0.46862000  1
  B  B26  1  0.83204100  0.75994200  0.96862000  1
  B  B27  1  0.07209900  0.24005800  0.53138000  1
  H  H28  1  0.81758200  0.78379900  0.06662300  1
  H  H29  1  0.03378400  0.21620100  0.43337700  1
  H  H30  1  0.18241800  0.21620100  0.93337700  1
  H  H31  1  0.96621600  0.78379900  0.56662300  1
  O  O32  1  0.21322400  0.15429600  0.15670600  1
  O  O33  1  0.05892800  0.84570400  0.34329400  1
  O  O34  1  0.78677600  0.84570400  0.84329400  1
  O  O35  1  0.94107200  0.15429600  0.65670600  1
  O  O36  1  0.93467100  0.25606200  0.18983200  1
  O  O37  1  0.67861000  0.74393800  0.31016800  1
  O  O38  1  0.06532900  0.74393800  0.81016800  1
  O  O39  1  0.32139000  0.25606200  0.68983200  1
  O  O40  1  0.51841300  0.00000000  0.25000000  1
  O  O41  1  0.48158700  0.00000000  0.75000000  1
  O  O42  1  0.68366400  0.80656900  0.14973300  1
  O  O43  1  0.87709600  0.19343100  0.35026700  1
  O  O44  1  0.31633600  0.19343100  0.85026700  1
  O  O45  1  0.12290400  0.80656900  0.64973300  1
  O  O46  1  0.58313500  0.44068600  0.13467700  1
  O  O47  1  0.14244900  0.55931400  0.36532300  1
  O  O48  1  0.41686500  0.55931400  0.86532300  1
  O  O49  1  0.85755100  0.44068600  0.63467700  1
  O  O50  1  0.89696900  0.75421200  0.03206600  1
  O  O51  1  0.14275700  0.24578800  0.46793400  1
  O  O52  1  0.10303100  0.24578800  0.96793400  1
  O  O53  1  0.85724300  0.75421200  0.53206600  1
  O  O54  1  0.49485800  0.06231500  0.11602500  1
  O  O55  1  0.43254300  0.93768500  0.38397500  1
  O  O56  1  0.50514200  0.93768500  0.88397500  1
  O  O57  1  0.56745700  0.06231500  0.61602500  1
  O  O58  1  0.95242300  0.71826900  0.92290600  1
  O  O59  1  0.23415400  0.28173100  0.57709400  1
  O  O60  1  0.04757700  0.28173100  0.07709400  1
  O  O61  1  0.76584600  0.71826900  0.42290600  1
  O  O62  1  0.29664900  0.53446600  0.15991900  1
  O  O63  1  0.76218300  0.46553400  0.34008100  1
  O  O64  1  0.70335100  0.46553400  0.84008100  1
  O  O65  1  0.23781700  0.53446600  0.65991900  1
  O  O66  1  0.65451600  0.78833000  0.95490900  1
  O  O67  1  0.86618600  0.21167000  0.54509100  1
  O  O68  1  0.34548400  0.21167000  0.04509100  1
  O  O69  1  0.13381400  0.78833000  0.45490900  1
