# generated using pymatgen
data_RbB6(HO)8
_symmetry_space_group_name_H-M   'P 1'
_cell_length_a   8.61556400
_cell_length_b   9.13386699
_cell_length_c   13.16249800
_cell_angle_alpha   90.00000000
_cell_angle_beta   90.00000000
_cell_angle_gamma   118.13998698
_symmetry_Int_Tables_number   1
_chemical_formula_structural   RbB6(HO)8
_chemical_formula_sum   'Rb4 B24 H32 O32'
_cell_volume   913.36799345
_cell_formula_units_Z   4
loop_
 _symmetry_equiv_pos_site_id
 _symmetry_equiv_pos_as_xyz
  1  'x, y, z'
loop_
 _atom_site_type_symbol
 _atom_site_label
 _atom_site_symmetry_multiplicity
 _atom_site_fract_x
 _atom_site_fract_y
 _atom_site_fract_z
 _atom_site_occupancy
  Rb  Rb0  1  0.17895800  0.35791600  0.50000000  1
  Rb  Rb1  1  0.67895800  0.35791600  0.00000000  1
  Rb  Rb2  1  0.82104200  0.64208400  0.50000000  1
  Rb  Rb3  1  0.32104200  0.64208400  0.00000000  1
  B  B4  1  0.30823600  0.00000000  0.46794200  1
  B  B5  1  0.69176400  0.00000000  0.53205800  1
  B  B6  1  0.19176400  0.00000000  0.96794200  1
  B  B7  1  0.80823600  0.00000000  0.03205800  1
  B  B8  1  0.56518200  0.88719700  0.42408800  1
  B  B9  1  0.32201500  0.88719700  0.57591200  1
  B  B10  1  0.82201500  0.88719700  0.92408800  1
  B  B11  1  0.06518200  0.88719700  0.07591200  1
  B  B12  1  0.43481800  0.11280300  0.57591200  1
  B  B13  1  0.67798500  0.11280300  0.42408800  1
  B  B14  1  0.17798500  0.11280300  0.07591200  1
  B  B15  1  0.93481800  0.11280300  0.92408800  1
  B  B16  1  0.48242500  0.81715800  0.54860700  1
  B  B17  1  0.33473300  0.81715800  0.45139300  1
  B  B18  1  0.83473300  0.81715800  0.04860700  1
  B  B19  1  0.98242500  0.81715800  0.95139300  1
  B  B20  1  0.51757500  0.18284200  0.45139300  1
  B  B21  1  0.66526700  0.18284200  0.54860700  1
  B  B22  1  0.16526700  0.18284200  0.95139300  1
  B  B23  1  0.01757500  0.18284200  0.04860700  1
  B  B24  1  0.04352500  0.00000000  0.87681900  1
  B  B25  1  0.95647500  0.00000000  0.12318100  1
  B  B26  1  0.45647500  0.00000000  0.37681900  1
  B  B27  1  0.54352500  0.00000000  0.62318100  1
  H  H28  1  0.15100000  0.00000000  0.36279900  1
  H  H29  1  0.84900000  0.00000000  0.63720100  1
  H  H30  1  0.34900000  0.00000000  0.86279900  1
  H  H31  1  0.65100000  0.00000000  0.13720100  1
  H  H32  1  0.72119200  0.85873100  0.31481100  1
  H  H33  1  0.13753800  0.85873100  0.68518900  1
  H  H34  1  0.63753800  0.85873100  0.81481100  1
  H  H35  1  0.22119200  0.85873100  0.18518900  1
  H  H36  1  0.27880800  0.14126900  0.68518900  1
  H  H37  1  0.86246200  0.14126900  0.31481100  1
  H  H38  1  0.36246200  0.14126900  0.18518900  1
  H  H39  1  0.77880800  0.14126900  0.81481100  1
  H  H40  1  0.44364300  0.65092400  0.65943200  1
  H  H41  1  0.20728100  0.65092400  0.34056800  1
  H  H42  1  0.70728100  0.65092400  0.15943200  1
  H  H43  1  0.94364300  0.65092400  0.84056800  1
  H  H44  1  0.55635700  0.34907600  0.34056800  1
  H  H45  1  0.79271900  0.34907600  0.65943200  1
  H  H46  1  0.29271900  0.34907600  0.84056800  1
  H  H47  1  0.05635700  0.34907600  0.15943200  1
  H  H48  1  0.98897900  0.00000000  0.72923700  1
  H  H49  1  0.01102100  0.00000000  0.27076300  1
  H  H50  1  0.51102100  0.00000000  0.22923700  1
  H  H51  1  0.48897900  0.00000000  0.77076300  1
  H  H52  1  0.45963100  0.64468500  0.28345200  1
  H  H53  1  0.18505300  0.64468500  0.71654800  1
  H  H54  1  0.68505300  0.64468500  0.78345200  1
  H  H55  1  0.95963100  0.64468500  0.21654800  1
  H  H56  1  0.54036900  0.35531500  0.71654800  1
  H  H57  1  0.81494700  0.35531500  0.28345200  1
  H  H58  1  0.31494700  0.35531500  0.21654800  1
  H  H59  1  0.04036900  0.35531500  0.78345200  1
  O  O60  1  0.36191800  0.58666100  0.23250200  1
  O  O61  1  0.22474400  0.58666100  0.76749800  1
  O  O62  1  0.72474400  0.58666100  0.73250200  1
  O  O63  1  0.86191800  0.58666100  0.26749800  1
  O  O64  1  0.63808200  0.41333900  0.76749800  1
  O  O65  1  0.77525600  0.41333900  0.23250200  1
  O  O66  1  0.27525600  0.41333900  0.26749800  1
  O  O67  1  0.13808200  0.41333900  0.73250200  1
  O  O68  1  0.14714700  0.00000000  0.43645700  1
  O  O69  1  0.85285300  0.00000000  0.56354300  1
  O  O70  1  0.35285300  0.00000000  0.93645700  1
  O  O71  1  0.64714700  0.00000000  0.06354300  1
  O  O72  1  0.61716200  0.79138300  0.35659400  1
  O  O73  1  0.17422100  0.79138300  0.64340600  1
  O  O74  1  0.67422100  0.79138300  0.85659400  1
  O  O75  1  0.11716200  0.79138300  0.14340600  1
  O  O76  1  0.38283800  0.20861700  0.64340600  1
  O  O77  1  0.82577900  0.20861700  0.35659400  1
  O  O78  1  0.32577900  0.20861700  0.14340600  1
  O  O79  1  0.88283800  0.20861700  0.85659400  1
  O  O80  1  0.47397300  0.66681500  0.58739100  1
  O  O81  1  0.19284200  0.66681500  0.41260900  1
  O  O82  1  0.69284200  0.66681500  0.08739100  1
  O  O83  1  0.97397300  0.66681500  0.91260900  1
  O  O84  1  0.52602700  0.33318500  0.41260900  1
  O  O85  1  0.80715800  0.33318500  0.58739100  1
  O  O86  1  0.30715800  0.33318500  0.91260900  1
  O  O87  1  0.02602700  0.33318500  0.08739100  1
  O  O88  1  0.08494300  0.00000000  0.76829700  1
  O  O89  1  0.91505700  0.00000000  0.23170300  1
  O  O90  1  0.41505700  0.00000000  0.26829700  1
  O  O91  1  0.58494300  0.00000000  0.73170300  1
