# generated using pymatgen
data_Na2LaSiO5
_symmetry_space_group_name_H-M   'P 1'
_cell_length_a   6.75009800
_cell_length_b   7.54954600
_cell_length_c   9.59265100
_cell_angle_alpha   90.00000000
_cell_angle_beta   90.00000000
_cell_angle_gamma   90.00000000
_symmetry_Int_Tables_number   1
_chemical_formula_structural   Na2LaSiO5
_chemical_formula_sum   'Na8 La4 Si4 O20'
_cell_volume   488.84317708
_cell_formula_units_Z   4
loop_
 _symmetry_equiv_pos_site_id
 _symmetry_equiv_pos_as_xyz
  1  'x, y, z'
loop_
 _atom_site_type_symbol
 _atom_site_label
 _atom_site_symmetry_multiplicity
 _atom_site_fract_x
 _atom_site_fract_y
 _atom_site_fract_z
 _atom_site_occupancy
  Na  Na0  1  0.87332500  0.53297800  0.33401000  1
  Na  Na1  1  0.62667500  0.96702200  0.83401000  1
  Na  Na2  1  0.12667500  0.03297800  0.66599000  1
  Na  Na3  1  0.37332500  0.46702200  0.16599000  1
  Na  Na4  1  0.12667500  0.46702200  0.66599000  1
  Na  Na5  1  0.37332500  0.03297800  0.16599000  1
  Na  Na6  1  0.87332500  0.96702200  0.33401000  1
  Na  Na7  1  0.62667500  0.53297800  0.83401000  1
  La  La8  1  0.38387800  0.75000000  0.45526700  1
  La  La9  1  0.11612200  0.75000000  0.95526700  1
  La  La10  1  0.61612200  0.25000000  0.54473300  1
  La  La11  1  0.88387800  0.25000000  0.04473300  1
  Si  Si12  1  0.68324200  0.75000000  0.10028400  1
  Si  Si13  1  0.81675800  0.75000000  0.60028400  1
  Si  Si14  1  0.31675800  0.25000000  0.89971600  1
  Si  Si15  1  0.18324200  0.25000000  0.39971600  1
  O  O16  1  0.81997700  0.57456700  0.06137400  1
  O  O17  1  0.68002300  0.92543300  0.56137400  1
  O  O18  1  0.18002300  0.07456700  0.93862600  1
  O  O19  1  0.31997700  0.42543300  0.43862600  1
  O  O20  1  0.18002300  0.42543300  0.93862600  1
  O  O21  1  0.31997700  0.07456700  0.43862600  1
  O  O22  1  0.81997700  0.92543300  0.06137400  1
  O  O23  1  0.68002300  0.57456700  0.56137400  1
  O  O24  1  0.47803600  0.75000000  0.00593400  1
  O  O25  1  0.02196400  0.75000000  0.50593400  1
  O  O26  1  0.52196400  0.25000000  0.99406600  1
  O  O27  1  0.97803600  0.25000000  0.49406600  1
  O  O28  1  0.62910000  0.75000000  0.26675100  1
  O  O29  1  0.87090000  0.75000000  0.76675100  1
  O  O30  1  0.37090000  0.25000000  0.73324900  1
  O  O31  1  0.12910000  0.25000000  0.23324900  1
  O  O32  1  0.20967600  0.75000000  0.21310500  1
  O  O33  1  0.29032400  0.75000000  0.71310500  1
  O  O34  1  0.79032400  0.25000000  0.78689500  1
  O  O35  1  0.70967600  0.25000000  0.28689500  1
