# generated using pymatgen
data_La3MoO7
_symmetry_space_group_name_H-M   'P 1'
_cell_length_a   7.59278300
_cell_length_b   7.76931600
_cell_length_c   11.20837400
_cell_angle_alpha   90.00000000
_cell_angle_beta   90.00000000
_cell_angle_gamma   90.00000000
_symmetry_Int_Tables_number   1
_chemical_formula_structural   La3MoO7
_chemical_formula_sum   'La12 Mo4 O28'
_cell_volume   661.19016938
_cell_formula_units_Z   4
loop_
 _symmetry_equiv_pos_site_id
 _symmetry_equiv_pos_as_xyz
  1  'x, y, z'
loop_
 _atom_site_type_symbol
 _atom_site_label
 _atom_site_symmetry_multiplicity
 _atom_site_fract_x
 _atom_site_fract_y
 _atom_site_fract_z
 _atom_site_occupancy
  La  La0  1  0.75601500  0.49812500  0.25000000  1
  La  La1  1  0.74398500  0.99812500  0.25000000  1
  La  La2  1  0.24398500  0.50187500  0.75000000  1
  La  La3  1  0.25601500  0.00187500  0.75000000  1
  La  La4  1  0.05170200  0.75035900  0.47575300  1
  La  La5  1  0.44829800  0.25035900  0.02424700  1
  La  La6  1  0.94829800  0.24964100  0.97575300  1
  La  La7  1  0.55170200  0.74964100  0.52424700  1
  La  La8  1  0.94829800  0.24964100  0.52424700  1
  La  La9  1  0.55170200  0.74964100  0.97575300  1
  La  La10  1  0.05170200  0.75035900  0.02424700  1
  La  La11  1  0.44829800  0.25035900  0.47575300  1
  Mo  Mo12  1  0.24851500  0.50273100  0.25000000  1
  Mo  Mo13  1  0.25148500  0.00273100  0.25000000  1
  Mo  Mo14  1  0.75148500  0.49726900  0.75000000  1
  Mo  Mo15  1  0.74851500  0.99726900  0.75000000  1
  O  O16  1  0.05812000  0.46821600  0.37358900  1
  O  O17  1  0.44188000  0.96821600  0.12641100  1
  O  O18  1  0.94188000  0.53178400  0.87358900  1
  O  O19  1  0.55812000  0.03178400  0.62641100  1
  O  O20  1  0.94188000  0.53178400  0.62641100  1
  O  O21  1  0.55812000  0.03178400  0.87358900  1
  O  O22  1  0.05812000  0.46821600  0.12641100  1
  O  O23  1  0.44188000  0.96821600  0.37358900  1
  O  O24  1  0.57030900  0.46262600  0.87682300  1
  O  O25  1  0.92969100  0.96262600  0.62317700  1
  O  O26  1  0.42969100  0.53737400  0.37682300  1
  O  O27  1  0.07030900  0.03737400  0.12317700  1
  O  O28  1  0.42969100  0.53737400  0.12317700  1
  O  O29  1  0.07030900  0.03737400  0.37682300  1
  O  O30  1  0.57030900  0.46262600  0.62317700  1
  O  O31  1  0.92969100  0.96262600  0.87682300  1
  O  O32  1  0.77626400  0.74866400  0.38015600  1
  O  O33  1  0.72373600  0.24866400  0.11984400  1
  O  O34  1  0.22373600  0.25133600  0.88015600  1
  O  O35  1  0.27626400  0.75133600  0.61984400  1
  O  O36  1  0.22373600  0.25133600  0.61984400  1
  O  O37  1  0.27626400  0.75133600  0.88015600  1
  O  O38  1  0.77626400  0.74866400  0.11984400  1
  O  O39  1  0.72373600  0.24866400  0.38015600  1
  O  O40  1  0.18869200  0.75342300  0.25000000  1
  O  O41  1  0.31130800  0.25342300  0.25000000  1
  O  O42  1  0.81130800  0.24657700  0.75000000  1
  O  O43  1  0.68869200  0.74657700  0.75000000  1
