# generated using pymatgen
data_H13C2Cl3O8
_symmetry_space_group_name_H-M   'P 1'
_cell_length_a   8.68795700
_cell_length_b   8.78770756
_cell_length_c   9.18472730
_cell_angle_alpha   88.64573679
_cell_angle_beta   62.31108524
_cell_angle_gamma   73.51848015
_symmetry_Int_Tables_number   1
_chemical_formula_structural   H13C2Cl3O8
_chemical_formula_sum   'H26 C4 Cl6 O16'
_cell_volume   590.55958207
_cell_formula_units_Z   2
loop_
 _symmetry_equiv_pos_site_id
 _symmetry_equiv_pos_as_xyz
  1  'x, y, z'
loop_
 _atom_site_type_symbol
 _atom_site_label
 _atom_site_symmetry_multiplicity
 _atom_site_fract_x
 _atom_site_fract_y
 _atom_site_fract_z
 _atom_site_occupancy
  H  H0  1  0.00545400  0.53970500  0.81376600  1
  H  H1  1  0.99454600  0.46029500  0.18623400  1
  H  H2  1  0.85803000  0.47238700  0.72643200  1
  H  H3  1  0.14197000  0.52761300  0.27356800  1
  H  H4  1  0.00739900  0.31862800  0.74111800  1
  H  H5  1  0.99260100  0.68137200  0.25888200  1
  H  H6  1  0.16754700  0.61475700  0.82687400  1
  H  H7  1  0.83245300  0.38524300  0.17312600  1
  H  H8  1  0.97078400  0.74504300  0.85708300  1
  H  H9  1  0.02921600  0.25495700  0.14291700  1
  H  H10  1  0.78257200  0.96996700  0.95809100  1
  H  H11  1  0.21742800  0.03003300  0.04190900  1
  H  H12  1  0.80425100  0.91036900  0.78060100  1
  H  H13  1  0.19574900  0.08963100  0.21939900  1
  H  H14  1  0.77359100  0.88491000  0.53753600  1
  H  H15  1  0.22640900  0.11509000  0.46246400  1
  H  H16  1  0.70592500  0.75991200  0.66198800  1
  H  H17  1  0.29407500  0.24008800  0.33801200  1
  H  H18  1  0.45663400  0.95190600  0.77185900  1
  H  H19  1  0.54336600  0.04809400  0.22814100  1
  H  H20  1  0.33682200  0.83760500  0.81850200  1
  H  H21  1  0.66317800  0.16239500  0.18149800  1
  H  H22  1  0.18883700  0.06569800  0.74614200  1
  H  H23  1  0.81116300  0.93430200  0.25385800  1
  H  H24  1  0.01373100  0.05252600  0.74531800  1
  H  H25  1  0.98626900  0.94747400  0.25468200  1
  C  C26  1  0.55527200  0.35541500  0.70748700  1
  C  C27  1  0.44472800  0.64458500  0.29251300  1
  C  C28  1  0.52664000  0.54076900  0.73196200  1
  C  C29  1  0.47336000  0.45923100  0.26803800  1
  Cl  Cl30  1  0.78219400  0.25005900  0.55710800  1
  Cl  Cl31  1  0.21780600  0.74994100  0.44289200  1
  Cl  Cl32  1  0.51150900  0.29127900  0.90546200  1
  Cl  Cl33  1  0.48849100  0.70872100  0.09453800  1
  Cl  Cl34  1  0.40148900  0.31528600  0.64890900  1
  Cl  Cl35  1  0.59851100  0.68471400  0.35109100  1
  O  O36  1  0.36766300  0.63423000  0.77824600  1
  O  O37  1  0.63233700  0.36577000  0.22175400  1
  O  O38  1  0.66524300  0.57797100  0.70922500  1
  O  O39  1  0.33475700  0.42202900  0.29077500  1
  O  O40  1  0.97023700  0.43671400  0.73830000  1
  O  O41  1  0.02976300  0.56328600  0.26170000  1
  O  O42  1  0.03268200  0.63121500  0.87195800  1
  O  O43  1  0.96731800  0.36878500  0.12804200  1
  O  O44  1  0.87229000  0.91705800  0.84195500  1
  O  O45  1  0.12771000  0.08294200  0.15804500  1
  O  O46  1  0.71155300  0.87174400  0.65656700  1
  O  O47  1  0.28844700  0.12825600  0.34343300  1
  O  O48  1  0.32765700  0.95253600  0.83536200  1
  O  O49  1  0.67234300  0.04746400  0.16463800  1
  O  O50  1  0.10195200  0.11450600  0.70344600  1
  O  O51  1  0.89804800  0.88549400  0.29655400  1
