# generated using pymatgen
data_Ce2Te7Cl2O17
_symmetry_space_group_name_H-M   'P 1'
_cell_length_a   5.44753700
_cell_length_b   9.86587400
_cell_length_c   20.58117844
_cell_angle_alpha   67.91675801
_cell_angle_beta   90.00000000
_cell_angle_gamma   90.00000000
_symmetry_Int_Tables_number   1
_chemical_formula_structural   Ce2Te7Cl2O17
_chemical_formula_sum   'Ce4 Te14 Cl4 O34'
_cell_volume   1024.98236365
_cell_formula_units_Z   2
loop_
 _symmetry_equiv_pos_site_id
 _symmetry_equiv_pos_as_xyz
  1  'x, y, z'
loop_
 _atom_site_type_symbol
 _atom_site_label
 _atom_site_symmetry_multiplicity
 _atom_site_fract_x
 _atom_site_fract_y
 _atom_site_fract_z
 _atom_site_occupancy
  Ce  Ce0  1  0.63723300  0.00541600  0.09101500  1
  Ce  Ce1  1  0.36276700  0.99458400  0.90898500  1
  Ce  Ce2  1  0.63723300  0.99458400  0.40898500  1
  Ce  Ce3  1  0.36276700  0.00541600  0.59101500  1
  Te  Te4  1  0.94624800  0.00000000  0.25000000  1
  Te  Te5  1  0.05375200  0.00000000  0.75000000  1
  Te  Te6  1  0.10416600  0.29178900  0.08701400  1
  Te  Te7  1  0.89583400  0.70821100  0.91298600  1
  Te  Te8  1  0.10416600  0.70821100  0.41298600  1
  Te  Te9  1  0.89583400  0.29178900  0.58701400  1
  Te  Te10  1  0.82226400  0.26910000  0.91785000  1
  Te  Te11  1  0.17773600  0.73090000  0.08215000  1
  Te  Te12  1  0.82226400  0.73090000  0.58215000  1
  Te  Te13  1  0.17773600  0.26910000  0.41785000  1
  Te  Te14  1  0.51054900  0.32747300  0.74202600  1
  Te  Te15  1  0.48945100  0.67252700  0.25797400  1
  Te  Te16  1  0.51054900  0.67252700  0.75797400  1
  Te  Te17  1  0.48945100  0.32747300  0.24202600  1
  Cl  Cl18  1  0.67250800  0.52973400  0.08022100  1
  Cl  Cl19  1  0.32749200  0.47026600  0.91977900  1
  Cl  Cl20  1  0.67250800  0.47026600  0.41977900  1
  Cl  Cl21  1  0.32749200  0.52973400  0.58022100  1
  O  O22  1  0.07127100  0.14252200  0.90995600  1
  O  O23  1  0.92872900  0.85747800  0.09004400  1
  O  O24  1  0.07127100  0.85747800  0.59004400  1
  O  O25  1  0.92872900  0.14252200  0.40995600  1
  O  O26  1  0.90215200  0.22972500  0.02054200  1
  O  O27  1  0.09784800  0.77027500  0.97945800  1
  O  O28  1  0.90215200  0.77027500  0.47945800  1
  O  O29  1  0.09784800  0.22972500  0.52054200  1
  O  O30  1  0.33914200  0.14431300  0.09742800  1
  O  O31  1  0.66085800  0.85568700  0.90257200  1
  O  O32  1  0.33914200  0.85568700  0.40257200  1
  O  O33  1  0.66085800  0.14431300  0.59742800  1
  O  O34  1  0.61845600  0.21205300  0.83598800  1
  O  O35  1  0.38154400  0.78794700  0.16401200  1
  O  O36  1  0.61845600  0.78794700  0.66401200  1
  O  O37  1  0.38154400  0.21205300  0.33598800  1
  O  O38  1  0.59705500  0.11631700  0.96701000  1
  O  O39  1  0.40294500  0.88368300  0.03299000  1
  O  O40  1  0.59705500  0.88368300  0.53299000  1
  O  O41  1  0.40294500  0.11631700  0.46701000  1
  O  O42  1  0.68723500  0.50000000  0.75000000  1
  O  O43  1  0.31276500  0.50000000  0.25000000  1
  O  O44  1  0.22686900  0.27845000  0.19593000  1
  O  O45  1  0.77313100  0.72155000  0.80407000  1
  O  O46  1  0.22686900  0.72155000  0.30407000  1
  O  O47  1  0.77313100  0.27845000  0.69593000  1
  O  O48  1  0.71436100  0.90047400  0.21465700  1
  O  O49  1  0.28563900  0.09952600  0.78534300  1
  O  O50  1  0.71436100  0.09952600  0.28534300  1
  O  O51  1  0.28563900  0.90047400  0.71465700  1
  O  O52  1  0.86569600  0.15960100  0.14920800  1
  O  O53  1  0.13430400  0.84039900  0.85079200  1
  O  O54  1  0.86569600  0.84039900  0.35079200  1
  O  O55  1  0.13430400  0.15960100  0.64920800  1
