# generated using pymatgen
data_AlP3H10O11
_symmetry_space_group_name_H-M   'P 1'
_cell_length_a   8.42349700
_cell_length_b   19.74156100
_cell_length_c   6.51036500
_cell_angle_alpha   90.00000000
_cell_angle_beta   90.00000000
_cell_angle_gamma   90.00000000
_symmetry_Int_Tables_number   1
_chemical_formula_structural   AlP3H10O11
_chemical_formula_sum   'Al4 P12 H40 O44'
_cell_volume   1082.62799582
_cell_formula_units_Z   4
loop_
 _symmetry_equiv_pos_site_id
 _symmetry_equiv_pos_as_xyz
  1  'x, y, z'
loop_
 _atom_site_type_symbol
 _atom_site_label
 _atom_site_symmetry_multiplicity
 _atom_site_fract_x
 _atom_site_fract_y
 _atom_site_fract_z
 _atom_site_occupancy
  Al  Al0  1  0.73947100  0.94153300  0.19132700  1
  Al  Al1  1  0.26052900  0.05846700  0.69132700  1
  Al  Al2  1  0.76052900  0.44153300  0.69132700  1
  Al  Al3  1  0.23947100  0.55846700  0.19132700  1
  P  P4  1  0.94523700  0.06731200  0.99523200  1
  P  P5  1  0.05476300  0.93268800  0.49523200  1
  P  P6  1  0.55476300  0.56731200  0.49523200  1
  P  P7  1  0.44523700  0.43268800  0.99523200  1
  P  P8  1  0.38351600  0.95323800  0.02573500  1
  P  P9  1  0.61648400  0.04676200  0.52573500  1
  P  P10  1  0.11648400  0.45323800  0.52573500  1
  P  P11  1  0.88351600  0.54676200  0.02573500  1
  P  P12  1  0.64120600  0.81952000  0.49927700  1
  P  P13  1  0.35879400  0.18048000  0.99927700  1
  P  P14  1  0.85879400  0.31952000  0.99927700  1
  P  P15  1  0.14120600  0.68048000  0.49927700  1
  H  H16  1  0.82529900  0.11601800  0.98156900  1
  H  H17  1  0.17470100  0.88398200  0.48156900  1
  H  H18  1  0.67470100  0.61601800  0.48156900  1
  H  H19  1  0.32529900  0.38398200  0.98156900  1
  H  H20  1  0.33168200  0.99222600  0.19173900  1
  H  H21  1  0.66831800  0.00777400  0.69173900  1
  H  H22  1  0.16831800  0.49222600  0.69173900  1
  H  H23  1  0.83168200  0.50777400  0.19173900  1
  H  H24  1  0.79762800  0.79491100  0.47857300  1
  H  H25  1  0.20237200  0.20508900  0.97857300  1
  H  H26  1  0.70237200  0.29491100  0.97857300  1
  H  H27  1  0.29762800  0.70508900  0.47857300  1
  H  H28  1  0.04513800  0.04277400  0.31020100  1
  H  H29  1  0.95486200  0.95722600  0.81020100  1
  H  H30  1  0.45486200  0.54277400  0.81020100  1
  H  H31  1  0.54513800  0.45722600  0.31020100  1
  H  H32  1  0.23857700  0.85584600  0.02329100  1
  H  H33  1  0.76142300  0.14415400  0.52329100  1
  H  H34  1  0.26142300  0.35584600  0.52329100  1
  H  H35  1  0.73857700  0.64415400  0.02329100  1
  H  H36  1  0.55078500  0.75271200  0.25134600  1
  H  H37  1  0.44921500  0.24728800  0.75134600  1
  H  H38  1  0.94921500  0.25271200  0.75134600  1
  H  H39  1  0.05078500  0.74728800  0.25134600  1
  H  H40  1  0.85310700  0.88055100  0.88482100  1
  H  H41  1  0.14689300  0.11944900  0.38482100  1
  H  H42  1  0.64689300  0.38055100  0.38482100  1
  H  H43  1  0.35310700  0.61944900  0.88482100  1
  H  H44  1  0.68854600  0.85019200  0.91220000  1
  H  H45  1  0.31145400  0.14980800  0.41220000  1
  H  H46  1  0.81145400  0.35019200  0.41220000  1
  H  H47  1  0.18854600  0.64980800  0.91220000  1
  H  H48  1  0.06979700  0.75270500  0.90027100  1
  H  H49  1  0.93020300  0.24729500  0.40027100  1
  H  H50  1  0.43020300  0.25270500  0.40027100  1
  H  H51  1  0.56979700  0.74729500  0.90027100  1
  H  H52  1  0.96870200  0.80646900  0.02370600  1
  H  H53  1  0.03129800  0.19353100  0.52370600  1
  H  H54  1  0.53129800  0.30646900  0.52370600  1
  H  H55  1  0.46870200  0.69353100  0.02370600  1
  O  O56  1  0.87372000  0.99559800  0.99347900  1
  O  O57  1  0.12628000  0.00440200  0.49347900  1
  O  O58  1  0.62628000  0.49559800  0.49347900  1
  O  O59  1  0.37372000  0.50440200  0.99347900  1
  O  O60  1  0.02550100  0.08179600  0.21043200  1
  O  O61  1  0.97449900  0.91820400  0.71043200  1
  O  O62  1  0.47449900  0.58179600  0.71043200  1
  O  O63  1  0.52550100  0.41820400  0.21043200  1
  O  O64  1  0.06106200  0.07916900  0.82161400  1
  O  O65  1  0.93893800  0.92083100  0.32161400  1
  O  O66  1  0.43893800  0.57916900  0.32161400  1
  O  O67  1  0.56106200  0.42083100  0.82161400  1
  O  O68  1  0.56338900  0.95679300  0.01982900  1
  O  O69  1  0.43661100  0.04320700  0.51982900  1
  O  O70  1  0.93661100  0.45679300  0.51982900  1
  O  O71  1  0.06338900  0.54320700  0.01982900  1
  O  O72  1  0.29671900  0.97770200  0.83418300  1
  O  O73  1  0.70328100  0.02229800  0.33418300  1
  O  O74  1  0.20328100  0.47770200  0.33418300  1
  O  O75  1  0.79671900  0.52229800  0.83418300  1
  O  O76  1  0.33497000  0.87756300  0.07805500  1
  O  O77  1  0.66503000  0.12243700  0.57805500  1
  O  O78  1  0.16503000  0.37756300  0.57805500  1
  O  O79  1  0.83497000  0.62243700  0.07805500  1
  O  O80  1  0.63082500  0.88528400  0.37343200  1
  O  O81  1  0.36917500  0.11471600  0.87343200  1
  O  O82  1  0.86917500  0.38528400  0.87343200  1
  O  O83  1  0.13082500  0.61471600  0.37343200  1
  O  O84  1  0.59320800  0.82309400  0.72310300  1
  O  O85  1  0.40679200  0.17690600  0.22310300  1
  O  O86  1  0.90679200  0.32309400  0.22310300  1
  O  O87  1  0.09320800  0.67690600  0.72310300  1
  O  O88  1  0.53194300  0.76266900  0.40064100  1
  O  O89  1  0.46805700  0.23733100  0.90064100  1
  O  O90  1  0.96805700  0.26266900  0.90064100  1
  O  O91  1  0.03194300  0.73733100  0.40064100  1
  O  O92  1  0.78442500  0.86549000  0.99922700  1
  O  O93  1  0.21557500  0.13451000  0.49922700  1
  O  O94  1  0.71557500  0.36549000  0.49922700  1
  O  O95  1  0.28442500  0.63451000  0.99922700  1
  O  O96  1  0.07339800  0.78436400  0.01901600  1
  O  O97  1  0.92660200  0.21563600  0.51901600  1
  O  O98  1  0.42660200  0.28436400  0.51901600  1
  O  O99  1  0.57339800  0.71563600  0.01901600  1
