# generated using pymatgen
data_BP(H3N)3
_symmetry_space_group_name_H-M   'P 1'
_cell_length_a   9.67592700
_cell_length_b   6.25451400
_cell_length_c   9.71787723
_cell_angle_alpha   78.65079318
_cell_angle_beta   90.00000000
_cell_angle_gamma   90.00000000
_symmetry_Int_Tables_number   1
_chemical_formula_structural   BP(H3N)3
_chemical_formula_sum   'B4 P4 H36 N12'
_cell_volume   576.60877293
_cell_formula_units_Z   4
loop_
 _symmetry_equiv_pos_site_id
 _symmetry_equiv_pos_as_xyz
  1  'x, y, z'
loop_
 _atom_site_type_symbol
 _atom_site_label
 _atom_site_symmetry_multiplicity
 _atom_site_fract_x
 _atom_site_fract_y
 _atom_site_fract_z
 _atom_site_occupancy
  B  B0  1  0.95764100  0.55698100  0.26063800  1
  B  B1  1  0.45764100  0.94301900  0.73936200  1
  B  B2  1  0.04235900  0.44301900  0.73936200  1
  B  B3  1  0.54235900  0.05698100  0.26063800  1
  P  P4  1  0.04880800  0.82959200  0.24557300  1
  P  P5  1  0.54880800  0.67040800  0.75442700  1
  P  P6  1  0.95119200  0.17040800  0.75442700  1
  P  P7  1  0.45119200  0.32959200  0.24557300  1
  H  H8  1  0.25678600  0.81456200  0.13970400  1
  H  H9  1  0.75678600  0.68543800  0.86029600  1
  H  H10  1  0.74321400  0.18543800  0.86029600  1
  H  H11  1  0.24321400  0.31456200  0.13970400  1
  H  H12  1  0.13557000  0.92405200  0.02401800  1
  H  H13  1  0.63557000  0.57594800  0.97598200  1
  H  H14  1  0.86443000  0.07594800  0.97598200  1
  H  H15  1  0.36443000  0.42405200  0.02401800  1
  H  H16  1  0.96464200  0.18618100  0.19933400  1
  H  H17  1  0.46464200  0.31381900  0.80066600  1
  H  H18  1  0.03535800  0.81381900  0.80066600  1
  H  H19  1  0.53535800  0.68618100  0.19933400  1
  H  H20  1  0.83689000  0.99990200  0.23834200  1
  H  H21  1  0.33689000  0.50009800  0.76165800  1
  H  H22  1  0.16311000  0.00009800  0.76165800  1
  H  H23  1  0.66311000  0.49990200  0.23834200  1
  H  H24  1  0.19093500  0.96706300  0.40344900  1
  H  H25  1  0.69093500  0.53293700  0.59655100  1
  H  H26  1  0.80906500  0.03293700  0.59655100  1
  H  H27  1  0.30906500  0.46706300  0.40344900  1
  H  H28  1  0.09844700  0.74490400  0.48292900  1
  H  H29  1  0.59844700  0.75509600  0.51707100  1
  H  H30  1  0.90155300  0.25509600  0.51707100  1
  H  H31  1  0.40155300  0.24490400  0.48292900  1
  H  H32  1  0.86117900  0.55512000  0.34218600  1
  H  H33  1  0.36117900  0.94488000  0.65781400  1
  H  H34  1  0.13882100  0.44488000  0.65781400  1
  H  H35  1  0.63882100  0.05512000  0.34218600  1
  H  H36  1  0.04434800  0.41914100  0.30408700  1
  H  H37  1  0.54434800  0.08085900  0.69591300  1
  H  H38  1  0.95565200  0.58085900  0.69591300  1
  H  H39  1  0.45565200  0.91914100  0.30408700  1
  H  H40  1  0.91982500  0.55198300  0.14182600  1
  H  H41  1  0.41982500  0.94801700  0.85817400  1
  H  H42  1  0.08017500  0.44801700  0.85817400  1
  H  H43  1  0.58017500  0.05198300  0.14182600  1
  N  N44  1  0.17111500  0.91225400  0.12496400  1
  N  N45  1  0.67111500  0.58774600  0.87503600  1
  N  N46  1  0.82888500  0.08774600  0.87503600  1
  N  N47  1  0.32888500  0.41225400  0.12496400  1
  N  N48  1  0.93364400  0.02997100  0.19716600  1
  N  N49  1  0.43364400  0.47002900  0.80283400  1
  N  N50  1  0.06635600  0.97002900  0.80283400  1
  N  N51  1  0.56635600  0.52997100  0.19716600  1
  N  N52  1  0.13942300  0.82990500  0.39184100  1
  N  N53  1  0.63942300  0.67009500  0.60815900  1
  N  N54  1  0.86057700  0.17009500  0.60815900  1
  N  N55  1  0.36057700  0.32990500  0.39184100  1
