# generated using pymatgen
data_KNaAl6Si6(HO6)4
_symmetry_space_group_name_H-M   'P 1'
_cell_length_a   9.06048900
_cell_length_b   10.42256501
_cell_length_c   19.97598610
_cell_angle_alpha   95.50546765
_cell_angle_beta   90.06746085
_cell_angle_gamma   89.99776810
_symmetry_Int_Tables_number   1
_chemical_formula_structural   KNaAl6Si6(HO6)4
_chemical_formula_sum   'K4 Na4 Al24 Si24 H16 O96'
_cell_volume   1877.69980026
_cell_formula_units_Z   4
loop_
 _symmetry_equiv_pos_site_id
 _symmetry_equiv_pos_as_xyz
  1  'x, y, z'
loop_
 _atom_site_type_symbol
 _atom_site_label
 _atom_site_symmetry_multiplicity
 _atom_site_fract_x
 _atom_site_fract_y
 _atom_site_fract_z
 _atom_site_occupancy
  K  K0  1  0.59914700  0.25127400  0.74990700  1
  K  K1  1  0.90170800  0.99971500  0.24984100  1
  K  K2  1  0.09724700  0.49785300  0.74998200  1
  K  K3  1  0.90214100  0.49997800  0.24984000  1
  Na  Na4  1  0.42388900  0.25026500  0.24943500  1
  Na  Na5  1  0.12328900  0.00137800  0.74873100  1
  Na  Na6  1  0.56987700  0.74803300  0.75089000  1
  Na  Na7  1  0.42427200  0.74945800  0.25018800  1
  Al  Al8  1  0.08500100  0.12240800  0.50080400  1
  Al  Al9  1  0.25902100  0.22824900  0.63791900  1
  Al  Al10  1  0.08419900  0.37651100  0.99883700  1
  Al  Al11  1  0.25819700  0.26917600  0.86197300  1
  Al  Al12  1  0.91329100  0.37400100  0.49824100  1
  Al  Al13  1  0.73756500  0.26647500  0.36180000  1
  Al  Al14  1  0.91136100  0.12565600  0.00150100  1
  Al  Al15  1  0.73705300  0.23319000  0.13796400  1
  Al  Al16  1  0.58339300  0.37131400  0.49882700  1
  Al  Al17  1  0.58216400  0.12837200  0.00062100  1
  Al  Al18  1  0.41415400  0.12334700  0.50094300  1
  Al  Al19  1  0.41350300  0.37613100  0.99898800  1
  Al  Al20  1  0.08519500  0.62298000  0.50107400  1
  Al  Al21  1  0.25951800  0.72914700  0.63801000  1
  Al  Al22  1  0.08379600  0.87738400  0.99860700  1
  Al  Al23  1  0.25665100  0.77255200  0.86141600  1
  Al  Al24  1  0.91248300  0.87359300  0.49857900  1
  Al  Al25  1  0.73746100  0.76636900  0.36179100  1
  Al  Al26  1  0.91224400  0.62602700  0.00098800  1
  Al  Al27  1  0.73727800  0.73330600  0.13778700  1
  Al  Al28  1  0.58317400  0.87065800  0.49911800  1
  Al  Al29  1  0.58230900  0.62908900  0.00074900  1
  Al  Al30  1  0.41424200  0.62350300  0.50047300  1
  Al  Al31  1  0.41270600  0.87645600  0.99891400  1
  Si  Si32  1  0.92896300  0.22573500  0.63684700  1
  Si  Si33  1  0.92737600  0.27146200  0.86307400  1
  Si  Si34  1  0.06982600  0.26912700  0.36236000  1
  Si  Si35  1  0.06935200  0.23048300  0.13742000  1
  Si  Si36  1  0.43049400  0.48879200  0.63779400  1
  Si  Si37  1  0.75648700  0.47243400  0.63601100  1
  Si  Si38  1  0.42827300  0.01062600  0.86111300  1
  Si  Si39  1  0.75334900  0.02748400  0.86333500  1
  Si  Si40  1  0.56690400  0.00695500  0.36175000  1
  Si  Si41  1  0.24316500  0.02474800  0.36287700  1
  Si  Si42  1  0.56674400  0.49283000  0.13825100  1
  Si  Si43  1  0.24288000  0.47476900  0.13676500  1
  Si  Si44  1  0.92946900  0.72815900  0.63751000  1
  Si  Si45  1  0.92745100  0.77422000  0.86186100  1
  Si  Si46  1  0.06973700  0.76924700  0.36254500  1
  Si  Si47  1  0.06947600  0.73043300  0.13697800  1
  Si  Si48  1  0.42962200  0.98697100  0.63853500  1
  Si  Si49  1  0.75511600  0.97001800  0.63679600  1
  Si  Si50  1  0.42801400  0.51279100  0.86192900  1
  Si  Si51  1  0.75457400  0.52968600  0.86318300  1
  Si  Si52  1  0.56686300  0.50682500  0.36115800  1
  Si  Si53  1  0.24305100  0.52486400  0.36283200  1
  Si  Si54  1  0.56632800  0.99275200  0.13812800  1
  Si  Si55  1  0.24260700  0.97488200  0.13685800  1
  H  H56  1  0.65673600  0.17828600  0.55545400  1
  H  H57  1  0.65656500  0.32188900  0.94561300  1
  H  H58  1  0.34145200  0.31598700  0.44448600  1
  H  H59  1  0.34075600  0.18352000  0.05490200  1
  H  H60  1  0.14536900  0.43498500  0.56719800  1
  H  H61  1  0.14207400  0.06470400  0.93191000  1
  H  H62  1  0.85366300  0.06015300  0.43039300  1
  H  H63  1  0.85369800  0.43981100  0.06923900  1
  H  H64  1  0.65683600  0.67755300  0.55486000  1
  H  H65  1  0.65468500  0.82191200  0.94390200  1
  H  H66  1  0.34099300  0.81662800  0.44493900  1
  H  H67  1  0.34037000  0.68337100  0.05515700  1
  H  H68  1  0.14243800  0.93636400  0.56910200  1
  H  H69  1  0.14279400  0.56320100  0.93106400  1
  H  H70  1  0.85391900  0.56096300  0.43099000  1
  H  H71  1  0.85264100  0.93855900  0.06890000  1
  O  O72  1  0.94354400  0.22919600  0.55500800  1
  O  O73  1  0.24944900  0.18503200  0.55092300  1
  O  O74  1  0.56553700  0.22421800  0.54883300  1
  O  O75  1  0.08400400  0.19794000  0.67268800  1
  O  O76  1  0.80589100  0.11978500  0.65866300  1
  O  O77  1  0.86552000  0.36851200  0.66898400  1
  O  O78  1  0.94064300  0.27009200  0.94507700  1
  O  O79  1  0.24876500  0.31271600  0.94900400  1
  O  O80  1  0.56491100  0.27578100  0.95090000  1
  O  O81  1  0.08293200  0.29540800  0.82781800  1
  O  O82  1  0.80808300  0.38073400  0.84066600  1
  O  O83  1  0.86343700  0.12974000  0.83023500  1
  O  O84  1  0.05634900  0.26760800  0.44439500  1
  O  O85  1  0.74825600  0.31066800  0.44860800  1
  O  O86  1  0.43276400  0.27014700  0.45099500  1
  O  O87  1  0.91313100  0.29364400  0.32769500  1
  O  O88  1  0.19149000  0.37566600  0.33921600  1
  O  O89  1  0.13267100  0.12691000  0.33003900  1
  O  O90  1  0.05530700  0.23195500  0.05541700  1
  O  O91  1  0.74701500  0.18894600  0.05115800  1
  O  O92  1  0.43223000  0.22934000  0.04881100  1
  O  O93  1  0.91281300  0.20600600  0.17207200  1
  O  O94  1  0.19118800  0.12403700  0.16067100  1
  O  O95  1  0.13253200  0.37272800  0.16968000  1
  O  O96  1  0.44897200  0.48120400  0.55513700  1
  O  O97  1  0.75136600  0.44417600  0.55475800  1
  O  O98  1  0.05858200  0.47476000  0.54937700  1
  O  O99  1  0.59364600  0.45208300  0.66889600  1
  O  O100  1  0.30431200  0.39026600  0.65890300  1
  O  O101  1  0.39017100  0.13040700  0.67230800  1
  O  O102  1  0.44658200  0.01926100  0.94386200  1
  O  O103  1  0.74887300  0.05581000  0.94466800  1
  O  O104  1  0.05605600  0.02530600  0.95047500  1
  O  O105  1  0.59063500  0.04937300  0.83040400  1
  O  O106  1  0.29980100  0.10646500  0.83852000  1
  O  O107  1  0.38757500  0.36941000  0.82816300  1
  O  O108  1  0.54737700  0.01331200  0.44436200  1
  O  O109  1  0.24711000  0.05212900  0.44425000  1
  O  O110  1  0.93916300  0.02155900  0.44999200  1
  O  O111  1  0.40564500  0.04777400  0.32974100  1
  O  O112  1  0.69484600  0.10407600  0.34118000  1
  O  O113  1  0.60366600  0.36235300  0.32663300  1
  O  O114  1  0.54713400  0.48638100  0.05568100  1
  O  O115  1  0.24671300  0.44703500  0.05540000  1
  O  O116  1  0.93924100  0.47820400  0.04969000  1
  O  O117  1  0.40543900  0.45200300  0.17011600  1
  O  O118  1  0.69447000  0.39551800  0.15896400  1
  O  O119  1  0.60321300  0.13710100  0.17285900  1
  O  O120  1  0.94288700  0.72938100  0.55535100  1
  O  O121  1  0.25011100  0.68571900  0.55101700  1
  O  O122  1  0.56546400  0.72343500  0.54851600  1
  O  O123  1  0.08509400  0.70105200  0.67225900  1
  O  O124  1  0.80783700  0.62121300  0.65999000  1
  O  O125  1  0.86843000  0.87079300  0.67012500  1
  O  O126  1  0.94288900  0.77079100  0.94386000  1
  O  O127  1  0.24814200  0.81580200  0.94838500  1
  O  O128  1  0.56373200  0.77607600  0.95105000  1
  O  O129  1  0.08224300  0.80446300  0.82652800  1
  O  O130  1  0.80204900  0.87799900  0.83988400  1
  O  O131  1  0.86564200  0.63100600  0.82990400  1
  O  O132  1  0.05627400  0.76770300  0.44459300  1
  O  O133  1  0.74797500  0.81019000  0.44862300  1
  O  O134  1  0.43234900  0.77043300  0.45081700  1
  O  O135  1  0.91309100  0.79378200  0.32783000  1
  O  O136  1  0.19151800  0.87558800  0.33924400  1
  O  O137  1  0.13249900  0.62705900  0.33009200  1
  O  O138  1  0.05568700  0.73207500  0.05489900  1
  O  O139  1  0.74765000  0.68948400  0.05095600  1
  O  O140  1  0.43142300  0.72954200  0.04866500  1
  O  O141  1  0.91306800  0.70586800  0.17172400  1
  O  O142  1  0.19138300  0.62401100  0.16017600  1
  O  O143  1  0.13228800  0.87255900  0.16952700  1
  O  O144  1  0.44861200  0.97971300  0.55590200  1
  O  O145  1  0.74970400  0.94157600  0.55547900  1
  O  O146  1  0.05719000  0.97503300  0.54940200  1
  O  O147  1  0.59227500  0.94701000  0.67011700  1
  O  O148  1  0.30082500  0.89157900  0.66110400  1
  O  O149  1  0.39303400  0.63280300  0.67268000  1
  O  O150  1  0.44806000  0.51931100  0.94446000  1
  O  O151  1  0.74943000  0.55775800  0.94442900  1
  O  O152  1  0.05699800  0.52419000  0.95006100  1
  O  O153  1  0.59110100  0.55098600  0.82996800  1
  O  O154  1  0.30130400  0.61078000  0.84071800  1
  O  O155  1  0.39184200  0.86645000  0.82633500  1
  O  O156  1  0.54757600  0.51336500  0.44371700  1
  O  O157  1  0.24734300  0.55247100  0.44420600  1
  O  O158  1  0.94005400  0.52198300  0.44981100  1
  O  O159  1  0.40532500  0.54758300  0.32934300  1
  O  O160  1  0.69432300  0.60423700  0.34040600  1
  O  O161  1  0.60355500  0.86264300  0.32697700  1
  O  O162  1  0.54627800  0.98633600  0.05552800  1
  O  O163  1  0.24615500  0.94762700  0.05547800  1
  O  O164  1  0.93839600  0.97760800  0.04986100  1
  O  O165  1  0.40520600  0.95189400  0.17008600  1
  O  O166  1  0.69430900  0.89555900  0.15869400  1
  O  O167  1  0.60357300  0.63727800  0.17283800  1
