# generated using pymatgen
data_PW5O17
_symmetry_space_group_name_H-M   'P 1'
_cell_length_a   36.80496400
_cell_length_b   5.39058400
_cell_length_c   6.68320603
_cell_angle_alpha   89.92306500
_cell_angle_beta   90.00000000
_cell_angle_gamma   90.00000000
_symmetry_Int_Tables_number   1
_chemical_formula_structural   PW5O17
_chemical_formula_sum   'P4 W20 O68'
_cell_volume   1325.94855119
_cell_formula_units_Z   4
loop_
 _symmetry_equiv_pos_site_id
 _symmetry_equiv_pos_as_xyz
  1  'x, y, z'
loop_
 _atom_site_type_symbol
 _atom_site_label
 _atom_site_symmetry_multiplicity
 _atom_site_fract_x
 _atom_site_fract_y
 _atom_site_fract_z
 _atom_site_occupancy
  P  P0  1  0.29995800  0.99685400  0.44414000  1
  P  P1  1  0.79995800  0.00314600  0.55586000  1
  P  P2  1  0.23925400  0.52772100  0.94583500  1
  P  P3  1  0.73925400  0.47227900  0.05416500  1
  W  W4  1  0.32815400  0.50474700  0.75128000  1
  W  W5  1  0.82815400  0.49525300  0.24872000  1
  W  W6  1  0.21093700  0.01885900  0.25137600  1
  W  W7  1  0.71093700  0.98114100  0.74862400  1
  W  W8  1  0.37056400  0.00001200  0.09046500  1
  W  W9  1  0.87056400  0.99998800  0.90953500  1
  W  W10  1  0.16882000  0.51956200  0.59161600  1
  W  W11  1  0.66882000  0.48043800  0.40838400  1
  W  W12  1  0.41439600  0.50087000  0.42251100  1
  W  W13  1  0.91439600  0.49913000  0.57748900  1
  W  W14  1  0.12484500  0.01267600  0.92109900  1
  W  W15  1  0.62484500  0.98732400  0.07890100  1
  W  W16  1  0.45669100  0.99413700  0.75622200  1
  W  W17  1  0.95669100  0.00586300  0.24377800  1
  W  W18  1  0.08309000  0.51334700  0.25551500  1
  W  W19  1  0.58309000  0.48665300  0.74448500  1
  W  W20  1  0.49936600  0.49256600  0.08701000  1
  W  W21  1  0.99936600  0.50743400  0.91299000  1
  W  W22  1  0.04072300  0.00935100  0.58205300  1
  W  W23  1  0.54072300  0.99064900  0.41794700  1
  O  O24  1  0.32418200  0.00773500  0.25649100  1
  O  O25  1  0.82418200  0.99226500  0.74350900  1
  O  O26  1  0.21589700  0.51405700  0.75518800  1
  O  O27  1  0.71589700  0.48594300  0.24481200  1
  O  O28  1  0.41008400  0.00750200  0.91925800  1
  O  O29  1  0.91008400  0.99249800  0.08074200  1
  O  O30  1  0.12920600  0.51920500  0.41988900  1
  O  O31  1  0.62920600  0.48079500  0.58011100  1
  O  O32  1  0.34313400  0.77885800  0.90019600  1
  O  O33  1  0.84313400  0.22114200  0.09980400  1
  O  O34  1  0.19660200  0.74890500  0.40538100  1
  O  O35  1  0.69660200  0.25109500  0.59461900  1
  O  O36  1  0.38648300  0.72212900  0.23284800  1
  O  O37  1  0.88648300  0.27787100  0.76715200  1
  O  O38  1  0.15314700  0.80011500  0.73448200  1
  O  O39  1  0.65314700  0.19988500  0.26551800  1
  O  O40  1  0.39137500  0.22398600  0.27267800  1
  O  O41  1  0.89137500  0.77601400  0.72732200  1
  O  O42  1  0.14790400  0.29763500  0.77281800  1
  O  O43  1  0.64790400  0.70236500  0.22718200  1
  O  O44  1  0.34674300  0.28069000  0.93735000  1
  O  O45  1  0.84674300  0.71931000  0.06265000  1
  O  O46  1  0.19242400  0.24688900  0.43610700  1
  O  O47  1  0.69242400  0.75311100  0.56389300  1
  O  O48  1  0.49677900  0.99865100  0.59004100  1
  O  O49  1  0.99677900  0.00134900  0.40995900  1
  O  O50  1  0.04115700  0.50862400  0.08359900  1
  O  O51  1  0.54115700  0.49137600  0.91640100  1
  O  O52  1  0.47863500  0.20992800  0.94445400  1
  O  O53  1  0.97863500  0.79007200  0.05554600  1
  O  O54  1  0.06053700  0.30574600  0.43941900  1
  O  O55  1  0.56053700  0.69425400  0.56058100  1
  O  O56  1  0.42970100  0.78409900  0.56493800  1
  O  O57  1  0.92970100  0.21590100  0.43506200  1
  O  O58  1  0.10927400  0.73014900  0.06335800  1
  O  O59  1  0.60927400  0.26985100  0.93664200  1
  O  O60  1  0.43546200  0.28318100  0.60755200  1
  O  O61  1  0.93546200  0.71681900  0.39244800  1
  O  O62  1  0.10384900  0.23343100  0.10655900  1
  O  O63  1  0.60384900  0.76656900  0.89344100  1
  O  O64  1  0.47255300  0.71090900  0.89846900  1
  O  O65  1  0.97255300  0.28909100  0.10153100  1
  O  O66  1  0.06620800  0.80394500  0.39177600  1
  O  O67  1  0.56620800  0.19605500  0.60822400  1
  O  O68  1  0.45386600  0.49889700  0.25006000  1
  O  O69  1  0.95386600  0.50110300  0.74994000  1
  O  O70  1  0.08510100  0.01607400  0.75344300  1
  O  O71  1  0.58510100  0.98392600  0.24655700  1
  O  O72  1  0.51582500  0.78108700  0.23004400  1
  O  O73  1  0.01582500  0.21891300  0.76995600  1
  O  O74  1  0.02186700  0.71392500  0.72587800  1
  O  O75  1  0.52186700  0.28607500  0.27412200  1
  O  O76  1  0.36864700  0.50185300  0.58827600  1
  O  O77  1  0.86864700  0.49814700  0.41172400  1
  O  O78  1  0.17019900  0.01930200  0.09096300  1
  O  O79  1  0.67019900  0.98069800  0.90903700  1
  O  O80  1  0.30846500  0.21312600  0.58738100  1
  O  O81  1  0.80846500  0.78687400  0.41261900  1
  O  O82  1  0.23036800  0.31165600  0.08787300  1
  O  O83  1  0.73036800  0.68834400  0.91212700  1
  O  O84  1  0.26009800  0.02375500  0.37801300  1
  O  O85  1  0.76009800  0.97624500  0.62198700  1
  O  O86  1  0.27970600  0.50414900  0.88558100  1
  O  O87  1  0.77970600  0.49585100  0.11441900  1
  O  O88  1  0.30437000  0.74333700  0.54894300  1
  O  O89  1  0.80437000  0.25666300  0.45105700  1
  O  O90  1  0.23435600  0.78038600  0.04959700  1
  O  O91  1  0.73435600  0.21961400  0.95040300  1
