# generated using pymatgen
data_Dy5B2(O2F3)3
_symmetry_space_group_name_H-M   'P 1'
_cell_length_a   6.13807900
_cell_length_b   8.29811604
_cell_length_c   10.74116437
_cell_angle_alpha   99.66949744
_cell_angle_beta   106.60230602
_cell_angle_gamma   90.00000000
_symmetry_Int_Tables_number   1
_chemical_formula_structural   Dy5B2(O2F3)3
_chemical_formula_sum   'Dy10 B4 O12 F18'
_cell_volume   516.17201255
_cell_formula_units_Z   2
loop_
 _symmetry_equiv_pos_site_id
 _symmetry_equiv_pos_as_xyz
  1  'x, y, z'
loop_
 _atom_site_type_symbol
 _atom_site_label
 _atom_site_symmetry_multiplicity
 _atom_site_fract_x
 _atom_site_fract_y
 _atom_site_fract_z
 _atom_site_occupancy
  Dy  Dy0  1  0.18738300  0.68123100  0.61176100  1
  Dy  Dy1  1  0.57562200  0.81876900  0.38823900  1
  Dy  Dy2  1  0.81261700  0.31876900  0.38823900  1
  Dy  Dy3  1  0.42437800  0.18123100  0.61176100  1
  Dy  Dy4  1  0.00081100  0.09563900  0.78041300  1
  Dy  Dy5  1  0.22039700  0.40436100  0.21958700  1
  Dy  Dy6  1  0.99918900  0.90436100  0.21958700  1
  Dy  Dy7  1  0.77960300  0.59563900  0.78041300  1
  Dy  Dy8  1  0.39119800  0.75000000  0.00000000  1
  Dy  Dy9  1  0.60880200  0.25000000  0.00000000  1
  B  B10  1  0.48477000  0.93842400  0.77711000  1
  B  B11  1  0.70766000  0.56157600  0.22289000  1
  B  B12  1  0.51523000  0.06157600  0.22289000  1
  B  B13  1  0.29234000  0.43842400  0.77711000  1
  O  O14  1  0.64719800  0.06532100  0.81745700  1
  O  O15  1  0.82974000  0.43467900  0.18254300  1
  O  O16  1  0.35280200  0.93467900  0.18254300  1
  O  O17  1  0.17026000  0.56532100  0.81745700  1
  O  O18  1  0.28234800  0.96179100  0.68265100  1
  O  O19  1  0.59969700  0.53820900  0.31734900  1
  O  O20  1  0.71765200  0.03820900  0.31734900  1
  O  O21  1  0.40030300  0.46179100  0.68265100  1
  O  O22  1  0.30313200  0.28544600  0.81394100  1
  O  O23  1  0.48919100  0.21455400  0.18605900  1
  O  O24  1  0.69686800  0.71455400  0.18605900  1
  O  O25  1  0.51080900  0.78544600  0.81394100  1
  F  F26  1  0.86684100  0.52045600  0.57860900  1
  F  F27  1  0.28823100  0.97954400  0.42139100  1
  F  F28  1  0.13315900  0.47954400  0.42139100  1
  F  F29  1  0.71176900  0.02045600  0.57860900  1
  F  F30  1  0.94651800  0.81546900  0.73666600  1
  F  F31  1  0.20985200  0.68453100  0.26333400  1
  F  F32  1  0.05348200  0.18453100  0.26333400  1
  F  F33  1  0.79014800  0.31546900  0.73666600  1
  F  F34  1  0.01609700  0.75000000  0.00000000  1
  F  F35  1  0.98390300  0.25000000  0.00000000  1
  F  F36  1  0.50044700  0.71246100  0.55176100  1
  F  F37  1  0.94868600  0.78753900  0.44823900  1
  F  F38  1  0.49955300  0.28753900  0.44823900  1
  F  F39  1  0.05131400  0.21246100  0.55176100  1
  F  F40  1  0.28802300  0.01739100  0.93677100  1
  F  F41  1  0.35125200  0.48260900  0.06322900  1
  F  F42  1  0.71197700  0.98260900  0.06322900  1
  F  F43  1  0.64874800  0.51739100  0.93677100  1
