# generated using pymatgen
data_K5Hf3OF17
_symmetry_space_group_name_H-M   'P 1'
_cell_length_a   8.52634600
_cell_length_b   13.42791000
_cell_length_c   15.40928900
_cell_angle_alpha   90.00000000
_cell_angle_beta   90.00000000
_cell_angle_gamma   90.00000000
_symmetry_Int_Tables_number   1
_chemical_formula_structural   K5Hf3OF17
_chemical_formula_sum   'K20 Hf12 O4 F68'
_cell_volume   1764.22501040
_cell_formula_units_Z   4
loop_
 _symmetry_equiv_pos_site_id
 _symmetry_equiv_pos_as_xyz
  1  'x, y, z'
loop_
 _atom_site_type_symbol
 _atom_site_label
 _atom_site_symmetry_multiplicity
 _atom_site_fract_x
 _atom_site_fract_y
 _atom_site_fract_z
 _atom_site_occupancy
  K  K0  1  0.83824600  0.26715500  0.87169900  1
  K  K1  1  0.33824600  0.23284500  0.62830100  1
  K  K2  1  0.16175400  0.73284500  0.37169900  1
  K  K3  1  0.66175400  0.76715500  0.12830100  1
  K  K4  1  0.16175400  0.73284500  0.12830100  1
  K  K5  1  0.66175400  0.76715500  0.37169900  1
  K  K6  1  0.83824600  0.26715500  0.62830100  1
  K  K7  1  0.33824600  0.23284500  0.87169900  1
  K  K8  1  0.59322400  0.09326600  0.43722900  1
  K  K9  1  0.09322400  0.40673400  0.06277100  1
  K  K10  1  0.40677600  0.90673400  0.93722900  1
  K  K11  1  0.90677600  0.59326600  0.56277100  1
  K  K12  1  0.40677600  0.90673400  0.56277100  1
  K  K13  1  0.90677600  0.59326600  0.93722900  1
  K  K14  1  0.59322400  0.09326600  0.06277100  1
  K  K15  1  0.09322400  0.40673400  0.43722900  1
  K  K16  1  0.63676200  0.74000500  0.75000000  1
  K  K17  1  0.13676200  0.75999500  0.75000000  1
  K  K18  1  0.36323800  0.25999500  0.25000000  1
  K  K19  1  0.86323800  0.24000500  0.25000000  1
  Hf  Hf20  1  0.91581400  0.89636700  0.93958300  1
  Hf  Hf21  1  0.41581400  0.60363300  0.56041700  1
  Hf  Hf22  1  0.08418600  0.10363300  0.43958300  1
  Hf  Hf23  1  0.58418600  0.39636700  0.06041700  1
  Hf  Hf24  1  0.08418600  0.10363300  0.06041700  1
  Hf  Hf25  1  0.58418600  0.39636700  0.43958300  1
  Hf  Hf26  1  0.91581400  0.89636700  0.56041700  1
  Hf  Hf27  1  0.41581400  0.60363300  0.93958300  1
  Hf  Hf28  1  0.64903100  0.04818600  0.75000000  1
  Hf  Hf29  1  0.14903100  0.45181400  0.75000000  1
  Hf  Hf30  1  0.35096900  0.95181400  0.25000000  1
  Hf  Hf31  1  0.85096900  0.54818600  0.25000000  1
  O  O32  1  0.82889400  0.92030000  0.25000000  1
  O  O33  1  0.32889400  0.57970000  0.25000000  1
  O  O34  1  0.17110600  0.07970000  0.75000000  1
  O  O35  1  0.67110600  0.42030000  0.75000000  1
  F  F36  1  0.92937500  0.05669700  0.95569900  1
  F  F37  1  0.42937500  0.44330300  0.54430100  1
  F  F38  1  0.07062500  0.94330300  0.45569900  1
  F  F39  1  0.57062500  0.55669700  0.04430100  1
  F  F40  1  0.07062500  0.94330300  0.04430100  1
  F  F41  1  0.57062500  0.55669700  0.45569900  1
  F  F42  1  0.92937500  0.05669700  0.54430100  1
  F  F43  1  0.42937500  0.44330300  0.95569900  1
  F  F44  1  0.93578700  0.77800100  0.02119300  1
  F  F45  1  0.43578700  0.72199900  0.47880700  1
  F  F46  1  0.06421300  0.22199900  0.52119300  1
  F  F47  1  0.56421300  0.27800100  0.97880700  1
  F  F48  1  0.06421300  0.22199900  0.97880700  1
  F  F49  1  0.56421300  0.27800100  0.52119300  1
  F  F50  1  0.93578700  0.77800100  0.47880700  1
  F  F51  1  0.43578700  0.72199900  0.02119300  1
  F  F52  1  0.87463000  0.77667600  0.86201200  1
  F  F53  1  0.37463000  0.72332400  0.63798800  1
  F  F54  1  0.12537000  0.22332400  0.36201200  1
  F  F55  1  0.62537000  0.27667600  0.13798800  1
  F  F56  1  0.12537000  0.22332400  0.13798800  1
  F  F57  1  0.62537000  0.27667600  0.36201200  1
  F  F58  1  0.87463000  0.77667600  0.63798800  1
  F  F59  1  0.37463000  0.72332400  0.86201200  1
  F  F60  1  0.79030000  0.95415500  0.83461700  1
  F  F61  1  0.29030000  0.54584500  0.66538300  1
  F  F62  1  0.20970000  0.04584500  0.33461700  1
  F  F63  1  0.70970000  0.45415500  0.16538300  1
  F  F64  1  0.20970000  0.04584500  0.16538300  1
  F  F65  1  0.70970000  0.45415500  0.33461700  1
  F  F66  1  0.79030000  0.95415500  0.66538300  1
  F  F67  1  0.29030000  0.54584500  0.83461700  1
  F  F68  1  0.70862700  0.91128000  0.00215000  1
  F  F69  1  0.20862700  0.58872000  0.49785000  1
  F  F70  1  0.29137300  0.08872000  0.50215000  1
  F  F71  1  0.79137300  0.41128000  0.99785000  1
  F  F72  1  0.29137300  0.08872000  0.99785000  1
  F  F73  1  0.79137300  0.41128000  0.50215000  1
  F  F74  1  0.70862700  0.91128000  0.49785000  1
  F  F75  1  0.20862700  0.58872000  0.00215000  1
  F  F76  1  0.11987400  0.90125700  0.87577500  1
  F  F77  1  0.61987400  0.59874300  0.62422500  1
  F  F78  1  0.88012600  0.09874300  0.37577500  1
  F  F79  1  0.38012600  0.40125700  0.12422500  1
  F  F80  1  0.88012600  0.09874300  0.12422500  1
  F  F81  1  0.38012600  0.40125700  0.37577500  1
  F  F82  1  0.11987400  0.90125700  0.62422500  1
  F  F83  1  0.61987400  0.59874300  0.87577500  1
  F  F84  1  0.85163900  0.12502500  0.75000000  1
  F  F85  1  0.35163900  0.37497500  0.75000000  1
  F  F86  1  0.14836100  0.87497500  0.25000000  1
  F  F87  1  0.64836100  0.62502500  0.25000000  1
  F  F88  1  0.55474000  0.06828700  0.63033500  1
  F  F89  1  0.05474000  0.43171300  0.86966500  1
  F  F90  1  0.44526000  0.93171300  0.13033500  1
  F  F91  1  0.94526000  0.56828700  0.36966500  1
  F  F92  1  0.44526000  0.93171300  0.36966500  1
  F  F93  1  0.94526000  0.56828700  0.13033500  1
  F  F94  1  0.55474000  0.06828700  0.86966500  1
  F  F95  1  0.05474000  0.43171300  0.63033500  1
  F  F96  1  0.50397600  0.92733700  0.75000000  1
  F  F97  1  0.00397600  0.57266300  0.75000000  1
  F  F98  1  0.49602400  0.07266300  0.25000000  1
  F  F99  1  0.99602400  0.42733700  0.25000000  1
  F  F100  1  0.56738500  0.19254900  0.75000000  1
  F  F101  1  0.06738500  0.30745100  0.75000000  1
  F  F102  1  0.43261500  0.80745100  0.25000000  1
  F  F103  1  0.93261500  0.69254900  0.25000000  1
