# generated using pymatgen
data_Na2Fe2F7
_symmetry_space_group_name_H-M   'P 1'
_cell_length_a   7.44605847
_cell_length_b   7.44605847
_cell_length_c   25.06268983
_cell_angle_alpha   81.38097792
_cell_angle_beta   81.38097792
_cell_angle_gamma   60.53651624
_symmetry_Int_Tables_number   1
_chemical_formula_structural   Na2Fe2F7
_chemical_formula_sum   'Na16 Fe16 F56'
_cell_volume   1191.50360006
_cell_formula_units_Z   8
loop_
 _symmetry_equiv_pos_site_id
 _symmetry_equiv_pos_as_xyz
  1  'x, y, z'
loop_
 _atom_site_type_symbol
 _atom_site_label
 _atom_site_symmetry_multiplicity
 _atom_site_fract_x
 _atom_site_fract_y
 _atom_site_fract_z
 _atom_site_occupancy
  Na  Na0  1  0.00000000  0.00000000  0.00000000  1
  Na  Na1  1  0.00000000  0.00000000  0.50000000  1
  Na  Na2  1  0.50000000  0.50000000  0.00000000  1
  Na  Na3  1  0.50000000  0.50000000  0.50000000  1
  Na  Na4  1  0.00000000  0.50000000  0.50000000  1
  Na  Na5  1  0.50000000  0.00000000  0.00000000  1
  Na  Na6  1  0.78474300  0.21525700  0.25000000  1
  Na  Na7  1  0.21525700  0.78474300  0.75000000  1
  Na  Na8  1  0.78960500  0.70407200  0.25232100  1
  Na  Na9  1  0.29592800  0.21039500  0.24767900  1
  Na  Na10  1  0.21039500  0.29592800  0.74767900  1
  Na  Na11  1  0.70407200  0.78960500  0.75232100  1
  Na  Na12  1  0.13359100  0.11973700  0.12147700  1
  Na  Na13  1  0.88026300  0.86640900  0.37852300  1
  Na  Na14  1  0.86640900  0.88026300  0.87852300  1
  Na  Na15  1  0.11973700  0.13359100  0.62147700  1
  Fe  Fe16  1  0.62873100  0.61495700  0.12741600  1
  Fe  Fe17  1  0.38504300  0.37126900  0.37258400  1
  Fe  Fe18  1  0.37126900  0.38504300  0.87258400  1
  Fe  Fe19  1  0.61495700  0.62873100  0.62741600  1
  Fe  Fe20  1  0.13488500  0.61319700  0.12551800  1
  Fe  Fe21  1  0.38680300  0.86511500  0.37448200  1
  Fe  Fe22  1  0.86511500  0.38680300  0.87448200  1
  Fe  Fe23  1  0.61319700  0.13488500  0.62551800  1
  Fe  Fe24  1  0.00000000  0.50000000  0.00000000  1
  Fe  Fe25  1  0.50000000  0.00000000  0.50000000  1
  Fe  Fe26  1  0.24525200  0.75474800  0.25000000  1
  Fe  Fe27  1  0.75474800  0.24525200  0.75000000  1
  Fe  Fe28  1  0.63560600  0.11100500  0.12579100  1
  Fe  Fe29  1  0.88899500  0.36439400  0.37420900  1
  Fe  Fe30  1  0.36439400  0.88899500  0.87420900  1
  Fe  Fe31  1  0.11100500  0.63560600  0.62579100  1
  F  F32  1  0.74597500  0.58115300  0.04708100  1
  F  F33  1  0.41884700  0.25402500  0.45291900  1
  F  F34  1  0.25402500  0.41884700  0.95291900  1
  F  F35  1  0.58115300  0.74597500  0.54708100  1
  F  F36  1  0.52268600  0.63908300  0.20914800  1
  F  F37  1  0.36091700  0.47731400  0.29085200  1
  F  F38  1  0.47731400  0.36091700  0.79085200  1
  F  F39  1  0.63908300  0.52268600  0.70914800  1
  F  F40  1  0.72829600  0.29876700  0.14199200  1
  F  F41  1  0.70123300  0.27170400  0.35800800  1
  F  F42  1  0.27170400  0.70123300  0.85800800  1
  F  F43  1  0.29876700  0.72829600  0.64199200  1
  F  F44  1  0.53301200  0.92849800  0.11044100  1
  F  F45  1  0.07150200  0.46698800  0.38955900  1
  F  F46  1  0.46698800  0.07150200  0.88955900  1
  F  F47  1  0.92849800  0.53301200  0.61044100  1
  F  F48  1  0.13796800  0.57776300  0.04459900  1
  F  F49  1  0.42223700  0.86203200  0.45540100  1
  F  F50  1  0.86203200  0.42223700  0.95540100  1
  F  F51  1  0.57776300  0.13796800  0.54459900  1
  F  F52  1  0.13551600  0.63955600  0.20702700  1
  F  F53  1  0.36044400  0.86448400  0.29297300  1
  F  F54  1  0.86448400  0.36044400  0.79297300  1
  F  F55  1  0.63955600  0.13551600  0.70702700  1
  F  F56  1  0.93242800  0.92535500  0.10897700  1
  F  F57  1  0.07464500  0.06757200  0.39102300  1
  F  F58  1  0.06757200  0.07464500  0.89102300  1
  F  F59  1  0.92535500  0.93242800  0.60897700  1
  F  F60  1  0.33912200  0.30026300  0.14187300  1
  F  F61  1  0.69973700  0.66087800  0.35812700  1
  F  F62  1  0.66087800  0.69973700  0.85812700  1
  F  F63  1  0.30026300  0.33912200  0.64187300  1
  F  F64  1  0.91004000  0.52859900  0.15656000  1
  F  F65  1  0.47140100  0.08996000  0.34344000  1
  F  F66  1  0.08996000  0.47140100  0.84344000  1
  F  F67  1  0.52859900  0.91004000  0.65656000  1
  F  F68  1  0.35806100  0.69735700  0.09304900  1
  F  F69  1  0.30264300  0.64193900  0.40695100  1
  F  F70  1  0.64193900  0.30264300  0.90695100  1
  F  F71  1  0.69735700  0.35806100  0.59304900  1
  F  F72  1  0.12970000  0.20688700  0.03203100  1
  F  F73  1  0.79311300  0.87030000  0.46796900  1
  F  F74  1  0.87030000  0.79311300  0.96796900  1
  F  F75  1  0.20688700  0.12970000  0.53203100  1
  F  F76  1  0.97657200  0.86196100  0.29146200  1
  F  F77  1  0.13803900  0.02342800  0.20853800  1
  F  F78  1  0.02342800  0.13803900  0.70853800  1
  F  F79  1  0.86196100  0.97657200  0.79146200  1
  F  F80  1  0.64091200  0.02541600  0.20408100  1
  F  F81  1  0.97458400  0.35908800  0.29591900  1
  F  F82  1  0.35908800  0.97458400  0.79591900  1
  F  F83  1  0.02541600  0.64091200  0.70408100  1
  F  F84  1  0.63439400  0.18971500  0.04698700  1
  F  F85  1  0.81028500  0.36560600  0.45301300  1
  F  F86  1  0.36560600  0.81028500  0.95301300  1
  F  F87  1  0.18971500  0.63439400  0.54698700  1
