# generated using pymatgen
data_Ta4Ag2O11
_symmetry_space_group_name_H-M   'P 1'
_cell_length_a   12.97141786
_cell_length_b   12.97141786
_cell_length_c   12.97141809
_cell_angle_alpha   27.98686432
_cell_angle_beta   27.98686432
_cell_angle_gamma   27.98686228
_symmetry_Int_Tables_number   1
_chemical_formula_structural   Ta4Ag2O11
_chemical_formula_sum   'Ta8 Ag4 O22'
_cell_volume   424.50030210
_cell_formula_units_Z   2
loop_
 _symmetry_equiv_pos_site_id
 _symmetry_equiv_pos_as_xyz
  1  'x, y, z'
loop_
 _atom_site_type_symbol
 _atom_site_label
 _atom_site_symmetry_multiplicity
 _atom_site_fract_x
 _atom_site_fract_y
 _atom_site_fract_z
 _atom_site_occupancy
  Ta  Ta0  1  0.88615500  0.61384500  0.25000000  1
  Ta  Ta1  1  0.25000000  0.88615500  0.61384500  1
  Ta  Ta2  1  0.61384500  0.25000000  0.88615500  1
  Ta  Ta3  1  0.75000000  0.11384500  0.38615500  1
  Ta  Ta4  1  0.38615500  0.75000000  0.11384500  1
  Ta  Ta5  1  0.11384500  0.38615500  0.75000000  1
  Ta  Ta6  1  0.50000000  0.50000000  0.50000000  1
  Ta  Ta7  1  0.00000000  0.00000000  0.00000000  1
  Ag  Ag8  1  0.17143500  0.17143500  0.17143500  1
  Ag  Ag9  1  0.67143500  0.67143500  0.67143500  1
  Ag  Ag10  1  0.82856500  0.82856500  0.82856500  1
  Ag  Ag11  1  0.32856500  0.32856500  0.32856500  1
  O  O12  1  0.24462300  0.93647400  0.72588600  1
  O  O13  1  0.72588600  0.24462300  0.93647400  1
  O  O14  1  0.93647400  0.72588600  0.24462300  1
  O  O15  1  0.22588600  0.43647400  0.74462300  1
  O  O16  1  0.74462300  0.22588600  0.43647400  1
  O  O17  1  0.43647400  0.74462300  0.22588600  1
  O  O18  1  0.75537700  0.06352600  0.27411400  1
  O  O19  1  0.27411400  0.75537700  0.06352600  1
  O  O20  1  0.06352600  0.27411400  0.75537700  1
  O  O21  1  0.77411400  0.56352600  0.25537700  1
  O  O22  1  0.25537700  0.77411400  0.56352600  1
  O  O23  1  0.56352600  0.25537700  0.77411400  1
  O  O24  1  0.49956800  0.00043200  0.25000000  1
  O  O25  1  0.25000000  0.49956800  0.00043200  1
  O  O26  1  0.00043200  0.25000000  0.49956800  1
  O  O27  1  0.75000000  0.50043200  0.99956800  1
  O  O28  1  0.99956800  0.75000000  0.50043200  1
  O  O29  1  0.50043200  0.99956800  0.75000000  1
  O  O30  1  0.09330500  0.09330500  0.09330500  1
  O  O31  1  0.59330500  0.59330500  0.59330500  1
  O  O32  1  0.90669500  0.90669500  0.90669500  1
  O  O33  1  0.40669500  0.40669500  0.40669500  1
