# generated using pymatgen
data_In10(Pb2S7)3
_symmetry_space_group_name_H-M   'P 1'
_cell_length_a   14.13573972
_cell_length_b   14.13573972
_cell_length_c   15.93985637
_cell_angle_alpha   84.83459111
_cell_angle_beta   84.83459111
_cell_angle_gamma   15.91553337
_symmetry_Int_Tables_number   1
_chemical_formula_structural   In10(Pb2S7)3
_chemical_formula_sum   'In10 Pb6 S21'
_cell_volume   869.79830179
_cell_formula_units_Z   1
loop_
 _symmetry_equiv_pos_site_id
 _symmetry_equiv_pos_as_xyz
  1  'x, y, z'
loop_
 _atom_site_type_symbol
 _atom_site_label
 _atom_site_symmetry_multiplicity
 _atom_site_fract_x
 _atom_site_fract_y
 _atom_site_fract_z
 _atom_site_occupancy
  In  In0  1  0.68782200  0.68782200  0.51538200  1
  In  In1  1  0.31217800  0.31217800  0.48461800  1
  In  In2  1  0.78510100  0.78510100  0.69205500  1
  In  In3  1  0.21489900  0.21489900  0.30794500  1
  In  In4  1  0.26467500  0.26467500  0.89235500  1
  In  In5  1  0.73532500  0.73532500  0.10764500  1
  In  In6  1  0.51336300  0.51336300  0.87101500  1
  In  In7  1  0.48663700  0.48663700  0.12898500  1
  In  In8  1  0.90047400  0.90047400  0.98123100  1
  In  In9  1  0.09952600  0.09952600  0.01876900  1
  Pb  Pb10  1  0.92561900  0.92561900  0.70590500  1
  Pb  Pb11  1  0.07438100  0.07438100  0.29409500  1
  Pb  Pb12  1  0.04959600  0.04959600  0.56814900  1
  Pb  Pb13  1  0.95040400  0.95040400  0.43185100  1
  Pb  Pb14  1  0.13704300  0.13704300  0.75863900  1
  Pb  Pb15  1  0.86295700  0.86295700  0.24136100  1
  S  S16  1  0.00000000  0.00000000  0.00000000  1
  S  S17  1  0.02596200  0.02596200  0.76395300  1
  S  S18  1  0.97403800  0.97403800  0.23604700  1
  S  S19  1  0.32754300  0.32754300  0.76138400  1
  S  S20  1  0.67245700  0.67245700  0.23861600  1
  S  S21  1  0.23606600  0.23606600  0.59796000  1
  S  S22  1  0.76393400  0.76393400  0.40204000  1
  S  S23  1  0.42133700  0.42133700  0.87349100  1
  S  S24  1  0.57866300  0.57866300  0.12650900  1
  S  S25  1  0.60214300  0.60214300  0.90427300  1
  S  S26  1  0.39785700  0.39785700  0.09572700  1
  S  S27  1  0.61812800  0.61812800  0.63259500  1
  S  S28  1  0.38187200  0.38187200  0.36740500  1
  S  S29  1  0.46503700  0.46503700  0.59297100  1
  S  S30  1  0.53496300  0.53496300  0.40702900  1
  S  S31  1  0.80449300  0.80449300  0.97611300  1
  S  S32  1  0.19550700  0.19550700  0.02388700  1
  S  S33  1  0.71878600  0.71878600  0.81222200  1
  S  S34  1  0.28121400  0.28121400  0.18777800  1
  S  S35  1  0.84942300  0.84942300  0.56492100  1
  S  S36  1  0.15057700  0.15057700  0.43507900  1
