# generated using pymatgen
data_Y2Mo4O15
_symmetry_space_group_name_H-M   'P 1'
_cell_length_a   9.75268400
_cell_length_b   6.93060800
_cell_length_c   10.73216032
_cell_angle_alpha   74.58132568
_cell_angle_beta   90.00000000
_cell_angle_gamma   90.00000000
_symmetry_Int_Tables_number   1
_chemical_formula_structural   Y2Mo4O15
_chemical_formula_sum   'Y4 Mo8 O30'
_cell_volume   699.30017783
_cell_formula_units_Z   2
loop_
 _symmetry_equiv_pos_site_id
 _symmetry_equiv_pos_as_xyz
  1  'x, y, z'
loop_
 _atom_site_type_symbol
 _atom_site_label
 _atom_site_symmetry_multiplicity
 _atom_site_fract_x
 _atom_site_fract_y
 _atom_site_fract_z
 _atom_site_occupancy
  Y  Y0  1  0.52315100  0.71134400  0.72341200  1
  Y  Y1  1  0.02315100  0.28865600  0.77658800  1
  Y  Y2  1  0.47684900  0.28865600  0.27658800  1
  Y  Y3  1  0.97684900  0.71134400  0.22341200  1
  Mo  Mo4  1  0.74359000  0.41826500  0.51110500  1
  Mo  Mo5  1  0.24359000  0.58173500  0.98889500  1
  Mo  Mo6  1  0.25641000  0.58173500  0.48889500  1
  Mo  Mo7  1  0.75641000  0.41826500  0.01110500  1
  Mo  Mo8  1  0.90473600  0.87950100  0.65594400  1
  Mo  Mo9  1  0.40473600  0.12049900  0.84405600  1
  Mo  Mo10  1  0.09526400  0.12049900  0.34405600  1
  Mo  Mo11  1  0.59526400  0.87950100  0.15594400  1
  O  O12  1  0.62690600  0.52300200  0.60328500  1
  O  O13  1  0.12690600  0.47699800  0.89671500  1
  O  O14  1  0.37309400  0.47699800  0.39671500  1
  O  O15  1  0.87309400  0.52300200  0.10328500  1
  O  O16  1  0.84841400  0.27860600  0.91961700  1
  O  O17  1  0.34841400  0.72139400  0.58038300  1
  O  O18  1  0.15158600  0.72139400  0.08038300  1
  O  O19  1  0.65158600  0.27860600  0.41961700  1
  O  O20  1  0.66758500  0.61660100  0.89895500  1
  O  O21  1  0.16758500  0.38339900  0.60104500  1
  O  O22  1  0.33241500  0.38339900  0.10104500  1
  O  O23  1  0.83241500  0.61660100  0.39895500  1
  O  O24  1  0.86539200  0.25577900  0.61776600  1
  O  O25  1  0.36539200  0.74422100  0.88223400  1
  O  O26  1  0.13460800  0.74422100  0.38223400  1
  O  O27  1  0.63460800  0.25577900  0.11776600  1
  O  O28  1  0.94372000  0.62168200  0.68364300  1
  O  O29  1  0.44372000  0.37831800  0.81635700  1
  O  O30  1  0.05628000  0.37831800  0.31635700  1
  O  O31  1  0.55628000  0.62168200  0.18364300  1
  O  O32  1  0.72318300  0.88764000  0.64720700  1
  O  O33  1  0.22318300  0.11236000  0.85279300  1
  O  O34  1  0.27681700  0.11236000  0.35279300  1
  O  O35  1  0.77681700  0.88764000  0.14720700  1
  O  O36  1  0.97201200  0.94731600  0.79242600  1
  O  O37  1  0.47201200  0.05268400  0.70757400  1
  O  O38  1  0.02798800  0.05268400  0.20757400  1
  O  O39  1  0.52798800  0.94731600  0.29242600  1
  O  O40  1  0.50000000  0.00000000  0.00000000  1
  O  O41  1  0.00000000  0.00000000  0.50000000  1
