# generated using pymatgen
data_Ho3InS6
_symmetry_space_group_name_H-M   'P 1'
_cell_length_a   3.85801500
_cell_length_b   13.39573000
_cell_length_c   16.54785800
_cell_angle_alpha   90.00000000
_cell_angle_beta   90.00000000
_cell_angle_gamma   90.00000000
_symmetry_Int_Tables_number   1
_chemical_formula_structural   Ho3InS6
_chemical_formula_sum   'Ho12 In4 S24'
_cell_volume   855.20864587
_cell_formula_units_Z   4
loop_
 _symmetry_equiv_pos_site_id
 _symmetry_equiv_pos_as_xyz
  1  'x, y, z'
loop_
 _atom_site_type_symbol
 _atom_site_label
 _atom_site_symmetry_multiplicity
 _atom_site_fract_x
 _atom_site_fract_y
 _atom_site_fract_z
 _atom_site_occupancy
  Ho  Ho0  1  0.25412200  0.03633400  0.77679200  1
  Ho  Ho1  1  0.25412200  0.96366600  0.22320800  1
  Ho  Ho2  1  0.74587800  0.46366600  0.27679200  1
  Ho  Ho3  1  0.74587800  0.53633400  0.72320800  1
  Ho  Ho4  1  0.26342900  0.24664200  0.61075500  1
  Ho  Ho5  1  0.26342900  0.75335800  0.38924500  1
  Ho  Ho6  1  0.73657100  0.25335800  0.11075500  1
  Ho  Ho7  1  0.73657100  0.74664200  0.88924500  1
  Ho  Ho8  1  0.74713900  0.30964600  0.85613200  1
  Ho  Ho9  1  0.74713900  0.69035400  0.14386800  1
  Ho  Ho10  1  0.25286100  0.19035400  0.35613200  1
  Ho  Ho11  1  0.25286100  0.80964600  0.64386800  1
  In  In12  1  0.75158200  0.00000000  0.50000000  1
  In  In13  1  0.24841800  0.50000000  0.00000000  1
  In  In14  1  0.39723000  0.50000000  0.50000000  1
  In  In15  1  0.60277000  0.00000000  0.00000000  1
  S  S16  1  0.76985800  0.39641300  0.59380300  1
  S  S17  1  0.76985800  0.60358700  0.40619700  1
  S  S18  1  0.23014200  0.10358700  0.09380300  1
  S  S19  1  0.23014200  0.89641300  0.90619700  1
  S  S20  1  0.24641600  0.30703900  0.98057900  1
  S  S21  1  0.24641600  0.69296100  0.01942100  1
  S  S22  1  0.75358400  0.19296100  0.48057900  1
  S  S23  1  0.75358400  0.80703900  0.51942100  1
  S  S24  1  0.75237000  0.10814800  0.88462400  1
  S  S25  1  0.75237000  0.89185200  0.11537600  1
  S  S26  1  0.24763000  0.39185200  0.38462400  1
  S  S27  1  0.24763000  0.60814800  0.61537600  1
  S  S28  1  0.75897500  0.17905800  0.71710300  1
  S  S29  1  0.75897500  0.82094200  0.28289700  1
  S  S30  1  0.24102500  0.32094200  0.21710300  1
  S  S31  1  0.24102500  0.67905800  0.78289700  1
  S  S32  1  0.24876200  0.38478900  0.75612800  1
  S  S33  1  0.24876200  0.61521100  0.24387200  1
  S  S34  1  0.75123800  0.11521100  0.25612800  1
  S  S35  1  0.75123800  0.88478900  0.74387200  1
  S  S36  1  0.25289100  0.02064700  0.60629900  1
  S  S37  1  0.25289100  0.97935300  0.39370100  1
  S  S38  1  0.74710900  0.47935300  0.10629900  1
  S  S39  1  0.74710900  0.52064700  0.89370100  1
