# generated using pymatgen
data_Na2CoP4(H2O3)6
_symmetry_space_group_name_H-M   'P 1'
_cell_length_a   11.58173700
_cell_length_b   8.10536400
_cell_length_c   9.08680403
_cell_angle_alpha   67.59856666
_cell_angle_beta   90.00000000
_cell_angle_gamma   90.00000000
_symmetry_Int_Tables_number   1
_chemical_formula_structural   Na2CoP4(H2O3)6
_chemical_formula_sum   'Na4 Co2 P8 H24 O36'
_cell_volume   788.64480263
_cell_formula_units_Z   2
loop_
 _symmetry_equiv_pos_site_id
 _symmetry_equiv_pos_as_xyz
  1  'x, y, z'
loop_
 _atom_site_type_symbol
 _atom_site_label
 _atom_site_symmetry_multiplicity
 _atom_site_fract_x
 _atom_site_fract_y
 _atom_site_fract_z
 _atom_site_occupancy
  Na  Na0  1  0.25000000  0.98683000  0.55036300  1
  Na  Na1  1  0.75000000  0.01317000  0.44963700  1
  Na  Na2  1  0.25000000  0.24300700  0.09250600  1
  Na  Na3  1  0.75000000  0.75699300  0.90749400  1
  Co  Co4  1  0.25000000  0.52855000  0.73595400  1
  Co  Co5  1  0.75000000  0.47145000  0.26404600  1
  P  P6  1  0.00237200  0.30929400  0.83109800  1
  P  P7  1  0.50237200  0.69070600  0.16890200  1
  P  P8  1  0.99762800  0.69070600  0.16890200  1
  P  P9  1  0.49762800  0.30929400  0.83109800  1
  P  P10  1  0.51004600  0.70155000  0.64731300  1
  P  P11  1  0.01004600  0.29845000  0.35268700  1
  P  P12  1  0.48995400  0.29845000  0.35268700  1
  P  P13  1  0.98995400  0.70155000  0.64731300  1
  H  H14  1  0.01965200  0.17075400  0.66470800  1
  H  H15  1  0.51965200  0.82924600  0.33529200  1
  H  H16  1  0.98034800  0.82924600  0.33529200  1
  H  H17  1  0.48034800  0.17075400  0.66470800  1
  H  H18  1  0.50609300  0.74510900  0.87572700  1
  H  H19  1  0.00609300  0.25489100  0.12427300  1
  H  H20  1  0.49390700  0.25489100  0.12427300  1
  H  H21  1  0.99390700  0.74510900  0.87572700  1
  H  H22  1  0.18039700  0.62290300  0.97666400  1
  H  H23  1  0.68039700  0.37709700  0.02333600  1
  H  H24  1  0.81960300  0.37709700  0.02333600  1
  H  H25  1  0.31960300  0.62290300  0.97666400  1
  H  H26  1  0.18307400  0.41102700  0.51395800  1
  H  H27  1  0.68307400  0.58897300  0.48604200  1
  H  H28  1  0.81692600  0.58897300  0.48604200  1
  H  H29  1  0.31692600  0.41102700  0.51395800  1
  H  H30  1  0.25000000  0.10199600  0.83223800  1
  H  H31  1  0.75000000  0.89800400  0.16776200  1
  H  H32  1  0.18179900  0.88470700  0.29634300  1
  H  H33  1  0.68179900  0.11529300  0.70365700  1
  H  H34  1  0.81820100  0.11529300  0.70365700  1
  H  H35  1  0.31820100  0.88470700  0.29634300  1
  H  H36  1  0.25000000  0.89526000  0.88972000  1
  H  H37  1  0.75000000  0.10474000  0.11028000  1
  O  O38  1  0.97066600  0.16402800  0.76170700  1
  O  O39  1  0.47066600  0.83597200  0.23829300  1
  O  O40  1  0.02933400  0.83597200  0.23829300  1
  O  O41  1  0.52933400  0.16402800  0.76170700  1
  O  O42  1  0.93182200  0.27470200  0.98050700  1
  O  O43  1  0.43182200  0.72529800  0.01949300  1
  O  O44  1  0.06817800  0.72529800  0.01949300  1
  O  O45  1  0.56817800  0.27470200  0.98050700  1
  O  O46  1  0.13153800  0.32314500  0.85052400  1
  O  O47  1  0.63153800  0.67685500  0.14947600  1
  O  O48  1  0.86846200  0.67685500  0.14947600  1
  O  O49  1  0.36846200  0.32314500  0.85052400  1
  O  O50  1  0.58018000  0.79740500  0.49773900  1
  O  O51  1  0.08018000  0.20259500  0.50226100  1
  O  O52  1  0.41982000  0.20259500  0.50226100  1
  O  O53  1  0.91982000  0.79740500  0.49773900  1
  O  O54  1  0.56320100  0.74846600  0.78664400  1
  O  O55  1  0.06320100  0.25153400  0.21335600  1
  O  O56  1  0.43679900  0.25153400  0.21335600  1
  O  O57  1  0.93679900  0.74846600  0.78664400  1
  O  O58  1  0.38015500  0.72104000  0.63954200  1
  O  O59  1  0.88015500  0.27896000  0.36045800  1
  O  O60  1  0.61984500  0.27896000  0.36045800  1
  O  O61  1  0.11984500  0.72104000  0.63954200  1
  O  O62  1  0.54286300  0.49166400  0.69142900  1
  O  O63  1  0.04286300  0.50833600  0.30857100  1
  O  O64  1  0.45713700  0.50833600  0.30857100  1
  O  O65  1  0.95713700  0.49166400  0.69142900  1
  O  O66  1  0.25000000  0.56766700  0.94822500  1
  O  O67  1  0.75000000  0.43233300  0.05177500  1
  O  O68  1  0.25000000  0.47688400  0.53030400  1
  O  O69  1  0.75000000  0.52311600  0.46969600  1
  O  O70  1  0.25000000  0.00460100  0.79465700  1
  O  O71  1  0.75000000  0.99539900  0.20534300  1
  O  O72  1  0.75000000  0.04377800  0.70243800  1
  O  O73  1  0.25000000  0.95622200  0.29756200  1
