# generated using pymatgen
data_Fe2P3O13
_symmetry_space_group_name_H-M   'P 1'
_cell_length_a   7.29588244
_cell_length_b   8.36468449
_cell_length_c   11.21387500
_cell_angle_alpha   90.00000000
_cell_angle_beta   90.00000000
_cell_angle_gamma   109.80935342
_symmetry_Int_Tables_number   1
_chemical_formula_structural   Fe2P3O13
_chemical_formula_sum   'Fe4 P6 O26'
_cell_volume   643.86106440
_cell_formula_units_Z   2
loop_
 _symmetry_equiv_pos_site_id
 _symmetry_equiv_pos_as_xyz
  1  'x, y, z'
loop_
 _atom_site_type_symbol
 _atom_site_label
 _atom_site_symmetry_multiplicity
 _atom_site_fract_x
 _atom_site_fract_y
 _atom_site_fract_z
 _atom_site_occupancy
  Fe  Fe0  1  0.95111200  0.61740400  0.38136400  1
  Fe  Fe1  1  0.04888800  0.38259600  0.88136400  1
  Fe  Fe2  1  0.60216700  0.98539400  0.62455900  1
  Fe  Fe3  1  0.39783300  0.01460600  0.12455900  1
  P  P4  1  0.90446100  0.40393700  0.61781700  1
  P  P5  1  0.09553900  0.59606300  0.11781700  1
  P  P6  1  0.61915500  0.76304500  0.40785800  1
  P  P7  1  0.38084500  0.23695500  0.90785800  1
  P  P8  1  0.35465200  0.95916600  0.39132200  1
  P  P9  1  0.64534800  0.04083500  0.89132200  1
  O  O10  1  0.77778600  0.73639900  0.32717100  1
  O  O11  1  0.22221400  0.26360100  0.82717100  1
  O  O12  1  0.66923200  0.93130800  0.78788100  1
  O  O13  1  0.33076800  0.06869200  0.28788100  1
  O  O14  1  0.71746600  0.86820400  0.51681000  1
  O  O15  1  0.28253400  0.13179600  0.01681000  1
  O  O16  1  0.49128000  0.12929500  0.83488800  1
  O  O17  1  0.50872000  0.87070500  0.33488800  1
  O  O18  1  0.01053500  0.46763300  0.50121600  1
  O  O19  1  0.98946500  0.53236700  0.00121600  1
  O  O20  1  0.16682400  0.81259300  0.42037900  1
  O  O21  1  0.83317600  0.18740700  0.92037900  1
  O  O22  1  0.99022400  0.51690200  0.23233200  1
  O  O23  1  0.00977600  0.48309800  0.73233200  1
  O  O24  1  0.44802900  0.05910500  0.50190900  1
  O  O25  1  0.55197100  0.94089500  0.00190900  1
  O  O26  1  0.79937500  0.21638900  0.63029200  1
  O  O27  1  0.20062500  0.78361100  0.13029200  1
  O  O28  1  0.71544900  0.48840700  0.60827800  1
  O  O29  1  0.28455100  0.51159300  0.10827800  1
  O  O30  1  0.67521000  0.49372600  0.49022300  1
  O  O31  1  0.32479000  0.50627400  0.99022300  1
  O  O32  1  0.35595900  0.81221000  0.66530100  1
  O  O33  1  0.64404100  0.18779000  0.16530100  1
  O  O34  1  0.45173000  0.59551000  0.43460100  1
  O  O35  1  0.54827000  0.40449000  0.93460100  1
