# generated using pymatgen
data_Mg2H18Se2O17
_symmetry_space_group_name_H-M   'P 1'
_cell_length_a   20.18433200
_cell_length_b   7.28758900
_cell_length_c   10.54424340
_cell_angle_alpha   77.48725947
_cell_angle_beta   90.00000000
_cell_angle_gamma   90.00000000
_symmetry_Int_Tables_number   1
_chemical_formula_structural   Mg2H18Se2O17
_chemical_formula_sum   'Mg8 H72 Se8 O68'
_cell_volume   1514.16696812
_cell_formula_units_Z   4
loop_
 _symmetry_equiv_pos_site_id
 _symmetry_equiv_pos_as_xyz
  1  'x, y, z'
loop_
 _atom_site_type_symbol
 _atom_site_label
 _atom_site_symmetry_multiplicity
 _atom_site_fract_x
 _atom_site_fract_y
 _atom_site_fract_z
 _atom_site_occupancy
  Mg  Mg0  1  0.35031400  0.73853500  0.47686100  1
  Mg  Mg1  1  0.85031400  0.76146500  0.52313900  1
  Mg  Mg2  1  0.64968600  0.26146500  0.52313900  1
  Mg  Mg3  1  0.14968600  0.23853500  0.47686100  1
  Mg  Mg4  1  0.37924800  0.75579600  0.98391100  1
  Mg  Mg5  1  0.87924800  0.74420400  0.01608900  1
  Mg  Mg6  1  0.62075200  0.24420400  0.01608900  1
  Mg  Mg7  1  0.12075200  0.25579600  0.98391100  1
  H  H8  1  0.40556700  0.04419900  0.55342800  1
  H  H9  1  0.90556700  0.45580100  0.44657200  1
  H  H10  1  0.59443300  0.95580100  0.44657200  1
  H  H11  1  0.09443300  0.54419900  0.55342800  1
  H  H12  1  0.30994400  0.44382400  0.09619100  1
  H  H13  1  0.80994400  0.05617600  0.90380900  1
  H  H14  1  0.69005600  0.55617600  0.90380900  1
  H  H15  1  0.19005600  0.94382400  0.09619100  1
  H  H16  1  0.30561200  0.07197000  0.87189000  1
  H  H17  1  0.80561200  0.42803000  0.12811000  1
  H  H18  1  0.69438800  0.92803000  0.12811000  1
  H  H19  1  0.19438800  0.57197000  0.87189000  1
  H  H20  1  0.26466100  0.88908200  0.86599200  1
  H  H21  1  0.76466100  0.61091800  0.13400800  1
  H  H22  1  0.73533900  0.11091800  0.13400800  1
  H  H23  1  0.23533900  0.38908200  0.86599200  1
  H  H24  1  0.55542800  0.93724500  0.14987000  1
  H  H25  1  0.05542800  0.56275500  0.85013000  1
  H  H26  1  0.44457200  0.06275500  0.85013000  1
  H  H27  1  0.94457200  0.43724500  0.14987000  1
  H  H28  1  0.49503300  0.61225300  0.10649700  1
  H  H29  1  0.99503300  0.88774700  0.89350300  1
  H  H30  1  0.50496700  0.38774700  0.89350300  1
  H  H31  1  0.00496700  0.11225300  0.10649700  1
  H  H32  1  0.42681200  0.35475500  0.48171800  1
  H  H33  1  0.92681200  0.14524500  0.51828200  1
  H  H34  1  0.57318800  0.64524500  0.51828200  1
  H  H35  1  0.07318800  0.85475500  0.48171800  1
  H  H36  1  0.44894200  0.23063400  0.38300400  1
  H  H37  1  0.94894200  0.26936600  0.61699600  1
  H  H38  1  0.55105800  0.76936600  0.61699600  1
  H  H39  1  0.05105800  0.73063400  0.38300400  1
  H  H40  1  0.44299900  0.44340100  0.12544500  1
  H  H41  1  0.94299900  0.05659900  0.87455500  1
  H  H42  1  0.55700100  0.55659900  0.87455500  1
  H  H43  1  0.05700100  0.94340100  0.12544500  1
  H  H44  1  0.26654400  0.51925500  0.36797700  1
  H  H45  1  0.76654400  0.98074500  0.63202300  1
  H  H46  1  0.73345600  0.48074500  0.63202300  1
  H  H47  1  0.23345600  0.01925500  0.36797700  1
  H  H48  1  0.32095500  0.58438500  0.26471300  1
  H  H49  1  0.82095500  0.91561500  0.73528700  1
  H  H50  1  0.67904500  0.41561500  0.73528700  1
  H  H51  1  0.17904500  0.08438500  0.26471300  1
  H  H52  1  0.26263600  0.62252300  0.09106600  1
  H  H53  1  0.76263600  0.87747700  0.90893400  1
  H  H54  1  0.73736400  0.37747700  0.90893400  1
  H  H55  1  0.23736400  0.12252300  0.09106600  1
  H  H56  1  0.48223200  0.74744400  0.42385300  1
  H  H57  1  0.98223200  0.75255600  0.57614700  1
  H  H58  1  0.51776800  0.25255600  0.57614700  1
  H  H59  1  0.01776800  0.24744400  0.42385300  1
  H  H60  1  0.23828500  0.76875000  0.63925700  1
  H  H61  1  0.73828500  0.73125000  0.36074300  1
  H  H62  1  0.76171500  0.23125000  0.36074300  1
  H  H63  1  0.26171500  0.26875000  0.63925700  1
  H  H64  1  0.38991600  0.88537000  0.68086700  1
  H  H65  1  0.88991600  0.61463000  0.31913300  1
  H  H66  1  0.61008400  0.11463000  0.31913300  1
  H  H67  1  0.11008400  0.38537000  0.68086700  1
  H  H68  1  0.21903200  0.64945700  0.53934500  1
  H  H69  1  0.71903200  0.85054300  0.46065500  1
  H  H70  1  0.78096800  0.35054300  0.46065500  1
  H  H71  1  0.28096800  0.14945700  0.53934500  1
  H  H72  1  0.44255400  0.76355000  0.28767000  1
  H  H73  1  0.94255400  0.73645000  0.71233000  1
  H  H74  1  0.55744600  0.23645000  0.71233000  1
  H  H75  1  0.05744600  0.26355000  0.28767000  1
  H  H76  1  0.50847900  0.11335800  0.15938300  1
  H  H77  1  0.00847900  0.38664200  0.84061700  1
  H  H78  1  0.49152100  0.88664200  0.84061700  1
  H  H79  1  0.99152100  0.61335800  0.15938300  1
  Se  Se80  1  0.36636600  0.07815400  0.19728200  1
  Se  Se81  1  0.86636600  0.42184600  0.80271800  1
  Se  Se82  1  0.63363400  0.92184600  0.80271800  1
  Se  Se83  1  0.13363400  0.57815400  0.19728200  1
  Se  Se84  1  0.37213100  0.43201900  0.76591100  1
  Se  Se85  1  0.87213100  0.06798100  0.23408900  1
  Se  Se86  1  0.62786900  0.56798100  0.23408900  1
  Se  Se87  1  0.12786900  0.93201900  0.76591100  1
  O  O88  1  0.31395300  0.21404000  0.09563800  1
  O  O89  1  0.81395300  0.28596000  0.90436200  1
  O  O90  1  0.68604700  0.78596000  0.90436200  1
  O  O91  1  0.18604700  0.71404000  0.09563800  1
  O  O92  1  0.38973300  0.50746600  0.60816300  1
  O  O93  1  0.88973300  0.99253400  0.39183700  1
  O  O94  1  0.61026700  0.49253400  0.39183700  1
  O  O95  1  0.11026700  0.00746600  0.60816300  1
  O  O96  1  0.43310300  0.20605300  0.22128900  1
  O  O97  1  0.93310300  0.29394700  0.77871100  1
  O  O98  1  0.56689700  0.79394700  0.77871100  1
  O  O99  1  0.06689700  0.70605300  0.22128900  1
  O  O100  1  0.32697300  0.99330300  0.33816300  1
  O  O101  1  0.82697300  0.50669700  0.66183700  1
  O  O102  1  0.67302700  0.00669700  0.66183700  1
  O  O103  1  0.17302700  0.49330300  0.33816300  1
  O  O104  1  0.30130900  0.30505500  0.77979700  1
  O  O105  1  0.80130900  0.19494500  0.22020300  1
  O  O106  1  0.69869100  0.69494500  0.22020300  1
  O  O107  1  0.19869100  0.80505500  0.77979700  1
  O  O108  1  0.55413100  0.07632600  0.14188500  1
  O  O109  1  0.05413100  0.42367400  0.85811500  1
  O  O110  1  0.44586900  0.92367400  0.85811500  1
  O  O111  1  0.94586900  0.57632600  0.14188500  1
  O  O112  1  0.43369700  0.29594600  0.84002000  1
  O  O113  1  0.93369800  0.20405400  0.15998000  1
  O  O114  1  0.56630300  0.70405400  0.15998000  1
  O  O115  1  0.06630300  0.79594600  0.84002000  1
  O  O116  1  0.39502800  0.89907700  0.13749800  1
  O  O117  1  0.89502800  0.60092300  0.86250200  1
  O  O118  1  0.60497200  0.10092300  0.86250200  1
  O  O119  1  0.10497200  0.39907700  0.13749800  1
  O  O120  1  0.37733300  0.93178800  0.58977200  1
  O  O121  1  0.87733300  0.56821200  0.41022800  1
  O  O122  1  0.62266700  0.06821200  0.41022800  1
  O  O123  1  0.12266700  0.43178800  0.58977200  1
  O  O124  1  0.30983800  0.57981000  0.10030700  1
  O  O125  1  0.80983800  0.92019000  0.89969300  1
  O  O126  1  0.69016200  0.42019000  0.89969300  1
  O  O127  1  0.19016200  0.07981000  0.10030700  1
  O  O128  1  0.36108400  0.61868800  0.83014000  1
  O  O129  1  0.86108400  0.88131200  0.16986000  1
  O  O130  1  0.63891600  0.38131200  0.16986000  1
  O  O131  1  0.13891600  0.11868800  0.83014000  1
  O  O132  1  0.30212800  0.93546100  0.91104600  1
  O  O133  1  0.80212800  0.56453900  0.08895400  1
  O  O134  1  0.69787200  0.06453900  0.08895400  1
  O  O135  1  0.19787200  0.43546100  0.91104600  1
  O  O136  1  0.45025300  0.57590700  0.08124000  1
  O  O137  1  0.95025300  0.92409300  0.91876000  1
  O  O138  1  0.54974700  0.42409300  0.91876000  1
  O  O139  1  0.04974700  0.07590700  0.08124000  1
  O  O140  1  0.31233600  0.56628600  0.35962500  1
  O  O141  1  0.81233600  0.93371400  0.64037500  1
  O  O142  1  0.68766400  0.43371400  0.64037500  1
  O  O143  1  0.18766400  0.06628600  0.35962500  1
  O  O144  1  0.44000500  0.72234300  0.38289900  1
  O  O145  1  0.94000500  0.77765700  0.61710100  1
  O  O146  1  0.55999500  0.27765700  0.61710100  1
  O  O147  1  0.05999500  0.22234300  0.38289900  1
  O  O148  1  0.44942600  0.23704800  0.47629400  1
  O  O149  1  0.94942600  0.26295200  0.52370600  1
  O  O150  1  0.55057400  0.76295200  0.52370600  1
  O  O151  1  0.05057400  0.73704800  0.47629400  1
  O  O152  1  0.25482600  0.72736800  0.56075100  1
  O  O153  1  0.75482600  0.77263200  0.43924900  1
  O  O154  1  0.74517400  0.27263200  0.43924900  1
  O  O155  1  0.24517400  0.22736800  0.56075100  1
