# generated using pymatgen
data_Cu3PO7
_symmetry_space_group_name_H-M   'P 1'
_cell_length_a   6.74329200
_cell_length_b   10.96203200
_cell_length_c   14.18477100
_cell_angle_alpha   90.00000000
_cell_angle_beta   90.00000000
_cell_angle_gamma   90.00000000
_symmetry_Int_Tables_number   1
_chemical_formula_structural   Cu3PO7
_chemical_formula_sum   'Cu24 P8 O56'
_cell_volume   1048.54086373
_cell_formula_units_Z   8
loop_
 _symmetry_equiv_pos_site_id
 _symmetry_equiv_pos_as_xyz
  1  'x, y, z'
loop_
 _atom_site_type_symbol
 _atom_site_label
 _atom_site_symmetry_multiplicity
 _atom_site_fract_x
 _atom_site_fract_y
 _atom_site_fract_z
 _atom_site_occupancy
  Cu  Cu0  1  0.30348800  0.51369000  0.13292400  1
  Cu  Cu1  1  0.69651200  0.01369000  0.36707600  1
  Cu  Cu2  1  0.19651200  0.48631000  0.63292400  1
  Cu  Cu3  1  0.80348800  0.98631000  0.86707600  1
  Cu  Cu4  1  0.69651200  0.48631000  0.86707600  1
  Cu  Cu5  1  0.30348800  0.98631000  0.63292400  1
  Cu  Cu6  1  0.80348800  0.51369000  0.36707600  1
  Cu  Cu7  1  0.19651200  0.01369000  0.13292400  1
  Cu  Cu8  1  0.09143800  0.68335000  0.24323600  1
  Cu  Cu9  1  0.90856200  0.18335000  0.25676400  1
  Cu  Cu10  1  0.40856200  0.31665000  0.74323600  1
  Cu  Cu11  1  0.59143800  0.81665000  0.75676400  1
  Cu  Cu12  1  0.90856200  0.31665000  0.75676400  1
  Cu  Cu13  1  0.09143800  0.81665000  0.74323600  1
  Cu  Cu14  1  0.59143800  0.68335000  0.25676400  1
  Cu  Cu15  1  0.40856200  0.18335000  0.24323600  1
  Cu  Cu16  1  0.38526100  0.59851700  0.45207700  1
  Cu  Cu17  1  0.61473900  0.09851700  0.04792300  1
  Cu  Cu18  1  0.11473900  0.40148300  0.95207700  1
  Cu  Cu19  1  0.88526100  0.90148300  0.54792300  1
  Cu  Cu20  1  0.61473900  0.40148300  0.54792300  1
  Cu  Cu21  1  0.38526100  0.90148300  0.95207700  1
  Cu  Cu22  1  0.88526100  0.59851700  0.04792300  1
  Cu  Cu23  1  0.11473900  0.09851700  0.45207700  1
  P  P24  1  0.29114600  0.87035900  0.38527700  1
  P  P25  1  0.70885400  0.37035900  0.11472300  1
  P  P26  1  0.20885400  0.12964100  0.88527700  1
  P  P27  1  0.79114600  0.62964100  0.61472300  1
  P  P28  1  0.70885400  0.12964100  0.61472300  1
  P  P29  1  0.29114600  0.62964100  0.88527700  1
  P  P30  1  0.79114600  0.87035900  0.11472300  1
  P  P31  1  0.20885400  0.37035900  0.38527700  1
  O  O32  1  0.41521500  0.76558400  0.42645900  1
  O  O33  1  0.58478500  0.26558400  0.07354100  1
  O  O34  1  0.08478500  0.23441600  0.92645900  1
  O  O35  1  0.91521500  0.73441600  0.57354100  1
  O  O36  1  0.58478500  0.23441600  0.57354100  1
  O  O37  1  0.41521500  0.73441600  0.92645900  1
  O  O38  1  0.91521500  0.76558400  0.07354100  1
  O  O39  1  0.08478500  0.26558400  0.42645900  1
  O  O40  1  0.16559800  0.92868100  0.46743200  1
  O  O41  1  0.83440200  0.42868100  0.03256800  1
  O  O42  1  0.33440200  0.07131900  0.96743200  1
  O  O43  1  0.66559800  0.57131900  0.53256800  1
  O  O44  1  0.83440200  0.07131900  0.53256800  1
  O  O45  1  0.16559800  0.57131900  0.96743200  1
  O  O46  1  0.66559800  0.92868100  0.03256800  1
  O  O47  1  0.33440200  0.42868100  0.46743200  1
  O  O48  1  0.42691300  0.97634300  0.35148700  1
  O  O49  1  0.57308700  0.47634300  0.14851300  1
  O  O50  1  0.07308700  0.02365700  0.85148700  1
  O  O51  1  0.92691300  0.52365700  0.64851300  1
  O  O52  1  0.57308700  0.02365700  0.64851300  1
  O  O53  1  0.42691300  0.52365700  0.85148700  1
  O  O54  1  0.92691300  0.97634300  0.14851300  1
  O  O55  1  0.07308700  0.47634300  0.35148700  1
  O  O56  1  0.15562700  0.83071000  0.30359600  1
  O  O57  1  0.84437300  0.33071000  0.19640400  1
  O  O58  1  0.34437300  0.16929000  0.80359600  1
  O  O59  1  0.65562700  0.66929000  0.69640400  1
  O  O60  1  0.84437300  0.16929000  0.69640400  1
  O  O61  1  0.15562700  0.66929000  0.80359600  1
  O  O62  1  0.65562700  0.83071000  0.19640400  1
  O  O63  1  0.34437300  0.33071000  0.30359600  1
  O  O64  1  0.03882600  0.56049700  0.15665600  1
  O  O65  1  0.96117400  0.06049700  0.34334400  1
  O  O66  1  0.46117400  0.43950300  0.65665600  1
  O  O67  1  0.53882600  0.93950300  0.84334400  1
  O  O68  1  0.96117400  0.43950300  0.84334400  1
  O  O69  1  0.03882600  0.93950300  0.65665600  1
  O  O70  1  0.53882600  0.56049700  0.34334400  1
  O  O71  1  0.46117400  0.06049700  0.15665600  1
  O  O72  1  0.34680800  0.66421200  0.19401800  1
  O  O73  1  0.65319200  0.16421200  0.30598200  1
  O  O74  1  0.15319200  0.33578800  0.69401800  1
  O  O75  1  0.84680800  0.83578800  0.80598200  1
  O  O76  1  0.65319200  0.33578800  0.80598200  1
  O  O77  1  0.34680800  0.83578800  0.69401800  1
  O  O78  1  0.84680800  0.66421200  0.30598200  1
  O  O79  1  0.15319200  0.16421200  0.19401800  1
  O  O80  1  0.24672300  0.88052400  0.06092900  1
  O  O81  1  0.75327700  0.38052400  0.43907100  1
  O  O82  1  0.25327700  0.11947600  0.56092900  1
  O  O83  1  0.74672300  0.61947600  0.93907100  1
  O  O84  1  0.75327700  0.11947600  0.93907100  1
  O  O85  1  0.24672300  0.61947600  0.56092900  1
  O  O86  1  0.74672300  0.88052400  0.43907100  1
  O  O87  1  0.25327700  0.38052400  0.06092900  1
