# generated using pymatgen
data_CrPdBr4N5Cl
_symmetry_space_group_name_H-M   'P 1'
_cell_length_a   8.58105800
_cell_length_b   8.86606000
_cell_length_c   17.18274700
_cell_angle_alpha   90.00000000
_cell_angle_beta   90.00000000
_cell_angle_gamma   90.00000000
_symmetry_Int_Tables_number   1
_chemical_formula_structural   CrPdBr4N5Cl
_chemical_formula_sum   'Cr4 Pd4 Br16 N20 Cl4'
_cell_volume   1307.26640031
_cell_formula_units_Z   4
loop_
 _symmetry_equiv_pos_site_id
 _symmetry_equiv_pos_as_xyz
  1  'x, y, z'
loop_
 _atom_site_type_symbol
 _atom_site_label
 _atom_site_symmetry_multiplicity
 _atom_site_fract_x
 _atom_site_fract_y
 _atom_site_fract_z
 _atom_site_occupancy
  Cr  Cr0  1  0.65734300  0.75000000  0.06220300  1
  Cr  Cr1  1  0.84265700  0.75000000  0.56220300  1
  Cr  Cr2  1  0.34265700  0.25000000  0.93779700  1
  Cr  Cr3  1  0.15734300  0.25000000  0.43779700  1
  Pd  Pd4  1  0.15627800  0.75000000  0.16260100  1
  Pd  Pd5  1  0.34372200  0.75000000  0.66260100  1
  Pd  Pd6  1  0.84372200  0.25000000  0.83739900  1
  Pd  Pd7  1  0.65627800  0.25000000  0.33739900  1
  Br  Br8  1  0.05115200  0.75000000  0.03088700  1
  Br  Br9  1  0.44884800  0.75000000  0.53088700  1
  Br  Br10  1  0.94884800  0.25000000  0.96911300  1
  Br  Br11  1  0.55115200  0.25000000  0.46911300  1
  Br  Br12  1  0.15703200  0.47579400  0.15610100  1
  Br  Br13  1  0.34296800  0.02420600  0.65610100  1
  Br  Br14  1  0.84296800  0.97579400  0.84389900  1
  Br  Br15  1  0.65703200  0.52420600  0.34389900  1
  Br  Br16  1  0.84296800  0.52420600  0.84389900  1
  Br  Br17  1  0.65703200  0.97579400  0.34389900  1
  Br  Br18  1  0.15703200  0.02420600  0.15610100  1
  Br  Br19  1  0.34296800  0.47579400  0.65610100  1
  Br  Br20  1  0.26239400  0.75000000  0.29163100  1
  Br  Br21  1  0.23760600  0.75000000  0.79163100  1
  Br  Br22  1  0.73760600  0.25000000  0.70836900  1
  Br  Br23  1  0.76239400  0.25000000  0.20836900  1
  N  N24  1  0.61142500  0.75000000  0.18905200  1
  N  N25  1  0.88857500  0.75000000  0.68905200  1
  N  N26  1  0.38857500  0.25000000  0.81094800  1
  N  N27  1  0.11142500  0.25000000  0.31094800  1
  N  N28  1  0.61088100  0.61432800  0.18739900  1
  N  N29  1  0.88911900  0.88567200  0.68739900  1
  N  N30  1  0.38911900  0.11432800  0.81260100  1
  N  N31  1  0.11088100  0.38567200  0.31260100  1
  N  N32  1  0.38911900  0.38567200  0.81260100  1
  N  N33  1  0.11088100  0.11432800  0.31260100  1
  N  N34  1  0.61088100  0.88567200  0.18739900  1
  N  N35  1  0.88911900  0.61432800  0.68739900  1
  N  N36  1  0.78027100  0.61696900  0.04314100  1
  N  N37  1  0.71972900  0.88303100  0.54314100  1
  N  N38  1  0.21972900  0.11696900  0.95685900  1
  N  N39  1  0.28027100  0.38303100  0.45685900  1
  N  N40  1  0.21972900  0.38303100  0.95685900  1
  N  N41  1  0.28027100  0.11696900  0.45685900  1
  N  N42  1  0.78027100  0.88303100  0.04314100  1
  N  N43  1  0.71972900  0.61696900  0.54314100  1
  Cl  Cl44  1  0.46781700  0.75000000  0.97969100  1
  Cl  Cl45  1  0.03218300  0.75000000  0.47969100  1
  Cl  Cl46  1  0.53218300  0.25000000  0.02030900  1
  Cl  Cl47  1  0.96781700  0.25000000  0.52030900  1
