# generated using pymatgen
data_UH6C3SeN2O7
_symmetry_space_group_name_H-M   'P 1'
_cell_length_a   10.88135400
_cell_length_b   9.14188000
_cell_length_c   13.61589561
_cell_angle_alpha   48.77498999
_cell_angle_beta   90.00000000
_cell_angle_gamma   90.00000000
_symmetry_Int_Tables_number   1
_chemical_formula_structural   UH6C3SeN2O7
_chemical_formula_sum   'U4 H24 C12 Se4 N8 O28'
_cell_volume   1018.72280810
_cell_formula_units_Z   4
loop_
 _symmetry_equiv_pos_site_id
 _symmetry_equiv_pos_as_xyz
  1  'x, y, z'
loop_
 _atom_site_type_symbol
 _atom_site_label
 _atom_site_symmetry_multiplicity
 _atom_site_fract_x
 _atom_site_fract_y
 _atom_site_fract_z
 _atom_site_occupancy
  U  U0  1  0.70395300  0.07087000  0.31113500  1
  U  U1  1  0.79604700  0.07087000  0.81113500  1
  U  U2  1  0.29604700  0.92913000  0.68886500  1
  U  U3  1  0.20395300  0.92913000  0.18886500  1
  H  H4  1  0.51418800  0.72913700  0.02773700  1
  H  H5  1  0.98581200  0.72913700  0.52773700  1
  H  H6  1  0.48581200  0.27086300  0.97226300  1
  H  H7  1  0.01418800  0.27086300  0.47226300  1
  H  H8  1  0.36078600  0.79804700  0.02393100  1
  H  H9  1  0.13921400  0.79804700  0.52393100  1
  H  H10  1  0.63921400  0.20195300  0.97606900  1
  H  H11  1  0.86078600  0.20195300  0.47606900  1
  H  H12  1  0.67509300  0.60987100  0.49193000  1
  H  H13  1  0.82490700  0.60987100  0.99193000  1
  H  H14  1  0.32490700  0.39012900  0.50807000  1
  H  H15  1  0.17509300  0.39012900  0.00807000  1
  H  H16  1  0.64141100  0.41768300  0.49784600  1
  H  H17  1  0.85858900  0.41768300  0.99784600  1
  H  H18  1  0.35858900  0.58231700  0.50215400  1
  H  H19  1  0.14141100  0.58231700  0.00215400  1
  H  H20  1  0.65328600  0.67157600  0.17366000  1
  H  H21  1  0.84671400  0.67157600  0.67366000  1
  H  H22  1  0.34671400  0.32842400  0.82634000  1
  H  H23  1  0.15328600  0.32842400  0.32634000  1
  H  H24  1  0.58286400  0.46293900  0.31628800  1
  H  H25  1  0.91713600  0.46293900  0.81628800  1
  H  H26  1  0.41713600  0.53706100  0.68371200  1
  H  H27  1  0.08286400  0.53706100  0.18371200  1
  C  C28  1  0.62164100  0.69581100  0.31781700  1
  C  C29  1  0.87835900  0.69581100  0.81781700  1
  C  C30  1  0.37835900  0.30418900  0.68218300  1
  C  C31  1  0.12164100  0.30418900  0.18218300  1
  C  C32  1  0.58405200  0.62304800  0.24879300  1
  C  C33  1  0.91594800  0.62304800  0.74879300  1
  C  C34  1  0.41594800  0.37695200  0.75120700  1
  C  C35  1  0.08405200  0.37695200  0.25120700  1
  C  C36  1  0.45923500  0.70022400  0.18345900  1
  C  C37  1  0.04076500  0.70022400  0.68345900  1
  C  C38  1  0.54076500  0.29977600  0.81654100  1
  C  C39  1  0.95923500  0.29977600  0.31654100  1
  Se  Se40  1  0.88107900  0.00917000  0.10214300  1
  Se  Se41  1  0.61892100  0.00917000  0.60214300  1
  Se  Se42  1  0.11892100  0.99083000  0.89785700  1
  Se  Se43  1  0.38107900  0.99083000  0.39785700  1
  N  N44  1  0.44390800  0.74399500  0.07014000  1
  N  N45  1  0.05609200  0.74399500  0.57014000  1
  N  N46  1  0.55609200  0.25600500  0.92986000  1
  N  N47  1  0.94390800  0.25600500  0.42986000  1
  N  N48  1  0.64501000  0.56503800  0.44443000  1
  N  N49  1  0.85499000  0.56503800  0.94443000  1
  N  N50  1  0.35499000  0.43496200  0.55557000  1
  N  N51  1  0.14501000  0.43496200  0.05557000  1
  O  O52  1  0.79691200  0.85764000  0.43705800  1
  O  O53  1  0.70308800  0.85764000  0.93705800  1
  O  O54  1  0.20308800  0.14236000  0.56294200  1
  O  O55  1  0.29691200  0.14236000  0.06294200  1
  O  O56  1  0.60679300  0.27646500  0.18841800  1
  O  O57  1  0.89320700  0.27646500  0.68841800  1
  O  O58  1  0.39320700  0.72353500  0.81158200  1
  O  O59  1  0.10679300  0.72353500  0.31158200  1
  O  O60  1  0.81649000  0.14286200  0.94870900  1
  O  O61  1  0.68351000  0.14286200  0.44870900  1
  O  O62  1  0.18351000  0.85713800  0.05129100  1
  O  O63  1  0.31649000  0.85713800  0.55129100  1
  O  O64  1  0.03116000  0.09622300  0.06420700  1
  O  O65  1  0.46884000  0.09622300  0.56420700  1
  O  O66  1  0.96884000  0.90377700  0.93579300  1
  O  O67  1  0.53116000  0.90377700  0.43579300  1
  O  O68  1  0.82090700  0.14221500  0.13918100  1
  O  O69  1  0.67909300  0.14221500  0.63918100  1
  O  O70  1  0.17909300  0.85778500  0.86081900  1
  O  O71  1  0.32090700  0.85778500  0.36081900  1
  O  O72  1  0.63224600  0.87757500  0.25134800  1
  O  O73  1  0.86775400  0.87757500  0.75134800  1
  O  O74  1  0.36775400  0.12242500  0.74865200  1
  O  O75  1  0.13224600  0.12242500  0.24865200  1
  O  O76  1  0.37388800  0.71636900  0.23908300  1
  O  O77  1  0.12611200  0.71636900  0.73908300  1
  O  O78  1  0.62611200  0.28363100  0.76091700  1
  O  O79  1  0.87388800  0.28363100  0.26091700  1
