# generated using pymatgen
data_Sr5Nb5O17
_symmetry_space_group_name_H-M   'P 1'
_cell_length_a   4.04950900
_cell_length_b   5.76699100
_cell_length_c   33.12391600
_cell_angle_alpha   90.00000000
_cell_angle_beta   90.00000000
_cell_angle_gamma   90.00000000
_symmetry_Int_Tables_number   1
_chemical_formula_structural   Sr5Nb5O17
_chemical_formula_sum   'Sr10 Nb10 O34'
_cell_volume   773.55877467
_cell_formula_units_Z   2
loop_
 _symmetry_equiv_pos_site_id
 _symmetry_equiv_pos_as_xyz
  1  'x, y, z'
loop_
 _atom_site_type_symbol
 _atom_site_label
 _atom_site_symmetry_multiplicity
 _atom_site_fract_x
 _atom_site_fract_y
 _atom_site_fract_z
 _atom_site_occupancy
  Sr  Sr0  1  0.98746100  0.06509400  0.28407200  1
  Sr  Sr1  1  0.98746100  0.93490600  0.71592800  1
  Sr  Sr2  1  0.48746100  0.56509400  0.21592800  1
  Sr  Sr3  1  0.48746100  0.43490600  0.78407200  1
  Sr  Sr4  1  0.49820400  0.50000000  0.00000000  1
  Sr  Sr5  1  0.99820400  0.00000000  0.50000000  1
  Sr  Sr6  1  0.48793200  0.00162500  0.08942700  1
  Sr  Sr7  1  0.48793200  0.99837500  0.91057300  1
  Sr  Sr8  1  0.98793200  0.50162500  0.41057300  1
  Sr  Sr9  1  0.98793200  0.49837500  0.58942700  1
  Nb  Nb10  1  0.98874500  0.00000000  0.00000000  1
  Nb  Nb11  1  0.48874500  0.50000000  0.50000000  1
  Nb  Nb12  1  0.99371700  0.03507500  0.17684900  1
  Nb  Nb13  1  0.99371700  0.96492500  0.82315100  1
  Nb  Nb14  1  0.49371700  0.53507500  0.32315100  1
  Nb  Nb15  1  0.49371700  0.46492500  0.67684900  1
  Nb  Nb16  1  0.99161300  0.50625200  0.09027700  1
  Nb  Nb17  1  0.99161300  0.49374800  0.90972300  1
  Nb  Nb18  1  0.49161300  0.00625200  0.40972300  1
  Nb  Nb19  1  0.49161300  0.99374800  0.59027700  1
  O  O20  1  0.00025400  0.72519300  0.96321200  1
  O  O21  1  0.00025400  0.27480700  0.03678800  1
  O  O22  1  0.50025400  0.22519300  0.53678800  1
  O  O23  1  0.50025400  0.77480700  0.46321200  1
  O  O24  1  0.98522600  0.77253100  0.04783400  1
  O  O25  1  0.98522600  0.22746900  0.95216600  1
  O  O26  1  0.48522600  0.27253100  0.45216600  1
  O  O27  1  0.48522600  0.72746900  0.54783400  1
  O  O28  1  0.49208600  0.00000000  0.00000000  1
  O  O29  1  0.99208600  0.50000000  0.50000000  1
  O  O30  1  0.48943000  0.79897100  0.29105600  1
  O  O31  1  0.48943000  0.20102900  0.70894400  1
  O  O32  1  0.98943000  0.29897100  0.20894400  1
  O  O33  1  0.98943000  0.70102900  0.79105600  1
  O  O34  1  0.48726300  0.70561900  0.37964600  1
  O  O35  1  0.48726300  0.29438100  0.62035400  1
  O  O36  1  0.98726300  0.20561900  0.12035400  1
  O  O37  1  0.98726300  0.79438100  0.87964600  1
  O  O38  1  0.50746500  0.22256800  0.36755200  1
  O  O39  1  0.50746500  0.77743200  0.63244800  1
  O  O40  1  0.00746500  0.72256800  0.13244800  1
  O  O41  1  0.00746500  0.27743200  0.86755200  1
  O  O42  1  0.98791600  0.81671400  0.22024000  1
  O  O43  1  0.98791600  0.18328600  0.77976000  1
  O  O44  1  0.48791600  0.31671400  0.27976000  1
  O  O45  1  0.48791600  0.68328600  0.72024000  1
  O  O46  1  0.49345800  0.00268300  0.16883600  1
  O  O47  1  0.49345800  0.99731700  0.83116400  1
  O  O48  1  0.99345800  0.50268300  0.33116400  1
  O  O49  1  0.99345800  0.49731700  0.66883600  1
  O  O50  1  0.49444700  0.48815500  0.08284700  1
  O  O51  1  0.49444700  0.51184500  0.91715300  1
  O  O52  1  0.99444700  0.98815500  0.41715300  1
  O  O53  1  0.99444700  0.01184500  0.58284700  1
