# generated using pymatgen
data_VCo2P2NO12
_symmetry_space_group_name_H-M   'P 1'
_cell_length_a   6.28280100
_cell_length_b   7.49174200
_cell_length_c   9.93427500
_cell_angle_alpha   90.00000000
_cell_angle_beta   90.00000000
_cell_angle_gamma   90.00000000
_symmetry_Int_Tables_number   1
_chemical_formula_structural   VCo2P2NO12
_chemical_formula_sum   'V2 Co4 P4 N2 O24'
_cell_volume   467.59762311
_cell_formula_units_Z   2
loop_
 _symmetry_equiv_pos_site_id
 _symmetry_equiv_pos_as_xyz
  1  'x, y, z'
loop_
 _atom_site_type_symbol
 _atom_site_label
 _atom_site_symmetry_multiplicity
 _atom_site_fract_x
 _atom_site_fract_y
 _atom_site_fract_z
 _atom_site_occupancy
  V  V0  1  0.00000000  0.72183400  0.77869300  1
  V  V1  1  0.00000000  0.27816600  0.27869300  1
  Co  Co2  1  0.23807200  0.99349500  0.52087500  1
  Co  Co3  1  0.76192800  0.99349500  0.52087500  1
  Co  Co4  1  0.76192800  0.00650500  0.02087500  1
  Co  Co5  1  0.23807200  0.00650500  0.02087500  1
  P  P6  1  0.50000000  0.82915900  0.76867500  1
  P  P7  1  0.50000000  0.17084100  0.26867500  1
  P  P8  1  0.00000000  0.33705200  0.58524900  1
  P  P9  1  0.00000000  0.66294800  0.08524900  1
  N  N10  1  0.50000000  0.64436200  0.42062800  1
  N  N11  1  0.50000000  0.35563800  0.92062800  1
  O  O12  1  0.20543200  0.22729300  0.60364800  1
  O  O13  1  0.79456800  0.22729300  0.60364800  1
  O  O14  1  0.79456800  0.77270700  0.10364800  1
  O  O15  1  0.20543200  0.77270700  0.10364800  1
  O  O16  1  0.50000000  0.94039100  0.63714600  1
  O  O17  1  0.50000000  0.05960900  0.13714600  1
  O  O18  1  0.50000000  0.94936600  0.89522600  1
  O  O19  1  0.50000000  0.05063400  0.39522600  1
  O  O20  1  0.32261900  0.70561400  0.43667400  1
  O  O21  1  0.67738100  0.70561400  0.43667400  1
  O  O22  1  0.67738100  0.29438600  0.93667400  1
  O  O23  1  0.32261900  0.29438600  0.93667400  1
  O  O24  1  0.00000000  0.92153400  0.86982200  1
  O  O25  1  0.00000000  0.07846600  0.36982200  1
  O  O26  1  0.00000000  0.87249900  0.60030100  1
  O  O27  1  0.00000000  0.12750100  0.10030100  1
  O  O28  1  0.00000000  0.50144900  0.67630300  1
  O  O29  1  0.00000000  0.49855100  0.17630300  1
  O  O30  1  0.30249700  0.70806200  0.76570500  1
  O  O31  1  0.69750300  0.70806200  0.76570500  1
  O  O32  1  0.69750300  0.29193800  0.26570500  1
  O  O33  1  0.30249700  0.29193800  0.26570500  1
  O  O34  1  0.00000000  0.41324900  0.43505000  1
  O  O35  1  0.00000000  0.58675100  0.93505000  1
