# generated using pymatgen
data_Na2V2CuH4(OF)6
_symmetry_space_group_name_H-M   'P 1'
_cell_length_a   5.36585300
_cell_length_b   8.31497704
_cell_length_c   10.43616790
_cell_angle_alpha   89.63482219
_cell_angle_beta   90.00000000
_cell_angle_gamma   90.00000000
_symmetry_Int_Tables_number   1
_chemical_formula_structural   Na2V2CuH4(OF)6
_chemical_formula_sum   'Na4 V4 Cu2 H8 O12 F12'
_cell_volume   465.62046656
_cell_formula_units_Z   2
loop_
 _symmetry_equiv_pos_site_id
 _symmetry_equiv_pos_as_xyz
  1  'x, y, z'
loop_
 _atom_site_type_symbol
 _atom_site_label
 _atom_site_symmetry_multiplicity
 _atom_site_fract_x
 _atom_site_fract_y
 _atom_site_fract_z
 _atom_site_occupancy
  Na  Na0  1  0.55037200  0.54910200  0.33740200  1
  Na  Na1  1  0.05037200  0.45089800  0.16259800  1
  Na  Na2  1  0.44962800  0.45089800  0.66259800  1
  Na  Na3  1  0.94962800  0.54910200  0.83740200  1
  V  V4  1  0.95139200  0.28874000  0.50426300  1
  V  V5  1  0.45139200  0.71126000  0.99573700  1
  V  V6  1  0.04860800  0.71126000  0.49573700  1
  V  V7  1  0.54860800  0.28874000  0.00426300  1
  Cu  Cu8  1  0.50000000  0.00000000  0.50000000  1
  Cu  Cu9  1  0.00000000  0.00000000  0.00000000  1
  H  H10  1  0.55809100  0.15599000  0.28695900  1
  H  H11  1  0.05809100  0.84401000  0.21304100  1
  H  H12  1  0.44190900  0.84401000  0.71304100  1
  H  H13  1  0.94190900  0.15599000  0.78695900  1
  H  H14  1  0.44181900  0.98861100  0.26124700  1
  H  H15  1  0.94181900  0.01138900  0.23875300  1
  H  H16  1  0.55818100  0.01138900  0.73875300  1
  H  H17  1  0.05818100  0.98861100  0.76124700  1
  O  O18  1  0.14083900  0.14207700  0.46608900  1
  O  O19  1  0.64083900  0.85792300  0.03391100  1
  O  O20  1  0.85916100  0.85792300  0.53391100  1
  O  O21  1  0.35916100  0.14207700  0.96608900  1
  O  O22  1  0.67258600  0.19897300  0.54478400  1
  O  O23  1  0.17258600  0.80102700  0.95521600  1
  O  O24  1  0.32741400  0.80102700  0.45521600  1
  O  O25  1  0.82741400  0.19897300  0.04478400  1
  O  O26  1  0.57973700  0.04075200  0.30788600  1
  O  O27  1  0.07973700  0.95924800  0.19211400  1
  O  O28  1  0.42026300  0.95924800  0.69211400  1
  O  O29  1  0.92026300  0.04075200  0.80788600  1
  F  F30  1  0.21973300  0.47164600  0.46517000  1
  F  F31  1  0.71973300  0.52835400  0.03483000  1
  F  F32  1  0.78026700  0.52835400  0.53483000  1
  F  F33  1  0.28026700  0.47164600  0.96517000  1
  F  F34  1  0.06426900  0.32048500  0.67643500  1
  F  F35  1  0.56426900  0.67951500  0.82356500  1
  F  F36  1  0.93573100  0.67951500  0.32356500  1
  F  F37  1  0.43573100  0.32048500  0.17643500  1
  F  F38  1  0.85069800  0.34011400  0.33419000  1
  F  F39  1  0.35069800  0.65988600  0.16581000  1
  F  F40  1  0.14930200  0.65988600  0.66581000  1
  F  F41  1  0.64930200  0.34011400  0.83419000  1
