# generated using pymatgen
data_B5H8CO6
_symmetry_space_group_name_H-M   'P 1'
_cell_length_a   8.16578300
_cell_length_b   9.41065251
_cell_length_c   11.72092379
_cell_angle_alpha   70.02890059
_cell_angle_beta   69.61405706
_cell_angle_gamma   64.28732324
_symmetry_Int_Tables_number   1
_chemical_formula_structural   B5H8CO6
_chemical_formula_sum   'B20 H32 C4 O24'
_cell_volume   741.09883027
_cell_formula_units_Z   4
loop_
 _symmetry_equiv_pos_site_id
 _symmetry_equiv_pos_as_xyz
  1  'x, y, z'
loop_
 _atom_site_type_symbol
 _atom_site_label
 _atom_site_symmetry_multiplicity
 _atom_site_fract_x
 _atom_site_fract_y
 _atom_site_fract_z
 _atom_site_occupancy
  B  B0  1  0.81057200  0.44703900  0.03421900  1
  B  B1  1  0.29183000  0.05296100  0.46578100  1
  B  B2  1  0.18942800  0.55296100  0.96578100  1
  B  B3  1  0.70817000  0.94703900  0.53421900  1
  B  B4  1  0.78652900  0.65766000  0.99531700  1
  B  B5  1  0.43950600  0.84234000  0.50468300  1
  B  B6  1  0.21347100  0.34234000  0.00468300  1
  B  B7  1  0.56049400  0.15766000  0.49531700  1
  B  B8  1  0.00390500  0.67246900  0.88907400  1
  B  B9  1  0.56544800  0.82753100  0.61092600  1
  B  B10  1  0.99609500  0.32753100  0.11092600  1
  B  B11  1  0.43455200  0.17246900  0.38907400  1
  B  B12  1  0.15699600  0.47491400  0.85790800  1
  B  B13  1  0.48981800  0.02508600  0.64209200  1
  B  B14  1  0.84300400  0.52508600  0.14209200  1
  B  B15  1  0.51018200  0.97491400  0.35790800  1
  B  B16  1  0.04034600  0.33317000  0.94980900  1
  B  B17  1  0.32332500  0.16683000  0.55019100  1
  B  B18  1  0.95965400  0.66683000  0.05019100  1
  B  B19  1  0.67667500  0.83317000  0.44980900  1
  H  H20  1  0.53832900  0.47236000  0.08171600  1
  H  H21  1  0.09240500  0.02764000  0.41828400  1
  H  H22  1  0.46167100  0.52764000  0.91828400  1
  H  H23  1  0.90759500  0.97236000  0.58171600  1
  H  H24  1  0.49963400  0.78464000  0.02356900  1
  H  H25  1  0.30784300  0.71536000  0.47643100  1
  H  H26  1  0.50036600  0.21536000  0.97643100  1
  H  H27  1  0.69215700  0.28464000  0.52356900  1
  H  H28  1  0.88649200  0.88338600  0.78040500  1
  H  H29  1  0.55028300  0.61661400  0.71959500  1
  H  H30  1  0.11350800  0.11661400  0.21959500  1
  H  H31  1  0.44971700  0.38338600  0.28040500  1
  H  H32  1  0.27579400  0.55842500  0.67847900  1
  H  H33  1  0.51269800  0.94157500  0.82152100  1
  H  H34  1  0.72420600  0.44157500  0.32152100  1
  H  H35  1  0.48730200  0.05842500  0.17847900  1
  H  H36  1  0.18550500  0.15317800  0.85743600  1
  H  H37  1  0.19611900  0.34682200  0.64256400  1
  H  H38  1  0.81449500  0.84682200  0.14256400  1
  H  H39  1  0.80388100  0.65317800  0.35743600  1
  H  H40  1  0.85874700  0.55905200  0.81296200  1
  H  H41  1  0.23076100  0.94094800  0.68703800  1
  H  H42  1  0.14125300  0.44094800  0.18703800  1
  H  H43  1  0.76923900  0.05905200  0.31296200  1
  H  H44  1  0.23368200  0.94471600  0.09220300  1
  H  H45  1  0.27060200  0.55528400  0.40779700  1
  H  H46  1  0.76631800  0.05528300  0.90779700  1
  H  H47  1  0.72939800  0.44471700  0.59220300  1
  H  H48  1  0.17468800  0.80986900  0.08935000  1
  H  H49  1  0.07390700  0.69013100  0.41065000  1
  H  H50  1  0.82531200  0.19013100  0.91065000  1
  H  H51  1  0.92609300  0.30986900  0.58935000  1
  C  C52  1  0.91961000  0.53296400  0.89079800  1
  C  C53  1  0.34337200  0.96703600  0.60920200  1
  C  C54  1  0.08039000  0.46703600  0.10920200  1
  C  C55  1  0.65662800  0.03296400  0.39079800  1
  O  O56  1  0.66172300  0.40008300  0.04888700  1
  O  O57  1  0.11069300  0.09991700  0.45111300  1
  O  O58  1  0.33827700  0.59991700  0.95111300  1
  O  O59  1  0.88930700  0.90008300  0.54888700  1
  O  O60  1  0.62498000  0.78747200  0.96955300  1
  O  O61  1  0.38200600  0.71252800  0.53044700  1
  O  O62  1  0.37502000  0.21252800  0.03044700  1
  O  O63  1  0.61799400  0.28747200  0.46955300  1
  O  O64  1  0.01058900  0.80955300  0.79176200  1
  O  O65  1  0.61190400  0.69044700  0.70823800  1
  O  O66  1  0.98941100  0.19044700  0.20823800  1
  O  O67  1  0.38809600  0.30955300  0.29176200  1
  O  O68  1  0.26458200  0.45740200  0.73654300  1
  O  O69  1  0.45852700  0.04259800  0.76345700  1
  O  O70  1  0.73541800  0.54259800  0.26345700  1
  O  O71  1  0.54147300  0.95740200  0.23654300  1
  O  O72  1  0.05876300  0.20394200  0.90636100  1
  O  O73  1  0.16906700  0.29605800  0.59363900  1
  O  O74  1  0.94123700  0.79605800  0.09363900  1
  O  O75  1  0.83093300  0.70394200  0.40636100  1
  O  O76  1  0.27736600  0.82844500  0.10055300  1
  O  O77  1  0.20636500  0.67155500  0.39944700  1
  O  O78  1  0.72263400  0.17155500  0.89944700  1
  O  O79  1  0.79363600  0.32844500  0.60055300  1
