# generated using pymatgen
data_BiN3O14
_symmetry_space_group_name_H-M   'P 1'
_cell_length_a   7.85970900
_cell_length_b   8.73042438
_cell_length_c   9.63587198
_cell_angle_alpha   86.11579058
_cell_angle_beta   83.90110622
_cell_angle_gamma   77.07630151
_symmetry_Int_Tables_number   1
_chemical_formula_structural   BiN3O14
_chemical_formula_sum   'Bi2 N6 O28'
_cell_volume   640.14329051
_cell_formula_units_Z   2
loop_
 _symmetry_equiv_pos_site_id
 _symmetry_equiv_pos_as_xyz
  1  'x, y, z'
loop_
 _atom_site_type_symbol
 _atom_site_label
 _atom_site_symmetry_multiplicity
 _atom_site_fract_x
 _atom_site_fract_y
 _atom_site_fract_z
 _atom_site_occupancy
  Bi  Bi0  1  0.84173600  0.25334200  0.77291000  1
  Bi  Bi1  1  0.15826400  0.74665800  0.22709000  1
  N  N2  1  0.64934900  0.19762700  0.55436600  1
  N  N3  1  0.35065100  0.80237300  0.44563400  1
  N  N4  1  0.83732400  0.56484000  0.67167300  1
  N  N5  1  0.16267600  0.43516000  0.32832700  1
  N  N6  1  0.03163500  0.80443600  0.89922200  1
  N  N7  1  0.96836500  0.19556400  0.10077800  1
  O  O8  1  0.56587100  0.17520000  0.46156400  1
  O  O9  1  0.43412900  0.82480000  0.53843600  1
  O  O10  1  0.57339000  0.27793800  0.66307200  1
  O  O11  1  0.42661000  0.72206200  0.33692800  1
  O  O12  1  0.81694500  0.14386300  0.55397100  1
  O  O13  1  0.18305500  0.85613700  0.44602900  1
  O  O14  1  0.83751800  0.45087500  0.59042200  1
  O  O15  1  0.16248200  0.54912500  0.40957800  1
  O  O16  1  0.82698900  0.69969200  0.62901400  1
  O  O17  1  0.17301100  0.30030800  0.37098600  1
  O  O18  1  0.84963900  0.51963900  0.80318000  1
  O  O19  1  0.15036100  0.48036100  0.19682000  1
  O  O20  1  0.15138200  0.72553200  0.82320800  1
  O  O21  1  0.84861800  0.27446800  0.17679200  1
  O  O22  1  0.99314300  0.75013900  0.02627600  1
  O  O23  1  0.00685700  0.24986100  0.97372400  1
  O  O24  1  0.94039700  0.93519400  0.86014300  1
  O  O25  1  0.05960300  0.06480600  0.13985700  1
  O  O26  1  0.47028100  0.57155200  0.99592700  1
  O  O27  1  0.52971900  0.42844800  0.00407300  1
  O  O28  1  0.55356600  0.05196100  0.86969200  1
  O  O29  1  0.44643400  0.94803900  0.13030800  1
  O  O30  1  0.17006900  0.21817400  0.68028300  1
  O  O31  1  0.82993100  0.78182600  0.31971700  1
  O  O32  1  0.21986800  0.34364500  0.67107600  1
  O  O33  1  0.78013200  0.65635500  0.32892400  1
  O  O34  1  0.55148400  0.93923100  0.80003300  1
  O  O35  1  0.44851600  0.06076900  0.19996700  1
