# generated using pymatgen
data_SiO2
_symmetry_space_group_name_H-M   'P 1'
_cell_length_a   15.48520200
_cell_length_b   15.48520200
_cell_length_c   12.00934700
_cell_angle_alpha   90.00000000
_cell_angle_beta   90.00000000
_cell_angle_gamma   90.00000000
_symmetry_Int_Tables_number   1
_chemical_formula_structural   SiO2
_chemical_formula_sum   'Si48 O96'
_cell_volume   2879.73910274
_cell_formula_units_Z   48
loop_
 _symmetry_equiv_pos_site_id
 _symmetry_equiv_pos_as_xyz
  1  'x, y, z'
loop_
 _atom_site_type_symbol
 _atom_site_label
 _atom_site_symmetry_multiplicity
 _atom_site_fract_x
 _atom_site_fract_y
 _atom_site_fract_z
 _atom_site_occupancy
  Si  Si0  1  0.59210800  0.23344100  0.81310300  1
  Si  Si1  1  0.40789200  0.76655900  0.81310300  1
  Si  Si2  1  0.09210800  0.26655900  0.81310300  1
  Si  Si3  1  0.90789200  0.73344100  0.81310300  1
  Si  Si4  1  0.76655900  0.59210800  0.81310300  1
  Si  Si5  1  0.23344100  0.40789200  0.81310300  1
  Si  Si6  1  0.73344100  0.09210800  0.81310300  1
  Si  Si7  1  0.26655900  0.90789200  0.81310300  1
  Si  Si8  1  0.40789200  0.76655900  0.18689700  1
  Si  Si9  1  0.59210800  0.23344100  0.18689700  1
  Si  Si10  1  0.90789200  0.73344100  0.18689700  1
  Si  Si11  1  0.09210800  0.26655900  0.18689700  1
  Si  Si12  1  0.23344100  0.40789200  0.18689700  1
  Si  Si13  1  0.76655900  0.59210800  0.18689700  1
  Si  Si14  1  0.26655900  0.90789200  0.18689700  1
  Si  Si15  1  0.73344100  0.09210800  0.18689700  1
  Si  Si16  1  0.53104800  0.82130800  0.00000000  1
  Si  Si17  1  0.46895200  0.17869200  0.00000000  1
  Si  Si18  1  0.03104800  0.67869200  0.00000000  1
  Si  Si19  1  0.96895200  0.32130800  0.00000000  1
  Si  Si20  1  0.17869200  0.53104800  0.00000000  1
  Si  Si21  1  0.82130800  0.46895200  0.00000000  1
  Si  Si22  1  0.32130800  0.03104800  0.00000000  1
  Si  Si23  1  0.67869200  0.96895200  0.00000000  1
  Si  Si24  1  0.67111200  0.68225800  0.00000000  1
  Si  Si25  1  0.32888800  0.31774200  0.00000000  1
  Si  Si26  1  0.17111200  0.81774200  0.00000000  1
  Si  Si27  1  0.82888800  0.18225800  0.00000000  1
  Si  Si28  1  0.31774200  0.67111200  0.00000000  1
  Si  Si29  1  0.68225800  0.32888800  0.00000000  1
  Si  Si30  1  0.18225800  0.17111200  0.00000000  1
  Si  Si31  1  0.81774200  0.82888800  0.00000000  1
  Si  Si32  1  0.52760200  0.35946600  0.63015000  1
  Si  Si33  1  0.47239800  0.64053400  0.63015000  1
  Si  Si34  1  0.02760200  0.14053400  0.63015000  1
  Si  Si35  1  0.97239800  0.85946600  0.63015000  1
  Si  Si36  1  0.64053400  0.52760200  0.63015000  1
  Si  Si37  1  0.35946600  0.47239800  0.63015000  1
  Si  Si38  1  0.85946600  0.02760200  0.63015000  1
  Si  Si39  1  0.14053400  0.97239800  0.63015000  1
  Si  Si40  1  0.47239800  0.64053400  0.36985000  1
  Si  Si41  1  0.52760200  0.35946600  0.36985000  1
  Si  Si42  1  0.97239800  0.85946600  0.36985000  1
  Si  Si43  1  0.02760200  0.14053400  0.36985000  1
  Si  Si44  1  0.35946600  0.47239800  0.36985000  1
  Si  Si45  1  0.64053400  0.52760200  0.36985000  1
  Si  Si46  1  0.14053400  0.97239800  0.36985000  1
  Si  Si47  1  0.85946600  0.02760200  0.36985000  1
  O  O48  1  0.62486800  0.31558200  0.88788700  1
  O  O49  1  0.37513200  0.68441800  0.88788700  1
  O  O50  1  0.12486800  0.18441800  0.88788700  1
  O  O51  1  0.87513200  0.81558200  0.88788700  1
  O  O52  1  0.68441800  0.62486800  0.88788700  1
  O  O53  1  0.31558200  0.37513200  0.88788700  1
  O  O54  1  0.81558200  0.12486800  0.88788700  1
  O  O55  1  0.18441800  0.87513200  0.88788700  1
  O  O56  1  0.37513200  0.68441800  0.11211300  1
  O  O57  1  0.62486800  0.31558200  0.11211300  1
  O  O58  1  0.87513200  0.81558200  0.11211300  1
  O  O59  1  0.12486800  0.18441800  0.11211300  1
  O  O60  1  0.31558200  0.37513200  0.11211300  1
  O  O61  1  0.68441800  0.62486800  0.11211300  1
  O  O62  1  0.18441800  0.87513200  0.11211300  1
  O  O63  1  0.81558200  0.12486800  0.11211300  1
  O  O64  1  0.54329400  0.27381400  0.70540100  1
  O  O65  1  0.45670600  0.72618600  0.70540100  1
  O  O66  1  0.04329400  0.22618600  0.70540100  1
  O  O67  1  0.95670600  0.77381400  0.70540100  1
  O  O68  1  0.72618600  0.54329400  0.70540100  1
  O  O69  1  0.27381400  0.45670600  0.70540100  1
  O  O70  1  0.77381400  0.04329400  0.70540100  1
  O  O71  1  0.22618600  0.95670600  0.70540100  1
  O  O72  1  0.45670600  0.72618600  0.29459900  1
  O  O73  1  0.54329400  0.27381400  0.29459900  1
  O  O74  1  0.95670600  0.77381400  0.29459900  1
  O  O75  1  0.04329400  0.22618600  0.29459900  1
  O  O76  1  0.27381400  0.45670600  0.29459900  1
  O  O77  1  0.72618600  0.54329400  0.29459900  1
  O  O78  1  0.22618600  0.95670600  0.29459900  1
  O  O79  1  0.77381400  0.04329400  0.29459900  1
  O  O80  1  0.67234000  0.17234000  0.77261000  1
  O  O81  1  0.32766000  0.82766000  0.77261000  1
  O  O82  1  0.17234000  0.32766000  0.77261000  1
  O  O83  1  0.82766000  0.67234000  0.77261000  1
  O  O84  1  0.32766000  0.82766000  0.22739000  1
  O  O85  1  0.67234000  0.17234000  0.22739000  1
  O  O86  1  0.82766000  0.67234000  0.22739000  1
  O  O87  1  0.17234000  0.32766000  0.22739000  1
  O  O88  1  0.52730800  0.17303700  0.88724500  1
  O  O89  1  0.47269200  0.82696300  0.88724500  1
  O  O90  1  0.02730800  0.32696300  0.88724500  1
  O  O91  1  0.97269200  0.67303700  0.88724500  1
  O  O92  1  0.82696300  0.52730800  0.88724500  1
  O  O93  1  0.17303700  0.47269200  0.88724500  1
  O  O94  1  0.67303700  0.02730800  0.88724500  1
  O  O95  1  0.32696300  0.97269200  0.88724500  1
  O  O96  1  0.47269200  0.82696300  0.11275500  1
  O  O97  1  0.52730800  0.17303700  0.11275500  1
  O  O98  1  0.97269200  0.67303700  0.11275500  1
  O  O99  1  0.02730800  0.32696300  0.11275500  1
  O  O100  1  0.17303700  0.47269200  0.11275500  1
  O  O101  1  0.82696300  0.52730800  0.11275500  1
  O  O102  1  0.32696300  0.97269200  0.11275500  1
  O  O103  1  0.67303700  0.02730800  0.11275500  1
  O  O104  1  0.57674100  0.72623800  0.00000000  1
  O  O105  1  0.42325900  0.27376200  0.00000000  1
  O  O106  1  0.07674100  0.77376200  0.00000000  1
  O  O107  1  0.92325900  0.22623800  0.00000000  1
  O  O108  1  0.27376200  0.57674100  0.00000000  1
  O  O109  1  0.72623800  0.42325900  0.00000000  1
  O  O110  1  0.22623800  0.07674100  0.00000000  1
  O  O111  1  0.77376200  0.92325900  0.00000000  1
  O  O112  1  0.59902200  0.90097800  0.00000000  1
  O  O113  1  0.40097800  0.09902200  0.00000000  1
  O  O114  1  0.09902200  0.59902200  0.00000000  1
  O  O115  1  0.90097800  0.40097800  0.00000000  1
  O  O116  1  0.74290000  0.75710000  0.00000000  1
  O  O117  1  0.25710000  0.24290000  0.00000000  1
  O  O118  1  0.24290000  0.74290000  0.00000000  1
  O  O119  1  0.75710000  0.25710000  0.00000000  1
  O  O120  1  0.60132000  0.43197500  0.65678400  1
  O  O121  1  0.39868000  0.56802500  0.65678400  1
  O  O122  1  0.10132000  0.06802500  0.65678400  1
  O  O123  1  0.89868000  0.93197500  0.65678400  1
  O  O124  1  0.56802500  0.60132000  0.65678400  1
  O  O125  1  0.43197500  0.39868000  0.65678400  1
  O  O126  1  0.93197500  0.10132000  0.65678400  1
  O  O127  1  0.06802500  0.89868000  0.65678400  1
  O  O128  1  0.39868000  0.56802500  0.34321600  1
  O  O129  1  0.60132000  0.43197500  0.34321600  1
  O  O130  1  0.89868000  0.93197500  0.34321600  1
  O  O131  1  0.10132000  0.06802500  0.34321600  1
  O  O132  1  0.43197500  0.39868000  0.34321600  1
  O  O133  1  0.56802500  0.60132000  0.34321600  1
  O  O134  1  0.06802500  0.89868000  0.34321600  1
  O  O135  1  0.93197500  0.10132000  0.34321600  1
  O  O136  1  0.53287900  0.33067700  0.50000000  1
  O  O137  1  0.46712100  0.66932300  0.50000000  1
  O  O138  1  0.03287900  0.16932300  0.50000000  1
  O  O139  1  0.96712100  0.83067700  0.50000000  1
  O  O140  1  0.66932300  0.53287900  0.50000000  1
  O  O141  1  0.33067700  0.46712100  0.50000000  1
  O  O142  1  0.83067700  0.03287900  0.50000000  1
  O  O143  1  0.16932300  0.96712100  0.50000000  1
