# generated using pymatgen
data_NaZn2(BH4)5
_symmetry_space_group_name_H-M   'P 1'
_cell_length_a   16.50814700
_cell_length_b   9.46027300
_cell_length_c   9.91536151
_cell_angle_alpha   65.61928649
_cell_angle_beta   90.00000000
_cell_angle_gamma   90.00000000
_symmetry_Int_Tables_number   1
_chemical_formula_structural   NaZn2(BH4)5
_chemical_formula_sum   'Na4 Zn8 B20 H80'
_cell_volume   1410.40675433
_cell_formula_units_Z   4
loop_
 _symmetry_equiv_pos_site_id
 _symmetry_equiv_pos_as_xyz
  1  'x, y, z'
loop_
 _atom_site_type_symbol
 _atom_site_label
 _atom_site_symmetry_multiplicity
 _atom_site_fract_x
 _atom_site_fract_y
 _atom_site_fract_z
 _atom_site_occupancy
  Na  Na0  1  0.92658900  0.35383100  0.28980500  1
  Na  Na1  1  0.42658900  0.14616900  0.71019500  1
  Na  Na2  1  0.07341100  0.64616900  0.71019500  1
  Na  Na3  1  0.57341100  0.85383100  0.28980500  1
  Zn  Zn4  1  0.27573500  0.87247600  0.30730700  1
  Zn  Zn5  1  0.77573500  0.62752400  0.69269300  1
  Zn  Zn6  1  0.72426500  0.12752400  0.69269300  1
  Zn  Zn7  1  0.22426500  0.37247600  0.30730700  1
  Zn  Zn8  1  0.13006500  0.08878900  0.85773900  1
  Zn  Zn9  1  0.63006500  0.41121100  0.14226100  1
  Zn  Zn10  1  0.86993500  0.91121100  0.14226100  1
  Zn  Zn11  1  0.36993500  0.58878900  0.85773900  1
  B  B12  1  0.80837900  0.22112000  0.50583600  1
  B  B13  1  0.30837900  0.27888000  0.49416400  1
  B  B14  1  0.19162100  0.77888000  0.49416400  1
  B  B15  1  0.69162100  0.72112000  0.50583600  1
  B  B16  1  0.59284100  0.14129700  0.67934500  1
  B  B17  1  0.09284100  0.35870300  0.32065500  1
  B  B18  1  0.40715900  0.85870300  0.32065500  1
  B  B19  1  0.90715900  0.64129700  0.67934500  1
  B  B20  1  0.21702800  0.03177600  0.05947200  1
  B  B21  1  0.71702800  0.46822400  0.94052800  1
  B  B22  1  0.78297200  0.96822400  0.94052800  1
  B  B23  1  0.28297200  0.53177600  0.05947200  1
  B  B24  1  0.08457700  0.91429100  0.78407700  1
  B  B25  1  0.58457700  0.58570900  0.21592300  1
  B  B26  1  0.91542300  0.08570900  0.21592300  1
  B  B27  1  0.41542300  0.41429100  0.78407700  1
  B  B28  1  0.39501100  0.83797000  0.76410100  1
  B  B29  1  0.89501100  0.66203000  0.23589900  1
  B  B30  1  0.60498900  0.16203000  0.23589900  1
  B  B31  1  0.10498900  0.33797000  0.76410100  1
  H  H32  1  0.77703400  0.08824200  0.54869700  1
  H  H33  1  0.27703400  0.41175800  0.45130300  1
  H  H34  1  0.22296600  0.91175800  0.45130300  1
  H  H35  1  0.72296600  0.58824200  0.54869700  1
  H  H36  1  0.78194800  0.29752200  0.38342400  1
  H  H37  1  0.28194800  0.20247800  0.61657600  1
  H  H38  1  0.21805200  0.70247800  0.61657600  1
  H  H39  1  0.71805200  0.79752200  0.38342400  1
  H  H40  1  0.78976500  0.29218000  0.58511400  1
  H  H41  1  0.28976500  0.20782000  0.41488600  1
  H  H42  1  0.21023500  0.70782000  0.41488600  1
  H  H43  1  0.71023500  0.79218000  0.58511400  1
  H  H44  1  0.88028000  0.19758200  0.52124100  1
  H  H45  1  0.38028000  0.30241800  0.47875900  1
  H  H46  1  0.11972000  0.80241800  0.47875900  1
  H  H47  1  0.61972000  0.69758200  0.52124100  1
  H  H48  1  0.55689200  0.01916800  0.73633500  1
  H  H49  1  0.05689200  0.48083200  0.26366500  1
  H  H50  1  0.44310800  0.98083200  0.26366500  1
  H  H51  1  0.94310800  0.51916800  0.73633500  1
  H  H52  1  0.63464300  0.15305300  0.78132800  1
  H  H53  1  0.13464300  0.34694700  0.21867200  1
  H  H54  1  0.36535700  0.84694700  0.21867200  1
  H  H55  1  0.86535700  0.65305300  0.78132800  1
  H  H56  1  0.63073900  0.14103400  0.57171700  1
  H  H57  1  0.13073900  0.35896600  0.42828300  1
  H  H58  1  0.36926100  0.85896600  0.42828300  1
  H  H59  1  0.86926100  0.64103400  0.57171700  1
  H  H60  1  0.55447300  0.26071900  0.63163900  1
  H  H61  1  0.05447300  0.23928100  0.36836100  1
  H  H62  1  0.44552700  0.73928100  0.36836100  1
  H  H63  1  0.94552700  0.76071900  0.63163900  1
  H  H64  1  0.20105400  0.94870800  0.99282600  1
  H  H65  1  0.70105400  0.55129200  0.00717400  1
  H  H66  1  0.79894600  0.05129200  0.00717400  1
  H  H67  1  0.29894600  0.44870800  0.99282600  1
  H  H68  1  0.17719100  0.14943500  0.02952300  1
  H  H69  1  0.67719100  0.35056500  0.97047700  1
  H  H70  1  0.82280900  0.85056500  0.97047700  1
  H  H71  1  0.32280900  0.64943500  0.02952300  1
  H  H72  1  0.19078800  0.94922000  0.18589900  1
  H  H73  1  0.69078800  0.55078000  0.81410100  1
  H  H74  1  0.80921200  0.05078000  0.81410100  1
  H  H75  1  0.30921200  0.44922000  0.18589900  1
  H  H76  1  0.28768900  0.06362900  0.04095700  1
  H  H77  1  0.78768900  0.43637100  0.95904300  1
  H  H78  1  0.71231100  0.93637100  0.95904300  1
  H  H79  1  0.21231100  0.56362900  0.04095700  1
  H  H80  1  0.13610300  0.01612000  0.71323500  1
  H  H81  1  0.63610300  0.48388000  0.28676500  1
  H  H82  1  0.86389700  0.98388000  0.28676500  1
  H  H83  1  0.36389700  0.51612000  0.71323500  1
  H  H84  1  0.12039200  0.79122100  0.83029000  1
  H  H85  1  0.62039200  0.70877900  0.16971000  1
  H  H86  1  0.87960800  0.20877900  0.16971000  1
  H  H87  1  0.37960800  0.29122100  0.83029000  1
  H  H88  1  0.05621300  0.92704600  0.89637100  1
  H  H89  1  0.55621300  0.57295400  0.10362900  1
  H  H90  1  0.94378700  0.07295400  0.10362900  1
  H  H91  1  0.44378700  0.42704600  0.89637100  1
  H  H92  1  0.02872600  0.93386600  0.70002000  1
  H  H93  1  0.52872600  0.56613400  0.29998000  1
  H  H94  1  0.97127400  0.06613400  0.29998000  1
  H  H95  1  0.47127400  0.43386600  0.70002000  1
  H  H96  1  0.42093100  0.91796300  0.64204900  1
  H  H97  1  0.92093100  0.58203700  0.35795100  1
  H  H98  1  0.57906900  0.08203700  0.35795100  1
  H  H99  1  0.07906900  0.41796300  0.64204900  1
  H  H100  1  0.32953700  0.78311200  0.74215100  1
  H  H101  1  0.82953700  0.71688800  0.25784900  1
  H  H102  1  0.67046300  0.21688800  0.25784900  1
  H  H103  1  0.17046300  0.28311200  0.74215100  1
  H  H104  1  0.44905800  0.73838600  0.82591000  1
  H  H105  1  0.94905800  0.76161400  0.17409000  1
  H  H106  1  0.55094200  0.26161400  0.17409000  1
  H  H107  1  0.05094200  0.23838600  0.82591000  1
  H  H108  1  0.37931600  0.89824900  0.84755800  1
  H  H109  1  0.87931600  0.60175100  0.15244200  1
  H  H110  1  0.62068400  0.10175100  0.15244200  1
  H  H111  1  0.12068400  0.39824900  0.84755800  1
