# generated using pymatgen
data_Ce2(SO6)3
_symmetry_space_group_name_H-M   'P 1'
_cell_length_a   8.50318346
_cell_length_b   8.50318346
_cell_length_c   15.72802561
_cell_angle_alpha   86.16433977
_cell_angle_beta   86.16433977
_cell_angle_gamma   47.90915615
_symmetry_Int_Tables_number   1
_chemical_formula_structural   Ce2(SO6)3
_chemical_formula_sum   'Ce4 S6 O36'
_cell_volume   841.63371156
_cell_formula_units_Z   2
loop_
 _symmetry_equiv_pos_site_id
 _symmetry_equiv_pos_as_xyz
  1  'x, y, z'
loop_
 _atom_site_type_symbol
 _atom_site_label
 _atom_site_symmetry_multiplicity
 _atom_site_fract_x
 _atom_site_fract_y
 _atom_site_fract_z
 _atom_site_occupancy
  Ce  Ce0  1  0.84312000  0.82323800  0.63071800  1
  Ce  Ce1  1  0.82323800  0.84312000  0.13071800  1
  Ce  Ce2  1  0.15688000  0.17676200  0.36928200  1
  Ce  Ce3  1  0.17676200  0.15688000  0.86928200  1
  S  S4  1  0.26955600  0.31042700  0.07501900  1
  S  S5  1  0.31042700  0.26955600  0.57501900  1
  S  S6  1  0.73044400  0.68957300  0.92498100  1
  S  S7  1  0.68957300  0.73044400  0.42498100  1
  S  S8  1  0.72018200  0.27981800  0.75000000  1
  S  S9  1  0.27981800  0.72018200  0.25000000  1
  O  O10  1  0.23734500  0.26413000  0.49280000  1
  O  O11  1  0.26413000  0.23734500  0.99280000  1
  O  O12  1  0.76265500  0.73587000  0.50720000  1
  O  O13  1  0.73587000  0.76265500  0.00720000  1
  O  O14  1  0.53908400  0.15756600  0.56815300  1
  O  O15  1  0.15756600  0.53908400  0.06815300  1
  O  O16  1  0.46091600  0.84243400  0.43184700  1
  O  O17  1  0.84243400  0.46091600  0.93184700  1
  O  O18  1  0.27175800  0.15899900  0.63917800  1
  O  O19  1  0.15899900  0.27175800  0.13917800  1
  O  O20  1  0.72824200  0.84100100  0.36082200  1
  O  O21  1  0.84100100  0.72824200  0.86082200  1
  O  O22  1  0.18785600  0.49216600  0.59727000  1
  O  O23  1  0.49216600  0.18785600  0.09727000  1
  O  O24  1  0.81214400  0.50783400  0.40273000  1
  O  O25  1  0.50783400  0.81214400  0.90273000  1
  O  O26  1  0.56208000  0.33919600  0.81567500  1
  O  O27  1  0.33919600  0.56208000  0.31567500  1
  O  O28  1  0.43792000  0.66080400  0.18432500  1
  O  O29  1  0.66080400  0.43792000  0.68432500  1
  O  O30  1  0.92048500  0.21030900  0.78698400  1
  O  O31  1  0.21030900  0.92048500  0.28698400  1
  O  O32  1  0.07951500  0.78969100  0.21301600  1
  O  O33  1  0.78969100  0.07951500  0.71301600  1
  O  O34  1  0.08666600  0.87322600  0.62608400  1
  O  O35  1  0.87322600  0.08666600  0.12608400  1
  O  O36  1  0.91333400  0.12677400  0.37391600  1
  O  O37  1  0.12677400  0.91333400  0.87391600  1
  O  O38  1  0.27693700  0.22227100  0.77587200  1
  O  O39  1  0.22227100  0.27693700  0.27587200  1
  O  O40  1  0.72306300  0.77772900  0.22412800  1
  O  O41  1  0.77772900  0.72306300  0.72412800  1
  O  O42  1  0.00559300  0.03957200  0.53079300  1
  O  O43  1  0.03957200  0.00559300  0.03079300  1
  O  O44  1  0.99440700  0.96042800  0.46920700  1
  O  O45  1  0.96042800  0.99440700  0.96920700  1
