# generated using pymatgen
data_Na4XeO14
_symmetry_space_group_name_H-M   'P 1'
_cell_length_a   10.90079500
_cell_length_b   10.97479500
_cell_length_c   11.92236600
_cell_angle_alpha   90.00000000
_cell_angle_beta   90.00000000
_cell_angle_gamma   90.00000000
_symmetry_Int_Tables_number   1
_chemical_formula_structural   Na4XeO14
_chemical_formula_sum   'Na16 Xe4 O56'
_cell_volume   1426.32022033
_cell_formula_units_Z   4
loop_
 _symmetry_equiv_pos_site_id
 _symmetry_equiv_pos_as_xyz
  1  'x, y, z'
loop_
 _atom_site_type_symbol
 _atom_site_label
 _atom_site_symmetry_multiplicity
 _atom_site_fract_x
 _atom_site_fract_y
 _atom_site_fract_z
 _atom_site_occupancy
  Na  Na0  1  0.12383400  0.57738200  0.95008400  1
  Na  Na1  1  0.37616600  0.92261800  0.45008400  1
  Na  Na2  1  0.62383400  0.92261800  0.04991600  1
  Na  Na3  1  0.87616600  0.57738200  0.54991600  1
  Na  Na4  1  0.87616600  0.42261800  0.04991600  1
  Na  Na5  1  0.62383400  0.07738200  0.54991600  1
  Na  Na6  1  0.37616600  0.07738200  0.95008400  1
  Na  Na7  1  0.12383400  0.42261800  0.45008400  1
  Na  Na8  1  0.35298800  0.78939900  0.77415600  1
  Na  Na9  1  0.14701200  0.71060100  0.27415600  1
  Na  Na10  1  0.85298800  0.71060100  0.22584400  1
  Na  Na11  1  0.64701200  0.78939900  0.72584400  1
  Na  Na12  1  0.64701200  0.21060100  0.22584400  1
  Na  Na13  1  0.85298800  0.28939900  0.72584400  1
  Na  Na14  1  0.14701200  0.28939900  0.77415600  1
  Na  Na15  1  0.35298800  0.21060100  0.27415600  1
  Xe  Xe16  1  0.00000000  0.85591600  0.75000000  1
  Xe  Xe17  1  0.50000000  0.64408400  0.25000000  1
  Xe  Xe18  1  0.00000000  0.14408400  0.25000000  1
  Xe  Xe19  1  0.50000000  0.35591600  0.75000000  1
  O  O20  1  0.00000000  0.56330800  0.75000000  1
  O  O21  1  0.50000000  0.93669200  0.25000000  1
  O  O22  1  0.00000000  0.43669200  0.25000000  1
  O  O23  1  0.50000000  0.06330800  0.75000000  1
  O  O24  1  0.00000000  0.14657000  0.75000000  1
  O  O25  1  0.50000000  0.35343000  0.25000000  1
  O  O26  1  0.00000000  0.85343000  0.25000000  1
  O  O27  1  0.50000000  0.64657000  0.75000000  1
  O  O28  1  0.11868300  0.83085400  0.05112500  1
  O  O29  1  0.38131700  0.66914600  0.55112500  1
  O  O30  1  0.61868300  0.66914600  0.94887500  1
  O  O31  1  0.88131700  0.83085400  0.44887500  1
  O  O32  1  0.88131700  0.16914600  0.94887500  1
  O  O33  1  0.61868300  0.33085400  0.44887500  1
  O  O34  1  0.38131700  0.33085400  0.05112500  1
  O  O35  1  0.11868300  0.16914600  0.55112500  1
  O  O36  1  0.12950800  0.73782400  0.51575100  1
  O  O37  1  0.37049200  0.76217600  0.01575100  1
  O  O38  1  0.62950800  0.76217600  0.48424900  1
  O  O39  1  0.87049200  0.73782400  0.98424900  1
  O  O40  1  0.87049200  0.26217600  0.48424900  1
  O  O41  1  0.62950800  0.23782400  0.98424900  1
  O  O42  1  0.37049200  0.23782400  0.51575100  1
  O  O43  1  0.12950800  0.26217600  0.01575100  1
  O  O44  1  0.30239700  0.69475900  0.94420600  1
  O  O45  1  0.19760300  0.80524100  0.44420600  1
  O  O46  1  0.80239700  0.80524100  0.05579400  1
  O  O47  1  0.69760300  0.69475900  0.55579400  1
  O  O48  1  0.69760300  0.30524100  0.05579400  1
  O  O49  1  0.80239700  0.19475900  0.55579400  1
  O  O50  1  0.19760300  0.19475900  0.94420600  1
  O  O51  1  0.30239700  0.30524100  0.44420600  1
  O  O52  1  0.42525400  0.86064700  0.96344500  1
  O  O53  1  0.07474600  0.63935300  0.46344500  1
  O  O54  1  0.92525400  0.63935300  0.03655500  1
  O  O55  1  0.57474600  0.86064700  0.53655500  1
  O  O56  1  0.57474600  0.13935300  0.03655500  1
  O  O57  1  0.92525400  0.36064700  0.53655500  1
  O  O58  1  0.07474600  0.36064700  0.96344500  1
  O  O59  1  0.42525400  0.13935300  0.46344500  1
  O  O60  1  0.39251300  0.99844400  0.74789800  1
  O  O61  1  0.10748700  0.50155600  0.24789800  1
  O  O62  1  0.89251300  0.50155600  0.25210200  1
  O  O63  1  0.60748700  0.99844400  0.75210200  1
  O  O64  1  0.60748700  0.00155600  0.25210200  1
  O  O65  1  0.89251300  0.49844400  0.75210200  1
  O  O66  1  0.10748700  0.49844400  0.74789800  1
  O  O67  1  0.39251300  0.00155600  0.24789800  1
  O  O68  1  0.43556800  0.59199200  0.61170300  1
  O  O69  1  0.06443200  0.90800800  0.11170300  1
  O  O70  1  0.93556800  0.90800800  0.38829700  1
  O  O71  1  0.56443200  0.59199200  0.88829700  1
  O  O72  1  0.56443200  0.40800800  0.38829700  1
  O  O73  1  0.93556800  0.09199200  0.88829700  1
  O  O74  1  0.06443200  0.09199200  0.61170300  1
  O  O75  1  0.43556800  0.40800800  0.11170300  1
