# generated using pymatgen
data_KH5C3N2O5
_symmetry_space_group_name_H-M   'P 1'
_cell_length_a   7.78297900
_cell_length_b   12.85489400
_cell_length_c   7.69959000
_cell_angle_alpha   90.00000000
_cell_angle_beta   90.00000000
_cell_angle_gamma   90.00000000
_symmetry_Int_Tables_number   1
_chemical_formula_structural   KH5C3N2O5
_chemical_formula_sum   'K4 H20 C12 N8 O20'
_cell_volume   770.33912914
_cell_formula_units_Z   4
loop_
 _symmetry_equiv_pos_site_id
 _symmetry_equiv_pos_as_xyz
  1  'x, y, z'
loop_
 _atom_site_type_symbol
 _atom_site_label
 _atom_site_symmetry_multiplicity
 _atom_site_fract_x
 _atom_site_fract_y
 _atom_site_fract_z
 _atom_site_occupancy
  K  K0  1  0.50000000  0.00000000  0.74407900  1
  K  K1  1  0.00000000  0.50000000  0.75592100  1
  K  K2  1  0.50000000  0.00000000  0.25592100  1
  K  K3  1  0.00000000  0.50000000  0.24407900  1
  H  H4  1  0.11864300  0.09129900  0.50000000  1
  H  H5  1  0.88135700  0.90870100  0.50000000  1
  H  H6  1  0.61864300  0.40870100  0.00000000  1
  H  H7  1  0.38135700  0.59129900  0.00000000  1
  H  H8  1  0.63500000  0.21714800  0.50000000  1
  H  H9  1  0.36500000  0.78285200  0.50000000  1
  H  H10  1  0.13500000  0.28285200  0.00000000  1
  H  H11  1  0.86500000  0.71714800  0.00000000  1
  H  H12  1  0.82419100  0.29792000  0.50000000  1
  H  H13  1  0.17580900  0.70208000  0.50000000  1
  H  H14  1  0.32419100  0.20208000  0.00000000  1
  H  H15  1  0.67580900  0.79792000  0.00000000  1
  H  H16  1  0.18758300  0.95804000  0.00000000  1
  H  H17  1  0.81241700  0.04196000  0.00000000  1
  H  H18  1  0.68758300  0.54196000  0.50000000  1
  H  H19  1  0.31241700  0.45804000  0.50000000  1
  H  H20  1  0.12359200  0.07417100  0.00000000  1
  H  H21  1  0.87640800  0.92582900  0.00000000  1
  H  H22  1  0.62359200  0.42582900  0.50000000  1
  H  H23  1  0.37640800  0.57417100  0.50000000  1
  C  C24  1  0.32819100  0.24559200  0.50000000  1
  C  C25  1  0.67180900  0.75440800  0.50000000  1
  C  C26  1  0.82819100  0.25440800  0.00000000  1
  C  C27  1  0.17180900  0.74559200  0.00000000  1
  C  C28  1  0.12800000  0.25182200  0.50000000  1
  C  C29  1  0.87200000  0.74817800  0.50000000  1
  C  C30  1  0.62800000  0.24817800  0.00000000  1
  C  C31  1  0.37200000  0.75182200  0.00000000  1
  C  C32  1  0.86496900  0.14178100  0.50000000  1
  C  C33  1  0.13503100  0.85821900  0.50000000  1
  C  C34  1  0.36496900  0.35821900  0.00000000  1
  C  C35  1  0.63503100  0.64178100  0.00000000  1
  N  N36  1  0.04535200  0.15838700  0.50000000  1
  N  N37  1  0.95464800  0.84161300  0.50000000  1
  N  N38  1  0.54535200  0.34161300  0.00000000  1
  N  N39  1  0.45464800  0.65838700  0.00000000  1
  N  N40  1  0.76607900  0.22661200  0.50000000  1
  N  N41  1  0.23392100  0.77338800  0.50000000  1
  N  N42  1  0.26607900  0.27338800  0.00000000  1
  N  N43  1  0.73392100  0.72661200  0.00000000  1
  O  O44  1  0.39549500  0.15606100  0.50000000  1
  O  O45  1  0.60450500  0.84393900  0.50000000  1
  O  O46  1  0.89549500  0.34393900  0.00000000  1
  O  O47  1  0.10450500  0.65606100  0.00000000  1
  O  O48  1  0.40478300  0.33228700  0.50000000  1
  O  O49  1  0.59521700  0.66771300  0.50000000  1
  O  O50  1  0.90478300  0.16771300  0.00000000  1
  O  O51  1  0.09521700  0.83228700  0.00000000  1
  O  O52  1  0.05501200  0.33786400  0.50000000  1
  O  O53  1  0.94498800  0.66213600  0.50000000  1
  O  O54  1  0.55501200  0.16213600  0.00000000  1
  O  O55  1  0.44498800  0.83786400  0.00000000  1
  O  O56  1  0.80713100  0.05093700  0.50000000  1
  O  O57  1  0.19286900  0.94906300  0.50000000  1
  O  O58  1  0.30713100  0.44906300  0.00000000  1
  O  O59  1  0.69286900  0.55093700  0.00000000  1
  O  O60  1  0.22777900  0.03151900  0.00000000  1
  O  O61  1  0.77222100  0.96848000  0.00000000  1
  O  O62  1  0.72777900  0.46848100  0.50000000  1
  O  O63  1  0.27222100  0.53152000  0.50000000  1
