# generated using pymatgen
data_La2SiS5
_symmetry_space_group_name_H-M   'P 1'
_cell_length_a   8.21651800
_cell_length_b   8.71088544
_cell_length_c   12.49444029
_cell_angle_alpha   92.87300941
_cell_angle_beta   90.00000000
_cell_angle_gamma   90.00000000
_symmetry_Int_Tables_number   1
_chemical_formula_structural   La2SiS5
_chemical_formula_sum   'La8 Si4 S20'
_cell_volume   893.14238989
_cell_formula_units_Z   4
loop_
 _symmetry_equiv_pos_site_id
 _symmetry_equiv_pos_as_xyz
  1  'x, y, z'
loop_
 _atom_site_type_symbol
 _atom_site_label
 _atom_site_symmetry_multiplicity
 _atom_site_fract_x
 _atom_site_fract_y
 _atom_site_fract_z
 _atom_site_occupancy
  La  La0  1  0.44427600  0.51234000  0.66343800  1
  La  La1  1  0.94427600  0.48766000  0.83656200  1
  La  La2  1  0.55572400  0.48766000  0.33656200  1
  La  La3  1  0.05572400  0.51234000  0.16343800  1
  La  La4  1  0.42334200  0.74392300  0.00551700  1
  La  La5  1  0.92334200  0.25607700  0.49448300  1
  La  La6  1  0.57665800  0.25607700  0.99448300  1
  La  La7  1  0.07665800  0.74392300  0.50551700  1
  Si  Si8  1  0.21939100  0.04507100  0.21826800  1
  Si  Si9  1  0.71939100  0.95492900  0.28173200  1
  Si  Si10  1  0.78060900  0.95492900  0.78173200  1
  Si  Si11  1  0.28060900  0.04507100  0.71826800  1
  S  S12  1  0.60126400  0.52519800  0.87166500  1
  S  S13  1  0.10126400  0.47480200  0.62833500  1
  S  S14  1  0.39873600  0.47480200  0.12833500  1
  S  S15  1  0.89873600  0.52519800  0.37166500  1
  S  S16  1  0.79797800  0.94289700  0.43730200  1
  S  S17  1  0.29797800  0.05710300  0.06269800  1
  S  S18  1  0.20202200  0.05710300  0.56269800  1
  S  S19  1  0.70202200  0.94289700  0.93730200  1
  S  S20  1  0.67348600  0.75627900  0.19167300  1
  S  S21  1  0.17348600  0.24372100  0.30832700  1
  S  S22  1  0.32651400  0.24372100  0.80832700  1
  S  S23  1  0.82651400  0.75627900  0.69167300  1
  S  S24  1  0.09250000  0.68261200  0.98293400  1
  S  S25  1  0.59250000  0.31738800  0.51706600  1
  S  S26  1  0.90750000  0.31738800  0.01706600  1
  S  S27  1  0.40750000  0.68261200  0.48293400  1
  S  S28  1  0.32342300  0.83145400  0.77293400  1
  S  S29  1  0.82342300  0.16854600  0.72706600  1
  S  S30  1  0.67657700  0.16854600  0.22706600  1
  S  S31  1  0.17657700  0.83145400  0.27293400  1
