# generated using pymatgen
data_CdH4(C2O3)2
_symmetry_space_group_name_H-M   'P 1'
_cell_length_a   12.25960600
_cell_length_b   6.49023700
_cell_length_c   8.32896569
_cell_angle_alpha   77.53074123
_cell_angle_beta   90.00000000
_cell_angle_gamma   90.00000000
_symmetry_Int_Tables_number   1
_chemical_formula_structural   CdH4(C2O3)2
_chemical_formula_sum   'Cd4 H16 C16 O24'
_cell_volume   647.08487354
_cell_formula_units_Z   4
loop_
 _symmetry_equiv_pos_site_id
 _symmetry_equiv_pos_as_xyz
  1  'x, y, z'
loop_
 _atom_site_type_symbol
 _atom_site_label
 _atom_site_symmetry_multiplicity
 _atom_site_fract_x
 _atom_site_fract_y
 _atom_site_fract_z
 _atom_site_occupancy
  Cd  Cd0  1  0.13197200  0.17741600  0.77252100  1
  Cd  Cd1  1  0.63197200  0.32258400  0.22747900  1
  Cd  Cd2  1  0.86802800  0.82258400  0.22747900  1
  Cd  Cd3  1  0.36802800  0.67741600  0.77252100  1
  H  H4  1  0.94438200  0.26108700  0.94892800  1
  H  H5  1  0.44438200  0.23891300  0.05107200  1
  H  H6  1  0.05561800  0.73891300  0.05107200  1
  H  H7  1  0.55561800  0.76108700  0.94892800  1
  H  H8  1  0.90864900  0.32414500  0.75732400  1
  H  H9  1  0.40864900  0.17585500  0.24267600  1
  H  H10  1  0.09135100  0.67585500  0.24267600  1
  H  H11  1  0.59135100  0.82414500  0.75732400  1
  H  H12  1  0.35945700  0.14509000  0.74697000  1
  H  H13  1  0.85945700  0.35491000  0.25303000  1
  H  H14  1  0.64054300  0.85491000  0.25303000  1
  H  H15  1  0.14054300  0.64509000  0.74697000  1
  H  H16  1  0.30908800  0.10573300  0.57565600  1
  H  H17  1  0.80908800  0.39426700  0.42434400  1
  H  H18  1  0.69091200  0.89426700  0.42434400  1
  H  H19  1  0.19091200  0.60573300  0.57565600  1
  C  C20  1  0.09409600  0.19737800  0.38702100  1
  C  C21  1  0.59409600  0.30262200  0.61297900  1
  C  C22  1  0.90590400  0.80262200  0.61297900  1
  C  C23  1  0.40590400  0.69737800  0.38702100  1
  C  C24  1  0.20395300  0.17397100  0.32193300  1
  C  C25  1  0.70395300  0.32602900  0.67806700  1
  C  C26  1  0.79604700  0.82602900  0.67806700  1
  C  C27  1  0.29604700  0.67397100  0.32193300  1
  C  C28  1  0.15686100  0.16568800  0.16054100  1
  C  C29  1  0.65686100  0.33431200  0.83945900  1
  C  C30  1  0.84313900  0.83431200  0.83945900  1
  C  C31  1  0.34313900  0.66568800  0.16054100  1
  C  C32  1  0.04694200  0.18414300  0.22773600  1
  C  C33  1  0.54694200  0.31585700  0.77226400  1
  C  C34  1  0.95305800  0.81585700  0.77226400  1
  C  C35  1  0.45305800  0.68414300  0.22773600  1
  O  O36  1  0.05472900  0.21842800  0.52185400  1
  O  O37  1  0.55472900  0.28157200  0.47814600  1
  O  O38  1  0.94527100  0.78157200  0.47814600  1
  O  O39  1  0.44527100  0.71842800  0.52185400  1
  O  O40  1  0.29902300  0.16108100  0.38141300  1
  O  O41  1  0.79902300  0.33891900  0.61858700  1
  O  O42  1  0.70097700  0.83891900  0.61858700  1
  O  O43  1  0.20097700  0.66108100  0.38141300  1
  O  O44  1  0.19924400  0.14414800  0.02725600  1
  O  O45  1  0.69924400  0.35585200  0.97274400  1
  O  O46  1  0.80075600  0.85585200  0.97274400  1
  O  O47  1  0.30075600  0.64414800  0.02725600  1
  O  O48  1  0.94933000  0.18194300  0.17338900  1
  O  O49  1  0.44933000  0.31805700  0.82661100  1
  O  O50  1  0.05067000  0.81805700  0.82661100  1
  O  O51  1  0.55067000  0.68194300  0.17338900  1
  O  O52  1  0.97075700  0.31598200  0.83546400  1
  O  O53  1  0.47075700  0.18401800  0.16453600  1
  O  O54  1  0.02924300  0.68401800  0.16453600  1
  O  O55  1  0.52924300  0.81598200  0.83546400  1
  O  O56  1  0.30601400  0.05628800  0.70104600  1
  O  O57  1  0.80601400  0.44371200  0.29895400  1
  O  O58  1  0.69398600  0.94371200  0.29895400  1
  O  O59  1  0.19398600  0.55628800  0.70104600  1
