# generated using pymatgen
data_KMo4AsO15
_symmetry_space_group_name_H-M   'P 1'
_cell_length_a   8.24997200
_cell_length_b   12.29504600
_cell_length_c   13.01779300
_cell_angle_alpha   90.00000000
_cell_angle_beta   90.00000000
_cell_angle_gamma   90.00000000
_symmetry_Int_Tables_number   1
_chemical_formula_structural   KMo4AsO15
_chemical_formula_sum   'K4 Mo16 As4 O60'
_cell_volume   1320.44401944
_cell_formula_units_Z   4
loop_
 _symmetry_equiv_pos_site_id
 _symmetry_equiv_pos_as_xyz
  1  'x, y, z'
loop_
 _atom_site_type_symbol
 _atom_site_label
 _atom_site_symmetry_multiplicity
 _atom_site_fract_x
 _atom_site_fract_y
 _atom_site_fract_z
 _atom_site_occupancy
  K  K0  1  0.06418400  0.25563200  0.89763200  1
  K  K1  1  0.43581600  0.74436800  0.39763200  1
  K  K2  1  0.56418400  0.24436800  0.10236800  1
  K  K3  1  0.93581600  0.75563200  0.60236800  1
  Mo  Mo4  1  0.01097800  0.91642900  0.88228100  1
  Mo  Mo5  1  0.48902200  0.08357100  0.38228100  1
  Mo  Mo6  1  0.51097800  0.58357100  0.11771900  1
  Mo  Mo7  1  0.98902200  0.41642900  0.61771900  1
  Mo  Mo8  1  0.21590100  0.14133100  0.59388700  1
  Mo  Mo9  1  0.28409900  0.85866900  0.09388700  1
  Mo  Mo10  1  0.71590100  0.35866900  0.40611300  1
  Mo  Mo11  1  0.78409900  0.64133100  0.90611300  1
  Mo  Mo12  1  0.80552400  0.13641600  0.57029700  1
  Mo  Mo13  1  0.69447600  0.86358400  0.07029700  1
  Mo  Mo14  1  0.30552400  0.36358400  0.42970300  1
  Mo  Mo15  1  0.19447600  0.63641600  0.92970300  1
  Mo  Mo16  1  0.53782800  0.21421900  0.81623200  1
  Mo  Mo17  1  0.96217200  0.78578100  0.31623200  1
  Mo  Mo18  1  0.03782800  0.28578100  0.18376800  1
  Mo  Mo19  1  0.46217200  0.71421900  0.68376800  1
  As  As20  1  0.43664300  0.93919300  0.84754700  1
  As  As21  1  0.06335700  0.06080700  0.34754700  1
  As  As22  1  0.93664300  0.56080700  0.15245300  1
  As  As23  1  0.56335700  0.43919300  0.65245300  1
  O  O24  1  0.23419100  0.00233700  0.58940600  1
  O  O25  1  0.26580900  0.99766300  0.08940600  1
  O  O26  1  0.73419100  0.49766300  0.41059400  1
  O  O27  1  0.76580900  0.50233700  0.91059400  1
  O  O28  1  0.55662500  0.05238900  0.83441100  1
  O  O29  1  0.94337500  0.94761100  0.33441100  1
  O  O30  1  0.05662500  0.44761100  0.16558900  1
  O  O31  1  0.44337500  0.55238900  0.66558900  1
  O  O32  1  0.67023700  0.18038300  0.66828800  1
  O  O33  1  0.82976300  0.81961700  0.16828800  1
  O  O34  1  0.17023700  0.31961700  0.33171200  1
  O  O35  1  0.32976300  0.68038300  0.83171200  1
  O  O36  1  0.33653200  0.17661800  0.70194900  1
  O  O37  1  0.16346800  0.82338200  0.20194900  1
  O  O38  1  0.83653200  0.32338200  0.29805100  1
  O  O39  1  0.66346800  0.67661800  0.79805100  1
  O  O40  1  0.50247400  0.36032500  0.75377500  1
  O  O41  1  0.99752600  0.63967500  0.25377500  1
  O  O42  1  0.00247400  0.13967500  0.24622500  1
  O  O43  1  0.49752600  0.86032500  0.74622500  1
  O  O44  1  0.23699300  0.97448800  0.84022100  1
  O  O45  1  0.26300700  0.02551200  0.34022100  1
  O  O46  1  0.73699300  0.52551200  0.15977900  1
  O  O47  1  0.76300700  0.47448800  0.65977900  1
  O  O48  1  0.71874600  0.24294100  0.87680500  1
  O  O49  1  0.78125400  0.75705900  0.37680500  1
  O  O50  1  0.21874600  0.25705900  0.12319500  1
  O  O51  1  0.28125400  0.74294100  0.62319500  1
  O  O52  1  0.39640900  0.23306300  0.91330600  1
  O  O53  1  0.10359100  0.76693700  0.41330600  1
  O  O54  1  0.89640900  0.26693700  0.08669400  1
  O  O55  1  0.60359100  0.73306300  0.58669400  1
  O  O56  1  0.79218500  0.99739400  0.57455400  1
  O  O57  1  0.70781500  0.00260600  0.07455400  1
  O  O58  1  0.29218500  0.50260600  0.42544600  1
  O  O59  1  0.20781500  0.49739400  0.92544600  1
  O  O60  1  0.00292600  0.16711700  0.64972400  1
  O  O61  1  0.49707400  0.83288300  0.14972400  1
  O  O62  1  0.50292600  0.33288300  0.35027600  1
  O  O63  1  0.99707400  0.66711700  0.85027600  1
  O  O64  1  0.14795500  0.81921600  0.97665300  1
  O  O65  1  0.35204500  0.18078400  0.47665300  1
  O  O66  1  0.64795500  0.68078400  0.02334700  1
  O  O67  1  0.85204500  0.31921600  0.52334700  1
  O  O68  1  0.82352500  0.83643000  0.94593400  1
  O  O69  1  0.67647500  0.16357000  0.44593400  1
  O  O70  1  0.32352500  0.66357000  0.05406600  1
  O  O71  1  0.17647500  0.33643000  0.55406600  1
  O  O72  1  0.47702300  0.87467800  0.96243000  1
  O  O73  1  0.02297700  0.12532200  0.46243000  1
  O  O74  1  0.97702300  0.62532200  0.03757000  1
  O  O75  1  0.52297700  0.37467800  0.53757000  1
  O  O76  1  0.95623200  0.89593200  0.75599500  1
  O  O77  1  0.54376800  0.10406800  0.25599500  1
  O  O78  1  0.45623200  0.60406800  0.24400500  1
  O  O79  1  0.04376800  0.39593200  0.74400500  1
  O  O80  1  0.95156600  0.04568000  0.91636200  1
  O  O81  1  0.54843400  0.95432000  0.41636200  1
  O  O82  1  0.45156600  0.45432000  0.08363800  1
  O  O83  1  0.04843400  0.54568000  0.58363800  1
