# generated using pymatgen
data_Ti2Si(H2O3)3
_symmetry_space_group_name_H-M   'P 1'
_cell_length_a   11.14219600
_cell_length_b   11.14219600
_cell_length_c   12.10426000
_cell_angle_alpha   90.00000000
_cell_angle_beta   90.00000000
_cell_angle_gamma   90.00000000
_symmetry_Int_Tables_number   1
_chemical_formula_structural   Ti2Si(H2O3)3
_chemical_formula_sum   'Ti16 Si8 H48 O72'
_cell_volume   1502.72610634
_cell_formula_units_Z   8
loop_
 _symmetry_equiv_pos_site_id
 _symmetry_equiv_pos_as_xyz
  1  'x, y, z'
loop_
 _atom_site_type_symbol
 _atom_site_label
 _atom_site_symmetry_multiplicity
 _atom_site_fract_x
 _atom_site_fract_y
 _atom_site_fract_z
 _atom_site_occupancy
  Ti  Ti0  1  0.84856000  0.01816200  0.85041400  1
  Ti  Ti1  1  0.34856000  0.48183800  0.85041400  1
  Ti  Ti2  1  0.65144000  0.51816200  0.85041400  1
  Ti  Ti3  1  0.15144000  0.98183800  0.85041400  1
  Ti  Ti4  1  0.51816200  0.34856000  0.64958600  1
  Ti  Ti5  1  0.01816200  0.15144000  0.64958600  1
  Ti  Ti6  1  0.98183800  0.84856000  0.64958600  1
  Ti  Ti7  1  0.48183800  0.65144000  0.64958600  1
  Ti  Ti8  1  0.51816200  0.34856000  0.35041400  1
  Ti  Ti9  1  0.01816200  0.15144000  0.35041400  1
  Ti  Ti10  1  0.98183800  0.84856000  0.35041400  1
  Ti  Ti11  1  0.48183800  0.65144000  0.35041400  1
  Ti  Ti12  1  0.84856000  0.01816200  0.14958600  1
  Ti  Ti13  1  0.34856000  0.48183800  0.14958600  1
  Ti  Ti14  1  0.65144000  0.51816200  0.14958600  1
  Ti  Ti15  1  0.15144000  0.98183800  0.14958600  1
  Si  Si16  1  0.77797000  0.27797000  0.75000000  1
  Si  Si17  1  0.72203000  0.77797000  0.75000000  1
  Si  Si18  1  0.27797000  0.22203000  0.75000000  1
  Si  Si19  1  0.22203000  0.72203000  0.75000000  1
  Si  Si20  1  0.77797000  0.27797000  0.25000000  1
  Si  Si21  1  0.72203000  0.77797000  0.25000000  1
  Si  Si22  1  0.27797000  0.22203000  0.25000000  1
  Si  Si23  1  0.22203000  0.72203000  0.25000000  1
  H  H24  1  0.52434300  0.32081800  0.88413300  1
  H  H25  1  0.02434300  0.17918200  0.88413300  1
  H  H26  1  0.97565700  0.82081800  0.88413300  1
  H  H27  1  0.93117500  0.47961300  0.84211100  1
  H  H28  1  0.56882500  0.97961300  0.84211100  1
  H  H29  1  0.47565700  0.67918200  0.88413300  1
  H  H30  1  0.43117500  0.02038700  0.84211100  1
  H  H31  1  0.06882500  0.52038700  0.84211100  1
  H  H32  1  0.52038700  0.93117500  0.65788900  1
  H  H33  1  0.97961300  0.43117500  0.65788900  1
  H  H34  1  0.02038700  0.56882500  0.65788900  1
  H  H35  1  0.47961300  0.06882500  0.65788900  1
  H  H36  1  0.82081800  0.02434300  0.61586700  1
  H  H37  1  0.32081800  0.47565700  0.61586700  1
  H  H38  1  0.67918200  0.52434300  0.61586700  1
  H  H39  1  0.17918200  0.97565700  0.61586700  1
  H  H40  1  0.71795600  0.14312500  0.50000000  1
  H  H41  1  0.64409300  0.02610900  0.50000000  1
  H  H42  1  0.14409300  0.47389100  0.50000000  1
  H  H43  1  0.21795600  0.35687500  0.50000000  1
  H  H44  1  0.78204400  0.64312500  0.50000000  1
  H  H45  1  0.85590700  0.52610900  0.50000000  1
  H  H46  1  0.35590700  0.97389100  0.50000000  1
  H  H47  1  0.28204400  0.85687500  0.50000000  1
  H  H48  1  0.82081800  0.02434300  0.38413300  1
  H  H49  1  0.32081800  0.47565700  0.38413300  1
  H  H50  1  0.67918200  0.52434300  0.38413300  1
  H  H51  1  0.17918200  0.97565700  0.38413300  1
  H  H52  1  0.52038700  0.93117500  0.34211100  1
  H  H53  1  0.97961300  0.43117500  0.34211100  1
  H  H54  1  0.02038700  0.56882500  0.34211100  1
  H  H55  1  0.47961300  0.06882500  0.34211100  1
  H  H56  1  0.93117500  0.47961300  0.15788900  1
  H  H57  1  0.56882500  0.97961300  0.15788900  1
  H  H58  1  0.52434300  0.32081800  0.11586700  1
  H  H59  1  0.43117500  0.02038700  0.15788900  1
  H  H60  1  0.06882500  0.52038700  0.15788900  1
  H  H61  1  0.02434300  0.17918200  0.11586700  1
  H  H62  1  0.97565700  0.82081800  0.11586700  1
  H  H63  1  0.47565700  0.67918200  0.11586700  1
  H  H64  1  0.52610900  0.14409300  0.00000000  1
  H  H65  1  0.64312500  0.21795600  0.00000000  1
  H  H66  1  0.02610900  0.35590700  0.00000000  1
  H  H67  1  0.14312500  0.28204400  0.00000000  1
  H  H68  1  0.85687500  0.71795600  0.00000000  1
  H  H69  1  0.97389100  0.64409300  0.00000000  1
  H  H70  1  0.35687500  0.78204400  0.00000000  1
  H  H71  1  0.47389100  0.85590700  0.00000000  1
  O  O72  1  0.50000000  0.00000000  0.88864000  1
  O  O73  1  0.00000000  0.50000000  0.88864000  1
  O  O74  1  0.51526500  0.38819600  0.82969900  1
  O  O75  1  0.77073300  0.16347100  0.83510800  1
  O  O76  1  0.77102600  0.40531600  0.81816900  1
  O  O77  1  0.27073300  0.33652900  0.83510800  1
  O  O78  1  0.72926700  0.66347100  0.83510800  1
  O  O79  1  0.01526500  0.11180400  0.82969900  1
  O  O80  1  0.72897400  0.90531600  0.81816900  1
  O  O81  1  0.98473500  0.88819600  0.82969900  1
  O  O82  1  0.22926700  0.83652900  0.83510800  1
  O  O83  1  0.27102600  0.09468400  0.81816900  1
  O  O84  1  0.48473500  0.61180400  0.82969900  1
  O  O85  1  0.22897400  0.59468400  0.81816900  1
  O  O86  1  0.90531600  0.27102600  0.68183100  1
  O  O87  1  0.59468400  0.77102600  0.68183100  1
  O  O88  1  0.66347100  0.27073300  0.66489200  1
  O  O89  1  0.88819600  0.01526500  0.67030100  1
  O  O90  1  0.40531600  0.22897400  0.68183100  1
  O  O91  1  0.38819600  0.48473500  0.67030100  1
  O  O92  1  0.61180400  0.51526500  0.67030100  1
  O  O93  1  0.09468400  0.72897400  0.68183100  1
  O  O94  1  0.11180400  0.98473500  0.67030100  1
  O  O95  1  0.16347100  0.22926700  0.66489200  1
  O  O96  1  0.83652900  0.77073300  0.66489200  1
  O  O97  1  0.33652900  0.72926700  0.66489200  1
  O  O98  1  0.50000000  0.00000000  0.61136000  1
  O  O99  1  0.00000000  0.50000000  0.61136000  1
  O  O100  1  0.50766500  0.35603500  0.50000000  1
  O  O101  1  0.72834600  0.05602700  0.50000000  1
  O  O102  1  0.00766500  0.14396500  0.50000000  1
  O  O103  1  0.99233500  0.85603500  0.50000000  1
  O  O104  1  0.77165400  0.55602700  0.50000000  1
  O  O105  1  0.27165400  0.94397300  0.50000000  1
  O  O106  1  0.22834600  0.44397300  0.50000000  1
  O  O107  1  0.49233500  0.64396500  0.50000000  1
  O  O108  1  0.50000000  0.00000000  0.38864000  1
  O  O109  1  0.00000000  0.50000000  0.38864000  1
  O  O110  1  0.66347100  0.27073300  0.33510800  1
  O  O111  1  0.16347100  0.22926700  0.33510800  1
  O  O112  1  0.83652900  0.77073300  0.33510800  1
  O  O113  1  0.88819600  0.01526500  0.32969900  1
  O  O114  1  0.90531600  0.27102600  0.31816900  1
  O  O115  1  0.38819600  0.48473500  0.32969900  1
  O  O116  1  0.61180400  0.51526500  0.32969900  1
  O  O117  1  0.59468400  0.77102600  0.31816900  1
  O  O118  1  0.11180400  0.98473500  0.32969900  1
  O  O119  1  0.33652900  0.72926700  0.33510800  1
  O  O120  1  0.40531600  0.22897400  0.31816900  1
  O  O121  1  0.09468400  0.72897400  0.31816900  1
  O  O122  1  0.77102600  0.40531600  0.18183100  1
  O  O123  1  0.51526500  0.38819600  0.17030100  1
  O  O124  1  0.72897400  0.90531600  0.18183100  1
  O  O125  1  0.77073300  0.16347100  0.16489200  1
  O  O126  1  0.01526500  0.11180400  0.17030100  1
  O  O127  1  0.27102600  0.09468400  0.18183100  1
  O  O128  1  0.98473500  0.88819600  0.17030100  1
  O  O129  1  0.27073300  0.33652900  0.16489200  1
  O  O130  1  0.72926700  0.66347100  0.16489200  1
  O  O131  1  0.22897400  0.59468400  0.18183100  1
  O  O132  1  0.22926700  0.83652900  0.16489200  1
  O  O133  1  0.48473500  0.61180400  0.17030100  1
  O  O134  1  0.50000000  0.00000000  0.11136000  1
  O  O135  1  0.00000000  0.50000000  0.11136000  1
  O  O136  1  0.55602700  0.22834600  0.00000000  1
  O  O137  1  0.44397300  0.77165400  0.00000000  1
  O  O138  1  0.05602700  0.27165400  0.00000000  1
  O  O139  1  0.85603500  0.00766500  0.00000000  1
  O  O140  1  0.35603500  0.49233500  0.00000000  1
  O  O141  1  0.64396500  0.50766500  0.00000000  1
  O  O142  1  0.14396500  0.99233500  0.00000000  1
  O  O143  1  0.94397300  0.72834600  0.00000000  1
