# generated using pymatgen
data_ZrH5S3O14
_symmetry_space_group_name_H-M   'P 1'
_cell_length_a   5.18608300
_cell_length_b   9.01309950
_cell_length_c   12.73668506
_cell_angle_alpha   87.13457532
_cell_angle_beta   89.71167742
_cell_angle_gamma   85.76072304
_symmetry_Int_Tables_number   1
_chemical_formula_structural   ZrH5S3O14
_chemical_formula_sum   'Zr2 H10 S6 O28'
_cell_volume   592.97511808
_cell_formula_units_Z   2
loop_
 _symmetry_equiv_pos_site_id
 _symmetry_equiv_pos_as_xyz
  1  'x, y, z'
loop_
 _atom_site_type_symbol
 _atom_site_label
 _atom_site_symmetry_multiplicity
 _atom_site_fract_x
 _atom_site_fract_y
 _atom_site_fract_z
 _atom_site_occupancy
  Zr  Zr0  1  0.21308200  0.89394900  0.17926100  1
  Zr  Zr1  1  0.78691800  0.10605100  0.82073900  1
  H  H2  1  0.59622600  0.67503800  0.46249100  1
  H  H3  1  0.40377400  0.32496200  0.53750900  1
  H  H4  1  0.73443500  0.83092000  0.48156200  1
  H  H5  1  0.26556500  0.16908000  0.51843800  1
  H  H6  1  0.60855800  0.73890600  0.58266400  1
  H  H7  1  0.39144200  0.26109400  0.41733600  1
  H  H8  1  0.90307500  0.42711100  0.19417800  1
  H  H9  1  0.09692500  0.57288900  0.80582200  1
  H  H10  1  0.71279700  0.46554400  0.09803400  1
  H  H11  1  0.28720300  0.53445600  0.90196600  1
  S  S12  1  0.24756000  0.61959600  0.30282100  1
  S  S13  1  0.75244000  0.38040400  0.69717900  1
  S  S14  1  0.69821900  0.05530400  0.32058600  1
  S  S15  1  0.30178100  0.94469600  0.67941400  1
  S  S16  1  0.71689500  0.79966100  0.00355500  1
  S  S17  1  0.28310500  0.20033900  0.99644500  1
  O  O18  1  0.07371100  0.76305000  0.31549400  1
  O  O19  1  0.92628900  0.23695000  0.68450600  1
  O  O20  1  0.43454500  0.59497500  0.38869300  1
  O  O21  1  0.56545500  0.40502500  0.61130700  1
  O  O22  1  0.09958100  0.49131900  0.29189000  1
  O  O23  1  0.90041900  0.50868100  0.70811000  1
  O  O24  1  0.38278100  0.66440600  0.19987600  1
  O  O25  1  0.61721900  0.33559400  0.80012400  1
  O  O26  1  0.75146700  0.99622300  0.42819700  1
  O  O27  1  0.24853300  0.00377700  0.57180300  1
  O  O28  1  0.93851800  0.04883400  0.25533600  1
  O  O29  1  0.06148200  0.95116600  0.74466400  1
  O  O30  1  0.58291000  0.20893200  0.31901100  1
  O  O31  1  0.41709000  0.79106800  0.68098900  1
  O  O32  1  0.51504900  0.95648800  0.26896800  1
  O  O33  1  0.48495100  0.04351200  0.73103200  1
  O  O34  1  0.90745700  0.83755000  0.08528700  1
  O  O35  1  0.09254300  0.16245000  0.91471300  1
  O  O36  1  0.22839800  0.11441500  0.09492000  1
  O  O37  1  0.77160200  0.88558500  0.90508000  1
  O  O38  1  0.73275500  0.64044300  0.98842500  1
  O  O39  1  0.26724500  0.35955700  0.01157500  1
  O  O40  1  0.45353400  0.85130400  0.04091600  1
  O  O41  1  0.54646600  0.14869600  0.95908400  1
  O  O42  1  0.80836500  0.38211300  0.13714700  1
  O  O43  1  0.19163500  0.61788700  0.86285300  1
  O  O44  1  0.70686700  0.72812000  0.51423600  1
  O  O45  1  0.29313300  0.27188000  0.48576400  1
