# generated using pymatgen
data_KAsOF5
_symmetry_space_group_name_H-M   'P 1'
_cell_length_a   9.51234400
_cell_length_b   9.52013100
_cell_length_c   11.39733000
_cell_angle_alpha   90.00000000
_cell_angle_beta   90.00000000
_cell_angle_gamma   90.00000000
_symmetry_Int_Tables_number   1
_chemical_formula_structural   KAsOF5
_chemical_formula_sum   'K8 As8 O8 F40'
_cell_volume   1032.12808347
_cell_formula_units_Z   8
loop_
 _symmetry_equiv_pos_site_id
 _symmetry_equiv_pos_as_xyz
  1  'x, y, z'
loop_
 _atom_site_type_symbol
 _atom_site_label
 _atom_site_symmetry_multiplicity
 _atom_site_fract_x
 _atom_site_fract_y
 _atom_site_fract_z
 _atom_site_occupancy
  K  K0  1  0.00132700  0.23398500  0.66695600  1
  K  K1  1  0.49867300  0.26601500  0.16695600  1
  K  K2  1  0.50132700  0.76601500  0.33304400  1
  K  K3  1  0.99867300  0.73398500  0.83304400  1
  K  K4  1  0.99867300  0.76601500  0.33304400  1
  K  K5  1  0.50132700  0.73398500  0.83304400  1
  K  K6  1  0.49867300  0.23398500  0.66695600  1
  K  K7  1  0.00132700  0.26601500  0.16695600  1
  As  As8  1  0.25000000  0.06413900  0.90342600  1
  As  As9  1  0.25000000  0.43586100  0.40342600  1
  As  As10  1  0.75000000  0.93586100  0.09657400  1
  As  As11  1  0.75000000  0.56413900  0.59657400  1
  As  As12  1  0.25000000  0.41112700  0.89979000  1
  As  As13  1  0.25000000  0.08887300  0.39979000  1
  As  As14  1  0.75000000  0.58887300  0.10021000  1
  As  As15  1  0.75000000  0.91112700  0.60021000  1
  O  O16  1  0.25000000  0.23618600  0.83712500  1
  O  O17  1  0.25000000  0.26381400  0.33712500  1
  O  O18  1  0.75000000  0.76381400  0.16287500  1
  O  O19  1  0.75000000  0.73618600  0.66287500  1
  O  O20  1  0.25000000  0.75358200  0.66986100  1
  O  O21  1  0.25000000  0.74641800  0.16986100  1
  O  O22  1  0.75000000  0.24641800  0.33013900  1
  O  O23  1  0.75000000  0.25358200  0.83013900  1
  F  F24  1  0.25000000  0.88509500  0.95112000  1
  F  F25  1  0.25000000  0.61490500  0.45112000  1
  F  F26  1  0.75000000  0.11490500  0.04888000  1
  F  F27  1  0.75000000  0.38509500  0.54888000  1
  F  F28  1  0.25000000  0.36186100  0.05110500  1
  F  F29  1  0.25000000  0.13813900  0.55110500  1
  F  F30  1  0.75000000  0.63813900  0.94889500  1
  F  F31  1  0.75000000  0.86186100  0.44889500  1
  F  F32  1  0.11629500  0.01388800  0.80042600  1
  F  F33  1  0.38370500  0.48611200  0.30042600  1
  F  F34  1  0.61629500  0.98611200  0.19957400  1
  F  F35  1  0.88370500  0.51388800  0.69957400  1
  F  F36  1  0.88370500  0.98611200  0.19957400  1
  F  F37  1  0.61629500  0.51388800  0.69957400  1
  F  F38  1  0.38370500  0.01388800  0.80042600  1
  F  F39  1  0.11629500  0.48611200  0.30042600  1
  F  F40  1  0.11727000  0.10253000  0.00785900  1
  F  F41  1  0.38273000  0.39747000  0.50785900  1
  F  F42  1  0.61727000  0.89747000  0.99214100  1
  F  F43  1  0.88273000  0.60253000  0.49214100  1
  F  F44  1  0.88273000  0.89747000  0.99214100  1
  F  F45  1  0.61727000  0.60253000  0.49214100  1
  F  F46  1  0.38273000  0.10253000  0.00785900  1
  F  F47  1  0.11727000  0.39747000  0.50785900  1
  F  F48  1  0.06255300  0.41459800  0.90235300  1
  F  F49  1  0.43744700  0.08540200  0.40235300  1
  F  F50  1  0.56255300  0.58540200  0.09764700  1
  F  F51  1  0.93744700  0.91459800  0.59764700  1
  F  F52  1  0.93744700  0.58540200  0.09764700  1
  F  F53  1  0.56255300  0.91459800  0.59764700  1
  F  F54  1  0.43744700  0.41459800  0.90235300  1
  F  F55  1  0.06255300  0.08540200  0.40235300  1
  F  F56  1  0.25000000  0.47386300  0.75207600  1
  F  F57  1  0.25000000  0.02613700  0.25207600  1
  F  F58  1  0.75000000  0.52613700  0.24792400  1
  F  F59  1  0.75000000  0.97386300  0.74792400  1
  F  F60  1  0.25000000  0.59167100  0.94390700  1
  F  F61  1  0.25000000  0.90832900  0.44390700  1
  F  F62  1  0.75000000  0.40832900  0.05609300  1
  F  F63  1  0.75000000  0.09167100  0.55609300  1
