# generated using pymatgen
data_FeCo2BO5
_symmetry_space_group_name_H-M   'P 1'
_cell_length_a   3.07234900
_cell_length_b   9.41770700
_cell_length_c   12.41582300
_cell_angle_alpha   90.00000000
_cell_angle_beta   90.00000000
_cell_angle_gamma   90.00000000
_symmetry_Int_Tables_number   1
_chemical_formula_structural   FeCo2BO5
_chemical_formula_sum   'Fe4 Co8 B4 O20'
_cell_volume   359.24541560
_cell_formula_units_Z   4
loop_
 _symmetry_equiv_pos_site_id
 _symmetry_equiv_pos_as_xyz
  1  'x, y, z'
loop_
 _atom_site_type_symbol
 _atom_site_label
 _atom_site_symmetry_multiplicity
 _atom_site_fract_x
 _atom_site_fract_y
 _atom_site_fract_z
 _atom_site_occupancy
  Fe  Fe0  1  0.50000000  0.74038600  0.38523300  1
  Fe  Fe1  1  0.50000000  0.25961400  0.61476700  1
  Fe  Fe2  1  0.50000000  0.24038600  0.11476700  1
  Fe  Fe3  1  0.50000000  0.75961400  0.88523300  1
  Co  Co4  1  0.00000000  0.50000000  0.50000000  1
  Co  Co5  1  0.00000000  0.00000000  0.00000000  1
  Co  Co6  1  0.50000000  0.00000000  0.50000000  1
  Co  Co7  1  0.50000000  0.50000000  0.00000000  1
  Co  Co8  1  0.00000000  0.49924600  0.21959900  1
  Co  Co9  1  0.00000000  0.50075400  0.78040100  1
  Co  Co10  1  0.00000000  0.99924600  0.28040100  1
  Co  Co11  1  0.00000000  0.00075400  0.71959900  1
  B  B12  1  0.50000000  0.72850900  0.63862600  1
  B  B13  1  0.50000000  0.27149100  0.36137400  1
  B  B14  1  0.50000000  0.22850900  0.86137400  1
  B  B15  1  0.50000000  0.77149100  0.13862600  1
  O  O16  1  0.00000000  0.60809600  0.35657900  1
  O  O17  1  0.00000000  0.39190400  0.64342100  1
  O  O18  1  0.00000000  0.10809600  0.14342100  1
  O  O19  1  0.00000000  0.89190400  0.85657900  1
  O  O20  1  0.50000000  0.87592200  0.63965500  1
  O  O21  1  0.50000000  0.12407800  0.36034500  1
  O  O22  1  0.50000000  0.37592200  0.86034500  1
  O  O23  1  0.50000000  0.62407800  0.13965500  1
  O  O24  1  0.00000000  0.38152000  0.07838500  1
  O  O25  1  0.00000000  0.61848000  0.92161500  1
  O  O26  1  0.00000000  0.88152000  0.42161500  1
  O  O27  1  0.00000000  0.11848000  0.57838500  1
  O  O28  1  0.50000000  0.65520800  0.73619600  1
  O  O29  1  0.50000000  0.34479200  0.26380400  1
  O  O30  1  0.50000000  0.15520800  0.76380400  1
  O  O31  1  0.50000000  0.84479200  0.23619600  1
  O  O32  1  0.50000000  0.65277400  0.54212300  1
  O  O33  1  0.50000000  0.34722600  0.45787700  1
  O  O34  1  0.50000000  0.15277400  0.95787700  1
  O  O35  1  0.50000000  0.84722600  0.04212300  1
