# generated using pymatgen
data_Co5(PO6)2
_symmetry_space_group_name_H-M   'P 1'
_cell_length_a   5.43065700
_cell_length_b   8.88954700
_cell_length_c   16.94256600
_cell_angle_alpha   90.00000000
_cell_angle_beta   90.00000000
_cell_angle_gamma   90.00000000
_symmetry_Int_Tables_number   1
_chemical_formula_structural   Co5(PO6)2
_chemical_formula_sum   'Co20 P8 O48'
_cell_volume   817.92068250
_cell_formula_units_Z   4
loop_
 _symmetry_equiv_pos_site_id
 _symmetry_equiv_pos_as_xyz
  1  'x, y, z'
loop_
 _atom_site_type_symbol
 _atom_site_label
 _atom_site_symmetry_multiplicity
 _atom_site_fract_x
 _atom_site_fract_y
 _atom_site_fract_z
 _atom_site_occupancy
  Co  Co0  1  0.05548000  0.62842000  0.62750900  1
  Co  Co1  1  0.55548000  0.87158000  0.37249100  1
  Co  Co2  1  0.94452000  0.12842000  0.87249100  1
  Co  Co3  1  0.44452000  0.37158000  0.12750900  1
  Co  Co4  1  0.53021200  0.63218900  0.52579600  1
  Co  Co5  1  0.03021200  0.86781100  0.47420400  1
  Co  Co6  1  0.46978800  0.13218900  0.97420400  1
  Co  Co7  1  0.96978800  0.36781100  0.02579600  1
  Co  Co8  1  0.56401300  0.63451600  0.72024200  1
  Co  Co9  1  0.06401300  0.86548400  0.27975800  1
  Co  Co10  1  0.43598700  0.13451600  0.77975800  1
  Co  Co11  1  0.93598700  0.36548400  0.22024200  1
  Co  Co12  1  0.71718200  0.22608900  0.42962200  1
  Co  Co13  1  0.21718200  0.27391100  0.57037800  1
  Co  Co14  1  0.28281800  0.72608900  0.07037800  1
  Co  Co15  1  0.78281800  0.77391100  0.92962200  1
  Co  Co16  1  0.41088300  0.49729600  0.31865000  1
  Co  Co17  1  0.91088300  0.00270400  0.68135000  1
  Co  Co18  1  0.58911700  0.99729600  0.18135000  1
  Co  Co19  1  0.08911700  0.50270400  0.81865000  1
  P  P20  1  0.68048900  0.31837800  0.62136000  1
  P  P21  1  0.18048900  0.18162200  0.37864000  1
  P  P22  1  0.31951100  0.81837800  0.87864000  1
  P  P23  1  0.81951100  0.68162200  0.12136000  1
  P  P24  1  0.87854900  0.56694000  0.37429600  1
  P  P25  1  0.37854900  0.93306000  0.62570400  1
  P  P26  1  0.12145100  0.06694000  0.12570400  1
  P  P27  1  0.62145100  0.43306000  0.87429600  1
  O  O28  1  0.42818500  0.25799600  0.35904800  1
  O  O29  1  0.92818500  0.24200400  0.64095200  1
  O  O30  1  0.57181500  0.75799600  0.14095200  1
  O  O31  1  0.07181500  0.74200400  0.85904800  1
  O  O32  1  0.71320500  0.49588700  0.62269300  1
  O  O33  1  0.21320500  0.00411300  0.37730700  1
  O  O34  1  0.28679500  0.99588700  0.87730700  1
  O  O35  1  0.78679500  0.50411300  0.12269300  1
  O  O36  1  0.46999500  0.26972500  0.67689400  1
  O  O37  1  0.96999500  0.23027500  0.32310600  1
  O  O38  1  0.53000500  0.76972500  0.82310600  1
  O  O39  1  0.03000500  0.73027500  0.17689400  1
  O  O40  1  0.58732200  0.27890500  0.53694400  1
  O  O41  1  0.08732200  0.22109500  0.46305600  1
  O  O42  1  0.41267800  0.77890500  0.96305600  1
  O  O43  1  0.91267800  0.72109500  0.03694400  1
  O  O44  1  0.88617400  0.74394800  0.37644500  1
  O  O45  1  0.38617400  0.75605200  0.62355500  1
  O  O46  1  0.11382600  0.24394800  0.12355500  1
  O  O47  1  0.61382600  0.25605200  0.87644500  1
  O  O48  1  0.67684000  0.50775300  0.43164600  1
  O  O49  1  0.17684000  0.99224700  0.56835400  1
  O  O50  1  0.32316000  0.00775300  0.06835400  1
  O  O51  1  0.82316000  0.49224700  0.93164600  1
  O  O52  1  0.13416100  0.50844400  0.39085800  1
  O  O53  1  0.63416100  0.99155600  0.60914200  1
  O  O54  1  0.86583900  0.00844400  0.10914200  1
  O  O55  1  0.36583900  0.49155600  0.89085800  1
  O  O56  1  0.77618100  0.52223300  0.29106400  1
  O  O57  1  0.27618100  0.97776700  0.70893600  1
  O  O58  1  0.22381900  0.02223300  0.20893600  1
  O  O59  1  0.72381900  0.47776700  0.79106400  1
  O  O60  1  0.24241500  0.55719900  0.72025800  1
  O  O61  1  0.74241500  0.94280100  0.27974200  1
  O  O62  1  0.75758500  0.05719900  0.77974200  1
  O  O63  1  0.25758500  0.44280100  0.22025800  1
  O  O64  1  0.37318900  0.75458700  0.30966400  1
  O  O65  1  0.87318900  0.74541300  0.69033600  1
  O  O66  1  0.62681100  0.25458700  0.19033600  1
  O  O67  1  0.12681100  0.24541300  0.80966400  1
  O  O68  1  0.89156500  0.72522200  0.53768700  1
  O  O69  1  0.39156500  0.77477800  0.46231300  1
  O  O70  1  0.10843500  0.22522200  0.96231300  1
  O  O71  1  0.60843500  0.27477800  0.03768700  1
  O  O72  1  0.23079500  0.50467600  0.56506000  1
  O  O73  1  0.73079500  0.99532400  0.43494000  1
  O  O74  1  0.76920500  0.00467600  0.93494000  1
  O  O75  1  0.26920500  0.49532400  0.06506000  1
