# generated using pymatgen
data_SnH20C7IN
_symmetry_space_group_name_H-M   'P 1'
_cell_length_a   7.25105700
_cell_length_b   14.36523800
_cell_length_c   14.90337784
_cell_angle_alpha   85.64331403
_cell_angle_beta   90.00000000
_cell_angle_gamma   90.00000000
_symmetry_Int_Tables_number   1
_chemical_formula_structural   SnH20C7IN
_chemical_formula_sum   'Sn4 H80 C28 I4 N4'
_cell_volume   1547.89725824
_cell_formula_units_Z   4
loop_
 _symmetry_equiv_pos_site_id
 _symmetry_equiv_pos_as_xyz
  1  'x, y, z'
loop_
 _atom_site_type_symbol
 _atom_site_label
 _atom_site_symmetry_multiplicity
 _atom_site_fract_x
 _atom_site_fract_y
 _atom_site_fract_z
 _atom_site_occupancy
  Sn  Sn0  1  0.35643700  0.59709900  0.85538200  1
  Sn  Sn1  1  0.85643700  0.90290100  0.14461800  1
  Sn  Sn2  1  0.64356300  0.40290100  0.14461800  1
  Sn  Sn3  1  0.14356300  0.09709900  0.85538200  1
  H  H4  1  0.32617300  0.42601200  0.78813500  1
  H  H5  1  0.82617300  0.07398800  0.21186500  1
  H  H6  1  0.67382700  0.57398800  0.21186500  1
  H  H7  1  0.17382700  0.92601200  0.78813500  1
  H  H8  1  0.29823100  0.41403700  0.90715700  1
  H  H9  1  0.79823100  0.08596300  0.09284300  1
  H  H10  1  0.70176900  0.58596300  0.09284300  1
  H  H11  1  0.20176900  0.91403700  0.90715700  1
  H  H12  1  0.10883500  0.45464200  0.83759400  1
  H  H13  1  0.60883500  0.04535800  0.16240600  1
  H  H14  1  0.89116500  0.54535800  0.16240600  1
  H  H15  1  0.39116500  0.95464200  0.83759400  1
  H  H16  1  0.08414000  0.65389600  0.96653000  1
  H  H17  1  0.58414000  0.84610400  0.03347000  1
  H  H18  1  0.91586000  0.34610400  0.03347000  1
  H  H19  1  0.41586000  0.15389600  0.96653000  1
  H  H20  1  0.28174400  0.61743200  0.03193700  1
  H  H21  1  0.78174400  0.88256800  0.96806300  1
  H  H22  1  0.71825600  0.38256800  0.96806300  1
  H  H23  1  0.21825600  0.11743200  0.03193700  1
  H  H24  1  0.27843200  0.73041700  0.97281300  1
  H  H25  1  0.77843200  0.76958300  0.02718700  1
  H  H26  1  0.72156800  0.26958300  0.02718700  1
  H  H27  1  0.22156800  0.23041700  0.97281300  1
  H  H28  1  0.71201900  0.56843000  0.80474800  1
  H  H29  1  0.21201900  0.93157000  0.19525200  1
  H  H30  1  0.28798100  0.43157000  0.19525200  1
  H  H31  1  0.78798100  0.06843000  0.80474800  1
  H  H32  1  0.70074300  0.67421600  0.86199100  1
  H  H33  1  0.20074300  0.82578400  0.13800900  1
  H  H34  1  0.29925700  0.32578400  0.13800900  1
  H  H35  1  0.79925700  0.17421600  0.86199100  1
  H  H36  1  0.70090800  0.56237600  0.92458000  1
  H  H37  1  0.20090800  0.93762400  0.07542000  1
  H  H38  1  0.29909200  0.43762400  0.07542000  1
  H  H39  1  0.79909200  0.06237600  0.92458000  1
  H  H40  1  0.36988000  0.75358200  0.74075800  1
  H  H41  1  0.86988000  0.74641800  0.25924200  1
  H  H42  1  0.63012000  0.24641800  0.25924200  1
  H  H43  1  0.13012000  0.25358200  0.74075800  1
  H  H44  1  0.13176400  0.72310700  0.75559200  1
  H  H45  1  0.63176400  0.77689300  0.24440800  1
  H  H46  1  0.86823600  0.27689300  0.24440800  1
  H  H47  1  0.36823600  0.22310700  0.75559200  1
  H  H48  1  0.36706300  0.79771600  0.59188200  1
  H  H49  1  0.86706300  0.70228400  0.40811800  1
  H  H50  1  0.63293700  0.20228400  0.40811800  1
  H  H51  1  0.13293700  0.29771600  0.59188200  1
  H  H52  1  0.23944600  0.73148200  0.51378400  1
  H  H53  1  0.73944600  0.76851800  0.48621600  1
  H  H54  1  0.76055400  0.26851800  0.48621600  1
  H  H55  1  0.26055400  0.23148200  0.51378400  1
  H  H56  1  0.11893700  0.79094000  0.59959900  1
  H  H57  1  0.61893700  0.70906000  0.40040100  1
  H  H58  1  0.88106300  0.20906000  0.40040100  1
  H  H59  1  0.38106300  0.29094000  0.59959900  1
  H  H60  1  0.55105200  0.66346400  0.63266000  1
  H  H61  1  0.05105200  0.83653600  0.36734000  1
  H  H62  1  0.44894800  0.33653600  0.36734000  1
  H  H63  1  0.94894800  0.16346400  0.63266000  1
  H  H64  1  0.44626500  0.55219200  0.66546800  1
  H  H65  1  0.94626500  0.94780800  0.33453200  1
  H  H66  1  0.55373500  0.44780800  0.33453200  1
  H  H67  1  0.05373500  0.05219200  0.66546800  1
  H  H68  1  0.42469400  0.60123000  0.55170900  1
  H  H69  1  0.92469400  0.89877000  0.44829100  1
  H  H70  1  0.57530600  0.39877000  0.44829100  1
  H  H71  1  0.07530600  0.10123000  0.55170900  1
  H  H72  1  0.97461400  0.64721700  0.64825700  1
  H  H73  1  0.47461400  0.85278300  0.35174300  1
  H  H74  1  0.02538600  0.35278300  0.35174300  1
  H  H75  1  0.52538600  0.14721700  0.64825700  1
  H  H76  1  0.09488900  0.59096400  0.56168900  1
  H  H77  1  0.59488900  0.90903600  0.43831100  1
  H  H78  1  0.90511100  0.40903600  0.43831100  1
  H  H79  1  0.40511100  0.09096400  0.56168900  1
  H  H80  1  0.10702700  0.54314000  0.67648900  1
  H  H81  1  0.60702700  0.95686000  0.32351100  1
  H  H82  1  0.89297300  0.45686000  0.32351100  1
  H  H83  1  0.39297300  0.04314000  0.67648900  1
  C  C84  1  0.25915200  0.45599300  0.84534300  1
  C  C85  1  0.75915200  0.04400700  0.15465700  1
  C  C86  1  0.74084800  0.54400700  0.15465700  1
  C  C87  1  0.24084800  0.95599300  0.84534300  1
  C  C88  1  0.23501100  0.65743400  0.97038200  1
  C  C89  1  0.73501100  0.84256600  0.02961800  1
  C  C90  1  0.76498900  0.34256600  0.02961800  1
  C  C91  1  0.26498900  0.15743400  0.97038200  1
  C  C92  1  0.65428600  0.60145300  0.86251300  1
  C  C93  1  0.15428600  0.89854700  0.13748700  1
  C  C94  1  0.34571400  0.39854700  0.13748700  1
  C  C95  1  0.84571400  0.10145300  0.86251300  1
  C  C96  1  0.26932100  0.69615300  0.74148500  1
  C  C97  1  0.76932100  0.80384700  0.25851500  1
  C  C98  1  0.73067900  0.30384700  0.25851500  1
  C  C99  1  0.23067900  0.19615300  0.74148500  1
  C  C100  1  0.24537200  0.75423300  0.58265100  1
  C  C101  1  0.74537200  0.74576700  0.41734900  1
  C  C102  1  0.75462800  0.24576700  0.41734900  1
  C  C103  1  0.25462800  0.25423300  0.58265100  1
  C  C104  1  0.43410200  0.61719600  0.62225700  1
  C  C105  1  0.93410200  0.88280400  0.37774300  1
  C  C106  1  0.56589800  0.38280400  0.37774300  1
  C  C107  1  0.06589800  0.11719600  0.62225700  1
  C  C108  1  0.09742000  0.60735100  0.63229500  1
  C  C109  1  0.59742000  0.89264900  0.36770500  1
  C  C110  1  0.90258000  0.39264900  0.36770500  1
  C  C111  1  0.40258000  0.10735100  0.63229500  1
  I  I112  1  0.74994400  0.37291000  0.66656500  1
  I  I113  1  0.24994400  0.12709000  0.33343500  1
  I  I114  1  0.25005600  0.62709000  0.33343500  1
  I  I115  1  0.75005600  0.87291000  0.66656500  1
  N  N116  1  0.26228400  0.66764200  0.64599800  1
  N  N117  1  0.76228400  0.83235800  0.35400200  1
  N  N118  1  0.73771600  0.33235800  0.35400200  1
  N  N119  1  0.23771600  0.16764200  0.64599800  1
