# generated using pymatgen
data_Pr2(N4O9)3
_symmetry_space_group_name_H-M   'P 1'
_cell_length_a   13.95556600
_cell_length_b   13.95556600
_cell_length_c   13.95556600
_cell_angle_alpha   90.00000000
_cell_angle_beta   90.00000000
_cell_angle_gamma   90.00000000
_symmetry_Int_Tables_number   1
_chemical_formula_structural   Pr2(N4O9)3
_chemical_formula_sum   'Pr8 N48 O108'
_cell_volume   2717.95564425
_cell_formula_units_Z   4
loop_
 _symmetry_equiv_pos_site_id
 _symmetry_equiv_pos_as_xyz
  1  'x, y, z'
loop_
 _atom_site_type_symbol
 _atom_site_label
 _atom_site_symmetry_multiplicity
 _atom_site_fract_x
 _atom_site_fract_y
 _atom_site_fract_z
 _atom_site_occupancy
  Pr  Pr0  1  0.56132200  0.06132200  0.43867800  1
  Pr  Pr1  1  0.43867800  0.56132200  0.06132200  1
  Pr  Pr2  1  0.06132200  0.43867800  0.56132200  1
  Pr  Pr3  1  0.93867800  0.93867800  0.93867800  1
  Pr  Pr4  1  0.18867800  0.68867800  0.81132200  1
  Pr  Pr5  1  0.68867800  0.81132200  0.18867800  1
  Pr  Pr6  1  0.81132200  0.18867800  0.68867800  1
  Pr  Pr7  1  0.31132200  0.31132200  0.31132200  1
  N  N8  1  0.69927800  0.44927800  0.37500000  1
  N  N9  1  0.30072200  0.94927800  0.12500000  1
  N  N10  1  0.94927800  0.12500000  0.30072200  1
  N  N11  1  0.05072200  0.62500000  0.19927800  1
  N  N12  1  0.62500000  0.19927800  0.05072200  1
  N  N13  1  0.37500000  0.69927800  0.44927800  1
  N  N14  1  0.19927800  0.05072200  0.62500000  1
  N  N15  1  0.80072200  0.55072200  0.87500000  1
  N  N16  1  0.44927800  0.37500000  0.69927800  1
  N  N17  1  0.55072200  0.87500000  0.80072200  1
  N  N18  1  0.12500000  0.30072200  0.94927800  1
  N  N19  1  0.87500000  0.80072200  0.55072200  1
  N  N20  1  0.51869400  0.26869400  0.37500000  1
  N  N21  1  0.48130600  0.76869400  0.12500000  1
  N  N22  1  0.76869400  0.12500000  0.48130600  1
  N  N23  1  0.23130600  0.62500000  0.01869400  1
  N  N24  1  0.62500000  0.01869400  0.23130600  1
  N  N25  1  0.37500000  0.51869400  0.26869400  1
  N  N26  1  0.01869400  0.23130600  0.62500000  1
  N  N27  1  0.98130600  0.73130600  0.87500000  1
  N  N28  1  0.26869400  0.37500000  0.51869400  1
  N  N29  1  0.73130600  0.87500000  0.98130600  1
  N  N30  1  0.12500000  0.48130600  0.76869400  1
  N  N31  1  0.87500000  0.98130600  0.73130600  1
  N  N32  1  0.35999800  0.40437500  0.92495300  1
  N  N33  1  0.64000200  0.90437500  0.57504700  1
  N  N34  1  0.90437500  0.57504700  0.64000200  1
  N  N35  1  0.09562500  0.07504700  0.85999800  1
  N  N36  1  0.07504700  0.85999800  0.09562500  1
  N  N37  1  0.92495300  0.35999800  0.40437500  1
  N  N38  1  0.85999800  0.09562500  0.07504700  1
  N  N39  1  0.14000200  0.59562500  0.42495300  1
  N  N40  1  0.40437500  0.92495300  0.35999800  1
  N  N41  1  0.59562500  0.42495300  0.14000200  1
  N  N42  1  0.57504700  0.64000200  0.90437500  1
  N  N43  1  0.42495300  0.14000200  0.59562500  1
  N  N44  1  0.84562500  0.89000200  0.32504700  1
  N  N45  1  0.34562500  0.60999800  0.67495300  1
  N  N46  1  0.15437500  0.39000200  0.17495300  1
  N  N47  1  0.65437500  0.10999800  0.82504700  1
  N  N48  1  0.60999800  0.67495300  0.34562500  1
  N  N49  1  0.39000200  0.17495300  0.15437500  1
  N  N50  1  0.89000200  0.32504700  0.84562500  1
  N  N51  1  0.10999800  0.82504700  0.65437500  1
  N  N52  1  0.67495300  0.34562500  0.60999800  1
  N  N53  1  0.17495300  0.15437500  0.39000200  1
  N  N54  1  0.32504700  0.84562500  0.89000200  1
  N  N55  1  0.82504700  0.65437500  0.10999800  1
  O  O56  1  0.45252200  0.20252200  0.37500000  1
  O  O57  1  0.54747800  0.70252200  0.12500000  1
  O  O58  1  0.70252200  0.12500000  0.54747800  1
  O  O59  1  0.29747800  0.62500000  0.95252200  1
  O  O60  1  0.62500000  0.95252200  0.29747800  1
  O  O61  1  0.37500000  0.45252200  0.20252200  1
  O  O62  1  0.95252200  0.29747800  0.62500000  1
  O  O63  1  0.04747800  0.79747800  0.87500000  1
  O  O64  1  0.20252200  0.37500000  0.45252200  1
  O  O65  1  0.79747800  0.87500000  0.04747800  1
  O  O66  1  0.12500000  0.54747800  0.70252200  1
  O  O67  1  0.87500000  0.04747800  0.79747800  1
  O  O68  1  0.65319600  0.99592500  0.14952700  1
  O  O69  1  0.34680400  0.49592500  0.35047300  1
  O  O70  1  0.49592500  0.35047300  0.34680400  1
  O  O71  1  0.50407500  0.85047300  0.15319600  1
  O  O72  1  0.85047300  0.15319600  0.50407500  1
  O  O73  1  0.14952700  0.65319600  0.99592500  1
  O  O74  1  0.15319600  0.50407500  0.85047300  1
  O  O75  1  0.84680400  0.00407500  0.64952700  1
  O  O76  1  0.99592500  0.14952700  0.65319600  1
  O  O77  1  0.00407500  0.64952700  0.84680400  1
  O  O78  1  0.35047300  0.34680400  0.49592500  1
  O  O79  1  0.64952700  0.84680400  0.00407500  1
  O  O80  1  0.25407500  0.59680400  0.10047300  1
  O  O81  1  0.75407500  0.90319600  0.89952700  1
  O  O82  1  0.74592500  0.09680400  0.39952700  1
  O  O83  1  0.24592500  0.40319600  0.60047300  1
  O  O84  1  0.90319600  0.89952700  0.75407500  1
  O  O85  1  0.09680400  0.39952700  0.74592500  1
  O  O86  1  0.59680400  0.10047300  0.25407500  1
  O  O87  1  0.40319600  0.60047300  0.24592500  1
  O  O88  1  0.89952700  0.75407500  0.90319600  1
  O  O89  1  0.39952700  0.74592500  0.09680400  1
  O  O90  1  0.10047300  0.25407500  0.59680400  1
  O  O91  1  0.60047300  0.24592500  0.40319600  1
  O  O92  1  0.68388300  0.65214700  0.29731400  1
  O  O93  1  0.31611700  0.15214700  0.20268600  1
  O  O94  1  0.15214700  0.20268600  0.31611700  1
  O  O95  1  0.84785300  0.70268600  0.18388300  1
  O  O96  1  0.70268600  0.18388300  0.84785300  1
  O  O97  1  0.29731400  0.68388300  0.65214700  1
  O  O98  1  0.18388300  0.84785300  0.70268600  1
  O  O99  1  0.81611700  0.34785300  0.79731400  1
  O  O100  1  0.65214700  0.29731400  0.68388300  1
  O  O101  1  0.34785300  0.79731400  0.81611700  1
  O  O102  1  0.20268600  0.31611700  0.15214700  1
  O  O103  1  0.79731400  0.81611700  0.34785300  1
  O  O104  1  0.59785300  0.56611700  0.95268600  1
  O  O105  1  0.09785300  0.93388300  0.04731400  1
  O  O106  1  0.40214700  0.06611700  0.54731400  1
  O  O107  1  0.90214700  0.43388300  0.45268600  1
  O  O108  1  0.93388300  0.04731400  0.09785300  1
  O  O109  1  0.06611700  0.54731400  0.40214700  1
  O  O110  1  0.56611700  0.95268600  0.59785300  1
  O  O111  1  0.43388300  0.45268600  0.90214700  1
  O  O112  1  0.04731400  0.09785300  0.93388300  1
  O  O113  1  0.54731400  0.40214700  0.06611700  1
  O  O114  1  0.95268600  0.59785300  0.56611700  1
  O  O115  1  0.45268600  0.90214700  0.43388300  1
  O  O116  1  0.57336200  0.75700900  0.32807700  1
  O  O117  1  0.42663800  0.25700900  0.17192300  1
  O  O118  1  0.25700900  0.17192300  0.42663800  1
  O  O119  1  0.74299100  0.67192300  0.07336200  1
  O  O120  1  0.67192300  0.07336200  0.74299100  1
  O  O121  1  0.32807700  0.57336200  0.75700900  1
  O  O122  1  0.07336200  0.74299100  0.67192300  1
  O  O123  1  0.92663800  0.24299100  0.82807700  1
  O  O124  1  0.75700900  0.32807700  0.57336200  1
  O  O125  1  0.24299100  0.82807700  0.92663800  1
  O  O126  1  0.17192300  0.42663800  0.25700900  1
  O  O127  1  0.82807700  0.92663800  0.24299100  1
  O  O128  1  0.49299100  0.67663800  0.92192300  1
  O  O129  1  0.99299100  0.82336200  0.07807700  1
  O  O130  1  0.50700900  0.17663800  0.57807700  1
  O  O131  1  0.00700900  0.32336200  0.42192300  1
  O  O132  1  0.82336200  0.07807700  0.99299100  1
  O  O133  1  0.17663800  0.57807700  0.50700900  1
  O  O134  1  0.67663800  0.92192300  0.49299100  1
  O  O135  1  0.32336200  0.42192300  0.00700900  1
  O  O136  1  0.07807700  0.99299100  0.82336200  1
  O  O137  1  0.57807700  0.50700900  0.17663800  1
  O  O138  1  0.92192300  0.49299100  0.67663800  1
  O  O139  1  0.42192300  0.00700900  0.32336200  1
  O  O140  1  0.57545100  0.62103700  0.40651500  1
  O  O141  1  0.42454900  0.12103700  0.09348500  1
  O  O142  1  0.12103700  0.09348500  0.42454900  1
  O  O143  1  0.87896300  0.59348500  0.07545100  1
  O  O144  1  0.59348500  0.07545100  0.87896300  1
  O  O145  1  0.40651500  0.57545100  0.62103700  1
  O  O146  1  0.07545100  0.87896300  0.59348500  1
  O  O147  1  0.92454900  0.37896300  0.90651500  1
  O  O148  1  0.62103700  0.40651500  0.57545100  1
  O  O149  1  0.37896300  0.90651500  0.92454900  1
  O  O150  1  0.09348500  0.42454900  0.12103700  1
  O  O151  1  0.90651500  0.92454900  0.37896300  1
  O  O152  1  0.62896300  0.67454900  0.84348500  1
  O  O153  1  0.12896300  0.82545100  0.15651500  1
  O  O154  1  0.37103700  0.17454900  0.65651500  1
  O  O155  1  0.87103700  0.32545100  0.34348500  1
  O  O156  1  0.82545100  0.15651500  0.12896300  1
  O  O157  1  0.17454900  0.65651500  0.37103700  1
  O  O158  1  0.67454900  0.84348500  0.62896300  1
  O  O159  1  0.32545100  0.34348500  0.87103700  1
  O  O160  1  0.15651500  0.12896300  0.82545100  1
  O  O161  1  0.65651500  0.37103700  0.17454900  1
  O  O162  1  0.84348500  0.62896300  0.67454900  1
  O  O163  1  0.34348500  0.87103700  0.32545100  1
