# generated using pymatgen
data_Na2H4WO6
_symmetry_space_group_name_H-M   'P 1'
_cell_length_a   8.68538600
_cell_length_b   10.83210500
_cell_length_c   13.83891200
_cell_angle_alpha   90.00000000
_cell_angle_beta   90.00000000
_cell_angle_gamma   90.00000000
_symmetry_Int_Tables_number   1
_chemical_formula_structural   Na2H4WO6
_chemical_formula_sum   'Na16 H32 W8 O48'
_cell_volume   1301.97886140
_cell_formula_units_Z   8
loop_
 _symmetry_equiv_pos_site_id
 _symmetry_equiv_pos_as_xyz
  1  'x, y, z'
loop_
 _atom_site_type_symbol
 _atom_site_label
 _atom_site_symmetry_multiplicity
 _atom_site_fract_x
 _atom_site_fract_y
 _atom_site_fract_z
 _atom_site_occupancy
  Na  Na0  1  0.84510400  0.49570900  0.91290800  1
  Na  Na1  1  0.34510400  0.00429100  0.08709200  1
  Na  Na2  1  0.15489600  0.99570900  0.58709200  1
  Na  Na3  1  0.65489600  0.50429100  0.41290800  1
  Na  Na4  1  0.15489600  0.50429100  0.08709200  1
  Na  Na5  1  0.65489600  0.99570900  0.91290800  1
  Na  Na6  1  0.84510400  0.00429100  0.41290800  1
  Na  Na7  1  0.34510400  0.49570900  0.58709200  1
  Na  Na8  1  0.24206200  0.55340100  0.85207800  1
  Na  Na9  1  0.74206200  0.94659900  0.14792200  1
  Na  Na10  1  0.75793800  0.05340100  0.64792200  1
  Na  Na11  1  0.25793800  0.44659900  0.35207800  1
  Na  Na12  1  0.75793800  0.44659900  0.14792200  1
  Na  Na13  1  0.25793800  0.05340100  0.85207800  1
  Na  Na14  1  0.24206200  0.94659900  0.35207800  1
  Na  Na15  1  0.74206200  0.55340100  0.64792200  1
  H  H16  1  0.06475500  0.32972100  0.83559500  1
  H  H17  1  0.56475500  0.17027900  0.16440500  1
  H  H18  1  0.93524500  0.82972100  0.66440500  1
  H  H19  1  0.43524500  0.67027900  0.33559500  1
  H  H20  1  0.93524500  0.67027900  0.16440500  1
  H  H21  1  0.43524500  0.82972100  0.83559500  1
  H  H22  1  0.06475500  0.17027900  0.33559500  1
  H  H23  1  0.56475500  0.32972100  0.66440500  1
  H  H24  1  0.06905200  0.39220900  0.73381800  1
  H  H25  1  0.56905200  0.10779100  0.26618200  1
  H  H26  1  0.93094800  0.89220900  0.76618200  1
  H  H27  1  0.43094800  0.60779100  0.23381800  1
  H  H28  1  0.93094800  0.60779100  0.26618200  1
  H  H29  1  0.43094800  0.89220900  0.73381800  1
  H  H30  1  0.06905200  0.10779100  0.23381800  1
  H  H31  1  0.56905200  0.39220900  0.76618200  1
  H  H32  1  0.61932200  0.64880100  0.82829600  1
  H  H33  1  0.11932200  0.85119900  0.17170400  1
  H  H34  1  0.38067800  0.14880100  0.67170400  1
  H  H35  1  0.88067800  0.35119900  0.32829600  1
  H  H36  1  0.38067800  0.35119900  0.17170400  1
  H  H37  1  0.88067800  0.14880100  0.82829600  1
  H  H38  1  0.61932200  0.85119900  0.32829600  1
  H  H39  1  0.11932200  0.64880100  0.67170400  1
  H  H40  1  0.77536300  0.71834500  0.82362900  1
  H  H41  1  0.27536300  0.78165500  0.17637100  1
  H  H42  1  0.22463700  0.21834500  0.67637100  1
  H  H43  1  0.72463700  0.28165500  0.32362900  1
  H  H44  1  0.22463700  0.28165500  0.17637100  1
  H  H45  1  0.72463700  0.21834500  0.82362900  1
  H  H46  1  0.77536300  0.78165500  0.32362900  1
  H  H47  1  0.27536300  0.71834500  0.67637100  1
  W  W48  1  0.01358000  0.80137700  0.97551700  1
  W  W49  1  0.51358000  0.69862300  0.02448300  1
  W  W50  1  0.98642000  0.30137700  0.52448300  1
  W  W51  1  0.48642000  0.19862300  0.47551700  1
  W  W52  1  0.98642000  0.19862300  0.02448300  1
  W  W53  1  0.48642000  0.30137700  0.97551700  1
  W  W54  1  0.01358000  0.69862300  0.47551700  1
  W  W55  1  0.51358000  0.80137700  0.52448300  1
  O  O56  1  0.94890600  0.82140800  0.10025600  1
  O  O57  1  0.44890600  0.67859200  0.89974400  1
  O  O58  1  0.05109400  0.32140800  0.39974400  1
  O  O59  1  0.55109400  0.17859200  0.60025600  1
  O  O60  1  0.05109400  0.17859200  0.89974400  1
  O  O61  1  0.55109400  0.32140800  0.10025600  1
  O  O62  1  0.94890600  0.67859200  0.60025600  1
  O  O63  1  0.44890600  0.82140800  0.39974400  1
  O  O64  1  0.05878600  0.63909600  0.95771100  1
  O  O65  1  0.55878600  0.86090400  0.04228900  1
  O  O66  1  0.94121400  0.13909600  0.54228900  1
  O  O67  1  0.44121400  0.36090400  0.45771100  1
  O  O68  1  0.94121400  0.36090400  0.04228900  1
  O  O69  1  0.44121400  0.13909600  0.95771100  1
  O  O70  1  0.05878600  0.86090400  0.45771100  1
  O  O71  1  0.55878600  0.63909600  0.54228900  1
  O  O72  1  0.18423300  0.89414500  0.96035400  1
  O  O73  1  0.68423300  0.60585500  0.03964600  1
  O  O74  1  0.81576700  0.39414500  0.53964600  1
  O  O75  1  0.31576700  0.10585500  0.46035400  1
  O  O76  1  0.81576700  0.10585500  0.03964600  1
  O  O77  1  0.31576700  0.39414500  0.96035400  1
  O  O78  1  0.18423300  0.60585500  0.46035400  1
  O  O79  1  0.68423300  0.89414500  0.53964600  1
  O  O80  1  0.86883700  0.84799500  0.88613200  1
  O  O81  1  0.36883700  0.65200500  0.11386800  1
  O  O82  1  0.13116300  0.34799500  0.61386800  1
  O  O83  1  0.63116300  0.15200500  0.38613200  1
  O  O84  1  0.13116300  0.15200500  0.11386800  1
  O  O85  1  0.63116300  0.34799500  0.88613200  1
  O  O86  1  0.86883700  0.65200500  0.38613200  1
  O  O87  1  0.36883700  0.84799500  0.61386800  1
  O  O88  1  0.04717800  0.40980200  0.80274900  1
  O  O89  1  0.54717800  0.09019800  0.19725100  1
  O  O90  1  0.95282200  0.90980200  0.69725100  1
  O  O91  1  0.45282200  0.59019800  0.30274900  1
  O  O92  1  0.95282200  0.59019800  0.19725100  1
  O  O93  1  0.45282200  0.90980200  0.80274900  1
  O  O94  1  0.04717800  0.09019800  0.30274900  1
  O  O95  1  0.54717800  0.40980200  0.69725100  1
  O  O96  1  0.72490000  0.64128900  0.80148600  1
  O  O97  1  0.22490000  0.85871100  0.19851400  1
  O  O98  1  0.27510000  0.14128900  0.69851400  1
  O  O99  1  0.77510000  0.35871100  0.30148600  1
  O  O100  1  0.27510000  0.35871100  0.19851400  1
  O  O101  1  0.77510000  0.14128900  0.80148600  1
  O  O102  1  0.72490000  0.85871100  0.30148600  1
  O  O103  1  0.22490000  0.64128900  0.69851400  1
