# generated using pymatgen
data_UP2H10CO11
_symmetry_space_group_name_H-M   'P 1'
_cell_length_a   7.63758900
_cell_length_b   9.73534500
_cell_length_c   14.90394800
_cell_angle_alpha   90.00000000
_cell_angle_beta   90.00000000
_cell_angle_gamma   90.00000000
_symmetry_Int_Tables_number   1
_chemical_formula_structural   UP2H10CO11
_chemical_formula_sum   'U4 P8 H40 C4 O44'
_cell_volume   1108.17655368
_cell_formula_units_Z   4
loop_
 _symmetry_equiv_pos_site_id
 _symmetry_equiv_pos_as_xyz
  1  'x, y, z'
loop_
 _atom_site_type_symbol
 _atom_site_label
 _atom_site_symmetry_multiplicity
 _atom_site_fract_x
 _atom_site_fract_y
 _atom_site_fract_z
 _atom_site_occupancy
  U  U0  1  0.33985100  0.25000000  0.93757500  1
  U  U1  1  0.83985100  0.25000000  0.56242500  1
  U  U2  1  0.66014900  0.75000000  0.06242500  1
  U  U3  1  0.16014900  0.75000000  0.43757500  1
  P  P4  1  0.54451100  0.09391000  0.13293800  1
  P  P5  1  0.04451100  0.40609000  0.36706200  1
  P  P6  1  0.45548900  0.59391000  0.86706200  1
  P  P7  1  0.95548900  0.90609000  0.63293800  1
  P  P8  1  0.45548900  0.90609000  0.86706200  1
  P  P9  1  0.95548900  0.59391000  0.63293800  1
  P  P10  1  0.54451100  0.40609000  0.13293800  1
  P  P11  1  0.04451100  0.09391000  0.36706200  1
  H  H12  1  0.74917700  0.25000000  0.06748000  1
  H  H13  1  0.24917700  0.25000000  0.43252000  1
  H  H14  1  0.25082300  0.75000000  0.93252000  1
  H  H15  1  0.75082300  0.75000000  0.56748000  1
  H  H16  1  0.76355100  0.25000000  0.18704100  1
  H  H17  1  0.26355100  0.25000000  0.31295900  1
  H  H18  1  0.23644900  0.75000000  0.81295900  1
  H  H19  1  0.73644900  0.75000000  0.68704100  1
  H  H20  1  0.29342000  0.16937400  0.73415800  1
  H  H21  1  0.79342000  0.33062600  0.76584200  1
  H  H22  1  0.70658000  0.66937400  0.26584200  1
  H  H23  1  0.20658000  0.83062600  0.23415800  1
  H  H24  1  0.70658000  0.83062600  0.26584200  1
  H  H25  1  0.20658000  0.66937400  0.23415800  1
  H  H26  1  0.29342000  0.33062600  0.73415800  1
  H  H27  1  0.79342000  0.16937400  0.76584200  1
  H  H28  1  0.52358500  0.03579600  0.27846000  1
  H  H29  1  0.02358500  0.46420400  0.22154000  1
  H  H30  1  0.47641500  0.53579600  0.72154000  1
  H  H31  1  0.97641500  0.96420400  0.77846000  1
  H  H32  1  0.47641500  0.96420400  0.72154000  1
  H  H33  1  0.97641500  0.53579600  0.77846000  1
  H  H34  1  0.52358500  0.46420400  0.27846000  1
  H  H35  1  0.02358500  0.03579600  0.22154000  1
  H  H36  1  0.71309600  0.00393200  0.38621500  1
  H  H37  1  0.21309600  0.49606800  0.11378500  1
  H  H38  1  0.28690400  0.50393200  0.61378500  1
  H  H39  1  0.78690400  0.99606800  0.88621500  1
  H  H40  1  0.28690400  0.99606800  0.61378500  1
  H  H41  1  0.78690400  0.50393200  0.88621500  1
  H  H42  1  0.71309600  0.49606800  0.38621500  1
  H  H43  1  0.21309600  0.00393200  0.11378500  1
  H  H44  1  0.54818600  0.90319000  0.39493100  1
  H  H45  1  0.04818600  0.59681000  0.10506900  1
  H  H46  1  0.45181400  0.40319000  0.60506900  1
  H  H47  1  0.95181400  0.09681000  0.89493100  1
  H  H48  1  0.45181400  0.09681000  0.60506900  1
  H  H49  1  0.95181400  0.40319000  0.89493100  1
  H  H50  1  0.54818600  0.59681000  0.39493100  1
  H  H51  1  0.04818600  0.90319000  0.10506900  1
  C  C52  1  0.67234700  0.25000000  0.12984200  1
  C  C53  1  0.17234700  0.25000000  0.37015800  1
  C  C54  1  0.32765300  0.75000000  0.87015800  1
  C  C55  1  0.82765300  0.75000000  0.62984200  1
  O  O56  1  0.57370900  0.25000000  0.91835100  1
  O  O57  1  0.07370900  0.25000000  0.58164900  1
  O  O58  1  0.42629100  0.75000000  0.08164900  1
  O  O59  1  0.92629100  0.75000000  0.41835100  1
  O  O60  1  0.10193100  0.25000000  0.95675500  1
  O  O61  1  0.60193100  0.25000000  0.54324500  1
  O  O62  1  0.89806900  0.75000000  0.04324500  1
  O  O63  1  0.39806900  0.75000000  0.45675500  1
  O  O64  1  0.32924300  0.02575700  0.88353000  1
  O  O65  1  0.82924300  0.47424300  0.61647000  1
  O  O66  1  0.67075700  0.52575700  0.11647000  1
  O  O67  1  0.17075700  0.97424300  0.38353000  1
  O  O68  1  0.67075700  0.97424300  0.11647000  1
  O  O69  1  0.17075700  0.52575700  0.38353000  1
  O  O70  1  0.32924300  0.47424300  0.88353000  1
  O  O71  1  0.82924300  0.02575700  0.61647000  1
  O  O72  1  0.39155900  0.10490100  0.06622300  1
  O  O73  1  0.89155900  0.39509900  0.43377700  1
  O  O74  1  0.60844100  0.60490100  0.93377700  1
  O  O75  1  0.10844100  0.89509900  0.56622300  1
  O  O76  1  0.60844100  0.89509900  0.93377700  1
  O  O77  1  0.10844100  0.60490100  0.56622300  1
  O  O78  1  0.39155900  0.39509900  0.06622300  1
  O  O79  1  0.89155900  0.10490100  0.43377700  1
  O  O80  1  0.27333500  0.25000000  0.77318400  1
  O  O81  1  0.77333500  0.25000000  0.72681600  1
  O  O82  1  0.72666500  0.75000000  0.22681600  1
  O  O83  1  0.22666500  0.75000000  0.27318400  1
  O  O84  1  0.45615000  0.08390400  0.22812200  1
  O  O85  1  0.95615000  0.41609600  0.27187800  1
  O  O86  1  0.54385000  0.58390400  0.77187800  1
  O  O87  1  0.04385000  0.91609600  0.72812200  1
  O  O88  1  0.54385000  0.91609600  0.77187800  1
  O  O89  1  0.04385000  0.58390400  0.72812200  1
  O  O90  1  0.45615000  0.41609600  0.22812200  1
  O  O91  1  0.95615000  0.08390400  0.27187800  1
  O  O92  1  0.62178000  0.95341600  0.35205800  1
  O  O93  1  0.12178000  0.54658400  0.14794200  1
  O  O94  1  0.37822000  0.45341600  0.64794200  1
  O  O95  1  0.87822000  0.04658400  0.85205800  1
  O  O96  1  0.37822000  0.04658400  0.64794200  1
  O  O97  1  0.87822000  0.45341600  0.85205800  1
  O  O98  1  0.62178000  0.54658400  0.35205800  1
  O  O99  1  0.12178000  0.95341600  0.14794200  1
