# generated using pymatgen
data_Mg2(SiO3)3
_symmetry_space_group_name_H-M   'P 1'
_cell_length_a   11.73888900
_cell_length_b   5.33640600
_cell_length_c   24.44045395
_cell_angle_alpha   77.82324963
_cell_angle_beta   90.00000000
_cell_angle_gamma   90.00000000
_symmetry_Int_Tables_number   1
_chemical_formula_structural   Mg2(SiO3)3
_chemical_formula_sum   'Mg16 Si24 O72'
_cell_volume   1496.58914059
_cell_formula_units_Z   8
loop_
 _symmetry_equiv_pos_site_id
 _symmetry_equiv_pos_as_xyz
  1  'x, y, z'
loop_
 _atom_site_type_symbol
 _atom_site_label
 _atom_site_symmetry_multiplicity
 _atom_site_fract_x
 _atom_site_fract_y
 _atom_site_fract_z
 _atom_site_occupancy
  Mg  Mg0  1  0.53194400  0.27134800  0.47534900  1
  Mg  Mg1  1  0.96805600  0.27134800  0.97534900  1
  Mg  Mg2  1  0.46805600  0.72865200  0.52465100  1
  Mg  Mg3  1  0.03194400  0.72865200  0.02465100  1
  Mg  Mg4  1  0.60781200  0.82163100  0.41452600  1
  Mg  Mg5  1  0.89218800  0.82163100  0.91452600  1
  Mg  Mg6  1  0.39218800  0.17836900  0.58547400  1
  Mg  Mg7  1  0.10781200  0.17836900  0.08547400  1
  Mg  Mg8  1  0.68181400  0.37189500  0.35201900  1
  Mg  Mg9  1  0.81818600  0.37189500  0.85201900  1
  Mg  Mg10  1  0.31818600  0.62810500  0.64798100  1
  Mg  Mg11  1  0.18181400  0.62810500  0.14798100  1
  Mg  Mg12  1  0.74182600  0.91601000  0.30344000  1
  Mg  Mg13  1  0.75817400  0.91601000  0.80344000  1
  Mg  Mg14  1  0.25817400  0.08399000  0.69656000  1
  Mg  Mg15  1  0.24182600  0.08399000  0.19656000  1
  Si  Si16  1  0.33261200  0.67045200  0.41312900  1
  Si  Si17  1  0.16738800  0.67045200  0.91312900  1
  Si  Si18  1  0.66738800  0.32954800  0.58687100  1
  Si  Si19  1  0.83261200  0.32954800  0.08687100  1
  Si  Si20  1  0.46670300  0.74850500  0.30205700  1
  Si  Si21  1  0.03329700  0.74850500  0.80205700  1
  Si  Si22  1  0.53329700  0.25149500  0.69794300  1
  Si  Si23  1  0.96670300  0.25149500  0.19794300  1
  Si  Si24  1  0.53053100  0.29740800  0.24553600  1
  Si  Si25  1  0.96946900  0.29740800  0.74553600  1
  Si  Si26  1  0.46946900  0.70259200  0.75446400  1
  Si  Si27  1  0.03053100  0.70259200  0.25446400  1
  Si  Si28  1  0.73591000  0.88225000  0.53138000  1
  Si  Si29  1  0.76409000  0.88225000  0.03138000  1
  Si  Si30  1  0.26409000  0.11775000  0.46862000  1
  Si  Si31  1  0.23591000  0.11775000  0.96862000  1
  Si  Si32  1  0.87710900  0.98307900  0.42082300  1
  Si  Si33  1  0.62289100  0.98307900  0.92082300  1
  Si  Si34  1  0.12289100  0.01692100  0.57917700  1
  Si  Si35  1  0.37710900  0.01692100  0.07917700  1
  Si  Si36  1  0.94171600  0.54066600  0.36838500  1
  Si  Si37  1  0.55828400  0.54066600  0.86838500  1
  Si  Si38  1  0.05828400  0.45933400  0.63161500  1
  Si  Si39  1  0.44171600  0.45933400  0.13161500  1
  O  O40  1  0.45408700  0.63994500  0.44765600  1
  O  O41  1  0.04591300  0.63994500  0.94765600  1
  O  O42  1  0.54591300  0.36005500  0.55234400  1
  O  O43  1  0.95408700  0.36005500  0.05234400  1
  O  O44  1  0.54773400  0.19310300  0.39795600  1
  O  O45  1  0.95226600  0.19310300  0.89795600  1
  O  O46  1  0.45226600  0.80689700  0.60204400  1
  O  O47  1  0.04773400  0.80689700  0.10204400  1
  O  O48  1  0.59081400  0.73246000  0.33348600  1
  O  O49  1  0.90918600  0.73246000  0.83348600  1
  O  O50  1  0.40918600  0.26754000  0.66651400  1
  O  O51  1  0.09081400  0.26754000  0.16651400  1
  O  O52  1  0.65167300  0.24869700  0.27857200  1
  O  O53  1  0.84832700  0.24869700  0.77857200  1
  O  O54  1  0.34832700  0.75130300  0.72142800  1
  O  O55  1  0.15167300  0.75130300  0.22142800  1
  O  O56  1  0.25705100  0.40797500  0.42994200  1
  O  O57  1  0.24294900  0.40797500  0.92994200  1
  O  O58  1  0.74294900  0.59202500  0.57005800  1
  O  O59  1  0.75705100  0.59202500  0.07005800  1
  O  O60  1  0.36104600  0.72976200  0.34601600  1
  O  O61  1  0.13895400  0.72976200  0.84601600  1
  O  O62  1  0.63895400  0.27023800  0.65398400  1
  O  O63  1  0.86104600  0.27023800  0.15398400  1
  O  O64  1  0.45604600  0.51642800  0.26833900  1
  O  O65  1  0.04395400  0.51642800  0.76833900  1
  O  O66  1  0.54395400  0.48357200  0.73166100  1
  O  O67  1  0.95604600  0.48357200  0.23166100  1
  O  O68  1  0.45290300  0.02675500  0.25670600  1
  O  O69  1  0.04709700  0.02675500  0.75670600  1
  O  O70  1  0.54709700  0.97324500  0.74329400  1
  O  O71  1  0.95290300  0.97324500  0.24329400  1
  O  O72  1  0.54511400  0.39168700  0.17789400  1
  O  O73  1  0.95488600  0.39168700  0.67789400  1
  O  O74  1  0.45488600  0.60831300  0.82210600  1
  O  O75  1  0.04511400  0.60831300  0.32210600  1
  O  O76  1  0.71526900  0.78092200  0.22934100  1
  O  O77  1  0.78473100  0.78092200  0.72934100  1
  O  O78  1  0.28473100  0.21907800  0.77065900  1
  O  O79  1  0.21526900  0.21907800  0.27065900  1
  O  O80  1  0.61579300  0.90818600  0.49581100  1
  O  O81  1  0.88420700  0.90818600  0.99581100  1
  O  O82  1  0.38420700  0.09181400  0.50418900  1
  O  O83  1  0.11579300  0.09181400  0.00418900  1
  O  O84  1  0.66673100  0.44980300  0.43177400  1
  O  O85  1  0.83326900  0.44980300  0.93177400  1
  O  O86  1  0.33326900  0.55019700  0.56822600  1
  O  O87  1  0.16673100  0.55019700  0.06822600  1
  O  O88  1  0.76173400  0.01283200  0.38095100  1
  O  O89  1  0.73826600  0.01283200  0.88095100  1
  O  O90  1  0.23826600  0.98716800  0.61904900  1
  O  O91  1  0.26173400  0.98716800  0.11904900  1
  O  O92  1  0.82148100  0.58442700  0.33423600  1
  O  O93  1  0.67851900  0.58442700  0.83423600  1
  O  O94  1  0.17851900  0.41557300  0.66576400  1
  O  O95  1  0.32148100  0.41557300  0.16576400  1
  O  O96  1  0.73901300  0.09036800  0.57180500  1
  O  O97  1  0.76098700  0.09036800  0.07180500  1
  O  O98  1  0.26098700  0.90963200  0.42819500  1
  O  O99  1  0.23901300  0.90963200  0.92819500  1
  O  O100  1  0.84174100  0.93873100  0.48704700  1
  O  O101  1  0.65825900  0.93873100  0.98704700  1
  O  O102  1  0.15825900  0.06126900  0.51295300  1
  O  O103  1  0.34174100  0.06126900  0.01295300  1
  O  O104  1  0.95404500  0.24337800  0.40330100  1
  O  O105  1  0.54595500  0.24337800  0.90330100  1
  O  O106  1  0.04595500  0.75662200  0.59669900  1
  O  O107  1  0.45404500  0.75662200  0.09669900  1
  O  O108  1  0.95167900  0.73635400  0.41175500  1
  O  O109  1  0.54832100  0.73635400  0.91175500  1
  O  O110  1  0.04832100  0.26364600  0.58824500  1
  O  O111  1  0.45167900  0.26364600  0.08824500  1
