# generated using pymatgen
data_IrN4Cl3O
_symmetry_space_group_name_H-M   'P 1'
_cell_length_a   6.51117000
_cell_length_b   7.18315100
_cell_length_c   15.92254800
_cell_angle_alpha   90.00000000
_cell_angle_beta   90.00000000
_cell_angle_gamma   90.00000000
_symmetry_Int_Tables_number   1
_chemical_formula_structural   IrN4Cl3O
_chemical_formula_sum   'Ir4 N16 Cl12 O4'
_cell_volume   744.70899115
_cell_formula_units_Z   4
loop_
 _symmetry_equiv_pos_site_id
 _symmetry_equiv_pos_as_xyz
  1  'x, y, z'
loop_
 _atom_site_type_symbol
 _atom_site_label
 _atom_site_symmetry_multiplicity
 _atom_site_fract_x
 _atom_site_fract_y
 _atom_site_fract_z
 _atom_site_occupancy
  Ir  Ir0  1  0.25000000  0.33012200  0.64987400  1
  Ir  Ir1  1  0.25000000  0.16987800  0.14987400  1
  Ir  Ir2  1  0.75000000  0.66987800  0.35012600  1
  Ir  Ir3  1  0.75000000  0.83012200  0.85012600  1
  N  N4  1  0.25000000  0.11885700  0.43851700  1
  N  N5  1  0.25000000  0.38114300  0.93851700  1
  N  N6  1  0.75000000  0.88114300  0.56148300  1
  N  N7  1  0.75000000  0.61885700  0.06148300  1
  N  N8  1  0.25000000  0.52291700  0.71419000  1
  N  N9  1  0.25000000  0.97708300  0.21419000  1
  N  N10  1  0.75000000  0.47708300  0.28581000  1
  N  N11  1  0.75000000  0.02291700  0.78581000  1
  N  N12  1  0.46671700  0.32665700  0.57833700  1
  N  N13  1  0.03328300  0.17334300  0.07833700  1
  N  N14  1  0.96671700  0.67334300  0.42166300  1
  N  N15  1  0.53328300  0.82665700  0.92166300  1
  N  N16  1  0.53328300  0.67334300  0.42166300  1
  N  N17  1  0.96671700  0.82665700  0.92166300  1
  N  N18  1  0.03328300  0.32665700  0.57833700  1
  N  N19  1  0.46671700  0.17334300  0.07833700  1
  Cl  Cl20  1  0.25000000  0.64640200  0.42747700  1
  Cl  Cl21  1  0.25000000  0.85359800  0.92747700  1
  Cl  Cl22  1  0.75000000  0.35359800  0.57252300  1
  Cl  Cl23  1  0.75000000  0.14640200  0.07252300  1
  Cl  Cl24  1  0.46295000  0.14808700  0.37980500  1
  Cl  Cl25  1  0.03705000  0.35191300  0.87980500  1
  Cl  Cl26  1  0.96295000  0.85191300  0.62019500  1
  Cl  Cl27  1  0.53705000  0.64808700  0.12019500  1
  Cl  Cl28  1  0.53705000  0.85191300  0.62019500  1
  Cl  Cl29  1  0.96295000  0.64808700  0.12019500  1
  Cl  Cl30  1  0.03705000  0.14808700  0.37980500  1
  Cl  Cl31  1  0.46295000  0.35191300  0.87980500  1
  O  O32  1  0.25000000  0.12613100  0.71501500  1
  O  O33  1  0.25000000  0.37386900  0.21501500  1
  O  O34  1  0.75000000  0.87386900  0.28498500  1
  O  O35  1  0.75000000  0.62613100  0.78498500  1
