# generated using pymatgen
data_AgH12N4F
_symmetry_space_group_name_H-M   'P 1'
_cell_length_a   7.07687500
_cell_length_b   13.85067700
_cell_length_c   6.87540100
_cell_angle_alpha   90.00000000
_cell_angle_beta   90.00000000
_cell_angle_gamma   90.00000000
_symmetry_Int_Tables_number   1
_chemical_formula_structural   AgH12N4F
_chemical_formula_sum   'Ag4 H48 N16 F4'
_cell_volume   673.92343566
_cell_formula_units_Z   4
loop_
 _symmetry_equiv_pos_site_id
 _symmetry_equiv_pos_as_xyz
  1  'x, y, z'
loop_
 _atom_site_type_symbol
 _atom_site_label
 _atom_site_symmetry_multiplicity
 _atom_site_fract_x
 _atom_site_fract_y
 _atom_site_fract_z
 _atom_site_occupancy
  Ag  Ag0  1  0.50000000  0.50000000  0.50000000  1
  Ag  Ag1  1  0.00000000  0.50000000  0.50000000  1
  Ag  Ag2  1  0.50000000  0.00000000  0.00000000  1
  Ag  Ag3  1  0.00000000  0.00000000  0.00000000  1
  H  H4  1  0.61244400  0.31642700  0.46746400  1
  H  H5  1  0.88755600  0.68357300  0.46746400  1
  H  H6  1  0.61244400  0.18357300  0.03253600  1
  H  H7  1  0.88755600  0.81642700  0.03253600  1
  H  H8  1  0.38755600  0.68357300  0.53253600  1
  H  H9  1  0.11244400  0.31642700  0.53253600  1
  H  H10  1  0.38755600  0.81642700  0.96746400  1
  H  H11  1  0.11244400  0.18357300  0.96746400  1
  H  H12  1  0.65553700  0.35661400  0.69310600  1
  H  H13  1  0.84446300  0.64338600  0.69310600  1
  H  H14  1  0.65553700  0.14338600  0.80689400  1
  H  H15  1  0.84446300  0.85661400  0.80689400  1
  H  H16  1  0.34446300  0.64338600  0.30689400  1
  H  H17  1  0.15553700  0.35661400  0.30689400  1
  H  H18  1  0.34446300  0.85661400  0.19310600  1
  H  H19  1  0.15553700  0.14338600  0.19310600  1
  H  H20  1  0.43825400  0.31861600  0.63360500  1
  H  H21  1  0.06174600  0.68138400  0.63360500  1
  H  H22  1  0.43825400  0.18138400  0.86639500  1
  H  H23  1  0.06174600  0.81861600  0.86639500  1
  H  H24  1  0.56174600  0.68138400  0.36639500  1
  H  H25  1  0.93825400  0.31861600  0.36639500  1
  H  H26  1  0.56174600  0.81861600  0.13360500  1
  H  H27  1  0.93825400  0.18138400  0.13360500  1
  H  H28  1  0.97353100  0.34375900  0.85185800  1
  H  H29  1  0.52646900  0.65624100  0.85185800  1
  H  H30  1  0.97353100  0.15624100  0.64814200  1
  H  H31  1  0.52646900  0.84375900  0.64814200  1
  H  H32  1  0.02646900  0.65624100  0.14814200  1
  H  H33  1  0.47353100  0.34375900  0.14814200  1
  H  H34  1  0.02646900  0.84375900  0.35185800  1
  H  H35  1  0.47353100  0.15624100  0.35185800  1
  H  H36  1  0.81122100  0.33768900  0.02488900  1
  H  H37  1  0.68877900  0.66231100  0.02488900  1
  H  H38  1  0.81122100  0.16231100  0.47511100  1
  H  H39  1  0.68877900  0.83768900  0.47511100  1
  H  H40  1  0.18877900  0.66231100  0.97511100  1
  H  H41  1  0.31122100  0.33768900  0.97511100  1
  H  H42  1  0.18877900  0.83768900  0.52488900  1
  H  H43  1  0.31122100  0.16231100  0.52488900  1
  H  H44  1  0.87335500  0.44313800  0.93043900  1
  H  H45  1  0.62664500  0.55686200  0.93043900  1
  H  H46  1  0.87335500  0.05686200  0.56956100  1
  H  H47  1  0.62664500  0.94313800  0.56956100  1
  H  H48  1  0.12664500  0.55686200  0.06956100  1
  H  H49  1  0.37335500  0.44313800  0.06956100  1
  H  H50  1  0.12664500  0.94313800  0.43043900  1
  H  H51  1  0.37335500  0.05686200  0.43043900  1
  N  N52  1  0.55553400  0.35518600  0.58177600  1
  N  N53  1  0.94446600  0.64481400  0.58177600  1
  N  N54  1  0.55553400  0.14481400  0.91822400  1
  N  N55  1  0.94446600  0.85518600  0.91822400  1
  N  N56  1  0.44446600  0.64481400  0.41822400  1
  N  N57  1  0.05553400  0.35518600  0.41822400  1
  N  N58  1  0.44446600  0.85518600  0.08177600  1
  N  N59  1  0.05553400  0.14481400  0.08177600  1
  N  N60  1  0.84775600  0.37252800  0.89769400  1
  N  N61  1  0.65224400  0.62747200  0.89769400  1
  N  N62  1  0.84775600  0.12747200  0.60230600  1
  N  N63  1  0.65224400  0.87252800  0.60230600  1
  N  N64  1  0.15224400  0.62747200  0.10230600  1
  N  N65  1  0.34775600  0.37252800  0.10230600  1
  N  N66  1  0.15224400  0.87252800  0.39769400  1
  N  N67  1  0.34775600  0.12747200  0.39769400  1
  F  F68  1  0.24126100  0.25000000  0.75000000  1
  F  F69  1  0.25873900  0.75000000  0.75000000  1
  F  F70  1  0.75873900  0.75000000  0.25000000  1
  F  F71  1  0.74126100  0.25000000  0.25000000  1
