# generated using pymatgen
data_K2InCl5O
_symmetry_space_group_name_H-M   'P 1'
_cell_length_a   7.79956800
_cell_length_b   10.10823100
_cell_length_c   12.78179500
_cell_angle_alpha   90.00000000
_cell_angle_beta   90.00000000
_cell_angle_gamma   90.00000000
_symmetry_Int_Tables_number   1
_chemical_formula_structural   K2InCl5O
_chemical_formula_sum   'K8 In4 Cl20 O4'
_cell_volume   1007.71460937
_cell_formula_units_Z   4
loop_
 _symmetry_equiv_pos_site_id
 _symmetry_equiv_pos_as_xyz
  1  'x, y, z'
loop_
 _atom_site_type_symbol
 _atom_site_label
 _atom_site_symmetry_multiplicity
 _atom_site_fract_x
 _atom_site_fract_y
 _atom_site_fract_z
 _atom_site_occupancy
  K  K0  1  0.14134600  0.48720600  0.35547000  1
  K  K1  1  0.35865400  0.01279400  0.85547000  1
  K  K2  1  0.85865400  0.98720600  0.64453000  1
  K  K3  1  0.64134600  0.51279400  0.14453000  1
  K  K4  1  0.85865400  0.51279400  0.64453000  1
  K  K5  1  0.64134600  0.98720600  0.14453000  1
  K  K6  1  0.14134600  0.01279400  0.35547000  1
  K  K7  1  0.35865400  0.48720600  0.85547000  1
  In  In8  1  0.20407900  0.75000000  0.10285700  1
  In  In9  1  0.29592100  0.75000000  0.60285700  1
  In  In10  1  0.79592100  0.25000000  0.89714300  1
  In  In11  1  0.70407900  0.25000000  0.39714300  1
  Cl  Cl12  1  0.89965300  0.75000000  0.19620800  1
  Cl  Cl13  1  0.60034700  0.75000000  0.69620800  1
  Cl  Cl14  1  0.10034700  0.25000000  0.80379200  1
  Cl  Cl15  1  0.39965300  0.25000000  0.30379200  1
  Cl  Cl16  1  0.37299300  0.75000000  0.26940100  1
  Cl  Cl17  1  0.12700700  0.75000000  0.76940100  1
  Cl  Cl18  1  0.62700700  0.25000000  0.73059900  1
  Cl  Cl19  1  0.87299300  0.25000000  0.23059900  1
  Cl  Cl20  1  0.46663100  0.75000000  0.98926100  1
  Cl  Cl21  1  0.03336900  0.75000000  0.48926100  1
  Cl  Cl22  1  0.53336900  0.25000000  0.01073900  1
  Cl  Cl23  1  0.96663100  0.25000000  0.51073900  1
  Cl  Cl24  1  0.19616100  0.50111700  0.09772100  1
  Cl  Cl25  1  0.30383900  0.99888300  0.59772100  1
  Cl  Cl26  1  0.80383900  0.00111700  0.90227900  1
  Cl  Cl27  1  0.69616100  0.49888300  0.40227900  1
  Cl  Cl28  1  0.80383900  0.49888300  0.90227900  1
  Cl  Cl29  1  0.69616100  0.00111700  0.40227900  1
  Cl  Cl30  1  0.19616100  0.99888300  0.09772100  1
  Cl  Cl31  1  0.30383900  0.50111700  0.59772100  1
  O  O32  1  0.97220300  0.75000000  0.00290000  1
  O  O33  1  0.52779700  0.75000000  0.50290000  1
  O  O34  1  0.02779700  0.25000000  0.99710000  1
  O  O35  1  0.47220300  0.25000000  0.49710000  1
