# generated using pymatgen
data_CuH4C2S2(NO)2
_symmetry_space_group_name_H-M   'P 1'
_cell_length_a   15.48547100
_cell_length_b   5.47685900
_cell_length_c   8.89804000
_cell_angle_alpha   90.00000000
_cell_angle_beta   90.00000000
_cell_angle_gamma   90.00000000
_symmetry_Int_Tables_number   1
_chemical_formula_structural   CuH4C2S2(NO)2
_chemical_formula_sum   'Cu4 H16 C8 S8 N8 O8'
_cell_volume   754.65826581
_cell_formula_units_Z   4
loop_
 _symmetry_equiv_pos_site_id
 _symmetry_equiv_pos_as_xyz
  1  'x, y, z'
loop_
 _atom_site_type_symbol
 _atom_site_label
 _atom_site_symmetry_multiplicity
 _atom_site_fract_x
 _atom_site_fract_y
 _atom_site_fract_z
 _atom_site_occupancy
  Cu  Cu0  1  0.67818300  0.25000000  0.89375200  1
  Cu  Cu1  1  0.17818300  0.25000000  0.60624800  1
  Cu  Cu2  1  0.32181700  0.75000000  0.10624800  1
  Cu  Cu3  1  0.82181700  0.75000000  0.39375200  1
  H  H4  1  0.53199900  0.10546200  0.73157800  1
  H  H5  1  0.03199900  0.39453800  0.76842200  1
  H  H6  1  0.46800100  0.60546200  0.26842200  1
  H  H7  1  0.96800100  0.89453800  0.23157800  1
  H  H8  1  0.46800100  0.89453800  0.26842200  1
  H  H9  1  0.96800100  0.60546200  0.23157800  1
  H  H10  1  0.53199900  0.39453800  0.73157800  1
  H  H11  1  0.03199900  0.10546200  0.76842200  1
  H  H12  1  0.84951300  0.10830600  0.95312600  1
  H  H13  1  0.34951300  0.39169400  0.54687400  1
  H  H14  1  0.15048700  0.60830600  0.04687400  1
  H  H15  1  0.65048700  0.89169400  0.45312600  1
  H  H16  1  0.15048700  0.89169400  0.04687400  1
  H  H17  1  0.65048700  0.60830600  0.45312600  1
  H  H18  1  0.84951300  0.39169400  0.95312600  1
  H  H19  1  0.34951300  0.10830600  0.54687400  1
  C  C20  1  0.76771400  0.25000000  0.58667800  1
  C  C21  1  0.26771400  0.25000000  0.91332200  1
  C  C22  1  0.23228600  0.75000000  0.41332200  1
  C  C23  1  0.73228600  0.75000000  0.08667800  1
  C  C24  1  0.59476900  0.25000000  0.20394100  1
  C  C25  1  0.09476900  0.25000000  0.29605900  1
  C  C26  1  0.40523100  0.75000000  0.79605900  1
  C  C27  1  0.90523100  0.75000000  0.70394100  1
  S  S28  1  0.81662000  0.25000000  0.42430900  1
  S  S29  1  0.31662000  0.25000000  0.07569100  1
  S  S30  1  0.18338000  0.75000000  0.57569100  1
  S  S31  1  0.68338000  0.75000000  0.92430900  1
  S  S32  1  0.54388300  0.25000000  0.36463900  1
  S  S33  1  0.04388300  0.25000000  0.13536100  1
  S  S34  1  0.45611700  0.75000000  0.63536100  1
  S  S35  1  0.95611700  0.75000000  0.86463900  1
  N  N36  1  0.72917000  0.25000000  0.70110000  1
  N  N37  1  0.22917000  0.25000000  0.79890000  1
  N  N38  1  0.27083000  0.75000000  0.29890000  1
  N  N39  1  0.77083000  0.75000000  0.20110000  1
  N  N40  1  0.63161500  0.25000000  0.08827100  1
  N  N41  1  0.13161500  0.25000000  0.41172900  1
  N  N42  1  0.36838500  0.75000000  0.91172900  1
  N  N43  1  0.86838500  0.75000000  0.58827100  1
  O  O44  1  0.54576500  0.25000000  0.79304800  1
  O  O45  1  0.04576500  0.25000000  0.70695200  1
  O  O46  1  0.45423500  0.75000000  0.20695200  1
  O  O47  1  0.95423500  0.75000000  0.29304800  1
  O  O48  1  0.81885400  0.25000000  0.99446000  1
  O  O49  1  0.31885400  0.25000000  0.50554000  1
  O  O50  1  0.18114600  0.75000000  0.00554000  1
  O  O51  1  0.68114600  0.75000000  0.49446000  1
