# generated using pymatgen
data_La2Te(MoO7)6
_symmetry_space_group_name_H-M   'P 1'
_cell_length_a   8.61399238
_cell_length_b   10.72885203
_cell_length_c   10.60830809
_cell_angle_alpha   102.99116485
_cell_angle_beta   107.62374397
_cell_angle_gamma   104.83472443
_symmetry_Int_Tables_number   1
_chemical_formula_structural   La2Te(MoO7)6
_chemical_formula_sum   'La2 Te1 Mo6 O42'
_cell_volume   853.22732768
_cell_formula_units_Z   1
loop_
 _symmetry_equiv_pos_site_id
 _symmetry_equiv_pos_as_xyz
  1  'x, y, z'
loop_
 _atom_site_type_symbol
 _atom_site_label
 _atom_site_symmetry_multiplicity
 _atom_site_fract_x
 _atom_site_fract_y
 _atom_site_fract_z
 _atom_site_occupancy
  La  La0  1  0.51951700  0.27778500  0.74793400  1
  La  La1  1  0.48048300  0.72221500  0.25206600  1
  Te  Te2  1  0.00000000  0.50000000  0.50000000  1
  Mo  Mo3  1  0.92322600  0.79467800  0.55727100  1
  Mo  Mo4  1  0.07677400  0.20532200  0.44272900  1
  Mo  Mo5  1  0.85924200  0.60520600  0.75147600  1
  Mo  Mo6  1  0.14075800  0.39479400  0.24852400  1
  Mo  Mo7  1  0.03407900  0.67467000  0.29093000  1
  Mo  Mo8  1  0.96592100  0.32533000  0.70907000  1
  O  O9  1  0.05215600  0.67154900  0.65508700  1
  O  O10  1  0.94784400  0.32845100  0.34491300  1
  O  O11  1  0.81939900  0.42009500  0.55873800  1
  O  O12  1  0.18060100  0.57990500  0.44126200  1
  O  O13  1  0.13999500  0.42323100  0.62077700  1
  O  O14  1  0.86000500  0.57676900  0.37922300  1
  O  O15  1  0.75669100  0.68232900  0.61765200  1
  O  O16  1  0.24330900  0.31767100  0.38234800  1
  O  O17  1  0.98635300  0.49199400  0.17606400  1
  O  O18  1  0.01364700  0.50800600  0.82393600  1
  O  O19  1  0.08254200  0.81873300  0.46665500  1
  O  O20  1  0.91745800  0.18126700  0.53334500  1
  O  O21  1  0.01982800  0.94344500  0.69645700  1
  O  O22  1  0.98017200  0.05655500  0.30354300  1
  O  O23  1  0.74006400  0.81555900  0.42876300  1
  O  O24  1  0.25993600  0.18444100  0.57123700  1
  O  O25  1  0.66430900  0.49131600  0.75730000  1
  O  O26  1  0.33569100  0.50868400  0.24270000  1
  O  O27  1  0.94531700  0.74365100  0.90158500  1
  O  O28  1  0.05468300  0.25634900  0.09841500  1
  O  O29  1  0.24015000  0.75485600  0.27502400  1
  O  O30  1  0.75985000  0.24514400  0.72497600  1
  O  O31  1  0.87478300  0.71231300  0.17919100  1
  O  O32  1  0.12521700  0.28768700  0.82080900  1
  O  O33  1  0.44910000  0.93185300  0.59724200  1
  O  O34  1  0.55090000  0.06814700  0.40275800  1
  O  O35  1  0.61399000  0.44703000  0.02418600  1
  O  O36  1  0.38601000  0.55297000  0.97581400  1
  O  O37  1  0.40282400  0.18684400  0.94312600  1
  O  O38  1  0.59717600  0.81315600  0.05687400  1
  O  O39  1  0.50546300  0.16701600  0.43243700  1
  O  O40  1  0.49453700  0.83298400  0.56756300  1
  O  O41  1  0.43549900  0.51232500  0.88227800  1
  O  O42  1  0.56450100  0.48767500  0.11772200  1
  O  O43  1  0.67141700  0.08727300  0.88723000  1
  O  O44  1  0.32858300  0.91272700  0.11277000  1
  O  O45  1  0.55542400  0.81661800  0.92765800  1
  O  O46  1  0.44457600  0.18338200  0.07234200  1
  O  O47  1  0.22622700  0.97350000  0.11570900  1
  O  O48  1  0.77377300  0.02650000  0.88429100  1
  O  O49  1  0.42093700  0.84587900  0.87527500  1
  O  O50  1  0.57906300  0.15412100  0.12472500  1
