# generated using pymatgen
data_Ga3P3H6CNO13
_symmetry_space_group_name_H-M   'P 1'
_cell_length_a   10.40678740
_cell_length_b   14.38595217
_cell_length_c   17.25211137
_cell_angle_alpha   90.00000000
_cell_angle_beta   90.00000000
_cell_angle_gamma   90.00000000
_symmetry_Int_Tables_number   1
_chemical_formula_structural   Ga3P3H6CNO13
_chemical_formula_sum   'Ga24 P24 H48 C8 N8 O104'
_cell_volume   2582.84026117
_cell_formula_units_Z   8
loop_
 _symmetry_equiv_pos_site_id
 _symmetry_equiv_pos_as_xyz
  1  'x, y, z'
loop_
 _atom_site_type_symbol
 _atom_site_label
 _atom_site_symmetry_multiplicity
 _atom_site_fract_x
 _atom_site_fract_y
 _atom_site_fract_z
 _atom_site_occupancy
  Ga  Ga0  1  0.38317651  0.74309197  0.80554166  1
  Ga  Ga1  1  0.88317651  0.25690803  0.69445834  1
  Ga  Ga2  1  0.61682349  0.75690803  0.30554166  1
  Ga  Ga3  1  0.11682349  0.24309197  0.19445834  1
  Ga  Ga4  1  0.61682349  0.25690803  0.19445834  1
  Ga  Ga5  1  0.11682349  0.74309197  0.30554166  1
  Ga  Ga6  1  0.38317651  0.24309197  0.69445834  1
  Ga  Ga7  1  0.88317651  0.75690803  0.80554166  1
  Ga  Ga8  1  0.37980680  0.56009985  0.10513482  1
  Ga  Ga9  1  0.87980680  0.43990015  0.39486518  1
  Ga  Ga10  1  0.62019320  0.93990015  0.60513482  1
  Ga  Ga11  1  0.12019320  0.06009985  0.89486518  1
  Ga  Ga12  1  0.62019320  0.43990015  0.89486518  1
  Ga  Ga13  1  0.12019320  0.56009985  0.60513482  1
  Ga  Ga14  1  0.37980680  0.06009985  0.39486518  1
  Ga  Ga15  1  0.87980680  0.93990015  0.10513482  1
  Ga  Ga16  1  0.15664434  0.97243959  0.69208222  1
  Ga  Ga17  1  0.65664434  0.02756041  0.80791778  1
  Ga  Ga18  1  0.84335566  0.52756041  0.19208222  1
  Ga  Ga19  1  0.34335566  0.47243959  0.30791778  1
  Ga  Ga20  1  0.84335566  0.02756041  0.30791778  1
  Ga  Ga21  1  0.34335566  0.97243959  0.19208222  1
  Ga  Ga22  1  0.15664434  0.47243959  0.80791778  1
  Ga  Ga23  1  0.65664434  0.52756041  0.69208222  1
  P  P24  1  0.13420718  0.75267051  0.69955296  1
  P  P25  1  0.63420718  0.24732949  0.80044704  1
  P  P26  1  0.86579282  0.74732949  0.19955296  1
  P  P27  1  0.36579282  0.25267051  0.30044704  1
  P  P28  1  0.86579282  0.24732949  0.30044704  1
  P  P29  1  0.36579282  0.75267051  0.19955296  1
  P  P30  1  0.13420718  0.25267051  0.80044704  1
  P  P31  1  0.63420718  0.74732949  0.69955296  1
  P  P32  1  0.36836003  0.56662652  0.91556911  1
  P  P33  1  0.86836003  0.43337348  0.58443089  1
  P  P34  1  0.63163997  0.93337348  0.41556911  1
  P  P35  1  0.13163997  0.06662652  0.08443089  1
  P  P36  1  0.63163997  0.43337348  0.08443089  1
  P  P37  1  0.13163997  0.56662652  0.41556911  1
  P  P38  1  0.36836003  0.06662652  0.58443089  1
  P  P39  1  0.86836003  0.93337348  0.91556911  1
  P  P40  1  0.36732189  0.95480029  0.84401275  1
  P  P41  1  0.86732189  0.04519971  0.65598725  1
  P  P42  1  0.63267811  0.54519971  0.34401275  1
  P  P43  1  0.13267811  0.45480029  0.15598725  1
  P  P44  1  0.63267811  0.04519971  0.15598725  1
  P  P45  1  0.13267811  0.95480029  0.34401275  1
  P  P46  1  0.36732189  0.45480029  0.65598725  1
  P  P47  1  0.86732189  0.54519971  0.84401275  1
  H  H48  1  0.47653701  0.63204055  0.46047254  1
  H  H49  1  0.97653701  0.36795945  0.03952746  1
  H  H50  1  0.52346299  0.86795945  0.96047254  1
  H  H51  1  0.02346299  0.13204055  0.53952746  1
  H  H52  1  0.52346299  0.36795945  0.53952746  1
  H  H53  1  0.02346299  0.63204055  0.96047254  1
  H  H54  1  0.47653701  0.13204055  0.03952746  1
  H  H55  1  0.97653701  0.86795945  0.46047254  1
  H  H56  1  0.49332563  0.62820314  0.55737688  1
  H  H57  1  0.99332563  0.37179686  0.94262312  1
  H  H58  1  0.50667437  0.87179686  0.05737688  1
  H  H59  1  0.00667437  0.12820314  0.44262312  1
  H  H60  1  0.50667437  0.37179686  0.44262312  1
  H  H61  1  0.00667437  0.62820314  0.05737688  1
  H  H62  1  0.49332563  0.12820314  0.94262312  1
  H  H63  1  0.99332563  0.87179686  0.55737688  1
  H  H64  1  0.35146697  0.60603572  0.51725141  1
  H  H65  1  0.85146697  0.39396428  0.98274859  1
  H  H66  1  0.64853303  0.89396428  0.01725141  1
  H  H67  1  0.14853303  0.10603572  0.48274859  1
  H  H68  1  0.64853303  0.39396428  0.48274859  1
  H  H69  1  0.14853303  0.60603572  0.01725141  1
  H  H70  1  0.35146697  0.10603572  0.98274859  1
  H  H71  1  0.85146697  0.89396428  0.51725141  1
  H  H72  1  0.48497004  0.78915442  0.51350698  1
  H  H73  1  0.98497004  0.21084558  0.98649302  1
  H  H74  1  0.51502996  0.71084558  0.01350698  1
  H  H75  1  0.01502996  0.28915442  0.48649302  1
  H  H76  1  0.51502996  0.21084558  0.48649302  1
  H  H77  1  0.01502996  0.78915442  0.01350698  1
  H  H78  1  0.48497004  0.28915442  0.98649302  1
  H  H79  1  0.98497004  0.71084558  0.51350698  1
  H  H80  1  0.33563911  0.76447463  0.46726532  1
  H  H81  1  0.83563911  0.23552537  0.03273468  1
  H  H82  1  0.66436089  0.73552537  0.96726532  1
  H  H83  1  0.16436089  0.26447463  0.53273468  1
  H  H84  1  0.66436089  0.23552537  0.53273468  1
  H  H85  1  0.16436089  0.76447463  0.96726532  1
  H  H86  1  0.33563911  0.26447463  0.03273468  1
  H  H87  1  0.83563911  0.73552537  0.46726532  1
  H  H88  1  0.34572076  0.76076863  0.57034850  1
  H  H89  1  0.84572076  0.23923137  0.92965150  1
  H  H90  1  0.65427924  0.73923137  0.07034850  1
  H  H91  1  0.15427924  0.26076863  0.42965150  1
  H  H92  1  0.65427924  0.23923137  0.42965150  1
  H  H93  1  0.15427924  0.76076863  0.07034850  1
  H  H94  1  0.34572076  0.26076863  0.92965150  1
  H  H95  1  0.84572076  0.73923137  0.57034850  1
  C  C96  1  0.39734910  0.74763717  0.51639140  1
  C  C97  1  0.89734910  0.25236283  0.98360860  1
  C  C98  1  0.60265090  0.75236283  0.01639140  1
  C  C99  1  0.10265090  0.24763717  0.48360860  1
  C  C100  1  0.60265090  0.25236283  0.48360860  1
  C  C101  1  0.10265090  0.74763717  0.01639140  1
  C  C102  1  0.39734910  0.24763717  0.98360860  1
  C  C103  1  0.89734910  0.75236283  0.51639140  1
  N  N104  1  0.43266418  0.64726177  0.51265538  1
  N  N105  1  0.93266418  0.35273823  0.98734462  1
  N  N106  1  0.56733582  0.85273823  0.01265538  1
  N  N107  1  0.06733582  0.14726177  0.48734462  1
  N  N108  1  0.56733582  0.35273823  0.48734462  1
  N  N109  1  0.06733582  0.64726177  0.01265538  1
  N  N110  1  0.43266418  0.14726177  0.98734462  1
  N  N111  1  0.93266418  0.85273823  0.51265538  1
  O  O112  1  0.35145503  0.60421554  0.99864361  1
  O  O113  1  0.85145503  0.39578446  0.50135639  1
  O  O114  1  0.64854497  0.89578446  0.49864361  1
  O  O115  1  0.14854497  0.10421554  0.00135639  1
  O  O116  1  0.64854497  0.39578446  0.00135639  1
  O  O117  1  0.14854497  0.60421554  0.49864361  1
  O  O118  1  0.35145503  0.10421554  0.50135639  1
  O  O119  1  0.85145503  0.89578446  0.99864361  1
  O  O120  1  0.40286763  0.85087901  0.86375540  1
  O  O121  1  0.90286763  0.14912099  0.63624460  1
  O  O122  1  0.59713237  0.64912099  0.36375540  1
  O  O123  1  0.09713237  0.35087901  0.13624460  1
  O  O124  1  0.59713237  0.14912099  0.13624460  1
  O  O125  1  0.09713237  0.85087901  0.36375540  1
  O  O126  1  0.40286763  0.35087901  0.63624460  1
  O  O127  1  0.90286763  0.64912099  0.86375540  1
  O  O128  1  0.31773733  0.96457638  0.75980811  1
  O  O129  1  0.81773733  0.03542362  0.74019189  1
  O  O130  1  0.68226267  0.53542362  0.25980811  1
  O  O131  1  0.18226267  0.46457638  0.24019189  1
  O  O132  1  0.68226267  0.03542362  0.24019189  1
  O  O133  1  0.18226267  0.96457638  0.25980811  1
  O  O134  1  0.31773733  0.46457638  0.74019189  1
  O  O135  1  0.81773733  0.53542362  0.75980811  1
  O  O136  1  0.23225135  0.54490961  0.88495095  1
  O  O137  1  0.73225135  0.45509039  0.61504905  1
  O  O138  1  0.76774865  0.95509039  0.38495095  1
  O  O139  1  0.26774865  0.04490961  0.11504905  1
  O  O140  1  0.76774865  0.45509039  0.11504905  1
  O  O141  1  0.26774865  0.54490961  0.38495095  1
  O  O142  1  0.23225135  0.04490961  0.61504905  1
  O  O143  1  0.73225135  0.95509039  0.88495095  1
  O  O144  1  0.26674674  0.98443760  0.90546091  1
  O  O145  1  0.76674674  0.01556240  0.59453909  1
  O  O146  1  0.73325326  0.51556240  0.40546091  1
  O  O147  1  0.23325326  0.48443760  0.09453909  1
  O  O148  1  0.73325326  0.01556240  0.09453909  1
  O  O149  1  0.23325326  0.98443760  0.40546091  1
  O  O150  1  0.26674674  0.48443760  0.59453909  1
  O  O151  1  0.76674674  0.51556240  0.90546091  1
  O  O152  1  0.16712605  0.84764805  0.66324394  1
  O  O153  1  0.66712605  0.15235195  0.83675606  1
  O  O154  1  0.83287395  0.65235195  0.16324394  1
  O  O155  1  0.33287395  0.34764805  0.33675606  1
  O  O156  1  0.83287395  0.15235195  0.33675606  1
  O  O157  1  0.33287395  0.84764805  0.16324394  1
  O  O158  1  0.16712605  0.34764805  0.83675606  1
  O  O159  1  0.66712605  0.65235195  0.66324394  1
  O  O160  1  0.16439609  0.68219810  0.63511485  1
  O  O161  1  0.66439609  0.31780190  0.86488515  1
  O  O162  1  0.83560391  0.81780190  0.13511485  1
  O  O163  1  0.33560391  0.18219810  0.36488515  1
  O  O164  1  0.83560391  0.31780190  0.36488515  1
  O  O165  1  0.33560391  0.68219810  0.13511485  1
  O  O166  1  0.16439609  0.18219810  0.86488515  1
  O  O167  1  0.66439609  0.81780190  0.63511485  1
  O  O168  1  0.43353808  0.64448695  0.86609500  1
  O  O169  1  0.93353808  0.35551305  0.63390500  1
  O  O170  1  0.56646192  0.85551305  0.36609500  1
  O  O171  1  0.06646192  0.14448695  0.13390500  1
  O  O172  1  0.56646192  0.35551305  0.13390500  1
  O  O173  1  0.06646192  0.64448695  0.36609500  1
  O  O174  1  0.43353808  0.14448695  0.63390500  1
  O  O175  1  0.93353808  0.85551305  0.86609500  1
  O  O176  1  0.48771766  0.01469823  0.85788363  1
  O  O177  1  0.98771766  0.98530177  0.64211637  1
  O  O178  1  0.51228234  0.48530177  0.35788363  1
  O  O179  1  0.01228234  0.51469823  0.14211637  1
  O  O180  1  0.51228234  0.98530177  0.14211637  1
  O  O181  1  0.01228234  0.01469823  0.35788363  1
  O  O182  1  0.48771766  0.51469823  0.64211637  1
  O  O183  1  0.98771766  0.48530177  0.85788363  1
  O  O184  1  0.10105535  0.02332093  0.78491452  1
  O  O185  1  0.60105535  0.97667907  0.71508548  1
  O  O186  1  0.89894465  0.47667907  0.28491452  1
  O  O187  1  0.39894465  0.52332093  0.21508548  1
  O  O188  1  0.89894465  0.97667907  0.21508548  1
  O  O189  1  0.39894465  0.02332093  0.28491452  1
  O  O190  1  0.10105535  0.52332093  0.71508548  1
  O  O191  1  0.60105535  0.47667907  0.78491452  1
  O  O192  1  0.45174615  0.47802660  0.91469739  1
  O  O193  1  0.95174615  0.52197340  0.58530261  1
  O  O194  1  0.54825385  0.02197340  0.41469739  1
  O  O195  1  0.04825385  0.97802660  0.08530261  1
  O  O196  1  0.54825385  0.52197340  0.08530261  1
  O  O197  1  0.04825385  0.47802660  0.41469739  1
  O  O198  1  0.45174615  0.97802660  0.58530261  1
  O  O199  1  0.95174615  0.02197340  0.91469739  1
  O  O200  1  0.21352718  0.73396256  0.77446836  1
  O  O201  1  0.71352718  0.26603744  0.72553164  1
  O  O202  1  0.78647282  0.76603744  0.27446836  1
  O  O203  1  0.28647282  0.23396256  0.22553164  1
  O  O204  1  0.78647282  0.26603744  0.22553164  1
  O  O205  1  0.28647282  0.73396256  0.27446836  1
  O  O206  1  0.21352718  0.23396256  0.72553164  1
  O  O207  1  0.71352718  0.76603744  0.77446836  1
  O  O208  1  0.98933605  0.74850126  0.72033369  1
  O  O209  1  0.48933605  0.25149874  0.77966631  1
  O  O210  1  0.01066395  0.75149874  0.22033369  1
  O  O211  1  0.51066395  0.24850126  0.27966631  1
  O  O212  1  0.01066395  0.25149874  0.27966631  1
  O  O213  1  0.51066395  0.74850126  0.22033369  1
  O  O214  1  0.98933605  0.24850126  0.77966631  1
  O  O215  1  0.48933605  0.75149874  0.72033369  1
