# generated using pymatgen
data_LaB5NO14
_symmetry_space_group_name_H-M   'P 1'
_cell_length_a   15.18360400
_cell_length_b   6.59020400
_cell_length_c   12.92047587
_cell_angle_alpha   60.00624138
_cell_angle_beta   90.00000000
_cell_angle_gamma   90.00000000
_symmetry_Int_Tables_number   1
_chemical_formula_structural   LaB5NO14
_chemical_formula_sum   'La4 B20 N4 O56'
_cell_volume   1119.72191539
_cell_formula_units_Z   4
loop_
 _symmetry_equiv_pos_site_id
 _symmetry_equiv_pos_as_xyz
  1  'x, y, z'
loop_
 _atom_site_type_symbol
 _atom_site_label
 _atom_site_symmetry_multiplicity
 _atom_site_fract_x
 _atom_site_fract_y
 _atom_site_fract_z
 _atom_site_occupancy
  La  La0  1  0.79613100  0.45108500  0.88142800  1
  La  La1  1  0.70386900  0.45108500  0.38142800  1
  La  La2  1  0.20386900  0.54891500  0.11857200  1
  La  La3  1  0.29613100  0.54891500  0.61857200  1
  B  B4  1  0.53416800  0.60184500  0.60299800  1
  B  B5  1  0.96583200  0.60184500  0.10299800  1
  B  B6  1  0.46583200  0.39815500  0.39700200  1
  B  B7  1  0.03416800  0.39815500  0.89700200  1
  B  B8  1  0.66973500  0.36507400  0.63938900  1
  B  B9  1  0.83026500  0.36507400  0.13938900  1
  B  B10  1  0.33026500  0.63492600  0.36061100  1
  B  B11  1  0.16973500  0.63492600  0.86061100  1
  B  B12  1  0.67634500  0.79590900  0.53486700  1
  B  B13  1  0.82365500  0.79590900  0.03486700  1
  B  B14  1  0.32365500  0.20409100  0.46513300  1
  B  B15  1  0.17634500  0.20409100  0.96513300  1
  B  B16  1  0.70875500  0.95923500  0.67312500  1
  B  B17  1  0.79124500  0.95923500  0.17312500  1
  B  B18  1  0.29124500  0.04076500  0.32687500  1
  B  B19  1  0.20875500  0.04076500  0.82687500  1
  B  B20  1  0.75244300  0.05928000  0.82306600  1
  B  B21  1  0.74755700  0.05928000  0.32306600  1
  B  B22  1  0.24755700  0.94072000  0.17693400  1
  B  B23  1  0.25244300  0.94072000  0.67693400  1
  N  N24  1  0.57699400  0.36566200  0.95116300  1
  N  N25  1  0.92300600  0.36566200  0.45116300  1
  N  N26  1  0.42300600  0.63433800  0.04883700  1
  N  N27  1  0.07699400  0.63433800  0.54883700  1
  O  O28  1  0.44415600  0.60384100  0.59799500  1
  O  O29  1  0.05584400  0.60384100  0.09799500  1
  O  O30  1  0.55584400  0.39615900  0.40200500  1
  O  O31  1  0.94415600  0.39615900  0.90200500  1
  O  O32  1  0.57928700  0.39189700  0.66698400  1
  O  O33  1  0.92071300  0.39189700  0.16698400  1
  O  O34  1  0.42071300  0.60810300  0.33301600  1
  O  O35  1  0.07928700  0.60810300  0.83301600  1
  O  O36  1  0.58082000  0.80849500  0.54431400  1
  O  O37  1  0.91918000  0.80849500  0.04431400  1
  O  O38  1  0.41918000  0.19150500  0.45568600  1
  O  O39  1  0.08082000  0.19150500  0.95568600  1
  O  O40  1  0.70315800  0.58072500  0.53540500  1
  O  O41  1  0.79684200  0.58072500  0.03540500  1
  O  O42  1  0.29684200  0.41927500  0.46459500  1
  O  O43  1  0.20315800  0.41927500  0.96459500  1
  O  O44  1  0.72584800  0.28671400  0.75012600  1
  O  O45  1  0.77415200  0.28671400  0.25012600  1
  O  O46  1  0.27415200  0.71328600  0.24987400  1
  O  O47  1  0.22584800  0.71328600  0.74987400  1
  O  O48  1  0.71585500  0.79088300  0.64294000  1
  O  O49  1  0.78414500  0.79088300  0.14294000  1
  O  O50  1  0.28414500  0.20911700  0.35706000  1
  O  O51  1  0.21585500  0.20911700  0.85706000  1
  O  O52  1  0.67775800  0.18130700  0.60297600  1
  O  O53  1  0.82224200  0.18130700  0.10297600  1
  O  O54  1  0.32224200  0.81869300  0.39702400  1
  O  O55  1  0.17775800  0.81869300  0.89702400  1
  O  O56  1  0.74224600  0.89076800  0.78875500  1
  O  O57  1  0.75775400  0.89076800  0.28875500  1
  O  O58  1  0.25775400  0.10923200  0.21124500  1
  O  O59  1  0.24224600  0.10923200  0.71124500  1
  O  O60  1  0.79219700  0.01342500  0.92693800  1
  O  O61  1  0.70780300  0.01342500  0.42693800  1
  O  O62  1  0.20780300  0.98657500  0.07306200  1
  O  O63  1  0.29219700  0.98657500  0.57306200  1
  O  O64  1  0.65278300  0.27507900  0.99356000  1
  O  O65  1  0.84721700  0.27507900  0.49356000  1
  O  O66  1  0.34721700  0.72492100  0.00644000  1
  O  O67  1  0.15278300  0.72492100  0.50644000  1
  O  O68  1  0.57315500  0.55853400  0.85662000  1
  O  O69  1  0.92684500  0.55853400  0.35662000  1
  O  O70  1  0.42684500  0.44146600  0.14338000  1
  O  O71  1  0.07315500  0.44146600  0.64338000  1
  O  O72  1  0.51012400  0.25723400  0.00663500  1
  O  O73  1  0.98987600  0.25723400  0.50663500  1
  O  O74  1  0.48987600  0.74276600  0.99336500  1
  O  O75  1  0.01012400  0.74276600  0.49336500  1
  O  O76  1  0.91872300  0.81939500  0.70372200  1
  O  O77  1  0.58127700  0.81939500  0.20372200  1
  O  O78  1  0.08127700  0.18060500  0.29627800  1
  O  O79  1  0.41872300  0.18060500  0.79627800  1
  O  O80  1  0.90631000  0.68235900  0.66570700  1
  O  O81  1  0.59369000  0.68235900  0.16570700  1
  O  O82  1  0.09369000  0.31764100  0.33429300  1
  O  O83  1  0.40631000  0.31764100  0.83429300  1
