# generated using pymatgen
data_La4Cu3MoO12
_symmetry_space_group_name_H-M   'P 1'
_cell_length_a   6.93006600
_cell_length_b   10.98150000
_cell_length_c   7.97376868
_cell_angle_alpha   90.00000000
_cell_angle_beta   90.04695746
_cell_angle_gamma   90.00000000
_symmetry_Int_Tables_number   1
_chemical_formula_structural   La4Cu3MoO12
_chemical_formula_sum   'La8 Cu6 Mo2 O24'
_cell_volume   606.82368473
_cell_formula_units_Z   2
loop_
 _symmetry_equiv_pos_site_id
 _symmetry_equiv_pos_as_xyz
  1  'x, y, z'
loop_
 _atom_site_type_symbol
 _atom_site_label
 _atom_site_symmetry_multiplicity
 _atom_site_fract_x
 _atom_site_fract_y
 _atom_site_fract_z
 _atom_site_occupancy
  La  La0  1  0.74755900  0.24825400  0.88168400  1
  La  La1  1  0.74755900  0.75174600  0.88168400  1
  La  La2  1  0.75628400  0.24948000  0.37175900  1
  La  La3  1  0.75628400  0.75052000  0.37175900  1
  La  La4  1  0.23340300  0.25245500  0.63408200  1
  La  La5  1  0.23340300  0.74754500  0.63408200  1
  La  La6  1  0.24400900  0.24994900  0.12352700  1
  La  La7  1  0.24400900  0.75005100  0.12352700  1
  Cu  Cu8  1  0.45357800  0.50000000  0.87697700  1
  Cu  Cu9  1  0.88293300  0.50000000  0.65977300  1
  Cu  Cu10  1  0.88894200  0.50000000  0.09736000  1
  Cu  Cu11  1  0.54108800  0.00000000  0.14004200  1
  Cu  Cu12  1  0.10692900  0.00000000  0.91221100  1
  Cu  Cu13  1  0.10439400  0.00000000  0.34885400  1
  Mo  Mo14  1  0.41250900  0.50000000  0.37865700  1
  Mo  Mo15  1  0.57218900  0.00000000  0.62487100  1
  O  O16  1  0.73609500  0.50000000  0.88028000  1
  O  O17  1  0.68086600  0.50000000  0.37828500  1
  O  O18  1  0.27786500  0.50000000  0.57883700  1
  O  O19  1  0.27667300  0.50000000  0.17923900  1
  O  O20  1  0.57727500  0.17609900  0.62391500  1
  O  O21  1  0.57727500  0.82390100  0.62391500  1
  O  O22  1  0.57933500  0.16556700  0.12662200  1
  O  O23  1  0.57933500  0.83443300  0.12662200  1
  O  O24  1  0.08005900  0.16667900  0.88118600  1
  O  O25  1  0.08005900  0.83332100  0.88118600  1
  O  O26  1  0.07755700  0.16623400  0.37859700  1
  O  O27  1  0.07755700  0.83376600  0.37859700  1
  O  O28  1  0.91197600  0.33338900  0.12571500  1
  O  O29  1  0.91197600  0.66661100  0.12571500  1
  O  O30  1  0.41350900  0.32388100  0.37824700  1
  O  O31  1  0.41350900  0.67611900  0.37824700  1
  O  O32  1  0.41242300  0.33495100  0.87744600  1
  O  O33  1  0.41242300  0.66504900  0.87744600  1
  O  O34  1  0.91234400  0.33323700  0.63006400  1
  O  O35  1  0.91234400  0.66676300  0.63006400  1
  O  O36  1  0.25687800  0.00000000  0.13337100  1
  O  O37  1  0.30660900  0.00000000  0.64403900  1
  O  O38  1  0.68711200  0.00000000  0.41313800  1
  O  O39  1  0.71327300  0.00000000  0.82088100  1
