# generated using pymatgen
data_ZnPH5O6
_symmetry_space_group_name_H-M   'P 1'
_cell_length_a   8.41883145
_cell_length_b   9.29786657
_cell_length_c   26.01601434
_cell_angle_alpha   90.00000000
_cell_angle_beta   90.00000000
_cell_angle_gamma   90.00000000
_symmetry_Int_Tables_number   1
_chemical_formula_structural   ZnPH5O6
_chemical_formula_sum   'Zn16 P16 H80 O96'
_cell_volume   2036.46001617
_cell_formula_units_Z   16
loop_
 _symmetry_equiv_pos_site_id
 _symmetry_equiv_pos_as_xyz
  1  'x, y, z'
loop_
 _atom_site_type_symbol
 _atom_site_label
 _atom_site_symmetry_multiplicity
 _atom_site_fract_x
 _atom_site_fract_y
 _atom_site_fract_z
 _atom_site_occupancy
  Zn  Zn0  1  0.36112291  0.03355236  0.54350307  1
  Zn  Zn1  1  0.13887709  0.53355236  0.95649693  1
  Zn  Zn2  1  0.63887709  0.96644764  0.04350307  1
  Zn  Zn3  1  0.86112291  0.46644764  0.45649693  1
  Zn  Zn4  1  0.63887709  0.96644764  0.45649693  1
  Zn  Zn5  1  0.86112291  0.46644764  0.04350307  1
  Zn  Zn6  1  0.36112291  0.03355236  0.95649693  1
  Zn  Zn7  1  0.13887709  0.53355236  0.54350307  1
  Zn  Zn8  1  -0.00000000  -0.00000000  0.50000000  1
  Zn  Zn9  1  0.50000000  0.50000000  -0.00000000  1
  Zn  Zn10  1  -0.00000000  -0.00000000  -0.00000000  1
  Zn  Zn11  1  0.50000000  0.50000000  0.50000000  1
  Zn  Zn12  1  0.94922206  0.49569105  0.25000000  1
  Zn  Zn13  1  0.55077794  0.99569105  0.25000000  1
  Zn  Zn14  1  0.05077794  0.50430895  0.75000000  1
  Zn  Zn15  1  0.44922206  0.00430895  0.75000000  1
  P  P16  1  0.19979516  0.27479326  0.46267477  1
  P  P17  1  0.30020484  0.77479326  0.03732523  1
  P  P18  1  0.80020484  0.72520674  0.96267477  1
  P  P19  1  0.69979516  0.22520674  0.53732523  1
  P  P20  1  0.80020484  0.72520674  0.53732523  1
  P  P21  1  0.69979516  0.22520674  0.96267477  1
  P  P22  1  0.19979516  0.27479326  0.03732523  1
  P  P23  1  0.30020484  0.77479326  0.46267477  1
  P  P24  1  0.94368588  0.18364502  0.39389406  1
  P  P25  1  0.55631412  0.68364502  0.10610594  1
  P  P26  1  0.05631412  0.81635498  0.89389406  1
  P  P27  1  0.44368588  0.31635498  0.60610594  1
  P  P28  1  0.05631412  0.81635498  0.60610594  1
  P  P29  1  0.44368588  0.31635498  0.89389406  1
  P  P30  1  0.94368588  0.18364502  0.10610594  1
  P  P31  1  0.55631412  0.68364502  0.39389406  1
  H  H32  1  0.52289476  0.80008135  0.57341613  1
  H  H33  1  0.97710524  0.30008135  0.92658387  1
  H  H34  1  0.47710524  0.19991865  0.07341613  1
  H  H35  1  0.02289476  0.69991865  0.42658387  1
  H  H36  1  0.47710524  0.19991865  0.42658387  1
  H  H37  1  0.02289476  0.69991865  0.07341613  1
  H  H38  1  0.52289476  0.80008135  0.92658387  1
  H  H39  1  0.97710524  0.30008135  0.57341613  1
  H  H40  1  0.35585098  0.80316323  0.59914329  1
  H  H41  1  0.14414902  0.30316323  0.90085671  1
  H  H42  1  0.64414902  0.19683677  0.09914329  1
  H  H43  1  0.85585098  0.69683677  0.40085671  1
  H  H44  1  0.64414902  0.19683677  0.40085671  1
  H  H45  1  0.85585098  0.69683677  0.09914329  1
  H  H46  1  0.35585098  0.80316323  0.90085671  1
  H  H47  1  0.14414902  0.30316323  0.59914329  1
  H  H48  1  0.92040341  0.77953297  0.22058803  1
  H  H49  1  0.57959659  0.27953297  0.27941197  1
  H  H50  1  0.07959659  0.22046703  0.72058803  1
  H  H51  1  0.42040341  0.72046703  0.77941197  1
  H  H52  1  0.07959659  0.22046703  0.77941197  1
  H  H53  1  0.42040341  0.72046703  0.72058803  1
  H  H54  1  0.92040341  0.77953297  0.27941197  1
  H  H55  1  0.57959659  0.27953297  0.22058803  1
  H  H56  1  0.00336179  0.22300931  0.28059955  1
  H  H57  1  0.49663821  0.72300931  0.21940045  1
  H  H58  1  0.99663821  0.77699069  0.78059955  1
  H  H59  1  0.50336179  0.27699069  0.71940045  1
  H  H60  1  0.99663821  0.77699069  0.71940045  1
  H  H61  1  0.50336179  0.27699069  0.78059955  1
  H  H62  1  0.00336179  0.22300931  0.21940045  1
  H  H63  1  0.49663821  0.72300931  0.28059955  1
  H  H64  1  0.69374977  0.52655036  0.31793580  1
  H  H65  1  0.80625023  0.02655036  0.18206420  1
  H  H66  1  0.30625023  0.47344964  0.81793580  1
  H  H67  1  0.19374977  0.97344964  0.68206420  1
  H  H68  1  0.30625023  0.47344964  0.68206420  1
  H  H69  1  0.19374977  0.97344964  0.81793580  1
  H  H70  1  0.69374977  0.52655036  0.18206420  1
  H  H71  1  0.80625023  0.02655036  0.31793580  1
  H  H72  1  0.80767378  0.40557501  0.34027570  1
  H  H73  1  0.69232622  0.90557501  0.15972430  1
  H  H74  1  0.19232622  0.59442499  0.84027570  1
  H  H75  1  0.30767378  0.09442499  0.65972430  1
  H  H76  1  0.19232622  0.59442499  0.65972430  1
  H  H77  1  0.30767378  0.09442499  0.84027570  1
  H  H78  1  0.80767378  0.40557501  0.15972430  1
  H  H79  1  0.69232622  0.90557501  0.34027570  1
  H  H80  1  0.05167833  0.55630912  0.34529834  1
  H  H81  1  0.44832167  0.05630912  0.15470166  1
  H  H82  1  0.94832167  0.44369088  0.84529834  1
  H  H83  1  0.55167833  0.94369088  0.65470166  1
  H  H84  1  0.94832167  0.44369088  0.65470166  1
  H  H85  1  0.55167833  0.94369088  0.84529834  1
  H  H86  1  0.05167833  0.55630912  0.15470166  1
  H  H87  1  0.44832167  0.05630912  0.34529834  1
  H  H88  1  0.20432420  0.48648954  0.31789523  1
  H  H89  1  0.29567580  0.98648954  0.18210477  1
  H  H90  1  0.79567580  0.51351046  0.81789523  1
  H  H91  1  0.70432420  0.01351046  0.68210477  1
  H  H92  1  0.79567580  0.51351046  0.68210477  1
  H  H93  1  0.70432420  0.01351046  0.81789523  1
  H  H94  1  0.20432420  0.48648954  0.18210477  1
  H  H95  1  0.29567580  0.98648954  0.31789523  1
  H  H96  1  0.40808405  0.40859156  0.35641846  1
  H  H97  1  0.09191595  0.90859156  0.14358154  1
  H  H98  1  0.59191595  0.59140844  0.85641846  1
  H  H99  1  0.90808405  0.09140844  0.64358154  1
  H  H100  1  0.59191595  0.59140844  0.64358154  1
  H  H101  1  0.90808405  0.09140844  0.85641846  1
  H  H102  1  0.40808405  0.40859156  0.14358154  1
  H  H103  1  0.09191595  0.90859156  0.35641846  1
  H  H104  1  0.33164082  0.27314484  0.32996666  1
  H  H105  1  0.16835918  0.77314484  0.17003334  1
  H  H106  1  0.66835918  0.72685516  0.82996666  1
  H  H107  1  0.83164082  0.22685516  0.67003334  1
  H  H108  1  0.66835918  0.72685516  0.67003334  1
  H  H109  1  0.83164082  0.22685516  0.82996666  1
  H  H110  1  0.33164082  0.27314484  0.17003334  1
  H  H111  1  0.16835918  0.77314484  0.32996666  1
  O  O112  1  0.94833499  0.13008212  0.33936454  1
  O  O113  1  0.55166501  0.63008212  0.16063546  1
  O  O114  1  0.05166501  0.86991788  0.83936454  1
  O  O115  1  0.44833499  0.36991788  0.66063546  1
  O  O116  1  0.05166501  0.86991788  0.66063546  1
  O  O117  1  0.44833499  0.36991788  0.83936454  1
  O  O118  1  0.94833499  0.13008212  0.16063546  1
  O  O119  1  0.55166501  0.63008212  0.33936454  1
  O  O120  1  0.19275192  0.13906962  0.49687531  1
  O  O121  1  0.30724808  0.63906962  0.00312469  1
  O  O122  1  0.80724808  0.86093038  0.99687531  1
  O  O123  1  0.69275192  0.36093038  0.50312469  1
  O  O124  1  0.80724808  0.86093038  0.50312469  1
  O  O125  1  0.69275192  0.36093038  0.99687531  1
  O  O126  1  0.19275192  0.13906962  0.00312469  1
  O  O127  1  0.30724808  0.63906962  0.49687531  1
  O  O128  1  0.36885676  0.32471310  0.45283625  1
  O  O129  1  0.13114324  0.82471310  0.04716375  1
  O  O130  1  0.63114324  0.67528690  0.95283625  1
  O  O131  1  0.86885676  0.17528690  0.54716375  1
  O  O132  1  0.63114324  0.67528690  0.54716375  1
  O  O133  1  0.86885676  0.17528690  0.95283625  1
  O  O134  1  0.36885676  0.32471310  0.04716375  1
  O  O135  1  0.13114324  0.82471310  0.45283625  1
  O  O136  1  0.08949631  0.39562033  0.48191576  1
  O  O137  1  0.41050369  0.89562033  0.01808424  1
  O  O138  1  0.91050369  0.60437967  0.98191576  1
  O  O139  1  0.58949631  0.10437967  0.51808424  1
  O  O140  1  0.91050369  0.60437967  0.51808424  1
  O  O141  1  0.58949631  0.10437967  0.98191576  1
  O  O142  1  0.08949631  0.39562033  0.01808424  1
  O  O143  1  0.41050369  0.89562033  0.48191576  1
  O  O144  1  0.84169981  0.32212034  0.39876565  1
  O  O145  1  0.65830019  0.82212034  0.10123435  1
  O  O146  1  0.15830019  0.67787966  0.89876565  1
  O  O147  1  0.34169981  0.17787966  0.60123435  1
  O  O148  1  0.15830019  0.67787966  0.60123435  1
  O  O149  1  0.34169981  0.17787966  0.89876565  1
  O  O150  1  0.84169981  0.32212034  0.10123435  1
  O  O151  1  0.65830019  0.82212034  0.39876565  1
  O  O152  1  0.88965490  0.07253219  0.43445662  1
  O  O153  1  0.61034510  0.57253219  0.06554338  1
  O  O154  1  0.11034510  0.92746781  0.93445662  1
  O  O155  1  0.38965490  0.42746781  0.56554338  1
  O  O156  1  0.11034510  0.92746781  0.56554338  1
  O  O157  1  0.38965490  0.42746781  0.93445662  1
  O  O158  1  0.88965490  0.07253219  0.06554338  1
  O  O159  1  0.61034510  0.57253219  0.43445662  1
  O  O160  1  0.12739904  0.22688233  0.40748356  1
  O  O161  1  0.37260096  0.72688233  0.09251644  1
  O  O162  1  0.87260096  0.77311767  0.90748356  1
  O  O163  1  0.62739904  0.27311767  0.59251644  1
  O  O164  1  0.87260096  0.77311767  0.59251644  1
  O  O165  1  0.62739904  0.27311767  0.90748356  1
  O  O166  1  0.12739904  0.22688233  0.09251644  1
  O  O167  1  0.37260096  0.72688233  0.40748356  1
  O  O168  1  0.44814203  0.86620773  0.59293756  1
  O  O169  1  0.05185797  0.36620773  0.90706244  1
  O  O170  1  0.55185797  0.13379227  0.09293756  1
  O  O171  1  0.94814203  0.63379227  0.40706244  1
  O  O172  1  0.55185797  0.13379227  0.40706244  1
  O  O173  1  0.94814203  0.63379227  0.09293756  1
  O  O174  1  0.44814203  0.86620773  0.90706244  1
  O  O175  1  0.05185797  0.36620773  0.59293756  1
  O  O176  1  0.89061487  0.71971849  0.25000000  1
  O  O177  1  0.60938513  0.21971849  0.25000000  1
  O  O178  1  0.10938513  0.28028151  0.75000000  1
  O  O179  1  0.39061487  0.78028151  0.75000000  1
  O  O180  1  0.03439863  0.28031521  0.25000000  1
  O  O181  1  0.46560137  0.78031521  0.25000000  1
  O  O182  1  0.96560137  0.71968479  0.75000000  1
  O  O183  1  0.53439863  0.21968479  0.75000000  1
  O  O184  1  0.77814051  0.45565145  0.30797301  1
  O  O185  1  0.72185949  0.95565145  0.19202699  1
  O  O186  1  0.22185949  0.54434855  0.80797301  1
  O  O187  1  0.27814051  0.04434855  0.69202699  1
  O  O188  1  0.22185949  0.54434855  0.69202699  1
  O  O189  1  0.27814051  0.04434855  0.80797301  1
  O  O190  1  0.77814051  0.45565145  0.19202699  1
  O  O191  1  0.72185949  0.95565145  0.30797301  1
  O  O192  1  0.11278385  0.55456676  0.31301302  1
  O  O193  1  0.38721615  0.05456676  0.18698698  1
  O  O194  1  0.88721615  0.44543324  0.81301302  1
  O  O195  1  0.61278385  0.94543324  0.68698698  1
  O  O196  1  0.88721615  0.44543324  0.68698698  1
  O  O197  1  0.61278385  0.94543324  0.81301302  1
  O  O198  1  0.11278385  0.55456676  0.18698698  1
  O  O199  1  0.38721615  0.05456676  0.31301302  1
  O  O200  1  0.36116226  0.37425197  0.32449955  1
  O  O201  1  0.13883774  0.87425197  0.17550045  1
  O  O202  1  0.63883774  0.62574803  0.82449955  1
  O  O203  1  0.86116226  0.12574803  0.67550045  1
  O  O204  1  0.63883774  0.62574803  0.67550045  1
  O  O205  1  0.86116226  0.12574803  0.82449955  1
  O  O206  1  0.36116226  0.37425197  0.17550045  1
  O  O207  1  0.13883774  0.87425197  0.32449955  1
