# generated using pymatgen
data_Na2Si3SnO11
_symmetry_space_group_name_H-M   'P 1'
_cell_length_a   6.52995864
_cell_length_b   6.52995864
_cell_length_c   11.79465900
_cell_angle_alpha   90.00000000
_cell_angle_beta   90.00000000
_cell_angle_gamma   104.76906957
_symmetry_Int_Tables_number   1
_chemical_formula_structural   Na2Si3SnO11
_chemical_formula_sum   'Na4 Si6 Sn2 O22'
_cell_volume   486.31232373
_cell_formula_units_Z   2
loop_
 _symmetry_equiv_pos_site_id
 _symmetry_equiv_pos_as_xyz
  1  'x, y, z'
loop_
 _atom_site_type_symbol
 _atom_site_label
 _atom_site_symmetry_multiplicity
 _atom_site_fract_x
 _atom_site_fract_y
 _atom_site_fract_z
 _atom_site_occupancy
  Na  Na0  1  0.28192200  0.28192200  0.00000000  1
  Na  Na1  1  0.71807800  0.71807800  0.50000000  1
  Na  Na2  1  0.18731800  0.81268200  0.75000000  1
  Na  Na3  1  0.81268200  0.18731800  0.25000000  1
  Si  Si4  1  0.69812600  0.93392000  0.78451000  1
  Si  Si5  1  0.93392000  0.69812600  0.21549000  1
  Si  Si6  1  0.30187400  0.06608000  0.28451000  1
  Si  Si7  1  0.06608000  0.30187400  0.71549000  1
  Si  Si8  1  0.66570200  0.66570200  0.00000000  1
  Si  Si9  1  0.33429800  0.33429800  0.50000000  1
  Sn  Sn10  1  0.59457300  0.40542700  0.75000000  1
  Sn  Sn11  1  0.40542700  0.59457300  0.25000000  1
  O  O12  1  0.53455500  0.08104500  0.76579200  1
  O  O13  1  0.08104500  0.53455500  0.23420800  1
  O  O14  1  0.46544500  0.91895500  0.26579200  1
  O  O15  1  0.91895500  0.46544500  0.73420800  1
  O  O16  1  0.54967200  0.36109300  0.57530800  1
  O  O17  1  0.36109400  0.54967200  0.42469200  1
  O  O18  1  0.45032800  0.63890600  0.07530800  1
  O  O19  1  0.63890700  0.45032800  0.92469200  1
  O  O20  1  0.62551300  0.71993800  0.70921000  1
  O  O21  1  0.71993800  0.62551300  0.29079000  1
  O  O22  1  0.37448700  0.28006200  0.20921000  1
  O  O23  1  0.28006200  0.37448700  0.79079000  1
  O  O24  1  0.70491600  0.87810900  0.92045700  1
  O  O25  1  0.87810900  0.70491600  0.07954300  1
  O  O26  1  0.29508400  0.12189100  0.42045700  1
  O  O27  1  0.12189100  0.29508400  0.57954300  1
  O  O28  1  0.94490700  0.05509300  0.75000000  1
  O  O29  1  0.05509300  0.94490700  0.25000000  1
  O  O30  1  0.23193900  0.89276200  0.95876300  1
  O  O31  1  0.89276200  0.23193900  0.04123700  1
  O  O32  1  0.76806100  0.10723800  0.45876300  1
  O  O33  1  0.10723800  0.76806100  0.54123700  1
