# generated using pymatgen
data_CdRe2H26C6S6(N4O3)3
_symmetry_space_group_name_H-M   'P 1'
_cell_length_a   10.75394077
_cell_length_b   10.75394077
_cell_length_c   15.13475788
_cell_angle_alpha   73.67736473
_cell_angle_beta   73.67736473
_cell_angle_gamma   85.17513134
_symmetry_Int_Tables_number   1
_chemical_formula_structural   CdRe2H26C6S6(N4O3)3
_chemical_formula_sum   'Cd2 Re4 H52 C12 S12 N24 O18'
_cell_volume   1612.01805779
_cell_formula_units_Z   2
loop_
 _symmetry_equiv_pos_site_id
 _symmetry_equiv_pos_as_xyz
  1  'x, y, z'
loop_
 _atom_site_type_symbol
 _atom_site_label
 _atom_site_symmetry_multiplicity
 _atom_site_fract_x
 _atom_site_fract_y
 _atom_site_fract_z
 _atom_site_occupancy
  Cd  Cd0  1  0.00000000  0.50000000  0.00000000  1
  Cd  Cd1  1  0.50000000  0.00000000  0.50000000  1
  Re  Re2  1  0.00118100  0.33672700  0.64036100  1
  Re  Re3  1  0.66327300  0.99881900  0.85963900  1
  Re  Re4  1  0.99881900  0.66327300  0.35963900  1
  Re  Re5  1  0.33672700  0.00118100  0.14036100  1
  H  H6  1  0.81744100  0.99010400  0.09914000  1
  H  H7  1  0.00989600  0.18255900  0.40086000  1
  H  H8  1  0.18255900  0.00989600  0.90086000  1
  H  H9  1  0.99010400  0.81744100  0.59914000  1
  H  H10  1  0.84588200  0.03016700  0.19667700  1
  H  H11  1  0.96983300  0.15411800  0.30332300  1
  H  H12  1  0.15411800  0.96983300  0.80332300  1
  H  H13  1  0.03016700  0.84588200  0.69667700  1
  H  H14  1  0.88556600  0.12227000  0.94709500  1
  H  H15  1  0.87773000  0.11443400  0.55290500  1
  H  H16  1  0.11443400  0.87773000  0.05290500  1
  H  H17  1  0.12227000  0.88556600  0.44709500  1
  H  H18  1  0.98250000  0.25605300  0.92501200  1
  H  H19  1  0.74394700  0.01750000  0.57498800  1
  H  H20  1  0.01750000  0.74394700  0.07498800  1
  H  H21  1  0.25605300  0.98250000  0.42501200  1
  H  H22  1  0.41253500  0.71536700  0.85104500  1
  H  H23  1  0.28463300  0.58746500  0.64895500  1
  H  H24  1  0.58746500  0.28463300  0.14895500  1
  H  H25  1  0.71536700  0.41253500  0.35104500  1
  H  H26  1  0.28046300  0.61755600  0.86868900  1
  H  H27  1  0.38244400  0.71953700  0.63131100  1
  H  H28  1  0.71953700  0.38244400  0.13131100  1
  H  H29  1  0.61755600  0.28046300  0.36868900  1
  H  H30  1  0.48315100  0.71753800  0.98306000  1
  H  H31  1  0.28246200  0.51685000  0.51694000  1
  H  H32  1  0.51685000  0.28246200  0.01694000  1
  H  H33  1  0.71753800  0.48315000  0.48306000  1
  H  H34  1  0.40115800  0.62513700  0.09858700  1
  H  H35  1  0.37486300  0.59884200  0.40141300  1
  H  H36  1  0.59884200  0.37486300  0.90141300  1
  H  H37  1  0.62513700  0.40115800  0.59858700  1
  H  H38  1  0.37669500  0.20321400  0.77349600  1
  H  H39  1  0.79678600  0.62330500  0.72650400  1
  H  H40  1  0.62330500  0.79678600  0.22650400  1
  H  H41  1  0.20321400  0.37669500  0.27349600  1
  H  H42  1  0.27755700  0.30176900  0.70816300  1
  H  H43  1  0.69823100  0.72244300  0.79183700  1
  H  H44  1  0.72244300  0.69823100  0.29183700  1
  H  H45  1  0.30176900  0.27755700  0.20816300  1
  H  H46  1  0.35993100  0.21020000  0.92633000  1
  H  H47  1  0.78980000  0.64006900  0.57367000  1
  H  H48  1  0.64006900  0.78980000  0.07367000  1
  H  H49  1  0.21020000  0.35993100  0.42633000  1
  H  H50  1  0.26574700  0.33126000  0.97247100  1
  H  H51  1  0.66874000  0.73425300  0.52752900  1
  H  H52  1  0.73425300  0.66874000  0.02752900  1
  H  H53  1  0.33126000  0.26574700  0.47247100  1
  H  H54  1  0.28747900  0.60493100  0.27526500  1
  H  H55  1  0.39506900  0.71252100  0.22473500  1
  H  H56  1  0.71252100  0.39506900  0.72473500  1
  H  H57  1  0.60493100  0.28747900  0.77526500  1
  C  C58  1  0.92433700  0.15387100  0.06513900  1
  C  C59  1  0.84612900  0.07566300  0.43486100  1
  C  C60  1  0.07566300  0.84612900  0.93486100  1
  C  C61  1  0.15387100  0.92433700  0.56513900  1
  C  C62  1  0.32900100  0.61026100  0.99071600  1
  C  C63  1  0.38973900  0.67099900  0.50928400  1
  C  C64  1  0.67099900  0.38973900  0.00928400  1
  C  C65  1  0.61026100  0.32900100  0.49071600  1
  C  C66  1  0.25742400  0.32896800  0.83974100  1
  C  C67  1  0.67103200  0.74257600  0.66025900  1
  C  C68  1  0.74257600  0.67103200  0.16025900  1
  C  C69  1  0.32896800  0.25742400  0.33974100  1
  S  S70  1  0.99261200  0.25174000  0.11072400  1
  S  S71  1  0.74826000  0.00738800  0.38927600  1
  S  S72  1  0.00738800  0.74826000  0.88927600  1
  S  S73  1  0.25174000  0.99261200  0.61072400  1
  S  S74  1  0.21002200  0.50252300  0.06619000  1
  S  S75  1  0.49747700  0.78997800  0.43381000  1
  S  S76  1  0.78997800  0.49747700  0.93381000  1
  S  S77  1  0.50252300  0.21002200  0.56619000  1
  S  S78  1  0.15146000  0.45707400  0.82422800  1
  S  S79  1  0.54292600  0.84854000  0.67577200  1
  S  S80  1  0.84854000  0.54292600  0.17577200  1
  S  S81  1  0.45707400  0.15146000  0.32422800  1
  N  N82  1  0.85712800  0.04970400  0.12516000  1
  N  N83  1  0.95029600  0.14287200  0.37484000  1
  N  N84  1  0.14287200  0.95029600  0.87484000  1
  N  N85  1  0.04970400  0.85712800  0.62516100  1
  N  N86  1  0.93736500  0.17461900  0.97173300  1
  N  N87  1  0.82538100  0.06263500  0.52826700  1
  N  N88  1  0.06263500  0.82538100  0.02826700  1
  N  N89  1  0.17461900  0.93736500  0.47173300  1
  N  N90  1  0.34179900  0.65201900  0.89663400  1
  N  N91  1  0.34798100  0.65820100  0.60336600  1
  N  N92  1  0.65820100  0.34798100  0.10336600  1
  N  N93  1  0.65201900  0.34179900  0.39663400  1
  N  N94  1  0.41263000  0.65182500  0.02658500  1
  N  N95  1  0.34817500  0.58737000  0.47341500  1
  N  N96  1  0.58737000  0.34817500  0.97341500  1
  N  N97  1  0.65182500  0.41263000  0.52658500  1
  N  N98  1  0.30119400  0.26708200  0.77115100  1
  N  N99  1  0.73291800  0.69880600  0.72884900  1
  N  N100  1  0.69880600  0.73291800  0.22884900  1
  N  N101  1  0.26708200  0.30119400  0.27115100  1
  N  N102  1  0.29808000  0.28731100  0.91854300  1
  N  N103  1  0.71268900  0.70192000  0.58145700  1
  N  N104  1  0.70192000  0.71268900  0.08145700  1
  N  N105  1  0.28731100  0.29808000  0.41854300  1
  O  O106  1  0.16265300  0.39198100  0.60176100  1
  O  O107  1  0.60801900  0.83734700  0.89823900  1
  O  O108  1  0.83734700  0.60801900  0.39823900  1
  O  O109  1  0.39198100  0.16265300  0.10176100  1
  O  O110  1  0.97482500  0.22593600  0.75244600  1
  O  O111  1  0.77406400  0.02517500  0.74755400  1
  O  O112  1  0.02517500  0.77406400  0.24755400  1
  O  O113  1  0.22593600  0.97482500  0.25244600  1
  O  O114  1  0.97535000  0.26126900  0.55834900  1
  O  O115  1  0.73873100  0.02465000  0.94165100  1
  O  O116  1  0.02465000  0.73873100  0.44165100  1
  O  O117  1  0.26126900  0.97535000  0.05834900  1
  O  O118  1  0.88986300  0.46671100  0.64851000  1
  O  O119  1  0.53328900  0.11013700  0.85149000  1
  O  O120  1  0.11013700  0.53328900  0.35149000  1
  O  O121  1  0.46671100  0.88986300  0.14851000  1
  O  O122  1  0.38143500  0.61856500  0.25000000  1
  O  O123  1  0.61856500  0.38143500  0.75000000  1
