# generated using pymatgen
data_Sn2H10C8N2O13
_symmetry_space_group_name_H-M   'P 1'
_cell_length_a   10.21969400
_cell_length_b   6.16262200
_cell_length_c   14.81965639
_cell_angle_alpha   90.00000000
_cell_angle_beta   109.77035710
_cell_angle_gamma   90.00000000
_symmetry_Int_Tables_number   1
_chemical_formula_structural   Sn2H10C8N2O13
_chemical_formula_sum   'Sn4 H20 C16 N4 O26'
_cell_volume   878.32850160
_cell_formula_units_Z   2
loop_
 _symmetry_equiv_pos_site_id
 _symmetry_equiv_pos_as_xyz
  1  'x, y, z'
loop_
 _atom_site_type_symbol
 _atom_site_label
 _atom_site_symmetry_multiplicity
 _atom_site_fract_x
 _atom_site_fract_y
 _atom_site_fract_z
 _atom_site_occupancy
  Sn  Sn0  1  0.11759800  0.79243600  0.08807200  1
  Sn  Sn1  1  0.88240200  0.79243600  0.41192800  1
  Sn  Sn2  1  0.88240200  0.20756400  0.91192800  1
  Sn  Sn3  1  0.11759800  0.20756400  0.58807200  1
  H  H4  1  0.65524400  0.93439600  0.18455600  1
  H  H5  1  0.34475600  0.93439600  0.31544400  1
  H  H6  1  0.34475600  0.06560400  0.81544400  1
  H  H7  1  0.65524400  0.06560400  0.68455600  1
  H  H8  1  0.48333200  0.87858200  0.14088300  1
  H  H9  1  0.51666800  0.87858200  0.35911700  1
  H  H10  1  0.51666800  0.12141800  0.85911700  1
  H  H11  1  0.48333200  0.12141800  0.64088300  1
  H  H12  1  0.53548500  0.14304800  0.14738100  1
  H  H13  1  0.46451500  0.14304800  0.35261900  1
  H  H14  1  0.46451500  0.85695200  0.85261900  1
  H  H15  1  0.53548500  0.85695200  0.64738100  1
  H  H16  1  0.65426100  0.06634900  0.03222800  1
  H  H17  1  0.34573900  0.06634900  0.46777200  1
  H  H18  1  0.34573900  0.93365100  0.96777200  1
  H  H19  1  0.65426100  0.93365100  0.53222800  1
  H  H20  1  0.59195600  0.79520100  0.02513800  1
  H  H21  1  0.40804400  0.79520100  0.47486200  1
  H  H22  1  0.40804400  0.20479900  0.97486200  1
  H  H23  1  0.59195600  0.20479900  0.52513800  1
  C  C24  1  0.25266900  0.33800700  0.12938700  1
  C  C25  1  0.74733100  0.33800700  0.37061300  1
  C  C26  1  0.74733100  0.66199300  0.87061300  1
  C  C27  1  0.25266900  0.66199300  0.62938700  1
  C  C28  1  0.37721900  0.49209700  0.13409200  1
  C  C29  1  0.62278100  0.49209700  0.36590800  1
  C  C30  1  0.62278100  0.50790300  0.86590800  1
  C  C31  1  0.37721900  0.50790300  0.63409200  1
  C  C32  1  0.07519800  0.77249900  0.28565600  1
  C  C33  1  0.92480200  0.77249900  0.21434400  1
  C  C34  1  0.92480200  0.22750100  0.71434400  1
  C  C35  1  0.07519800  0.22750100  0.78565600  1
  C  C36  1  0.56869200  0.96440800  0.03672700  1
  C  C37  1  0.43130800  0.96440800  0.46327300  1
  C  C38  1  0.43130800  0.03559200  0.96327300  1
  C  C39  1  0.56869200  0.03559200  0.53672700  1
  N  N40  1  0.56129300  0.98287900  0.13475800  1
  N  N41  1  0.43870700  0.98287900  0.36524200  1
  N  N42  1  0.43870700  0.01712100  0.86524200  1
  N  N43  1  0.56129300  0.01712100  0.63475800  1
  O  O44  1  0.34998900  0.69737900  0.13275800  1
  O  O45  1  0.65001100  0.69737900  0.36724200  1
  O  O46  1  0.65001100  0.30262100  0.86724200  1
  O  O47  1  0.34998900  0.30262100  0.63275800  1
  O  O48  1  0.13223200  0.42643700  0.10948200  1
  O  O49  1  0.86776800  0.42643700  0.39051800  1
  O  O50  1  0.86776800  0.57356300  0.89051800  1
  O  O51  1  0.13223200  0.57356300  0.60948200  1
  O  O52  1  0.27886800  0.14017200  0.14393400  1
  O  O53  1  0.72113200  0.14017200  0.35606600  1
  O  O54  1  0.72113200  0.85982800  0.85606600  1
  O  O55  1  0.27886800  0.85982800  0.64393400  1
  O  O56  1  0.49112400  0.41579700  0.13704800  1
  O  O57  1  0.50887600  0.41579700  0.36295200  1
  O  O58  1  0.50887600  0.58420300  0.86295200  1
  O  O59  1  0.49112400  0.58420300  0.63704800  1
  O  O60  1  0.17264400  0.79281100  0.24991500  1
  O  O61  1  0.82735600  0.79281100  0.25008500  1
  O  O62  1  0.82735600  0.20718900  0.75008500  1
  O  O63  1  0.17264400  0.20718900  0.74991500  1
  O  O64  1  0.90662600  0.75699300  0.12640000  1
  O  O65  1  0.09337400  0.75699300  0.37360000  1
  O  O66  1  0.09337400  0.24300700  0.87360000  1
  O  O67  1  0.90662600  0.24300700  0.62640000  1
  O  O68  1  0.00000000  0.23383600  0.25000000  1
  O  O69  1  0.00000000  0.76616400  0.75000000  1
