# generated using pymatgen
data_Y2N6O25
_symmetry_space_group_name_H-M   'P 1'
_cell_length_a   7.18879730
_cell_length_b   7.18879730
_cell_length_c   20.51047000
_cell_angle_alpha   90.00000000
_cell_angle_beta   90.00000000
_cell_angle_gamma   106.65422729
_symmetry_Int_Tables_number   1
_chemical_formula_structural   Y2N6O25
_chemical_formula_sum   'Y4 N12 O50'
_cell_volume   1015.49329456
_cell_formula_units_Z   2
loop_
 _symmetry_equiv_pos_site_id
 _symmetry_equiv_pos_as_xyz
  1  'x, y, z'
loop_
 _atom_site_type_symbol
 _atom_site_label
 _atom_site_symmetry_multiplicity
 _atom_site_fract_x
 _atom_site_fract_y
 _atom_site_fract_z
 _atom_site_occupancy
  Y  Y0  1  0.87870800  0.12129100  0.75000000  1
  Y  Y1  1  0.12129200  0.87870800  0.25000000  1
  Y  Y2  1  0.58578200  0.58578200  0.00000000  1
  Y  Y3  1  0.41421800  0.41421800  0.50000000  1
  N  N4  1  0.87151600  0.12848400  0.25000000  1
  N  N5  1  0.12848400  0.87151600  0.75000000  1
  N  N6  1  0.62101000  0.37899000  0.75000000  1
  N  N7  1  0.37899000  0.62101000  0.25000000  1
  N  N8  1  0.76653100  0.95859100  0.61883900  1
  N  N9  1  0.95859100  0.76653100  0.38116100  1
  N  N10  1  0.23346900  0.04140900  0.11883900  1
  N  N11  1  0.04140900  0.23346900  0.88116100  1
  N  N12  1  0.64275900  0.18637400  0.43783200  1
  N  N13  1  0.18637400  0.64275900  0.56216800  1
  N  N14  1  0.35724100  0.81362600  0.93783200  1
  N  N15  1  0.81362600  0.35724100  0.06216800  1
  O  O16  1  0.19571400  0.05698700  0.74559100  1
  O  O17  1  0.05698700  0.19571400  0.25440900  1
  O  O18  1  0.80428600  0.94301300  0.24559100  1
  O  O19  1  0.94301300  0.80428600  0.75440900  1
  O  O20  1  0.23539500  0.76460500  0.75000000  1
  O  O21  1  0.76460500  0.23539500  0.25000000  1
  O  O22  1  0.65729700  0.29200800  0.69812400  1
  O  O23  1  0.29200800  0.65729700  0.30187600  1
  O  O24  1  0.34270300  0.70799200  0.19812400  1
  O  O25  1  0.70799200  0.34270300  0.80187600  1
  O  O26  1  0.51594300  0.48405700  0.75000000  1
  O  O27  1  0.48405700  0.51594300  0.25000000  1
  O  O28  1  0.65387700  0.89819000  0.66712800  1
  O  O29  1  0.89819000  0.65387700  0.33287200  1
  O  O30  1  0.34612300  0.10181000  0.16712800  1
  O  O31  1  0.10181000  0.34612300  0.83287200  1
  O  O32  1  0.92738300  0.08725100  0.63122100  1
  O  O33  1  0.08725100  0.92738300  0.36877900  1
  O  O34  1  0.07261700  0.91274900  0.13122100  1
  O  O35  1  0.91274900  0.07261700  0.86877900  1
  O  O36  1  0.72414800  0.89746900  0.56285700  1
  O  O37  1  0.89746900  0.72414800  0.43714300  1
  O  O38  1  0.27585200  0.10253100  0.06285700  1
  O  O39  1  0.10253100  0.27585200  0.93714300  1
  O  O40  1  0.46855700  0.17094000  0.41750900  1
  O  O41  1  0.17094000  0.46855700  0.58249100  1
  O  O42  1  0.53144300  0.82906000  0.91750900  1
  O  O43  1  0.82906000  0.53144300  0.08249100  1
  O  O44  1  0.70339800  0.30383100  0.48536200  1
  O  O45  1  0.30383100  0.70339800  0.51463800  1
  O  O46  1  0.29660200  0.69616900  0.98536200  1
  O  O47  1  0.69616900  0.29660200  0.01463800  1
  O  O48  1  0.74110000  0.09203700  0.41270800  1
  O  O49  1  0.09203800  0.74110000  0.58729200  1
  O  O50  1  0.25890000  0.90796200  0.91270800  1
  O  O51  1  0.90796200  0.25890000  0.08729200  1
  O  O52  1  0.99936500  0.42867900  0.70141500  1
  O  O53  1  0.42867900  0.99936500  0.29858500  1
  O  O54  1  0.00063500  0.57132100  0.20141500  1
  O  O55  1  0.57132100  0.00063500  0.79858500  1
  O  O56  1  0.86458300  0.86458300  0.00000000  1
  O  O57  1  0.13541700  0.13541700  0.50000000  1
  O  O58  1  0.50488200  0.43768900  0.90132000  1
  O  O59  1  0.43768900  0.50488200  0.09868000  1
  O  O60  1  0.49511800  0.56231100  0.40132000  1
  O  O61  1  0.56231100  0.49511800  0.59868000  1
  O  O62  1  0.35784900  0.17003900  0.57928300  1
  O  O63  1  0.17003900  0.35784900  0.42071700  1
  O  O64  1  0.64215100  0.82996100  0.07928300  1
  O  O65  1  0.82996100  0.64215100  0.92071700  1
