# generated using pymatgen
data_Mn2Hg(CO)10
_symmetry_space_group_name_H-M   'P 1'
_cell_length_a   6.40749900
_cell_length_b   6.60772100
_cell_length_c   19.22432423
_cell_angle_alpha   84.41188664
_cell_angle_beta   90.00000000
_cell_angle_gamma   90.00000000
_symmetry_Int_Tables_number   1
_chemical_formula_structural   Mn2Hg(CO)10
_chemical_formula_sum   'Mn4 Hg2 C20 O20'
_cell_volume   810.06986419
_cell_formula_units_Z   2
loop_
 _symmetry_equiv_pos_site_id
 _symmetry_equiv_pos_as_xyz
  1  'x, y, z'
loop_
 _atom_site_type_symbol
 _atom_site_label
 _atom_site_symmetry_multiplicity
 _atom_site_fract_x
 _atom_site_fract_y
 _atom_site_fract_z
 _atom_site_occupancy
  Mn  Mn0  1  0.15160100  0.18791600  0.87893300  1
  Mn  Mn1  1  0.65160100  0.81208400  0.62106700  1
  Mn  Mn2  1  0.84839900  0.81208400  0.12106700  1
  Mn  Mn3  1  0.34839900  0.18791600  0.37893300  1
  Hg  Hg4  1  0.00000000  0.00000000  0.00000000  1
  Hg  Hg5  1  0.50000000  0.00000000  0.50000000  1
  C  C6  1  0.25638300  0.31677200  0.79872600  1
  C  C7  1  0.75638300  0.68322800  0.70127400  1
  C  C8  1  0.74361700  0.68322800  0.20127400  1
  C  C9  1  0.24361700  0.31677200  0.29872600  1
  C  C10  1  0.37450900  0.24041800  0.93547400  1
  C  C11  1  0.87450900  0.75958200  0.56452600  1
  C  C12  1  0.62549100  0.75958200  0.06452600  1
  C  C13  1  0.12549100  0.24041800  0.43547400  1
  C  C14  1  0.26925600  0.93703600  0.86719800  1
  C  C15  1  0.76925600  0.06296400  0.63280200  1
  C  C16  1  0.73074400  0.06296400  0.13280200  1
  C  C17  1  0.23074400  0.93703600  0.36719800  1
  C  C18  1  0.90571700  0.10614300  0.83968900  1
  C  C19  1  0.40571700  0.89385700  0.66031100  1
  C  C20  1  0.09428300  0.89385700  0.16031100  1
  C  C21  1  0.59428300  0.10614300  0.33968900  1
  C  C22  1  0.01151400  0.41319200  0.90539400  1
  C  C23  1  0.51151400  0.58680800  0.59460600  1
  C  C24  1  0.98848600  0.58680800  0.09460600  1
  C  C25  1  0.48848600  0.41319200  0.40539400  1
  O  O26  1  0.32319000  0.40002200  0.74762300  1
  O  O27  1  0.82319000  0.59997800  0.75237700  1
  O  O28  1  0.67681000  0.59997800  0.25237700  1
  O  O29  1  0.17681000  0.40002200  0.24762300  1
  O  O30  1  0.51629300  0.27120400  0.97067500  1
  O  O31  1  0.01629300  0.72879600  0.52932500  1
  O  O32  1  0.48370700  0.72879600  0.02932500  1
  O  O33  1  0.98370700  0.27120400  0.47067500  1
  O  O34  1  0.34466500  0.78161400  0.85901700  1
  O  O35  1  0.84466500  0.21838600  0.64098300  1
  O  O36  1  0.65533500  0.21838600  0.14098300  1
  O  O37  1  0.15533500  0.78161400  0.35901700  1
  O  O38  1  0.75173400  0.05661300  0.81447400  1
  O  O39  1  0.25173400  0.94338700  0.68552600  1
  O  O40  1  0.24826600  0.94338700  0.18552600  1
  O  O41  1  0.74826600  0.05661300  0.31447400  1
  O  O42  1  0.92205400  0.55475500  0.92085000  1
  O  O43  1  0.42205400  0.44524500  0.57915000  1
  O  O44  1  0.07794600  0.44524500  0.07915000  1
  O  O45  1  0.57794600  0.55475500  0.42085000  1
