# generated using pymatgen
data_CaFe3Si2O9
_symmetry_space_group_name_H-M   'P 1'
_cell_length_a   5.98091600
_cell_length_b   9.18810100
_cell_length_c   20.12632900
_cell_angle_alpha   90.00000000
_cell_angle_beta   90.00000000
_cell_angle_gamma   90.00000000
_symmetry_Int_Tables_number   1
_chemical_formula_structural   CaFe3Si2O9
_chemical_formula_sum   'Ca4 Fe12 Si8 O36'
_cell_volume   1106.00739603
_cell_formula_units_Z   4
loop_
 _symmetry_equiv_pos_site_id
 _symmetry_equiv_pos_as_xyz
  1  'x, y, z'
loop_
 _atom_site_type_symbol
 _atom_site_label
 _atom_site_symmetry_multiplicity
 _atom_site_fract_x
 _atom_site_fract_y
 _atom_site_fract_z
 _atom_site_occupancy
  Ca  Ca0  1  0.25000000  0.51201100  0.95409800  1
  Ca  Ca1  1  0.25000000  0.98798900  0.45409800  1
  Ca  Ca2  1  0.75000000  0.48798900  0.04590200  1
  Ca  Ca3  1  0.75000000  0.01201100  0.54590200  1
  Fe  Fe4  1  0.99778500  0.36784300  0.63482200  1
  Fe  Fe5  1  0.50221500  0.13215700  0.13482200  1
  Fe  Fe6  1  0.49778500  0.63215700  0.36517800  1
  Fe  Fe7  1  0.00221500  0.86784300  0.86517800  1
  Fe  Fe8  1  0.00221500  0.63215700  0.36517800  1
  Fe  Fe9  1  0.49778500  0.86784300  0.86517800  1
  Fe  Fe10  1  0.50221500  0.36784300  0.63482200  1
  Fe  Fe11  1  0.99778500  0.13215700  0.13482200  1
  Fe  Fe12  1  0.25000000  0.94384100  0.24108700  1
  Fe  Fe13  1  0.25000000  0.55615900  0.74108700  1
  Fe  Fe14  1  0.75000000  0.05615900  0.75891300  1
  Fe  Fe15  1  0.75000000  0.44384100  0.25891300  1
  Si  Si16  1  0.25000000  0.22295100  0.55391200  1
  Si  Si17  1  0.25000000  0.27704900  0.05391200  1
  Si  Si18  1  0.75000000  0.77704900  0.44608800  1
  Si  Si19  1  0.75000000  0.72295100  0.94608800  1
  Si  Si20  1  0.25000000  0.65508900  0.25148300  1
  Si  Si21  1  0.25000000  0.84491100  0.75148300  1
  Si  Si22  1  0.75000000  0.34491100  0.74851700  1
  Si  Si23  1  0.75000000  0.15508900  0.24851700  1
  O  O24  1  0.25000000  0.40635100  0.56712500  1
  O  O25  1  0.25000000  0.09364900  0.06712500  1
  O  O26  1  0.75000000  0.59364900  0.43287500  1
  O  O27  1  0.75000000  0.90635100  0.93287500  1
  O  O28  1  0.25000000  0.20053600  0.63795300  1
  O  O29  1  0.25000000  0.29946400  0.13795300  1
  O  O30  1  0.75000000  0.79946400  0.36204700  1
  O  O31  1  0.75000000  0.70053600  0.86204700  1
  O  O32  1  0.25000000  0.54553100  0.40249500  1
  O  O33  1  0.25000000  0.95446900  0.90249500  1
  O  O34  1  0.75000000  0.45446900  0.59750500  1
  O  O35  1  0.75000000  0.04553100  0.09750500  1
  O  O36  1  0.25000000  0.77138000  0.31875900  1
  O  O37  1  0.25000000  0.72862000  0.81875900  1
  O  O38  1  0.75000000  0.22862000  0.68124100  1
  O  O39  1  0.75000000  0.27138000  0.18124100  1
  O  O40  1  0.03308300  0.15234300  0.51886200  1
  O  O41  1  0.46691700  0.34765600  0.01886200  1
  O  O42  1  0.53308300  0.84765700  0.48113800  1
  O  O43  1  0.96691700  0.65234300  0.98113800  1
  O  O44  1  0.96691700  0.84765700  0.48113800  1
  O  O45  1  0.53308300  0.65234300  0.98113800  1
  O  O46  1  0.46691700  0.15234300  0.51886200  1
  O  O47  1  0.03308300  0.34765600  0.01886200  1
  O  O48  1  0.51961800  0.43794300  0.73091500  1
  O  O49  1  0.98038200  0.06205700  0.23091500  1
  O  O50  1  0.01961800  0.56205700  0.26908500  1
  O  O51  1  0.48038200  0.93794300  0.76908500  1
  O  O52  1  0.48038200  0.56205700  0.26908500  1
  O  O53  1  0.01961800  0.93794300  0.76908500  1
  O  O54  1  0.98038200  0.43794300  0.73091500  1
  O  O55  1  0.51961800  0.06205700  0.23091500  1
  O  O56  1  0.25000000  0.75807000  0.18786100  1
  O  O57  1  0.25000000  0.74193000  0.68786100  1
  O  O58  1  0.75000000  0.24193000  0.81213900  1
  O  O59  1  0.75000000  0.25807000  0.31213900  1
