# generated using pymatgen
data_Zn2P2O11F2
_symmetry_space_group_name_H-M   'P 1'
_cell_length_a   7.57879900
_cell_length_b   8.37441618
_cell_length_c   9.67746887
_cell_angle_alpha   85.17922565
_cell_angle_beta   81.65631804
_cell_angle_gamma   88.07925972
_symmetry_Int_Tables_number   1
_chemical_formula_structural   Zn2P2O11F2
_chemical_formula_sum   'Zn4 P4 O22 F4'
_cell_volume   605.41719459
_cell_formula_units_Z   2
loop_
 _symmetry_equiv_pos_site_id
 _symmetry_equiv_pos_as_xyz
  1  'x, y, z'
loop_
 _atom_site_type_symbol
 _atom_site_label
 _atom_site_symmetry_multiplicity
 _atom_site_fract_x
 _atom_site_fract_y
 _atom_site_fract_z
 _atom_site_occupancy
  Zn  Zn0  1  0.00000000  0.50000000  0.00000000  1
  Zn  Zn1  1  0.50000000  0.00000000  0.50000000  1
  Zn  Zn2  1  0.49962100  0.50614900  0.74621000  1
  Zn  Zn3  1  0.50037900  0.49385100  0.25379000  1
  P  P4  1  0.64701500  0.29868400  0.99623000  1
  P  P5  1  0.35298500  0.70131600  0.00377000  1
  P  P6  1  0.28163300  0.34699900  0.53746200  1
  P  P7  1  0.71836700  0.65300100  0.46253800  1
  O  O8  1  0.52103500  0.32779200  0.88820200  1
  O  O9  1  0.47896500  0.67220800  0.11179800  1
  O  O10  1  0.81525500  0.40161400  0.95004100  1
  O  O11  1  0.18474500  0.59838600  0.04995900  1
  O  O12  1  0.56707700  0.30325700  0.14863300  1
  O  O13  1  0.43292300  0.69674300  0.85136700  1
  O  O14  1  0.39854100  0.19381700  0.55745700  1
  O  O15  1  0.60145900  0.80618300  0.44254300  1
  O  O16  1  0.29797300  0.42211600  0.38831800  1
  O  O17  1  0.70202700  0.57788400  0.61168200  1
  O  O18  1  0.29895200  0.45980700  0.64966100  1
  O  O19  1  0.70104800  0.54019300  0.35033900  1
  O  O20  1  0.94206600  0.02809800  0.70910700  1
  O  O21  1  0.05793400  0.97190200  0.29089300  1
  O  O22  1  0.79463700  0.07218100  0.67091900  1
  O  O23  1  0.20536300  0.92781900  0.32908100  1
  O  O24  1  0.90908300  0.74993600  0.86331100  1
  O  O25  1  0.09091700  0.25006400  0.13668900  1
  O  O26  1  0.77396100  0.04232500  0.54163700  1
  O  O27  1  0.22603900  0.95767500  0.45836300  1
  O  O28  1  0.16396500  0.18017000  0.03513800  1
  O  O29  1  0.83603500  0.81983000  0.96486200  1
  F  F30  1  0.71849800  0.12008200  0.98492400  1
  F  F31  1  0.28150200  0.87991800  0.01507600  1
  F  F32  1  0.08166400  0.29023700  0.56898800  1
  F  F33  1  0.91833600  0.70976300  0.43101200  1
