# generated using pymatgen
data_SiO2
_symmetry_space_group_name_H-M   'P 1'
_cell_length_a   14.46783394
_cell_length_b   14.46776840
_cell_length_c   25.35405150
_cell_angle_alpha   89.99986809
_cell_angle_beta   90.00026384
_cell_angle_gamma   120.00015110
_symmetry_Int_Tables_number   1
_chemical_formula_structural   SiO2
_chemical_formula_sum   'Si72 O144'
_cell_volume   4596.02520798
_cell_formula_units_Z   72
loop_
 _symmetry_equiv_pos_site_id
 _symmetry_equiv_pos_as_xyz
  1  'x, y, z'
loop_
 _atom_site_type_symbol
 _atom_site_label
 _atom_site_symmetry_multiplicity
 _atom_site_fract_x
 _atom_site_fract_y
 _atom_site_fract_z
 _atom_site_occupancy
  Si  Si0  1  0.66667347  0.33332458  0.06290139  1
  Si  Si1  1  0.33334888  0.66667542  0.06290139  1
  Si  Si2  1  0.33333489  0.66667515  0.93709900  1
  Si  Si3  1  0.66665974  0.33332485  0.93709900  1
  Si  Si4  1  0.46875158  0.23437424  0.13580093  1
  Si  Si5  1  0.76562698  0.53124850  0.13580059  1
  Si  Si6  1  0.76563493  0.23436662  0.13580003  1
  Si  Si7  1  0.23437734  0.76562576  0.13580093  1
  Si  Si8  1  0.23437848  0.46875150  0.13580059  1
  Si  Si9  1  0.53126831  0.76563338  0.13580003  1
  Si  Si10  1  0.53125184  0.76562805  0.86419597  1
  Si  Si11  1  0.23437287  0.46875115  0.86419942  1
  Si  Si12  1  0.23436688  0.76563170  0.86420308  1
  Si  Si13  1  0.76562379  0.23437195  0.86419597  1
  Si  Si14  1  0.76562172  0.53124885  0.86419942  1
  Si  Si15  1  0.46873518  0.23436830  0.86420308  1
  Si  Si16  1  0.39020564  0.00000000  0.16081076  1
  Si  Si17  1  0.60979746  0.60979548  0.16081130  1
  Si  Si18  1  0.00000198  0.39020452  0.16081130  1
  Si  Si19  1  0.60979744  1.00000000  0.16081151  1
  Si  Si20  1  0.39020529  0.39020436  0.16081089  1
  Si  Si21  1  0.00000092  0.60979564  0.16081089  1
  Si  Si22  1  0.60979387  1.00000000  0.83918837  1
  Si  Si23  1  0.39020249  0.39020369  0.83918885  1
  Si  Si24  1  -0.00000120  0.60979631  0.83918885  1
  Si  Si25  1  0.39020228  0.00000000  0.83918918  1
  Si  Si26  1  0.60979533  0.60979529  0.83918835  1
  Si  Si27  1  0.00000005  0.39020471  0.83918835  1
  Si  Si28  1  0.66667551  0.33332413  0.21076302  1
  Si  Si29  1  0.33335137  0.66667587  0.21076302  1
  Si  Si30  1  0.33332407  0.66667536  0.78923664  1
  Si  Si31  1  0.66664871  0.33332464  0.78923664  1
  Si  Si32  1  0.66667450  0.33332453  0.33937038  1
  Si  Si33  1  0.33334997  0.66667547  0.33937038  1
  Si  Si34  1  0.33332524  0.66667555  0.66062939  1
  Si  Si35  1  0.66664969  0.33332445  0.66062939  1
  Si  Si36  1  0.39016486  0.00000000  0.28761148  1
  Si  Si37  1  0.60983698  0.60983759  0.28761151  1
  Si  Si38  1  -0.00000061  0.39016241  0.28761151  1
  Si  Si39  1  0.60983770  1.00000000  0.28761140  1
  Si  Si40  1  0.39016404  0.39016403  0.28761118  1
  Si  Si41  1  0.00000001  0.60983597  0.28761118  1
  Si  Si42  1  0.60983503  1.00000000  0.71238841  1
  Si  Si43  1  0.39016315  0.39016213  0.71238843  1
  Si  Si44  1  0.00000101  0.60983787  0.71238843  1
  Si  Si45  1  0.39016224  0.00000000  0.71238902  1
  Si  Si46  1  0.60983617  0.60983600  0.71238826  1
  Si  Si47  1  0.00000016  0.39016400  0.71238826  1
  Si  Si48  1  0.42127822  0.21063858  0.34583787  1
  Si  Si49  1  0.78936210  0.57872276  0.34583736  1
  Si  Si50  1  0.78936533  0.21063494  0.34583827  1
  Si  Si51  1  0.21063964  0.78936142  0.34583787  1
  Si  Si52  1  0.21063934  0.42127724  0.34583736  1
  Si  Si53  1  0.57873038  0.78936506  0.34583827  1
  Si  Si54  1  0.57872161  0.78936132  0.65416190  1
  Si  Si55  1  0.21063786  0.42127733  0.65416274  1
  Si  Si56  1  0.21063507  0.78936498  0.65416184  1
  Si  Si57  1  0.78936029  0.21063868  0.65416190  1
  Si  Si58  1  0.78936053  0.57872267  0.65416274  1
  Si  Si59  1  0.42127009  0.21063502  0.65416184  1
  Si  Si60  1  0.25440240  0.12720173  0.43998012  1
  Si  Si61  1  0.87279912  0.74559752  0.43998088  1
  Si  Si62  1  0.87280077  0.12720096  0.43998263  1
  Si  Si63  1  0.12720067  0.87279827  0.43998012  1
  Si  Si64  1  0.12720159  0.25440248  0.43998088  1
  Si  Si65  1  0.74559981  0.87279904  0.43998263  1
  Si  Si66  1  0.74559808  0.87279873  0.56001970  1
  Si  Si67  1  0.12720043  0.25440242  0.56001927  1
  Si  Si68  1  0.12719915  0.87279858  0.56001757  1
  Si  Si69  1  0.87279935  0.12720127  0.56001970  1
  Si  Si70  1  0.87279801  0.74559758  0.56001927  1
  Si  Si71  1  0.25440057  0.12720142  0.56001757  1
  O  O72  1  0.66667787  0.33331186  -0.00000019  1
  O  O73  1  0.33336601  0.66668814  -0.00000019  1
  O  O74  1  0.54343862  0.27171396  0.08320356  1
  O  O75  1  0.72828611  0.45656144  0.08320264  1
  O  O76  1  0.72828955  0.27171116  0.08320234  1
  O  O77  1  0.27172466  0.72828604  0.08320356  1
  O  O78  1  0.27172468  0.54343856  0.08320264  1
  O  O79  1  0.45657839  0.72828884  0.08320234  1
  O  O80  1  0.45656559  0.72828862  0.91679194  1
  O  O81  1  0.27171257  0.54343859  0.91679713  1
  O  O82  1  0.27171213  0.72828634  0.91680195  1
  O  O83  1  0.72827697  0.27171138  0.91679194  1
  O  O84  1  0.72827399  0.45656141  0.91679713  1
  O  O85  1  0.54342579  0.27171366  0.91680195  1
  O  O86  1  0.39382708  0.10524502  0.13553606  1
  O  O87  1  0.71141922  0.60616775  0.13553674  1
  O  O88  1  0.89476521  0.28857911  0.13553546  1
  O  O89  1  0.28858206  0.89475498  0.13553606  1
  O  O90  1  0.10525147  0.39383225  0.13553674  1
  O  O91  1  0.60618610  0.71142089  0.13553546  1
  O  O92  1  0.60618374  0.89476106  0.13553534  1
  O  O93  1  0.28858167  0.39382639  0.13553597  1
  O  O94  1  0.10524894  0.71141773  0.13553682  1
  O  O95  1  0.71142267  0.10523894  0.13553534  1
  O  O96  1  0.89475529  0.60617361  0.13553597  1
  O  O97  1  0.39383121  0.28858227  0.13553682  1
  O  O98  1  0.60617392  0.89475509  0.86446305  1
  O  O99  1  0.28858096  0.39383300  0.86446394  1
  O  O100  1  0.10523614  0.71141979  0.86446554  1
  O  O101  1  0.71141882  0.10524491  0.86446305  1
  O  O102  1  0.89474796  0.60616700  0.86446394  1
  O  O103  1  0.39381635  0.28858021  0.86446554  1
  O  O104  1  0.39381918  0.10524075  0.86446560  1
  O  O105  1  0.71141821  0.60617378  0.86446394  1
  O  O106  1  0.89475204  0.28858194  0.86446284  1
  O  O107  1  0.28857843  0.89475925  0.86446560  1
  O  O108  1  0.10524443  0.39382622  0.86446394  1
  O  O109  1  0.60617010  0.71141806  0.86446284  1
  O  O110  1  0.54376507  0.27187621  0.18909389  1
  O  O111  1  0.72812406  0.45623566  0.18909354  1
  O  O112  1  0.72812714  0.27187267  0.18909207  1
  O  O113  1  0.27188886  0.72812379  0.18909389  1
  O  O114  1  0.27188839  0.54376434  0.18909354  1
  O  O115  1  0.45625447  0.72812733  0.18909207  1
  O  O116  1  0.45623633  0.72812447  0.81090413  1
  O  O117  1  0.27187675  0.54376458  0.81090624  1
  O  O118  1  0.27187331  0.72812648  0.81090953  1
  O  O119  1  0.72811186  0.27187553  0.81090413  1
  O  O120  1  0.72811217  0.45623542  0.81090624  1
  O  O121  1  0.54374682  0.27187352  0.81090953  1
  O  O122  1  0.66668893  0.33331086  0.27456629  1
  O  O123  1  0.33337807  0.66668914  0.27456629  1
  O  O124  1  0.33331013  0.66668917  0.72543438  1
  O  O125  1  0.66662096  0.33331083  0.72543438  1
  O  O126  1  0.37644679  0.00000000  0.22415930  1
  O  O127  1  0.62355520  0.62355498  0.22415908  1
  O  O128  1  0.00000022  0.37644502  0.22415908  1
  O  O129  1  0.62355421  1.00000000  0.22415958  1
  O  O130  1  0.37644510  0.37644496  0.22415932  1
  O  O131  1  0.00000014  0.62355504  0.22415932  1
  O  O132  1  0.62355346  1.00000000  0.77584033  1
  O  O133  1  0.37644515  0.37644511  0.77584124  1
  O  O134  1  0.00000004  0.62355489  0.77584124  1
  O  O135  1  0.37644551  0.00000000  0.77584078  1
  O  O136  1  0.62355414  0.62355430  0.77584120  1
  O  O137  1  0.99999984  0.37644570  0.77584120  1
  O  O138  1  0.49999914  0.00000000  0.14604308  1
  O  O139  1  0.49999929  0.50000023  0.14604274  1
  O  O140  1  0.99999906  0.49999977  0.14604274  1
  O  O141  1  0.50000217  1.00000000  0.85395694  1
  O  O142  1  0.50000092  0.49999997  0.85395724  1
  O  O143  1  0.00000095  0.50000003  0.85395724  1
  O  O144  1  0.49999845  0.00000000  0.30209728  1
  O  O145  1  0.49999884  0.49999962  0.30209730  1
  O  O146  1  0.99999922  0.50000038  0.30209730  1
  O  O147  1  0.50000112  1.00000000  0.69790342  1
  O  O148  1  0.50000097  0.50000016  0.69790281  1
  O  O149  1  0.00000081  0.49999984  0.69790281  1
  O  O150  1  0.39360831  0.10536704  0.31149869  1
  O  O151  1  0.71175985  0.60639027  0.31149924  1
  O  O152  1  0.89463402  0.28823949  0.31149821  1
  O  O153  1  0.28824127  0.89463296  0.31149869  1
  O  O154  1  0.10536958  0.39360973  0.31149924  1
  O  O155  1  0.60639453  0.71176051  0.31149821  1
  O  O156  1  0.60639371  0.89463290  0.31149832  1
  O  O157  1  0.28824061  0.39360719  0.31149799  1
  O  O158  1  0.10536863  0.71175825  0.31149900  1
  O  O159  1  0.71176081  0.10536710  0.31149832  1
  O  O160  1  0.89463342  0.60639281  0.31149799  1
  O  O161  1  0.39361038  0.28824175  0.31149900  1
  O  O162  1  0.60639170  0.89463324  0.68850140  1
  O  O163  1  0.28824029  0.39360994  0.68850059  1
  O  O164  1  0.10536527  0.71175993  0.68850203  1
  O  O165  1  0.71175847  0.10536676  0.68850140  1
  O  O166  1  0.89463035  0.60639006  0.68850059  1
  O  O167  1  0.39360535  0.28824007  0.68850203  1
  O  O168  1  0.39360611  0.10536671  0.68850167  1
  O  O169  1  0.71175967  0.60639285  0.68850139  1
  O  O170  1  0.89463155  0.28824190  0.68850096  1
  O  O171  1  0.28823940  0.89463329  0.68850167  1
  O  O172  1  0.10536682  0.39360715  0.68850139  1
  O  O173  1  0.60638964  0.71175810  0.68850096  1
  O  O174  1  0.54633603  0.27316370  0.36222824  1
  O  O175  1  0.72683692  0.45366456  0.36222830  1
  O  O176  1  0.72683742  0.27316288  0.36224001  1
  O  O177  1  0.27317233  0.72683630  0.36222824  1
  O  O178  1  0.27317237  0.54633544  0.36222830  1
  O  O179  1  0.45367455  0.72683712  0.36224001  1
  O  O180  1  0.45366491  0.72683667  0.63777180  1
  O  O181  1  0.27316288  0.54633475  0.63777166  1
  O  O182  1  0.27316284  0.72683726  0.63776007  1
  O  O183  1  0.72682824  0.27316333  0.63777180  1
  O  O184  1  0.72682813  0.45366525  0.63777166  1
  O  O185  1  0.54632557  0.27316274  0.63776007  1
  O  O186  1  0.35480823  0.17740540  0.40030642  1
  O  O187  1  0.82259638  0.64519245  0.40030613  1
  O  O188  1  0.82260144  0.17739891  0.40030698  1
  O  O189  1  0.17740283  0.82259460  0.40030642  1
  O  O190  1  0.17740393  0.35480755  0.40030613  1
  O  O191  1  0.64520253  0.82260109  0.40030698  1
  O  O192  1  0.64519171  0.82259503  0.59969408  1
  O  O193  1  0.17740426  0.35480761  0.59969399  1
  O  O194  1  0.17739816  0.82260131  0.59969307  1
  O  O195  1  0.82259668  0.17740497  0.59969408  1
  O  O196  1  0.82259665  0.64519239  0.59969399  1
  O  O197  1  0.35479685  0.17739869  0.59969307  1
  O  O198  1  0.18127870  1.00000000  0.42974451  1
  O  O199  1  0.81872349  0.81872073  0.42974416  1
  O  O200  1  0.00000276  0.18127927  0.42974416  1
  O  O201  1  0.81872371  0.00000000  0.42974408  1
  O  O202  1  0.18127903  0.18127834  0.42974405  1
  O  O203  1  0.00000069  0.81872166  0.42974405  1
  O  O204  1  0.81872146  0.00000000  0.57025605  1
  O  O205  1  0.18127685  0.18127907  0.57025535  1
  O  O206  1  0.99999779  0.81872093  0.57025535  1
  O  O207  1  0.18127641  1.00000000  0.57025507  1
  O  O208  1  0.81872130  0.81872150  0.57025557  1
  O  O209  1  -0.00000020  0.18127850  0.57025557  1
  O  O210  1  0.30109721  0.15054933  0.49999941  1
  O  O211  1  0.84945104  0.69890241  0.50000004  1
  O  O212  1  0.84945213  0.15054943  0.50000052  1
  O  O213  1  0.15054787  0.84945067  0.49999941  1
  O  O214  1  0.15054863  0.30109759  0.50000004  1
  O  O215  1  0.69890270  0.84945057  0.50000052  1
