# generated using pymatgen
data_Zn3Cu2H14(SO9)2
_symmetry_space_group_name_H-M   'P 1'
_cell_length_a   5.45329500
_cell_length_b   6.44288485
_cell_length_c   10.63009803
_cell_angle_alpha   94.52206595
_cell_angle_beta   90.23267973
_cell_angle_gamma   90.34947443
_symmetry_Int_Tables_number   1
_chemical_formula_structural   Zn3Cu2H14(SO9)2
_chemical_formula_sum   'Zn3 Cu2 H14 S2 O18'
_cell_volume   372.31453878
_cell_formula_units_Z   1
loop_
 _symmetry_equiv_pos_site_id
 _symmetry_equiv_pos_as_xyz
  1  'x, y, z'
loop_
 _atom_site_type_symbol
 _atom_site_label
 _atom_site_symmetry_multiplicity
 _atom_site_fract_x
 _atom_site_fract_y
 _atom_site_fract_z
 _atom_site_occupancy
  Zn  Zn0  1  0.00000000  0.00000000  0.00000000  1
  Zn  Zn1  1  0.49178200  0.74977100  0.49962500  1
  Zn  Zn2  1  0.50821800  0.25022900  0.50037500  1
  Cu  Cu3  1  0.00000000  0.00000000  0.50000000  1
  Cu  Cu4  1  0.00000000  0.50000000  0.50000000  1
  H  H5  1  0.77853600  0.34516600  0.06964500  1
  H  H6  1  0.22146400  0.65483400  0.93035500  1
  H  H7  1  0.64517100  0.26855800  0.93725700  1
  H  H8  1  0.35482900  0.73144200  0.06274300  1
  H  H9  1  0.80184200  0.67261600  0.85663000  1
  H  H10  1  0.19815800  0.32738400  0.14337000  1
  H  H11  1  0.57942600  0.80980400  0.91031300  1
  H  H12  1  0.42057400  0.19019600  0.08968700  1
  H  H13  1  0.88201200  0.22274000  0.32359500  1
  H  H14  1  0.11798800  0.77726000  0.67640500  1
  H  H15  1  0.30544500  0.99383500  0.32011800  1
  H  H16  1  0.69455500  0.00616500  0.67988200  1
  H  H17  1  0.31075000  0.49151900  0.32273900  1
  H  H18  1  0.68925000  0.50848100  0.67726100  1
  S  S19  1  0.22721600  0.30021800  0.78085400  1
  S  S20  1  0.77278400  0.69978200  0.21914600  1
  O  O21  1  0.21087600  0.27417900  0.63926700  1
  O  O22  1  0.78912400  0.72582100  0.36073300  1
  O  O23  1  0.48707500  0.34556400  0.81774700  1
  O  O24  1  0.51292500  0.65443600  0.18225300  1
  O  O25  1  0.06944600  0.47783400  0.82839300  1
  O  O26  1  0.93055400  0.52216600  0.17160700  1
  O  O27  1  0.13979300  0.10192800  0.82910400  1
  O  O28  1  0.86020700  0.89807200  0.17089600  1
  O  O29  1  0.31893300  0.99848500  0.41177500  1
  O  O30  1  0.68106700  0.00151500  0.58822500  1
  O  O31  1  0.31661300  0.48280400  0.41377900  1
  O  O32  1  0.68338700  0.51719600  0.58622100  1
  O  O33  1  0.86120800  0.23679300  0.41483600  1
  O  O34  1  0.13879200  0.76320700  0.58516400  1
  O  O35  1  0.28917300  0.77964200  0.98143900  1
  O  O36  1  0.71082700  0.22035800  0.01856100  1
  O  O37  1  0.74879300  0.81707400  0.87581900  1
  O  O38  1  0.25120700  0.18292600  0.12418100  1
