# generated using pymatgen
data_H12C4Se3Br6N
_symmetry_space_group_name_H-M   'P 1'
_cell_length_a   13.25875524
_cell_length_b   17.44633101
_cell_length_c   17.54783753
_cell_angle_alpha   90.00000000
_cell_angle_beta   101.60264537
_cell_angle_gamma   90.00000000
_symmetry_Int_Tables_number   1
_chemical_formula_structural   H12C4Se3Br6N
_chemical_formula_sum   'H96 C32 Se24 Br48 N8'
_cell_volume   3976.16275843
_cell_formula_units_Z   8
loop_
 _symmetry_equiv_pos_site_id
 _symmetry_equiv_pos_as_xyz
  1  'x, y, z'
loop_
 _atom_site_type_symbol
 _atom_site_label
 _atom_site_symmetry_multiplicity
 _atom_site_fract_x
 _atom_site_fract_y
 _atom_site_fract_z
 _atom_site_occupancy
  H  H0  1  0.41786470  0.20623022  0.55141807  1
  H  H1  1  0.58213530  0.70623022  0.94858193  1
  H  H2  1  0.58213530  0.79376978  0.44858193  1
  H  H3  1  0.41786470  0.29376978  0.05141807  1
  H  H4  1  0.52461694  0.16862381  0.51410421  1
  H  H5  1  0.47538306  0.66862381  0.98589579  1
  H  H6  1  0.47538306  0.83137619  0.48589579  1
  H  H7  1  0.52461694  0.33137619  0.01410421  1
  H  H8  1  0.49326089  0.12886364  0.60080643  1
  H  H9  1  0.50673911  0.62886364  0.89919357  1
  H  H10  1  0.50673911  0.87113636  0.39919357  1
  H  H11  1  0.49326089  0.37113636  0.10080643  1
  H  H12  1  0.48790924  0.33488417  0.55444702  1
  H  H13  1  0.51209076  0.83488417  0.94555298  1
  H  H14  1  0.51209076  0.66511583  0.44555298  1
  H  H15  1  0.48790924  0.16511583  0.05444702  1
  H  H16  1  0.61654263  0.35337162  0.60635140  1
  H  H17  1  0.38345737  0.85337162  0.89364860  1
  H  H18  1  0.38345737  0.64662838  0.39364860  1
  H  H19  1  0.61654263  0.14662838  0.10635140  1
  H  H20  1  0.59561745  0.29966057  0.51727509  1
  H  H21  1  0.40438255  0.79966057  0.98272491  1
  H  H22  1  0.40438255  0.70033943  0.48272491  1
  H  H23  1  0.59561745  0.20033943  0.01727509  1
  H  H24  1  0.44632296  0.27503579  0.67297898  1
  H  H25  1  0.55367704  0.77503579  0.82702102  1
  H  H26  1  0.55367704  0.72496421  0.32702102  1
  H  H27  1  0.44632296  0.22496421  0.17297898  1
  H  H28  1  0.53024080  0.20219469  0.72304988  1
  H  H29  1  0.46975920  0.70219469  0.77695012  1
  H  H30  1  0.46975920  0.79780531  0.27695012  1
  H  H31  1  0.53024080  0.29780531  0.22304988  1
  H  H32  1  0.57428135  0.29935684  0.72197326  1
  H  H33  1  0.42571865  0.79935684  0.77802674  1
  H  H34  1  0.42571865  0.70064316  0.27802674  1
  H  H35  1  0.57428135  0.20064316  0.22197326  1
  H  H36  1  0.72118787  0.24753789  0.67339344  1
  H  H37  1  0.27881213  0.74753789  0.82660656  1
  H  H38  1  0.27881213  0.75246211  0.32660656  1
  H  H39  1  0.72118787  0.25246211  0.17339344  1
  H  H40  1  0.66948806  0.15201294  0.66718122  1
  H  H41  1  0.33051194  0.65201294  0.83281878  1
  H  H42  1  0.33051194  0.84798706  0.33281878  1
  H  H43  1  0.66948806  0.34798706  0.16718122  1
  H  H44  1  0.70055309  0.19636870  0.58257865  1
  H  H45  1  0.29944691  0.69636870  0.91742135  1
  H  H46  1  0.29944691  0.80363130  0.41742135  1
  H  H47  1  0.70055309  0.30363130  0.08257865  1
  H  H48  1  0.18111588  0.26758198  0.41792763  1
  H  H49  1  0.81888412  0.76758198  0.08207237  1
  H  H50  1  0.81888412  0.73241802  0.58207237  1
  H  H51  1  0.18111588  0.23241802  0.91792763  1
  H  H52  1  0.12324997  0.22803179  0.49338348  1
  H  H53  1  0.87675003  0.72803179  0.00661652  1
  H  H54  1  0.87675003  0.77196821  0.50661652  1
  H  H55  1  0.12324997  0.27196821  0.99338348  1
  H  H56  1  0.21940119  0.17462712  0.45706685  1
  H  H57  1  0.78059881  0.67462712  0.04293315  1
  H  H58  1  0.78059881  0.82537288  0.54293315  1
  H  H59  1  0.21940119  0.32537288  0.95706685  1
  H  H60  1  0.14832589  0.21434616  0.29158435  1
  H  H61  1  0.85167411  0.71434616  0.20841565  1
  H  H62  1  0.85167411  0.78565384  0.70841565  1
  H  H63  1  0.14832589  0.28565384  0.79158435  1
  H  H64  1  0.17376196  0.11708952  0.32290420  1
  H  H65  1  0.82623804  0.61708952  0.17709580  1
  H  H66  1  0.82623804  0.88291048  0.67709580  1
  H  H67  1  0.17376196  0.38291048  0.82290420  1
  H  H68  1  0.05153965  0.14192278  0.26364405  1
  H  H69  1  0.94846035  0.64192278  0.23635595  1
  H  H70  1  0.94846035  0.85807722  0.73635595  1
  H  H71  1  0.05153965  0.35807722  0.76364405  1
  H  H72  1  0.00882028  0.28539883  0.33711566  1
  H  H73  1  0.99117972  0.78539883  0.16288434  1
  H  H74  1  0.99117972  0.71460117  0.66288434  1
  H  H75  1  0.00882028  0.21460117  0.83711566  1
  H  H76  1  0.92347498  0.20458656  0.31720653  1
  H  H77  1  0.07652502  0.70458656  0.18279347  1
  H  H78  1  0.07652502  0.79541344  0.68279347  1
  H  H79  1  0.92347498  0.29541344  0.81720653  1
  H  H80  1  0.95275742  0.24491808  0.41315489  1
  H  H81  1  0.04724258  0.74491808  0.08684511  1
  H  H82  1  0.04724258  0.75508192  0.58684511  1
  H  H83  1  0.95275742  0.25508192  0.91315489  1
  H  H84  1  0.97250207  0.08182233  0.37200962  1
  H  H85  1  0.02749793  0.58182233  0.12799038  1
  H  H86  1  0.02749793  0.91817767  0.62799038  1
  H  H87  1  0.97250207  0.41817767  0.87200962  1
  H  H88  1  0.10222046  0.06422631  0.42250710  1
  H  H89  1  0.89777954  0.56422631  0.07749290  1
  H  H90  1  0.89777954  0.93577369  0.57749290  1
  H  H91  1  0.10222046  0.43577369  0.92250710  1
  H  H92  1  0.01579936  0.11785179  0.46916180  1
  H  H93  1  0.98420064  0.61785179  0.03083820  1
  H  H94  1  0.98420064  0.88214821  0.53083820  1
  H  H95  1  0.01579936  0.38214821  0.96916180  1
  C  C96  1  0.49496084  0.18142957  0.56677613  1
  C  C97  1  0.50503916  0.68142957  0.93322387  1
  C  C98  1  0.50503916  0.81857043  0.43322387  1
  C  C99  1  0.49496084  0.31857043  0.06677613  1
  C  C100  1  0.56654339  0.31195841  0.57014478  1
  C  C101  1  0.43345661  0.81195841  0.92985522  1
  C  C102  1  0.43345661  0.68804159  0.42985522  1
  C  C103  1  0.56654339  0.18804159  0.07014478  1
  C  C104  1  0.52614535  0.25505255  0.68866161  1
  C  C105  1  0.47385465  0.75505255  0.81133839  1
  C  C106  1  0.47385465  0.74494745  0.31133839  1
  C  C107  1  0.52614535  0.24494745  0.18866161  1
  C  C108  1  0.67188596  0.20613597  0.63617644  1
  C  C109  1  0.32811404  0.70613597  0.86382356  1
  C  C110  1  0.32811404  0.79386403  0.36382356  1
  C  C111  1  0.67188596  0.29386403  0.13617644  1
  C  C112  1  0.15508900  0.21499357  0.44187098  1
  C  C113  1  0.84491100  0.71499357  0.05812902  1
  C  C114  1  0.84491100  0.78500643  0.55812902  1
  C  C115  1  0.15508900  0.28500643  0.94187098  1
  C  C116  1  0.11487960  0.16161517  0.30970086  1
  C  C117  1  0.88512040  0.66161517  0.19029914  1
  C  C118  1  0.88512040  0.83838483  0.69029914  1
  C  C119  1  0.11487960  0.33838483  0.80970086  1
  C  C120  1  0.98288598  0.23230668  0.36070228  1
  C  C121  1  0.01711402  0.73230668  0.13929772  1
  C  C122  1  0.01711402  0.76769332  0.63929772  1
  C  C123  1  0.98288598  0.26769332  0.86070228  1
  C  C124  1  0.03829417  0.10512378  0.41372798  1
  C  C125  1  0.96170583  0.60512378  0.08627202  1
  C  C126  1  0.96170583  0.89487622  0.58627202  1
  C  C127  1  0.03829417  0.39487622  0.91372798  1
  Se  Se128  1  0.96759419  0.06353949  0.08605310  1
  Se  Se129  1  0.03240581  0.56353949  0.41394690  1
  Se  Se130  1  0.03240581  0.93646051  0.91394690  1
  Se  Se131  1  0.96759419  0.43646051  0.58605310  1
  Se  Se132  1  0.11709689  0.06768384  0.04025286  1
  Se  Se133  1  0.88290311  0.56768384  0.45974714  1
  Se  Se134  1  0.88290311  0.93231616  0.95974714  1
  Se  Se135  1  0.11709689  0.43231616  0.54025286  1
  Se  Se136  1  0.68428789  0.92172614  0.17910963  1
  Se  Se137  1  0.31571211  0.42172614  0.32089037  1
  Se  Se138  1  0.31571211  0.07827386  0.82089037  1
  Se  Se139  1  0.68428789  0.57827386  0.67910963  1
  Se  Se140  1  0.71927183  0.04154730  0.37066395  1
  Se  Se141  1  0.28072817  0.54154730  0.12933605  1
  Se  Se142  1  0.28072817  0.95845270  0.62933605  1
  Se  Se143  1  0.71927183  0.45845270  0.87066395  1
  Se  Se144  1  0.95597872  0.91212402  0.29487229  1
  Se  Se145  1  0.04402128  0.41212402  0.20512771  1
  Se  Se146  1  0.04402128  0.08787598  0.70512771  1
  Se  Se147  1  0.95597872  0.58787598  0.79487229  1
  Se  Se148  1  0.52774374  0.99508668  0.25307764  1
  Se  Se149  1  0.47225626  0.49508668  0.24692236  1
  Se  Se150  1  0.47225626  0.00491332  0.74692236  1
  Se  Se151  1  0.52774374  0.50491332  0.75307764  1
  Br  Br152  1  0.85305291  0.15642400  0.00956489  1
  Br  Br153  1  0.14694709  0.65642400  0.49043511  1
  Br  Br154  1  0.14694709  0.84357600  0.99043511  1
  Br  Br155  1  0.85305291  0.34357600  0.50956489  1
  Br  Br156  1  0.21742841  0.16388345  0.12128189  1
  Br  Br157  1  0.78257159  0.66388345  0.37871811  1
  Br  Br158  1  0.78257159  0.83611655  0.87871811  1
  Br  Br159  1  0.21742841  0.33611655  0.62128189  1
  Br  Br160  1  0.64773776  0.96410356  0.04546057  1
  Br  Br161  1  0.35226224  0.46410356  0.45453943  1
  Br  Br162  1  0.35226224  0.03589644  0.95453943  1
  Br  Br163  1  0.64773776  0.53589644  0.54546057  1
  Br  Br164  1  0.61368441  0.79265814  0.15347921  1
  Br  Br165  1  0.38631559  0.29265814  0.34652079  1
  Br  Br166  1  0.38631559  0.20734186  0.84652079  1
  Br  Br167  1  0.61368441  0.70734186  0.65347921  1
  Br  Br168  1  0.79663968  0.05731613  0.22869356  1
  Br  Br169  1  0.20336032  0.55731613  0.27130644  1
  Br  Br170  1  0.20336032  0.94268387  0.77130644  1
  Br  Br171  1  0.79663968  0.44268387  0.72869356  1
  Br  Br172  1  0.76718057  0.88830912  0.34365126  1
  Br  Br173  1  0.23281943  0.38830912  0.15634874  1
  Br  Br174  1  0.23281943  0.11169088  0.65634874  1
  Br  Br175  1  0.76718057  0.61169088  0.84365126  1
  Br  Br176  1  0.67215717  0.00650988  0.49338955  1
  Br  Br177  1  0.32784283  0.50650988  0.00661045  1
  Br  Br178  1  0.32784283  0.99349012  0.50661045  1
  Br  Br179  1  0.67215717  0.49349012  0.99338955  1
  Br  Br180  1  0.69657956  0.18110017  0.38719402  1
  Br  Br181  1  0.30342044  0.68110017  0.11280598  1
  Br  Br182  1  0.30342044  0.81889983  0.61280598  1
  Br  Br183  1  0.69657956  0.31889983  0.88719402  1
  Br  Br184  1  0.04074595  0.81009640  0.37305738  1
  Br  Br185  1  0.95925405  0.31009640  0.12694262  1
  Br  Br186  1  0.95925405  0.18990360  0.62694262  1
  Br  Br187  1  0.04074595  0.68990360  0.87305738  1
  Br  Br188  1  0.09958072  0.94599292  0.23149128  1
  Br  Br189  1  0.90041928  0.44599292  0.26850872  1
  Br  Br190  1  0.90041928  0.05400708  0.76850872  1
  Br  Br191  1  0.09958072  0.55400708  0.73149128  1
  Br  Br192  1  0.41723758  0.06452818  0.32883821  1
  Br  Br193  1  0.58276242  0.56452818  0.17116179  1
  Br  Br194  1  0.58276242  0.93547182  0.67116179  1
  Br  Br195  1  0.41723758  0.43547182  0.82883821  1
  Br  Br196  1  0.38505535  0.94545801  0.15454512  1
  Br  Br197  1  0.61494465  0.44545801  0.34545488  1
  Br  Br198  1  0.61494465  0.05454199  0.84545488  1
  Br  Br199  1  0.38505535  0.55454199  0.65454512  1
  N  N200  1  0.56479088  0.23871795  0.61528025  1
  N  N201  1  0.43520912  0.73871795  0.88471975  1
  N  N202  1  0.43520912  0.76128205  0.38471975  1
  N  N203  1  0.56479088  0.26128205  0.11528025  1
  N  N204  1  0.07274815  0.17844104  0.38146427  1
  N  N205  1  0.92725185  0.67844104  0.11853573  1
  N  N206  1  0.92725185  0.82155896  0.61853573  1
  N  N207  1  0.07274815  0.32155896  0.88146427  1
