# generated using pymatgen
data_V2S3O14
_symmetry_space_group_name_H-M   'P 1'
_cell_length_a   9.02278700
_cell_length_b   9.02278700
_cell_length_c   15.49321400
_cell_angle_alpha   90.00000000
_cell_angle_beta   90.00000000
_cell_angle_gamma   90.00000000
_symmetry_Int_Tables_number   1
_chemical_formula_structural   V2S3O14
_chemical_formula_sum   'V8 S12 O56'
_cell_volume   1261.31316842
_cell_formula_units_Z   4
loop_
 _symmetry_equiv_pos_site_id
 _symmetry_equiv_pos_as_xyz
  1  'x, y, z'
loop_
 _atom_site_type_symbol
 _atom_site_label
 _atom_site_symmetry_multiplicity
 _atom_site_fract_x
 _atom_site_fract_y
 _atom_site_fract_z
 _atom_site_occupancy
  V  V0  1  0.25414600  0.74585400  0.29729200  1
  V  V1  1  0.74585400  0.25414600  0.29729200  1
  V  V2  1  0.24585400  0.24585400  0.79729200  1
  V  V3  1  0.75414600  0.75414600  0.79729200  1
  V  V4  1  0.74585400  0.25414600  0.70270800  1
  V  V5  1  0.25414600  0.74585400  0.70270800  1
  V  V6  1  0.75414600  0.75414600  0.20270800  1
  V  V7  1  0.24585400  0.24585400  0.20270800  1
  S  S8  1  0.00000000  0.50000000  0.25000000  1
  S  S9  1  0.50000000  0.00000000  0.75000000  1
  S  S10  1  0.00000000  0.50000000  0.75000000  1
  S  S11  1  0.50000000  0.00000000  0.25000000  1
  S  S12  1  0.50000000  0.50000000  0.24937400  1
  S  S13  1  0.00000000  0.00000000  0.74937400  1
  S  S14  1  0.50000000  0.50000000  0.75062600  1
  S  S15  1  0.00000000  0.00000000  0.25062600  1
  S  S16  1  0.17845000  0.82155000  0.50000000  1
  S  S17  1  0.82155000  0.17845000  0.50000000  1
  S  S18  1  0.32155000  0.32155000  0.00000000  1
  S  S19  1  0.67845000  0.67845000  0.00000000  1
  O  O20  1  0.25127700  0.74872300  0.19275900  1
  O  O21  1  0.74872300  0.25127700  0.19275900  1
  O  O22  1  0.24872300  0.24872300  0.69275900  1
  O  O23  1  0.75127700  0.75127700  0.69275900  1
  O  O24  1  0.74872300  0.25127700  0.80724100  1
  O  O25  1  0.25127700  0.74872300  0.80724100  1
  O  O26  1  0.75127700  0.75127700  0.30724100  1
  O  O27  1  0.24872300  0.24872300  0.30724100  1
  O  O28  1  0.25460300  0.74539700  0.42155300  1
  O  O29  1  0.74539700  0.25460300  0.42155300  1
  O  O30  1  0.24539700  0.24539700  0.92155300  1
  O  O31  1  0.75460300  0.75460300  0.92155300  1
  O  O32  1  0.74539700  0.25460300  0.57844700  1
  O  O33  1  0.25460300  0.74539700  0.57844700  1
  O  O34  1  0.75460300  0.75460300  0.07844700  1
  O  O35  1  0.24539700  0.24539700  0.07844700  1
  O  O36  1  0.40494500  0.90966900  0.30834300  1
  O  O37  1  0.59505500  0.09033100  0.30834300  1
  O  O38  1  0.09505500  0.40966900  0.80834300  1
  O  O39  1  0.90494500  0.59033100  0.80834300  1
  O  O40  1  0.59505500  0.09033100  0.69165700  1
  O  O41  1  0.40494500  0.90966900  0.69165700  1
  O  O42  1  0.90494500  0.59033100  0.19165700  1
  O  O43  1  0.09505500  0.40966900  0.19165700  1
  O  O44  1  0.90966900  0.40494500  0.30834300  1
  O  O45  1  0.09033100  0.59505500  0.30834300  1
  O  O46  1  0.40966900  0.09505500  0.80834300  1
  O  O47  1  0.59033100  0.90494500  0.80834300  1
  O  O48  1  0.09033100  0.59505500  0.69165700  1
  O  O49  1  0.90966900  0.40494500  0.69165700  1
  O  O50  1  0.59033100  0.90494500  0.19165700  1
  O  O51  1  0.40966900  0.09505500  0.19165700  1
  O  O52  1  0.40782000  0.59218000  0.30958100  1
  O  O53  1  0.59218000  0.40782000  0.30958100  1
  O  O54  1  0.09218000  0.09218000  0.80958100  1
  O  O55  1  0.90782000  0.90782000  0.80958100  1
  O  O56  1  0.59218000  0.40782000  0.69041900  1
  O  O57  1  0.40782000  0.59218000  0.69041900  1
  O  O58  1  0.90782000  0.90782000  0.19041900  1
  O  O59  1  0.09218000  0.09218000  0.19041900  1
  O  O60  1  0.09314300  0.90685700  0.30686900  1
  O  O61  1  0.90685700  0.09314300  0.30686900  1
  O  O62  1  0.40685700  0.40685700  0.80686900  1
  O  O63  1  0.59314300  0.59314300  0.80686900  1
  O  O64  1  0.90685700  0.09314300  0.69313100  1
  O  O65  1  0.09314300  0.90685700  0.69313100  1
  O  O66  1  0.59314300  0.59314300  0.19313100  1
  O  O67  1  0.40685700  0.40685700  0.19313100  1
  O  O68  1  0.02506700  0.77901600  0.50000000  1
  O  O69  1  0.97493300  0.22098400  0.50000000  1
  O  O70  1  0.47493300  0.27901600  0.00000000  1
  O  O71  1  0.52506700  0.72098400  0.00000000  1
  O  O72  1  0.77901600  0.02506700  0.50000000  1
  O  O73  1  0.22098400  0.97493300  0.50000000  1
  O  O74  1  0.27901600  0.47493300  0.00000000  1
  O  O75  1  0.72098400  0.52506700  0.00000000  1
