# generated using pymatgen
data_Yb9Mn4Bi9
_symmetry_space_group_name_H-M   'P 1'
_cell_length_a   12.38908000
_cell_length_b   22.25227600
_cell_length_c   4.76245100
_cell_angle_alpha   90.00000000
_cell_angle_beta   90.00000000
_cell_angle_gamma   90.00000000
_symmetry_Int_Tables_number   1
_chemical_formula_structural   Yb9Mn4Bi9
_chemical_formula_sum   'Yb18 Mn8 Bi18'
_cell_volume   1312.93738761
_cell_formula_units_Z   2
loop_
 _symmetry_equiv_pos_site_id
 _symmetry_equiv_pos_as_xyz
  1  'x, y, z'
loop_
 _atom_site_type_symbol
 _atom_site_label
 _atom_site_symmetry_multiplicity
 _atom_site_fract_x
 _atom_site_fract_y
 _atom_site_fract_z
 _atom_site_occupancy
  Yb  Yb0  1  0.50000000  0.50000000  0.50000000  1
  Yb  Yb1  1  0.00000000  0.00000000  0.50000000  1
  Yb  Yb2  1  0.63681400  0.36035900  0.00000000  1
  Yb  Yb3  1  0.36318600  0.63964100  0.00000000  1
  Yb  Yb4  1  0.86318600  0.86035900  0.00000000  1
  Yb  Yb5  1  0.13681400  0.13964100  0.00000000  1
  Yb  Yb6  1  0.93515500  0.40964200  0.00000000  1
  Yb  Yb7  1  0.06484500  0.59035800  0.00000000  1
  Yb  Yb8  1  0.56484500  0.90964200  0.00000000  1
  Yb  Yb9  1  0.43515500  0.09035800  0.00000000  1
  Yb  Yb10  1  0.88062400  0.23547800  0.00000000  1
  Yb  Yb11  1  0.11937600  0.76452200  0.00000000  1
  Yb  Yb12  1  0.61937600  0.73547800  0.00000000  1
  Yb  Yb13  1  0.38062400  0.26452200  0.00000000  1
  Yb  Yb14  1  0.71433600  0.10077900  0.50000000  1
  Yb  Yb15  1  0.28566400  0.89922100  0.50000000  1
  Yb  Yb16  1  0.78566400  0.60077900  0.50000000  1
  Yb  Yb17  1  0.21433600  0.39922100  0.50000000  1
  Mn  Mn18  1  0.77590000  0.45337700  0.50000000  1
  Mn  Mn19  1  0.22410000  0.54662300  0.50000000  1
  Mn  Mn20  1  0.72410000  0.95337700  0.50000000  1
  Mn  Mn21  1  0.27590000  0.04662300  0.50000000  1
  Mn  Mn22  1  0.61386300  0.25869700  0.50000000  1
  Mn  Mn23  1  0.38613700  0.74130300  0.50000000  1
  Mn  Mn24  1  0.88613700  0.75869700  0.50000000  1
  Mn  Mn25  1  0.11386300  0.24130300  0.50000000  1
  Bi  Bi26  1  0.00000000  0.50000000  0.50000000  1
  Bi  Bi27  1  0.50000000  0.00000000  0.50000000  1
  Bi  Bi28  1  0.80504100  0.00519400  0.00000000  1
  Bi  Bi29  1  0.19495900  0.99480600  0.00000000  1
  Bi  Bi30  1  0.69495900  0.50519400  0.00000000  1
  Bi  Bi31  1  0.30504100  0.49480600  0.00000000  1
  Bi  Bi32  1  0.62426800  0.19210100  0.00000000  1
  Bi  Bi33  1  0.37573200  0.80789900  0.00000000  1
  Bi  Bi34  1  0.87573200  0.69210100  0.00000000  1
  Bi  Bi35  1  0.12426800  0.30789900  0.00000000  1
  Bi  Bi36  1  0.96116000  0.14727300  0.50000000  1
  Bi  Bi37  1  0.03884000  0.85272700  0.50000000  1
  Bi  Bi38  1  0.53884000  0.64727300  0.50000000  1
  Bi  Bi39  1  0.46116000  0.35272700  0.50000000  1
  Bi  Bi40  1  0.81503600  0.32936200  0.50000000  1
  Bi  Bi41  1  0.18496400  0.67063800  0.50000000  1
  Bi  Bi42  1  0.68496400  0.82936200  0.50000000  1
  Bi  Bi43  1  0.31503600  0.17063800  0.50000000  1
