# generated using pymatgen
data_Cu3MoH24C8S3I3N2O
_symmetry_space_group_name_H-M   'P 1'
_cell_length_a   10.01401138
_cell_length_b   15.09567601
_cell_length_c   19.03246343
_cell_angle_alpha   102.54583951
_cell_angle_beta   90.00000000
_cell_angle_gamma   90.00000000
_symmetry_Int_Tables_number   1
_chemical_formula_structural   Cu3MoH24C8S3I3N2O
_chemical_formula_sum   'Cu12 Mo4 H96 C32 S12 I12 N8 O4'
_cell_volume   2808.40662327
_cell_formula_units_Z   4
loop_
 _symmetry_equiv_pos_site_id
 _symmetry_equiv_pos_as_xyz
  1  'x, y, z'
loop_
 _atom_site_type_symbol
 _atom_site_label
 _atom_site_symmetry_multiplicity
 _atom_site_fract_x
 _atom_site_fract_y
 _atom_site_fract_z
 _atom_site_occupancy
  Cu  Cu0  1  0.69416160  0.94305815  0.28494363  1
  Cu  Cu1  1  0.19416160  0.55694185  0.71505637  1
  Cu  Cu2  1  0.30583840  0.05694185  0.71505637  1
  Cu  Cu3  1  0.80583840  0.44305815  0.28494363  1
  Cu  Cu4  1  0.67362603  0.77848896  0.11652206  1
  Cu  Cu5  1  0.17362603  0.72151104  0.88347794  1
  Cu  Cu6  1  0.32637397  0.22151104  0.88347794  1
  Cu  Cu7  1  0.82637397  0.27848896  0.11652206  1
  Cu  Cu8  1  0.69165636  0.70153529  0.28399606  1
  Cu  Cu9  1  0.19165636  0.79846471  0.71600394  1
  Cu  Cu10  1  0.30834364  0.29846471  0.71600394  1
  Cu  Cu11  1  0.80834364  0.20153529  0.28399606  1
  Mo  Mo12  1  0.85162608  0.80524315  0.22333522  1
  Mo  Mo13  1  0.35162608  0.69475685  0.77666478  1
  Mo  Mo14  1  0.14837392  0.19475685  0.77666478  1
  Mo  Mo15  1  0.64837392  0.30524315  0.22333522  1
  H  H16  1  0.06984498  0.98649906  0.13441152  1
  H  H17  1  0.56984498  0.51350094  0.86558848  1
  H  H18  1  0.93015502  0.01350094  0.86558848  1
  H  H19  1  0.43015502  0.48649906  0.13441152  1
  H  H20  1  0.19887649  0.90242226  0.12562305  1
  H  H21  1  0.69887649  0.59757774  0.87437695  1
  H  H22  1  0.80112351  0.09757774  0.87437695  1
  H  H23  1  0.30112351  0.40242226  0.12562305  1
  H  H24  1  0.18667642  0.99102471  0.20616261  1
  H  H25  1  0.68667642  0.50897529  0.79383739  1
  H  H26  1  0.81332358  0.00897529  0.79383739  1
  H  H27  1  0.31332358  0.49102471  0.20616261  1
  H  H28  1  0.46944115  0.05573287  0.10171850  1
  H  H29  1  0.96944115  0.44426713  0.89828150  1
  H  H30  1  0.53055885  0.94426713  0.89828150  1
  H  H31  1  0.03055885  0.55573287  0.10171850  1
  H  H32  1  0.42563417  0.02838374  0.18582566  1
  H  H33  1  0.92563417  0.47161626  0.81417434  1
  H  H34  1  0.57436583  0.97161626  0.81417434  1
  H  H35  1  0.07436583  0.52838374  0.18582566  1
  H  H36  1  0.42615392  0.94045708  0.10441198  1
  H  H37  1  0.92615392  0.55954292  0.89558802  1
  H  H38  1  0.57384608  0.05954292  0.89558802  1
  H  H39  1  0.07384608  0.44045708  0.10441198  1
  H  H40  1  0.30231652  0.06044281  0.01198764  1
  H  H41  1  0.80231652  0.43955719  0.98801236  1
  H  H42  1  0.69768348  0.93955719  0.98801236  1
  H  H43  1  0.19768348  0.56044281  0.01198764  1
  H  H44  1  0.26735567  0.94337006  0.01279326  1
  H  H45  1  0.76735567  0.55662994  0.98720674  1
  H  H46  1  0.73264433  0.05662994  0.98720674  1
  H  H47  1  0.23264433  0.44337006  0.01279326  1
  H  H48  1  0.13447768  0.02538986  0.02482700  1
  H  H49  1  0.63447768  0.47461014  0.97517300  1
  H  H50  1  0.86552232  0.97461014  0.97517300  1
  H  H51  1  0.36552232  0.52538986  0.02482700  1
  H  H52  1  0.29728485  0.17373396  0.12226973  1
  H  H53  1  0.79728485  0.32626604  0.87773027  1
  H  H54  1  0.70271515  0.82626604  0.87773027  1
  H  H55  1  0.20271515  0.67373396  0.12226973  1
  H  H56  1  0.13061047  0.14495851  0.14585101  1
  H  H57  1  0.63061047  0.35504149  0.85414899  1
  H  H58  1  0.86938953  0.85504149  0.85414899  1
  H  H59  1  0.36938953  0.64495851  0.14585101  1
  H  H60  1  0.26847316  0.14043712  0.20578901  1
  H  H61  1  0.76847316  0.35956288  0.79421099  1
  H  H62  1  0.73152684  0.85956288  0.79421099  1
  H  H63  1  0.23152684  0.64043712  0.20578901  1
  H  H64  1  0.22021292  0.80098957  0.52032448  1
  H  H65  1  0.72021292  0.69901043  0.47967552  1
  H  H66  1  0.77978708  0.19901043  0.47967552  1
  H  H67  1  0.27978708  0.30098957  0.52032448  1
  H  H68  1  0.10744815  0.77620388  0.44508284  1
  H  H69  1  0.60744815  0.72379612  0.55491716  1
  H  H70  1  0.89255185  0.22379612  0.55491716  1
  H  H71  1  0.39255185  0.27620388  0.44508284  1
  H  H72  1  0.26654016  0.71986649  0.43940144  1
  H  H73  1  0.76654016  0.78013351  0.56059856  1
  H  H74  1  0.73345984  0.28013351  0.56059856  1
  H  H75  1  0.23345984  0.21986649  0.43940144  1
  H  H76  1  0.22019193  0.95668748  0.52404149  1
  H  H77  1  0.72019193  0.54331252  0.47595851  1
  H  H78  1  0.77980807  0.04331252  0.47595851  1
  H  H79  1  0.27980807  0.45668748  0.52404149  1
  H  H80  1  0.26380441  0.99993030  0.44576940  1
  H  H81  1  0.76380441  0.50006970  0.55423060  1
  H  H82  1  0.73619559  0.00006970  0.55423060  1
  H  H83  1  0.23619559  0.49993030  0.44576940  1
  H  H84  1  0.10605733  0.94445631  0.44938568  1
  H  H85  1  0.60605733  0.55554369  0.55061432  1
  H  H86  1  0.89394267  0.05554369  0.55061432  1
  H  H87  1  0.39394267  0.44445631  0.44938568  1
  H  H88  1  0.14927820  0.83477105  0.33849676  1
  H  H89  1  0.64927820  0.66522895  0.66150324  1
  H  H90  1  0.85072180  0.16522895  0.66150324  1
  H  H91  1  0.35072180  0.33477105  0.33849676  1
  H  H92  1  0.30432343  0.89261177  0.33119129  1
  H  H93  1  0.80432343  0.60738823  0.66880871  1
  H  H94  1  0.69567657  0.10738823  0.66880871  1
  H  H95  1  0.19567657  0.39261177  0.33119129  1
  H  H96  1  0.30447618  0.77294573  0.32878522  1
  H  H97  1  0.80447618  0.72705427  0.67121478  1
  H  H98  1  0.69552382  0.22705427  0.67121478  1
  H  H99  1  0.19552382  0.27294573  0.32878522  1
  H  H100  1  0.43464397  0.87649810  0.50637730  1
  H  H101  1  0.93464397  0.62350190  0.49362270  1
  H  H102  1  0.56535603  0.12350190  0.49362270  1
  H  H103  1  0.06535603  0.37649810  0.50637730  1
  H  H104  1  0.46530615  0.79547658  0.42256240  1
  H  H105  1  0.96530615  0.70452342  0.57743760  1
  H  H106  1  0.53469385  0.20452342  0.57743760  1
  H  H107  1  0.03469385  0.29547658  0.42256240  1
  H  H108  1  0.46527420  0.91510459  0.42432192  1
  H  H109  1  0.96527420  0.58489541  0.57567808  1
  H  H110  1  0.53472580  0.08489541  0.57567808  1
  H  H111  1  0.03472580  0.41510459  0.42432192  1
  C  C112  1  0.17355869  0.97352787  0.14777782  1
  C  C113  1  0.67355869  0.52647213  0.85222218  1
  C  C114  1  0.82644131  0.02647213  0.85222218  1
  C  C115  1  0.32644131  0.47352787  0.14777782  1
  C  C116  1  0.40715170  0.01248204  0.12769022  1
  C  C117  1  0.90715170  0.48751796  0.87230978  1
  C  C118  1  0.59284830  0.98751796  0.87230978  1
  C  C119  1  0.09284830  0.51248204  0.12769022  1
  C  C120  1  0.24014975  0.01426394  0.03500709  1
  C  C121  1  0.74014975  0.48573606  0.96499291  1
  C  C122  1  0.75985025  0.98573606  0.96499291  1
  C  C123  1  0.25985025  0.51426394  0.03500709  1
  C  C124  1  0.23759058  0.13061586  0.14949459  1
  C  C125  1  0.73759058  0.36938414  0.85050541  1
  C  C126  1  0.76240942  0.86938414  0.85050541  1
  C  C127  1  0.26240942  0.63061586  0.14949459  1
  C  C128  1  0.21251422  0.78292515  0.46157117  1
  C  C129  1  0.71251422  0.71707485  0.53842883  1
  C  C130  1  0.78748578  0.21707485  0.53842883  1
  C  C131  1  0.28748578  0.28292515  0.46157117  1
  C  C132  1  0.21130442  0.94642540  0.46550323  1
  C  C133  1  0.71130442  0.55357460  0.53449677  1
  C  C134  1  0.78869558  0.05357460  0.53449677  1
  C  C135  1  0.28869558  0.44642540  0.46550323  1
  C  C136  1  0.25603416  0.83793914  0.35137701  1
  C  C137  1  0.75603416  0.66206086  0.64862299  1
  C  C138  1  0.74396584  0.16206086  0.64862299  1
  C  C139  1  0.24396584  0.33793914  0.35137701  1
  C  C140  1  0.42157655  0.86143556  0.44776846  1
  C  C141  1  0.92157655  0.63856444  0.55223154  1
  C  C142  1  0.57842345  0.13856444  0.55223154  1
  C  C143  1  0.07842345  0.36143556  0.44776846  1
  S  S144  1  0.77456845  0.83706285  0.34091423  1
  S  S145  1  0.27456845  0.66293715  0.65908577  1
  S  S146  1  0.22543155  0.16293715  0.65908577  1
  S  S147  1  0.72543155  0.33706285  0.34091423  1
  S  S148  1  0.75975263  0.91362229  0.16922169  1
  S  S149  1  0.25975263  0.58637771  0.83077831  1
  S  S150  1  0.24024737  0.08637771  0.83077831  1
  S  S151  1  0.74024737  0.41362229  0.16922169  1
  S  S152  1  0.75421301  0.66936492  0.16777986  1
  S  S153  1  0.25421301  0.83063508  0.83222014  1
  S  S154  1  0.24578699  0.33063508  0.83222014  1
  S  S155  1  0.74578699  0.16936492  0.16777986  1
  I  I156  1  0.52670320  0.06324303  0.33703471  1
  I  I157  1  0.02670320  0.43675697  0.66296529  1
  I  I158  1  0.47329680  0.93675697  0.66296529  1
  I  I159  1  0.97329680  0.56324303  0.33703471  1
  I  I160  1  0.51481261  0.75528435  0.01371104  1
  I  I161  1  0.01481261  0.74471565  0.98628896  1
  I  I162  1  0.48518739  0.24471565  0.98628896  1
  I  I163  1  0.98518739  0.25528435  0.01371104  1
  I  I164  1  0.53213922  0.60729516  0.33861671  1
  I  I165  1  0.03213922  0.89270484  0.66138329  1
  I  I166  1  0.46786078  0.39270484  0.66138329  1
  I  I167  1  0.96786078  0.10729516  0.33861671  1
  N  N168  1  0.26354266  0.03289278  0.11475741  1
  N  N169  1  0.76354266  0.46710722  0.88524259  1
  N  N170  1  0.73645734  0.96710722  0.88524259  1
  N  N171  1  0.23645734  0.53289278  0.11475741  1
  N  N172  1  0.27463219  0.85724999  0.43154098  1
  N  N173  1  0.77463219  0.64275001  0.56845902  1
  N  N174  1  0.72536781  0.14275001  0.56845902  1
  N  N175  1  0.22536781  0.35724999  0.43154098  1
  O  O176  1  0.02507077  0.80240897  0.21814821  1
  O  O177  1  0.52507077  0.69759103  0.78185179  1
  O  O178  1  0.97492923  0.19759103  0.78185179  1
  O  O179  1  0.47492923  0.30240897  0.21814821  1
