# generated using pymatgen
data_H12C4S2N2O5
_symmetry_space_group_name_H-M   'P 1'
_cell_length_a   7.70067600
_cell_length_b   10.01265059
_cell_length_c   28.13638697
_cell_angle_alpha   86.41019362
_cell_angle_beta   89.97796660
_cell_angle_gamma   89.73070574
_symmetry_Int_Tables_number   1
_chemical_formula_structural   H12C4S2N2O5
_chemical_formula_sum   'H96 C32 S16 N16 O40'
_cell_volume   2165.15238940
_cell_formula_units_Z   8
loop_
 _symmetry_equiv_pos_site_id
 _symmetry_equiv_pos_as_xyz
  1  'x, y, z'
loop_
 _atom_site_type_symbol
 _atom_site_label
 _atom_site_symmetry_multiplicity
 _atom_site_fract_x
 _atom_site_fract_y
 _atom_site_fract_z
 _atom_site_occupancy
  H  H0  1  0.23566500  0.44008300  0.86491000  1
  H  H1  1  0.76433500  0.55991700  0.13509000  1
  H  H2  1  0.38989100  0.53071800  0.89901900  1
  H  H3  1  0.61010900  0.46928200  0.10098100  1
  H  H4  1  0.46460600  0.42812000  0.85317400  1
  H  H5  1  0.53539400  0.57188000  0.14682600  1
  H  H6  1  0.56184200  0.41021900  0.96109400  1
  H  H7  1  0.43815800  0.58978100  0.03890600  1
  H  H8  1  0.57338800  0.23011100  0.96196000  1
  H  H9  1  0.42661200  0.76988900  0.03804000  1
  H  H10  1  0.65331600  0.32857700  0.91137300  1
  H  H11  1  0.34668400  0.67142300  0.08862700  1
  H  H12  1  0.36878400  0.10911500  0.91719400  1
  H  H13  1  0.63121600  0.89088500  0.08280600  1
  H  H14  1  0.23548400  0.19658200  0.87203700  1
  H  H15  1  0.76451600  0.80341800  0.12796300  1
  H  H16  1  0.46798800  0.18996600  0.86538000  1
  H  H17  1  0.53201200  0.81003400  0.13462000  1
  H  H18  1  0.12151000  0.38338400  0.05698400  1
  H  H19  1  0.87849000  0.61661600  0.94301600  1
  H  H20  1  0.94010900  0.33431100  0.09390400  1
  H  H21  1  0.05989100  0.66568900  0.90609600  1
  H  H22  1  0.15034600  0.35317400  0.11975500  1
  H  H23  1  0.84965400  0.64682600  0.88024500  1
  H  H24  1  0.08220100  0.13313500  0.15618600  1
  H  H25  1  0.91779900  0.86686500  0.84381400  1
  H  H26  1  0.17882500  0.00019600  0.12538400  1
  H  H27  1  0.82117500  0.99980400  0.87461600  1
  H  H28  1  0.30539500  0.14611100  0.13744700  1
  H  H29  1  0.69460500  0.85388900  0.86255300  1
  H  H30  1  0.91431400  0.15582500  0.03192700  1
  H  H31  1  0.08568600  0.84417500  0.96807300  1
  H  H32  1  0.99177100  0.00211500  0.06111900  1
  H  H33  1  0.00822900  0.99788500  0.93888100  1
  H  H34  1  0.85925700  0.11421500  0.09344200  1
  H  H35  1  0.14074300  0.88578500  0.90655800  1
  H  H36  1  0.76650000  0.95121000  0.70359500  1
  H  H37  1  0.23350000  0.04879000  0.29640500  1
  H  H38  1  0.97204100  0.88184000  0.72439400  1
  H  H39  1  0.02795900  0.11816000  0.27560600  1
  H  H40  1  0.83907800  0.97551100  0.76300000  1
  H  H41  1  0.16092200  0.02448900  0.23700000  1
  H  H42  1  0.75285800  0.53928200  0.79295600  1
  H  H43  1  0.24714200  0.46071800  0.20704400  1
  H  H44  1  0.96000900  0.61969100  0.78279100  1
  H  H45  1  0.03999100  0.38030900  0.21720900  1
  H  H46  1  0.85850900  0.53412200  0.73616900  1
  H  H47  1  0.14149100  0.46587800  0.26383100  1
  H  H48  1  0.95155600  0.18063500  0.39311200  1
  H  H49  1  0.04844400  0.81936500  0.60688800  1
  H  H50  1  0.17887000  0.14760300  0.38573100  1
  H  H51  1  0.82113000  0.85239700  0.61426900  1
  H  H52  1  0.08242900  0.12540700  0.44369000  1
  H  H53  1  0.91757100  0.87459300  0.55631000  1
  H  H54  1  0.91201000  0.34409500  0.46742900  1
  H  H55  1  0.08799000  0.65590500  0.53257100  1
  H  H56  1  0.99259500  0.50065700  0.44172000  1
  H  H57  1  0.00740500  0.49934300  0.55828000  1
  H  H58  1  0.86119300  0.39604000  0.40648200  1
  H  H59  1  0.13880700  0.60396000  0.59351800  1
  H  H60  1  0.19026900  0.50545900  0.37651100  1
  H  H61  1  0.80973100  0.49454100  0.62348900  1
  H  H62  1  0.29823700  0.35395700  0.36027500  1
  H  H63  1  0.70176300  0.64604300  0.63972500  1
  H  H64  1  0.07382700  0.38432300  0.34488600  1
  H  H65  1  0.92617300  0.61567700  0.65511400  1
  H  H66  1  0.46317900  0.30502300  0.63649400  1
  H  H67  1  0.53682100  0.69497700  0.36350600  1
  H  H68  1  0.38042800  0.39125100  0.58329800  1
  H  H69  1  0.61957200  0.60874900  0.41670200  1
  H  H70  1  0.23296600  0.30716500  0.62554800  1
  H  H71  1  0.76703400  0.69283500  0.37445200  1
  H  H72  1  0.57531700  0.07824000  0.54545500  1
  H  H73  1  0.42468300  0.92176000  0.45454500  1
  H  H74  1  0.56176300  0.25556000  0.53120400  1
  H  H75  1  0.43823700  0.74444000  0.46879600  1
  H  H76  1  0.65455600  0.19406200  0.58689400  1
  H  H77  1  0.34544400  0.80593800  0.41310600  1
  H  H78  1  0.48077400  0.06163100  0.64272400  1
  H  H79  1  0.51922600  0.93836900  0.35727600  1
  H  H80  1  0.24743300  0.06872100  0.63907900  1
  H  H81  1  0.75256700  0.93127900  0.36092100  1
  H  H82  1  0.37086800  0.96917700  0.59941000  1
  H  H83  1  0.62913200  0.03082300  0.40059000  1
  H  H84  1  0.66747700  0.52098100  0.23183900  1
  H  H85  1  0.33252300  0.47901900  0.76816100  1
  H  H86  1  0.52741000  0.62063900  0.26665400  1
  H  H87  1  0.47259000  0.37936100  0.73334600  1
  H  H88  1  0.73220100  0.55827500  0.29074300  1
  H  H89  1  0.26779900  0.44172500  0.70925700  1
  H  H90  1  0.62414800  0.96474600  0.27145800  1
  H  H91  1  0.37585200  0.03525400  0.72854200  1
  H  H92  1  0.54638600  0.87513400  0.22266300  1
  H  H93  1  0.45361400  0.12486600  0.77733700  1
  H  H94  1  0.75312800  0.95846300  0.21824200  1
  H  H95  1  0.24687200  0.04153700  0.78175800  1
  C  C96  1  0.36568000  0.43952300  0.88062500  1
  C  C97  1  0.63432000  0.56047700  0.11937500  1
  C  C98  1  0.55534200  0.32279900  0.93974400  1
  C  C99  1  0.44465800  0.67720100  0.06025600  1
  C  C100  1  0.36031400  0.19388200  0.89078800  1
  C  C101  1  0.63968600  0.80611800  0.10921200  1
  C  C102  1  0.07987100  0.32253700  0.08857000  1
  C  C103  1  0.92012900  0.67746300  0.91143000  1
  C  C104  1  0.17660600  0.10832600  0.12890600  1
  C  C105  1  0.82339400  0.89167400  0.87109400  1
  C  C106  1  0.95836800  0.10691400  0.06567500  1
  C  C107  1  0.04163200  0.89308600  0.93432500  1
  C  C108  1  0.88040800  0.96545300  0.72608000  1
  C  C109  1  0.11959200  0.03454700  0.27392000  1
  C  C110  1  0.87843400  0.53467400  0.77473800  1
  C  C111  1  0.12156600  0.46532600  0.22526200  1
  C  C112  1  0.08010700  0.18456300  0.40962200  1
  C  C113  1  0.91989300  0.81543700  0.59037800  1
  C  C114  1  0.95874100  0.39758400  0.43485100  1
  C  C115  1  0.04125900  0.60241600  0.56514900  1
  C  C116  1  0.17577200  0.39884000  0.37124400  1
  C  C117  1  0.82422800  0.60116000  0.62875600  1
  C  C118  1  0.36190500  0.30604800  0.60906200  1
  C  C119  1  0.63809500  0.69395200  0.39093800  1
  C  C120  1  0.55646800  0.17631000  0.55976200  1
  C  C121  1  0.44353200  0.82369000  0.44023800  1
  C  C122  1  0.36824100  0.06029600  0.61896400  1
  C  C123  1  0.63175900  0.93970400  0.38103600  1
  C  C124  1  0.62141200  0.53798700  0.26786200  1
  C  C125  1  0.37858800  0.46201300  0.73213800  1
  C  C126  1  0.62097600  0.96198300  0.23258200  1
  C  C127  1  0.37902400  0.03801700  0.76741800  1
  S  S128  1  0.87136400  0.22221400  0.70112400  1
  S  S129  1  0.12863600  0.77778600  0.29887600  1
  S  S130  1  0.87084100  0.27746900  0.79867500  1
  S  S131  1  0.12915900  0.72253100  0.20132500  1
  S  S132  1  0.20147900  0.33774800  0.96056500  1
  S  S133  1  0.79852100  0.66225200  0.03943500  1
  S  S134  1  0.30091600  0.15934200  0.03866500  1
  S  S135  1  0.69908400  0.84065800  0.96133500  1
  S  S136  1  0.30170100  0.34082300  0.46121700  1
  S  S137  1  0.69829900  0.65917700  0.53878300  1
  S  S138  1  0.20220300  0.16344200  0.53938200  1
  S  S139  1  0.79779700  0.83655800  0.46061800  1
  S  S140  1  0.63261100  0.28501600  0.29812400  1
  S  S141  1  0.36738900  0.71498400  0.70187600  1
  S  S142  1  0.63387000  0.21513800  0.20235200  1
  S  S143  1  0.36613000  0.78486200  0.79764800  1
  N  N144  1  0.38250600  0.32065400  0.91557900  1
  N  N145  1  0.61749400  0.67934600  0.08442100  1
  N  N146  1  0.11569300  0.17648600  0.08280200  1
  N  N147  1  0.88430700  0.82351400  0.91719800  1
  N  N148  1  0.20699900  0.19619700  0.98936300  1
  N  N149  1  0.79300100  0.80380300  0.01063700  1
  N  N150  1  0.77589400  0.25083300  0.74983100  1
  N  N151  1  0.22410600  0.74916700  0.25016900  1
  N  N152  1  0.11618800  0.32867100  0.41699500  1
  N  N153  1  0.88381200  0.67132900  0.58300500  1
  N  N154  1  0.20717800  0.30494900  0.51050800  1
  N  N155  1  0.79282200  0.69505100  0.48949200  1
  N  N156  1  0.38406200  0.17935700  0.58412300  1
  N  N157  1  0.61593800  0.82064300  0.41587700  1
  N  N158  1  0.72963400  0.24876600  0.25044800  1
  N  N159  1  0.27036600  0.75123400  0.74955200  1
  O  O160  1  0.25405300  0.45291500  0.98532600  1
  O  O161  1  0.74594700  0.54708500  0.01467400  1
  O  O162  1  0.04917200  0.34415300  0.93118200  1
  O  O163  1  0.95082800  0.65584700  0.06881800  1
  O  O164  1  0.97672800  0.41658100  0.79153500  1
  O  O165  1  0.02327200  0.58341900  0.20846500  1
  O  O166  1  0.42802600  0.25146400  0.05450300  1
  O  O167  1  0.57197400  0.74853600  0.94549700  1
  O  O168  1  0.97795300  0.08294400  0.70902600  1
  O  O169  1  0.02204700  0.91705600  0.29097400  1
  O  O170  1  0.73229100  0.29702500  0.83273600  1
  O  O171  1  0.26770900  0.70297500  0.16726400  1
  O  O172  1  0.33297800  0.01752100  0.04246000  1
  O  O173  1  0.66702200  0.98247900  0.95754000  1
  O  O174  1  0.00658400  0.31579200  0.68625000  1
  O  O175  1  0.99341600  0.68420800  0.31375000  1
  O  O176  1  0.73309900  0.20219600  0.66708700  1
  O  O177  1  0.26690100  0.79780400  0.33291300  1
  O  O178  1  0.00669300  0.18299900  0.81331600  1
  O  O179  1  0.99330700  0.81700100  0.18668400  1
  O  O180  1  0.33722300  0.48182000  0.45782400  1
  O  O181  1  0.66277700  0.51818000  0.54217600  1
  O  O182  1  0.42635900  0.24620500  0.44505600  1
  O  O183  1  0.57364100  0.75379500  0.55494400  1
  O  O184  1  0.25434900  0.04809100  0.51447100  1
  O  O185  1  0.74565100  0.95190900  0.48552900  1
  O  O186  1  0.05088800  0.15824000  0.56912900  1
  O  O187  1  0.94911200  0.84176000  0.43087100  1
  O  O188  1  0.76921500  0.31151300  0.33195600  1
  O  O189  1  0.23078500  0.68848700  0.66804400  1
  O  O190  1  0.49742300  0.19317100  0.31468500  1
  O  O191  1  0.50257700  0.80682900  0.68531500  1
  O  O192  1  0.52464900  0.42233700  0.28705400  1
  O  O193  1  0.47535100  0.57766300  0.71294600  1
  O  O194  1  0.49898400  0.30823900  0.18589400  1
  O  O195  1  0.50101600  0.69176100  0.81410600  1
  O  O196  1  0.77172600  0.18915900  0.16870700  1
  O  O197  1  0.22827400  0.81084100  0.83129300  1
  O  O198  1  0.52592000  0.07800100  0.21233700  1
  O  O199  1  0.47408000  0.92199900  0.78766300  1
