# generated using pymatgen
data_MgRe3S4O11
_symmetry_space_group_name_H-M   'P 1'
_cell_length_a   8.42528400
_cell_length_b   8.60599425
_cell_length_c   11.61733435
_cell_angle_alpha   68.32529209
_cell_angle_beta   84.70794966
_cell_angle_gamma   76.15961433
_symmetry_Int_Tables_number   1
_chemical_formula_structural   MgRe3S4O11
_chemical_formula_sum   'Mg2 Re6 S8 O22'
_cell_volume   760.05667983
_cell_formula_units_Z   2
loop_
 _symmetry_equiv_pos_site_id
 _symmetry_equiv_pos_as_xyz
  1  'x, y, z'
loop_
 _atom_site_type_symbol
 _atom_site_label
 _atom_site_symmetry_multiplicity
 _atom_site_fract_x
 _atom_site_fract_y
 _atom_site_fract_z
 _atom_site_occupancy
  Mg  Mg0  1  0.17021500  0.30496700  0.64152300  1
  Mg  Mg1  1  0.82978500  0.69503300  0.35847700  1
  Re  Re2  1  0.39195700  0.35282000  0.88292800  1
  Re  Re3  1  0.60804300  0.64718000  0.11707200  1
  Re  Re4  1  0.21499100  0.64693400  0.03048800  1
  Re  Re5  1  0.78500900  0.35306600  0.96951200  1
  Re  Re6  1  0.51735500  0.74360900  0.80062200  1
  Re  Re7  1  0.48264500  0.25639100  0.19937800  1
  S  S8  1  0.26697000  0.64941000  0.82420700  1
  S  S9  1  0.73303000  0.35059000  0.17579300  1
  S  S10  1  0.40106300  0.83323700  0.96752800  1
  S  S11  1  0.59893700  0.16676300  0.03247200  1
  S  S12  1  0.75188500  0.65201500  0.92880800  1
  S  S13  1  0.24811500  0.34798500  0.07119200  1
  S  S14  1  0.62160200  0.46662700  0.78709800  1
  S  S15  1  0.37839800  0.53337300  0.21290200  1
  O  O16  1  0.31525200  0.26632000  0.79252900  1
  O  O17  1  0.68474800  0.73368000  0.20747100  1
  O  O18  1  0.01909500  0.74621000  0.05029600  1
  O  O19  1  0.98090500  0.25379000  0.94970400  1
  O  O20  1  0.53151000  0.90858800  0.66583300  1
  O  O21  1  0.46849000  0.09141200  0.33416700  1
  O  O22  1  0.33270200  0.45962900  0.53483600  1
  O  O23  1  0.66729800  0.54037100  0.46516400  1
  O  O24  1  0.44194000  0.34130300  0.51137800  1
  O  O25  1  0.55806000  0.65869700  0.48862200  1
  O  O26  1  0.04696800  0.35037900  0.43751300  1
  O  O27  1  0.95303200  0.64962100  0.56248700  1
  O  O28  1  0.14454800  0.06411600  0.69328300  1
  O  O29  1  0.85545200  0.93588400  0.30671700  1
  O  O30  1  0.96964200  0.47450900  0.65208400  1
  O  O31  1  0.03035800  0.52549100  0.34791600  1
  O  O32  1  0.95131300  0.26402100  0.42082900  1
  O  O33  1  0.04868700  0.73597900  0.57917100  1
  O  O34  1  0.98815200  0.06618500  0.76018800  1
  O  O35  1  0.01184800  0.93381500  0.23981200  1
  O  O36  1  0.11353500  0.99357500  0.27758700  1
  O  O37  1  0.88646500  0.00642500  0.72241300  1
