# generated using pymatgen
data_Na6Co3B9P6H3O38
_symmetry_space_group_name_H-M   'P 1'
_cell_length_a   11.82048754
_cell_length_b   11.82409883
_cell_length_c   12.23172013
_cell_angle_alpha   90.00000000
_cell_angle_beta   90.00000000
_cell_angle_gamma   120.02938222
_symmetry_Int_Tables_number   1
_chemical_formula_structural   Na6Co3B9P6H3O38
_chemical_formula_sum   'Na12 Co6 B18 P12 H6 O76'
_cell_volume   1480.10643829
_cell_formula_units_Z   2
loop_
 _symmetry_equiv_pos_site_id
 _symmetry_equiv_pos_as_xyz
  1  'x, y, z'
loop_
 _atom_site_type_symbol
 _atom_site_label
 _atom_site_symmetry_multiplicity
 _atom_site_fract_x
 _atom_site_fract_y
 _atom_site_fract_z
 _atom_site_occupancy
  Na  Na0  1  0.26843421  0.28780093  0.61877740  1
  Na  Na1  1  0.71197950  0.98088100  0.61877031  1
  Na  Na2  1  0.01945046  0.73107455  0.61865838  1
  Na  Na3  1  0.73156579  0.71219907  0.11877740  1
  Na  Na4  1  0.28802050  0.01911900  0.11877031  1
  Na  Na5  1  0.98054954  0.26892545  0.11865838  1
  Na  Na6  1  0.33294910  0.66671764  0.26410914  1
  Na  Na7  1  0.66705090  0.33328236  0.76410914  1
  Na  Na8  1  0.33296824  0.66648451  0.77210951  1
  Na  Na9  1  0.66703176  0.33351549  0.27210951  1
  Na  Na10  1  0.99996659  0.00007792  0.86003255  1
  Na  Na11  1  0.00003341  0.99992208  0.36003255  1
  Co  Co12  1  0.49513656  0.99631591  0.36472981  1
  Co  Co13  1  0.00363740  0.49894216  0.36458104  1
  Co  Co14  1  0.50076084  0.50473867  0.36435621  1
  Co  Co15  1  0.50486344  0.00368409  0.86472981  1
  Co  Co16  1  0.99636260  0.50105784  0.86458104  1
  Co  Co17  1  0.49923916  0.49526133  0.86435621  1
  B  B18  1  0.70243973  0.95445293  0.21450966  1
  B  B19  1  0.04552839  0.74820320  0.21461752  1
  B  B20  1  0.25176884  0.29688138  0.21460889  1
  B  B21  1  0.29756027  0.04554707  0.71450966  1
  B  B22  1  0.95447161  0.25179680  0.71461752  1
  B  B23  1  0.74823116  0.70311862  0.71460889  1
  B  B24  1  0.50402094  0.90878934  0.10965635  1
  B  B25  1  0.09103454  0.59539533  0.10964753  1
  B  B26  1  0.40495432  0.49577229  0.10959582  1
  B  B27  1  0.49597906  0.09121066  0.60965635  1
  B  B28  1  0.90896546  0.40460467  0.60964753  1
  B  B29  1  0.59504568  0.50422771  0.60959582  1
  B  B30  1  0.29016913  0.04007046  0.51342323  1
  B  B31  1  0.95984384  0.24988142  0.51341774  1
  B  B32  1  0.75031318  0.71047694  0.51343054  1
  B  B33  1  0.70983087  0.95992954  0.01342323  1
  B  B34  1  0.04015616  0.75011858  0.01341774  1
  B  B35  1  0.24968682  0.28952306  0.01343054  1
  P  P36  1  0.18562158  0.80407906  0.40381642  1
  P  P37  1  0.19580142  0.38146049  0.40376362  1
  P  P38  1  0.61868829  0.81447180  0.40384399  1
  P  P39  1  0.81437842  0.19592094  0.90381642  1
  P  P40  1  0.80419858  0.61853951  0.90376362  1
  P  P41  1  0.38131171  0.18552820  0.90384399  1
  P  P42  1  0.37923348  0.18786195  0.32862030  1
  P  P43  1  0.81208346  0.19137756  0.32862637  1
  P  P44  1  0.80858228  0.62093859  0.32874705  1
  P  P45  1  0.62076652  0.81213805  0.82862030  1
  P  P46  1  0.18791654  0.80862244  0.82862637  1
  P  P47  1  0.19141772  0.37906141  0.82874705  1
  H  H48  1  0.33800677  0.83427734  0.02966093  1
  H  H49  1  0.16557264  0.50394763  0.02969815  1
  H  H50  1  0.49618496  0.66205123  0.02985302  1
  H  H51  1  0.66199323  0.16572266  0.52966093  1
  H  H52  1  0.83442736  0.49605237  0.52969815  1
  H  H53  1  0.50381504  0.33794877  0.52985302  1
  O  O54  1  0.27407578  0.11248074  0.42020621  1
  O  O55  1  0.88777894  0.16169567  0.42012257  1
  O  O56  1  0.83835422  0.72628389  0.42020061  1
  O  O57  1  0.72592422  0.88751926  0.92020621  1
  O  O58  1  0.11222106  0.83830433  0.92012257  1
  O  O59  1  0.16164578  0.27371611  0.92020061  1
  O  O60  1  0.56395437  0.93035158  0.21047462  1
  O  O61  1  0.06931353  0.63362750  0.21046086  1
  O  O62  1  0.36690644  0.43577651  0.21056627  1
  O  O63  1  0.43604563  0.06964842  0.71047462  1
  O  O64  1  0.93068647  0.36637250  0.71046086  1
  O  O65  1  0.63309356  0.56422349  0.71056627  1
  O  O66  1  0.43276557  0.10473091  0.27916708  1
  O  O67  1  0.89531864  0.32810515  0.27917222  1
  O  O68  1  0.67163831  0.56696922  0.27974755  1
  O  O69  1  0.56723443  0.89526909  0.77916708  1
  O  O70  1  0.10468136  0.67189485  0.77917222  1
  O  O71  1  0.32836169  0.43303078  0.77974755  1
  O  O72  1  0.19540238  0.89943454  0.49761510  1
  O  O73  1  0.10089901  0.29597530  0.49768166  1
  O  O74  1  0.70444680  0.80504252  0.49768652  1
  O  O75  1  0.80459762  0.10056546  0.99761510  1
  O  O76  1  0.89910099  0.70402470  0.99768166  1
  O  O77  1  0.29555320  0.19495748  0.99768652  1
  O  O78  1  0.30192825  0.20469373  0.23216713  1
  O  O79  1  0.79492097  0.09707074  0.23235045  1
  O  O80  1  0.90252970  0.69780289  0.23225447  1
  O  O81  1  0.69807175  0.79530627  0.73216713  1
  O  O82  1  0.20507903  0.90292926  0.73235045  1
  O  O83  1  0.09747030  0.30219711  0.73225447  1
  O  O84  1  0.09409507  0.66847565  0.45060807  1
  O  O85  1  0.33202245  0.42645523  0.45020581  1
  O  O86  1  0.57437675  0.90575341  0.45065947  1
  O  O87  1  0.90590493  0.33152435  0.95060807  1
  O  O88  1  0.66797755  0.57354477  0.95020581  1
  O  O89  1  0.42562325  0.09424659  0.95065947  1
  O  O90  1  0.42705270  0.06298268  0.51306752  1
  O  O91  1  0.93731768  0.36401604  0.51306796  1
  O  O92  1  0.63552484  0.57332269  0.51296724  1
  O  O93  1  0.57294730  0.93701732  0.01306752  1
  O  O94  1  0.06268232  0.63598396  0.01306796  1
  O  O95  1  0.36447516  0.42667731  0.01296724  1
  O  O96  1  0.26398470  0.08508315  0.61423424  1
  O  O97  1  0.91510775  0.17881361  0.61425513  1
  O  O98  1  0.82110823  0.73609750  0.61430853  1
  O  O99  1  0.73601530  0.91491685  0.11423424  1
  O  O100  1  0.08489225  0.82118639  0.11425513  1
  O  O101  1  0.17889177  0.26390250  0.11430853  1
  O  O102  1  0.68078734  0.16849617  0.37318973  1
  O  O103  1  0.83149072  0.51252944  0.37340638  1
  O  O104  1  0.48743025  0.31945168  0.37280549  1
  O  O105  1  0.31921266  0.83150383  0.87318973  1
  O  O106  1  0.16850928  0.48747056  0.87340638  1
  O  O107  1  0.51256975  0.68054832  0.87280549  1
  O  O108  1  0.11717025  0.83574731  0.30633312  1
  O  O109  1  0.16451200  0.28142034  0.30646291  1
  O  O110  1  0.71828908  0.88234528  0.30616305  1
  O  O111  1  0.88282975  0.16425269  0.80633312  1
  O  O112  1  0.83548800  0.71857966  0.80646291  1
  O  O113  1  0.28171092  0.11765472  0.80616305  1
  O  O114  1  0.31848099  0.82833416  0.36575948  1
  O  O115  1  0.17158068  0.49005229  0.36565943  1
  O  O116  1  0.51008458  0.68120701  0.36621422  1
  O  O117  1  0.68151901  0.17166584  0.86575948  1
  O  O118  1  0.82841932  0.50994771  0.86565943  1
  O  O119  1  0.48991542  0.31879299  0.86621422  1
  O  O120  1  0.36947809  0.85403085  0.10617857  1
  O  O121  1  0.14588488  0.51574757  0.10620890  1
  O  O122  1  0.48448896  0.63011065  0.10622235  1
  O  O123  1  0.63052191  0.14596915  0.60617857  1
  O  O124  1  0.85411512  0.48425243  0.60620890  1
  O  O125  1  0.51551104  0.36988935  0.60622235  1
  O  O126  1  0.33297078  0.66543890  0.57439970  1
  O  O127  1  0.66702922  0.33456110  0.07439970  1
  O  O128  1  0.00003259  0.00013580  0.65095792  1
  O  O129  1  0.99996741  0.99986420  0.15095792  1
