# generated using pymatgen
data_K4Cd2S4O19
_symmetry_space_group_name_H-M   'P 1'
_cell_length_a   9.79871200
_cell_length_b   9.89697200
_cell_length_c   20.19854287
_cell_angle_alpha   77.86848812
_cell_angle_beta   90.00000000
_cell_angle_gamma   90.00000000
_symmetry_Int_Tables_number   1
_chemical_formula_structural   K4Cd2S4O19
_chemical_formula_sum   'K16 Cd8 S16 O76'
_cell_volume   1915.06133327
_cell_formula_units_Z   4
loop_
 _symmetry_equiv_pos_site_id
 _symmetry_equiv_pos_as_xyz
  1  'x, y, z'
loop_
 _atom_site_type_symbol
 _atom_site_label
 _atom_site_symmetry_multiplicity
 _atom_site_fract_x
 _atom_site_fract_y
 _atom_site_fract_z
 _atom_site_occupancy
  K  K0  1  0.79606300  0.59908700  0.55501500  1
  K  K1  1  0.70393700  0.59908700  0.05501500  1
  K  K2  1  0.20393700  0.40091300  0.44498500  1
  K  K3  1  0.29606300  0.40091300  0.94498500  1
  K  K4  1  0.96345600  0.94527700  0.76804800  1
  K  K5  1  0.53654400  0.94527700  0.26804800  1
  K  K6  1  0.03654400  0.05472300  0.23195200  1
  K  K7  1  0.46345600  0.05472300  0.73195200  1
  K  K8  1  0.26945600  0.94968700  0.92853300  1
  K  K9  1  0.23054400  0.94968700  0.42853300  1
  K  K10  1  0.73054400  0.05031300  0.07146700  1
  K  K11  1  0.76945600  0.05031300  0.57146700  1
  K  K12  1  0.09380000  0.26678900  0.62507900  1
  K  K13  1  0.40620000  0.26678900  0.12507900  1
  K  K14  1  0.90620000  0.73321100  0.37492100  1
  K  K15  1  0.59380000  0.73321100  0.87492100  1
  Cd  Cd16  1  0.48032900  0.56754500  0.22103400  1
  Cd  Cd17  1  0.01967100  0.56754500  0.72103400  1
  Cd  Cd18  1  0.51967100  0.43245500  0.77896600  1
  Cd  Cd19  1  0.98032900  0.43245500  0.27896600  1
  Cd  Cd20  1  0.06244200  0.78880500  0.09933400  1
  Cd  Cd21  1  0.43755800  0.78880500  0.59933400  1
  Cd  Cd22  1  0.93755800  0.21119500  0.90066600  1
  Cd  Cd23  1  0.56244200  0.21119500  0.40066600  1
  S  S24  1  0.88484700  0.85884300  0.94426100  1
  S  S25  1  0.61515300  0.85884300  0.44426100  1
  S  S26  1  0.11515300  0.14115700  0.05573900  1
  S  S27  1  0.38484700  0.14115700  0.55573900  1
  S  S28  1  0.20751600  0.25876900  0.78709400  1
  S  S29  1  0.29248400  0.25876900  0.28709400  1
  S  S30  1  0.79248400  0.74123100  0.21290600  1
  S  S31  1  0.70751600  0.74123100  0.71290600  1
  S  S32  1  0.79885300  0.27609300  0.72489900  1
  S  S33  1  0.70114700  0.27609300  0.22489900  1
  S  S34  1  0.20114700  0.72390700  0.27510100  1
  S  S35  1  0.29885300  0.72390700  0.77510100  1
  S  S36  1  0.35814600  0.64635800  0.05154900  1
  S  S37  1  0.14185400  0.64635800  0.55154900  1
  S  S38  1  0.64185400  0.35364200  0.94845100  1
  S  S39  1  0.85814600  0.35364200  0.44845100  1
  O  O40  1  0.15352600  0.25932500  0.85695700  1
  O  O41  1  0.34647400  0.25932500  0.35695700  1
  O  O42  1  0.84647400  0.74067500  0.14304300  1
  O  O43  1  0.65352600  0.74067500  0.64304300  1
  O  O44  1  0.02816000  0.49833200  0.13729500  1
  O  O45  1  0.47184000  0.49833200  0.63729500  1
  O  O46  1  0.97184000  0.50166800  0.86270500  1
  O  O47  1  0.52816000  0.50166800  0.36270500  1
  O  O48  1  0.74267500  0.23708600  0.95054600  1
  O  O49  1  0.75732500  0.23708600  0.45054600  1
  O  O50  1  0.25732500  0.76291400  0.04945400  1
  O  O51  1  0.24267500  0.76291400  0.54945400  1
  O  O52  1  0.16801400  0.13144800  0.76520400  1
  O  O53  1  0.33198600  0.13144800  0.26520400  1
  O  O54  1  0.83198600  0.86855200  0.23479600  1
  O  O55  1  0.66801400  0.86855200  0.73479600  1
  O  O56  1  0.97794200  0.98209700  0.92278600  1
  O  O57  1  0.52205800  0.98209700  0.42278600  1
  O  O58  1  0.02205800  0.01790300  0.07721400  1
  O  O59  1  0.47794200  0.01790300  0.57721400  1
  O  O60  1  0.75233500  0.89921900  0.97187500  1
  O  O61  1  0.74766500  0.89921900  0.47187500  1
  O  O62  1  0.24766500  0.10078100  0.02812500  1
  O  O63  1  0.25233500  0.10078100  0.52812500  1
  O  O64  1  0.64623200  0.28706400  0.73063600  1
  O  O65  1  0.85376800  0.28706400  0.23063600  1
  O  O66  1  0.35376800  0.71293600  0.26936400  1
  O  O67  1  0.14623200  0.71293600  0.76936400  1
  O  O68  1  0.95472700  0.75809000  0.99996000  1
  O  O69  1  0.54527300  0.75809000  0.49996000  1
  O  O70  1  0.04527300  0.24191000  0.00004000  1
  O  O71  1  0.45472700  0.24191000  0.50004000  1
  O  O72  1  0.86047800  0.79539300  0.88582500  1
  O  O73  1  0.63952200  0.79539300  0.38582500  1
  O  O74  1  0.13952200  0.20460700  0.11417500  1
  O  O75  1  0.36047800  0.20460700  0.61417500  1
  O  O76  1  0.85905400  0.22245200  0.79307700  1
  O  O77  1  0.64094600  0.22245200  0.29307700  1
  O  O78  1  0.14094600  0.77754800  0.20692300  1
  O  O79  1  0.35905400  0.77754800  0.70692300  1
  O  O80  1  0.43741800  0.67799700  0.98767800  1
  O  O81  1  0.06258200  0.67799700  0.48767800  1
  O  O82  1  0.56258200  0.32200300  0.01232200  1
  O  O83  1  0.93741800  0.32200300  0.51232200  1
  O  O84  1  0.05625300  0.98402100  0.60617900  1
  O  O85  1  0.44374700  0.98402100  0.10617900  1
  O  O86  1  0.94374700  0.01597900  0.39382100  1
  O  O87  1  0.55625300  0.01597900  0.89382100  1
  O  O88  1  0.35559700  0.58355400  0.80551900  1
  O  O89  1  0.14440300  0.58355400  0.30551900  1
  O  O90  1  0.64440300  0.41644600  0.19448100  1
  O  O91  1  0.85559700  0.41644600  0.69448100  1
  O  O92  1  0.36019700  0.26378700  0.79046100  1
  O  O93  1  0.13980300  0.26378700  0.29046100  1
  O  O94  1  0.63980300  0.73621300  0.20953900  1
  O  O95  1  0.86019700  0.73621300  0.70953900  1
  O  O96  1  0.33030800  0.82101800  0.81967000  1
  O  O97  1  0.16969200  0.82101800  0.31967000  1
  O  O98  1  0.66969200  0.17898200  0.18033000  1
  O  O99  1  0.83030800  0.17898200  0.68033000  1
  O  O100  1  0.21338900  0.51276700  0.56025100  1
  O  O101  1  0.28661100  0.51276700  0.06025100  1
  O  O102  1  0.78661100  0.48723300  0.43974900  1
  O  O103  1  0.71338900  0.48723300  0.93974900  1
  O  O104  1  0.15795400  0.38265400  0.73743400  1
  O  O105  1  0.34204600  0.38265400  0.23743400  1
  O  O106  1  0.84204600  0.61734600  0.26256600  1
  O  O107  1  0.65795400  0.61734600  0.76256600  1
  O  O108  1  0.03524900  0.56217700  0.90070800  1
  O  O109  1  0.46475100  0.56217700  0.40070800  1
  O  O110  1  0.96475100  0.43782300  0.09929200  1
  O  O111  1  0.53524900  0.43782300  0.59929200  1
  O  O112  1  0.04452800  0.64567500  0.60919800  1
  O  O113  1  0.45547200  0.64567500  0.10919800  1
  O  O114  1  0.95547200  0.35432500  0.39080200  1
  O  O115  1  0.54452800  0.35432500  0.89080200  1
