# generated using pymatgen
data_Ba5Mn3O12F
_symmetry_space_group_name_H-M   'P 1'
_cell_length_a   10.51615132
_cell_length_b   10.51615132
_cell_length_c   7.78055500
_cell_angle_alpha   90.00000000
_cell_angle_beta   90.00000000
_cell_angle_gamma   119.99999574
_symmetry_Int_Tables_number   1
_chemical_formula_structural   Ba5Mn3O12F
_chemical_formula_sum   'Ba10 Mn6 O24 F2'
_cell_volume   745.16917428
_cell_formula_units_Z   2
loop_
 _symmetry_equiv_pos_site_id
 _symmetry_equiv_pos_as_xyz
  1  'x, y, z'
loop_
 _atom_site_type_symbol
 _atom_site_label
 _atom_site_symmetry_multiplicity
 _atom_site_fract_x
 _atom_site_fract_y
 _atom_site_fract_z
 _atom_site_occupancy
  Ba  Ba0  1  0.66666700  0.33333300  0.50120500  1
  Ba  Ba1  1  0.33333300  0.66666700  0.00120500  1
  Ba  Ba2  1  0.33333300  0.66666700  0.49879500  1
  Ba  Ba3  1  0.66666700  0.33333300  0.99879500  1
  Ba  Ba4  1  0.23250500  0.99042500  0.75000000  1
  Ba  Ba5  1  0.00957500  0.24207900  0.75000000  1
  Ba  Ba6  1  0.75792100  0.76749500  0.75000000  1
  Ba  Ba7  1  0.76749500  0.00957500  0.25000000  1
  Ba  Ba8  1  0.99042500  0.75792100  0.25000000  1
  Ba  Ba9  1  0.24207900  0.23250500  0.25000000  1
  Mn  Mn10  1  0.96830800  0.59614600  0.75000000  1
  Mn  Mn11  1  0.40385400  0.37216300  0.75000000  1
  Mn  Mn12  1  0.62783700  0.03169200  0.75000000  1
  Mn  Mn13  1  0.03169200  0.40385400  0.25000000  1
  Mn  Mn14  1  0.59614600  0.62783700  0.25000000  1
  Mn  Mn15  1  0.37216300  0.96830800  0.25000000  1
  O  O16  1  0.15629100  0.67854600  0.75000000  1
  O  O17  1  0.32145400  0.47774500  0.75000000  1
  O  O18  1  0.52225500  0.84370900  0.75000000  1
  O  O19  1  0.84370900  0.32145400  0.25000000  1
  O  O20  1  0.67854600  0.52225500  0.25000000  1
  O  O21  1  0.47774500  0.15629100  0.25000000  1
  O  O22  1  0.88091600  0.40748700  0.75000000  1
  O  O23  1  0.59251300  0.47342900  0.75000000  1
  O  O24  1  0.52657100  0.11908400  0.75000000  1
  O  O25  1  0.11908400  0.59251300  0.25000000  1
  O  O26  1  0.40748700  0.52657100  0.25000000  1
  O  O27  1  0.47342900  0.88091600  0.25000000  1
  O  O28  1  0.90612800  0.64865700  0.57496100  1
  O  O29  1  0.35134300  0.25747100  0.57496100  1
  O  O30  1  0.74252900  0.09387200  0.57496100  1
  O  O31  1  0.09387200  0.35134300  0.07496100  1
  O  O32  1  0.64865700  0.74252900  0.07496100  1
  O  O33  1  0.25747100  0.90612800  0.07496100  1
  O  O34  1  0.09387200  0.35134300  0.42503900  1
  O  O35  1  0.64865700  0.74252900  0.42503900  1
  O  O36  1  0.25747100  0.90612800  0.42503900  1
  O  O37  1  0.90612800  0.64865700  0.92503900  1
  O  O38  1  0.35134300  0.25747100  0.92503900  1
  O  O39  1  0.74252900  0.09387200  0.92503900  1
  F  F40  1  0.00000000  0.00000000  0.50000000  1
  F  F41  1  0.00000000  0.00000000  0.00000000  1
