# generated using pymatgen
data_Cu4Se3O10
_symmetry_space_group_name_H-M   'P 1'
_cell_length_a   13.68280596
_cell_length_b   16.21499943
_cell_length_c   18.01873035
_cell_angle_alpha   90.87955734
_cell_angle_beta   90.00000000
_cell_angle_gamma   90.00000000
_symmetry_Int_Tables_number   1
_chemical_formula_structural   Cu4Se3O10
_chemical_formula_sum   'Cu64 Se48 O160'
_cell_volume   3997.28503279
_cell_formula_units_Z   16
loop_
 _symmetry_equiv_pos_site_id
 _symmetry_equiv_pos_as_xyz
  1  'x, y, z'
loop_
 _atom_site_type_symbol
 _atom_site_label
 _atom_site_symmetry_multiplicity
 _atom_site_fract_x
 _atom_site_fract_y
 _atom_site_fract_z
 _atom_site_occupancy
  Cu  Cu0  1  0.70623363  0.25369904  0.87510023  1
  Cu  Cu1  1  0.20623363  0.24630096  0.12489977  1
  Cu  Cu2  1  0.29376637  0.74630096  0.12489977  1
  Cu  Cu3  1  0.79376637  0.75369904  0.87510023  1
  Cu  Cu4  1  0.91572668  0.25660048  0.87134488  1
  Cu  Cu5  1  0.41572668  0.24339952  0.12865512  1
  Cu  Cu6  1  0.08427332  0.74339952  0.12865512  1
  Cu  Cu7  1  0.58427332  0.75660048  0.87134488  1
  Cu  Cu8  1  0.14208572  0.25364442  0.88552004  1
  Cu  Cu9  1  0.64208572  0.24635558  0.11447996  1
  Cu  Cu10  1  0.85791428  0.74635558  0.11447996  1
  Cu  Cu11  1  0.35791428  0.75364442  0.88552004  1
  Cu  Cu12  1  0.47970534  0.25922271  0.86555131  1
  Cu  Cu13  1  0.97970534  0.24077729  0.13444869  1
  Cu  Cu14  1  0.52029466  0.74077729  0.13444869  1
  Cu  Cu15  1  0.02029466  0.75922271  0.86555131  1
  Cu  Cu16  1  0.66041044  0.25980954  0.62491283  1
  Cu  Cu17  1  0.16041044  0.24019046  0.37508717  1
  Cu  Cu18  1  0.33958956  0.74019046  0.37508717  1
  Cu  Cu19  1  0.83958956  0.75980954  0.62491283  1
  Cu  Cu20  1  0.00041105  0.26229612  0.61230202  1
  Cu  Cu21  1  0.50041105  0.23770388  0.38769798  1
  Cu  Cu22  1  0.99958895  0.73770388  0.38769798  1
  Cu  Cu23  1  0.49958895  0.76229612  0.61230202  1
  Cu  Cu24  1  0.23053456  0.25159500  0.62847149  1
  Cu  Cu25  1  0.73053456  0.24840500  0.37152851  1
  Cu  Cu26  1  0.76946544  0.74840500  0.37152851  1
  Cu  Cu27  1  0.26946544  0.75159500  0.62847149  1
  Cu  Cu28  1  0.43737302  0.25531490  0.62168864  1
  Cu  Cu29  1  0.93737302  0.24468510  0.37831136  1
  Cu  Cu30  1  0.56262698  0.74468510  0.37831136  1
  Cu  Cu31  1  0.06262698  0.75531490  0.62168864  1
  Cu  Cu32  1  0.82128847  0.43372052  0.88676098  1
  Cu  Cu33  1  0.32128847  0.06627948  0.11323902  1
  Cu  Cu34  1  0.17871153  0.56627948  0.11323902  1
  Cu  Cu35  1  0.67871153  0.93372052  0.88676098  1
  Cu  Cu36  1  0.34184019  0.34593521  0.77190377  1
  Cu  Cu37  1  0.84184019  0.15406479  0.22809623  1
  Cu  Cu38  1  0.65815981  0.65406479  0.22809623  1
  Cu  Cu39  1  0.15815981  0.84593521  0.77190377  1
  Cu  Cu40  1  0.32967257  0.42999932  0.61618452  1
  Cu  Cu41  1  0.82967257  0.07000068  0.38381548  1
  Cu  Cu42  1  0.67032743  0.57000068  0.38381548  1
  Cu  Cu43  1  0.17032743  0.92999932  0.61618452  1
  Cu  Cu44  1  0.85524042  0.34807343  0.51504075  1
  Cu  Cu45  1  0.35524042  0.15192657  0.48495925  1
  Cu  Cu46  1  0.14475958  0.65192657  0.48495925  1
  Cu  Cu47  1  0.64475958  0.84807343  0.51504075  1
  Cu  Cu48  1  0.82938952  0.42686120  0.36199530  1
  Cu  Cu49  1  0.32938952  0.07313880  0.63800470  1
  Cu  Cu50  1  0.17061048  0.57313880  0.63800470  1
  Cu  Cu51  1  0.67061048  0.92686120  0.36199530  1
  Cu  Cu52  1  0.29962015  0.32246504  0.27706452  1
  Cu  Cu53  1  0.79962015  0.17753496  0.72293548  1
  Cu  Cu54  1  0.70037985  0.67753496  0.72293548  1
  Cu  Cu55  1  0.20037985  0.82246504  0.27706452  1
  Cu  Cu56  1  0.32879215  0.42490055  0.14499408  1
  Cu  Cu57  1  0.82879215  0.07509945  0.85500592  1
  Cu  Cu58  1  0.67120785  0.57509945  0.85500592  1
  Cu  Cu59  1  0.17120785  0.92490055  0.14499408  1
  Cu  Cu60  1  0.78769395  0.33393445  0.02256745  1
  Cu  Cu61  1  0.28769395  0.16606555  0.97743255  1
  Cu  Cu62  1  0.21230605  0.66606555  0.97743255  1
  Cu  Cu63  1  0.71230605  0.83393445  0.02256745  1
  Se  Se64  1  0.59446702  0.41859079  0.94273140  1
  Se  Se65  1  0.09446702  0.08140921  0.05726860  1
  Se  Se66  1  0.40553298  0.58140921  0.05726860  1
  Se  Se67  1  0.90553298  0.91859079  0.94273140  1
  Se  Se68  1  0.01271042  0.38781321  0.99050499  1
  Se  Se69  1  0.51271042  0.11218679  0.00949501  1
  Se  Se70  1  0.98728958  0.61218679  0.00949501  1
  Se  Se71  1  0.48728958  0.88781321  0.99050499  1
  Se  Se72  1  0.29707217  0.38142740  0.95337878  1
  Se  Se73  1  0.79707217  0.11857260  0.04662122  1
  Se  Se74  1  0.70292783  0.61857260  0.04662122  1
  Se  Se75  1  0.20292783  0.88142740  0.95337878  1
  Se  Se76  1  0.54073016  0.41917769  0.69922306  1
  Se  Se77  1  0.04073016  0.08082231  0.30077694  1
  Se  Se78  1  0.45926984  0.58082231  0.30077694  1
  Se  Se79  1  0.95926984  0.91917769  0.69922306  1
  Se  Se80  1  0.81709345  0.38882180  0.69350258  1
  Se  Se81  1  0.31709345  0.11117820  0.30649742  1
  Se  Se82  1  0.18290655  0.61117820  0.30649742  1
  Se  Se83  1  0.68290655  0.88882180  0.69350258  1
  Se  Se84  1  0.12069648  0.39768818  0.72867565  1
  Se  Se85  1  0.62069648  0.10231182  0.27132435  1
  Se  Se86  1  0.87930352  0.60231182  0.27132435  1
  Se  Se87  1  0.37930352  0.89768818  0.72867565  1
  Se  Se88  1  0.62989779  0.39303979  0.47585486  1
  Se  Se89  1  0.12989779  0.10696021  0.52414514  1
  Se  Se90  1  0.37010221  0.60696021  0.52414514  1
  Se  Se91  1  0.87010221  0.89303979  0.47585486  1
  Se  Se92  1  0.04595331  0.41762184  0.42739189  1
  Se  Se93  1  0.54595331  0.08237816  0.57260811  1
  Se  Se94  1  0.95404669  0.58237816  0.57260811  1
  Se  Se95  1  0.45404669  0.91762184  0.42739189  1
  Se  Se96  1  0.34276776  0.36699532  0.45093857  1
  Se  Se97  1  0.84276776  0.13300468  0.54906143  1
  Se  Se98  1  0.65723224  0.63300468  0.54906143  1
  Se  Se99  1  0.15723224  0.86699532  0.45093857  1
  Se  Se100  1  0.52491408  0.37275726  0.24290544  1
  Se  Se101  1  0.02491408  0.12724274  0.75709456  1
  Se  Se102  1  0.47508592  0.62724274  0.75709456  1
  Se  Se103  1  0.97508592  0.87275726  0.24290544  1
  Se  Se104  1  0.81991189  0.37040166  0.19833043  1
  Se  Se105  1  0.31991189  0.12959834  0.80166957  1
  Se  Se106  1  0.18008811  0.62959834  0.80166957  1
  Se  Se107  1  0.68008811  0.87040166  0.19833043  1
  Se  Se108  1  0.10124249  0.40781322  0.20290610  1
  Se  Se109  1  0.60124249  0.09218678  0.79709390  1
  Se  Se110  1  0.89875751  0.59218678  0.79709390  1
  Se  Se111  1  0.39875751  0.90781322  0.20290610  1
  O  O112  1  0.80759199  0.32093657  0.91684925  1
  O  O113  1  0.30759199  0.17906343  0.08315075  1
  O  O114  1  0.19240801  0.67906343  0.08315075  1
  O  O115  1  0.69240801  0.82093657  0.91684925  1
  O  O116  1  0.33427233  0.32358659  0.66509766  1
  O  O117  1  0.83427233  0.17641341  0.33490234  1
  O  O118  1  0.66572767  0.67641341  0.33490234  1
  O  O119  1  0.16572767  0.82358659  0.66509766  1
  O  O120  1  0.83575776  0.32044132  0.41024028  1
  O  O121  1  0.33575776  0.17955868  0.58975972  1
  O  O122  1  0.16424224  0.67955868  0.58975972  1
  O  O123  1  0.66424224  0.82044132  0.41024028  1
  O  O124  1  0.31171825  0.31009050  0.17110460  1
  O  O125  1  0.81171825  0.18990950  0.82889540  1
  O  O126  1  0.68828175  0.68990950  0.82889540  1
  O  O127  1  0.18828175  0.81009050  0.17110460  1
  O  O128  1  0.67051316  0.41363699  0.01627005  1
  O  O129  1  0.17051316  0.08636301  0.98372995  1
  O  O130  1  0.32948684  0.58636301  0.98372995  1
  O  O131  1  0.82948684  0.91363699  0.01627005  1
  O  O132  1  0.59030353  0.31255324  0.91713657  1
  O  O133  1  0.09030353  0.18744676  0.08286343  1
  O  O134  1  0.40969647  0.68744676  0.08286343  1
  O  O135  1  0.90969647  0.81255324  0.91713657  1
  O  O136  1  0.67423720  0.45300417  0.87225361  1
  O  O137  1  0.17423720  0.04699583  0.12774639  1
  O  O138  1  0.32576280  0.54699583  0.12774639  1
  O  O139  1  0.82576280  0.95300417  0.87225361  1
  O  O140  1  0.02330419  0.30938903  0.92095131  1
  O  O141  1  0.52330419  0.19061097  0.07904869  1
  O  O142  1  0.97669581  0.69061097  0.07904869  1
  O  O143  1  0.47669581  0.80938903  0.92095131  1
  O  O144  1  0.94382113  0.45663029  0.94204256  1
  O  O145  1  0.44382113  0.04336971  0.05795744  1
  O  O146  1  0.05617887  0.54336971  0.05795744  1
  O  O147  1  0.55617887  0.95663029  0.94204256  1
  O  O148  1  0.92925848  0.34270834  0.05029715  1
  O  O149  1  0.42925848  0.15729166  0.94970285  1
  O  O150  1  0.07074152  0.65729166  0.94970285  1
  O  O151  1  0.57074152  0.84270834  0.05029715  1
  O  O152  1  0.22202570  0.29474629  0.97001843  1
  O  O153  1  0.72202570  0.20525371  0.02998157  1
  O  O154  1  0.77797430  0.70525371  0.02998157  1
  O  O155  1  0.27797430  0.79474629  0.97001843  1
  O  O156  1  0.37089690  0.38264220  0.02820943  1
  O  O157  1  0.87089690  0.11735780  0.97179057  1
  O  O158  1  0.62910310  0.61735780  0.97179057  1
  O  O159  1  0.12910310  0.88264220  0.02820943  1
  O  O160  1  0.37407808  0.34252372  0.88208560  1
  O  O161  1  0.87407808  0.15747628  0.11791440  1
  O  O162  1  0.62592192  0.65747628  0.11791440  1
  O  O163  1  0.12592192  0.84252372  0.88208560  1
  O  O164  1  0.45389363  0.47711622  0.65490284  1
  O  O165  1  0.95389363  0.02288378  0.34509716  1
  O  O166  1  0.54610637  0.52288378  0.34509716  1
  O  O167  1  0.04610637  0.97711622  0.65490284  1
  O  O168  1  0.54455753  0.33278872  0.63580663  1
  O  O169  1  0.04455753  0.16721128  0.36419337  1
  O  O170  1  0.45544247  0.66721128  0.36419337  1
  O  O171  1  0.95544247  0.83278872  0.63580663  1
  O  O172  1  0.48124320  0.37593318  0.77177654  1
  O  O173  1  0.98124320  0.12406682  0.22822346  1
  O  O174  1  0.51875680  0.62406682  0.22822346  1
  O  O175  1  0.01875680  0.87593318  0.77177654  1
  O  O176  1  0.73587840  0.30679934  0.70906508  1
  O  O177  1  0.23587840  0.19320066  0.29093492  1
  O  O178  1  0.26412160  0.69320066  0.29093492  1
  O  O179  1  0.76412160  0.80679934  0.70906508  1
  O  O180  1  0.88446488  0.38883342  0.77185022  1
  O  O181  1  0.38446488  0.11116658  0.22814978  1
  O  O182  1  0.11553512  0.61116658  0.22814978  1
  O  O183  1  0.61553512  0.88883342  0.77185022  1
  O  O184  1  0.89595631  0.34713762  0.62391265  1
  O  O185  1  0.39595631  0.15286238  0.37608735  1
  O  O186  1  0.10404369  0.65286238  0.37608735  1
  O  O187  1  0.60404369  0.84713762  0.62391265  1
  O  O188  1  0.19965939  0.35396337  0.79248913  1
  O  O189  1  0.69965939  0.14603663  0.20751087  1
  O  O190  1  0.80034061  0.64603663  0.20751087  1
  O  O191  1  0.30034061  0.85396337  0.79248913  1
  O  O192  1  0.11426058  0.31581356  0.66287620  1
  O  O193  1  0.61426058  0.18418644  0.33712380  1
  O  O194  1  0.88573942  0.68418644  0.33712380  1
  O  O195  1  0.38573942  0.81581356  0.66287620  1
  O  O196  1  0.19997786  0.46498580  0.68517285  1
  O  O197  1  0.69997786  0.03501420  0.31482715  1
  O  O198  1  0.80002214  0.53501420  0.31482715  1
  O  O199  1  0.30002214  0.96498580  0.68517285  1
  O  O200  1  0.71304320  0.35314402  0.53825007  1
  O  O201  1  0.21304320  0.14685598  0.46174993  1
  O  O202  1  0.28695680  0.64685598  0.46174993  1
  O  O203  1  0.78695680  0.85314402  0.53825007  1
  O  O204  1  0.61892659  0.31009358  0.41214626  1
  O  O205  1  0.11892659  0.18990642  0.58785374  1
  O  O206  1  0.38107341  0.68990642  0.58785374  1
  O  O207  1  0.88107341  0.81009358  0.41214626  1
  O  O208  1  0.70465826  0.46068792  0.42804069  1
  O  O209  1  0.20465826  0.03931208  0.57195931  1
  O  O210  1  0.29534174  0.53931208  0.57195931  1
  O  O211  1  0.79534174  0.96068792  0.42804069  1
  O  O212  1  0.97027397  0.44707828  0.35631817  1
  O  O213  1  0.47027397  0.05292172  0.64368183  1
  O  O214  1  0.02972603  0.55292172  0.64368183  1
  O  O215  1  0.52972603  0.94707828  0.35631817  1
  O  O216  1  0.05122146  0.30846566  0.41125674  1
  O  O217  1  0.55122146  0.19153434  0.58874326  1
  O  O218  1  0.94877854  0.69153434  0.58874326  1
  O  O219  1  0.44877854  0.80846566  0.41125674  1
  O  O220  1  0.97281005  0.41444271  0.50433379  1
  O  O221  1  0.47281005  0.08555729  0.49566621  1
  O  O222  1  0.02718995  0.58555729  0.49566621  1
  O  O223  1  0.52718995  0.91444271  0.50433379  1
  O  O224  1  0.26913687  0.36692576  0.52717861  1
  O  O225  1  0.76913687  0.13307424  0.47282139  1
  O  O226  1  0.73086313  0.63307424  0.47282139  1
  O  O227  1  0.23086313  0.86692576  0.52717861  1
  O  O228  1  0.42298291  0.28647861  0.47051658  1
  O  O229  1  0.92298291  0.21352139  0.52948342  1
  O  O230  1  0.57701709  0.71352139  0.52948342  1
  O  O231  1  0.07701709  0.78647861  0.47051658  1
  O  O232  1  0.26501211  0.32221237  0.38431141  1
  O  O233  1  0.76501211  0.17778763  0.61568859  1
  O  O234  1  0.73498789  0.67778763  0.61568859  1
  O  O235  1  0.23498789  0.82221237  0.38431141  1
  O  O236  1  0.45343152  0.44237776  0.19782403  1
  O  O237  1  0.95343152  0.05762224  0.80217597  1
  O  O238  1  0.54656848  0.55762224  0.80217597  1
  O  O239  1  0.04656848  0.94237776  0.19782403  1
  O  O240  1  0.53287789  0.29275090  0.17470371  1
  O  O241  1  0.03287789  0.20724910  0.82529629  1
  O  O242  1  0.46712211  0.70724910  0.82529629  1
  O  O243  1  0.96712211  0.79275090  0.17470371  1
  O  O244  1  0.44151086  0.32611419  0.30237663  1
  O  O245  1  0.94151086  0.17388581  0.69762337  1
  O  O246  1  0.55848914  0.67388581  0.69762337  1
  O  O247  1  0.05848914  0.82611419  0.30237663  1
  O  O248  1  0.74496401  0.32847027  0.12773782  1
  O  O249  1  0.24496401  0.17152973  0.87226218  1
  O  O250  1  0.25503599  0.67152973  0.87226218  1
  O  O251  1  0.75503599  0.82847027  0.12773782  1
  O  O252  1  0.74787141  0.36234399  0.27424060  1
  O  O253  1  0.24787141  0.13765601  0.72575940  1
  O  O254  1  0.25212859  0.63765601  0.72575940  1
  O  O255  1  0.75212859  0.86234399  0.27424060  1
  O  O256  1  0.90224970  0.29049635  0.21388188  1
  O  O257  1  0.40224970  0.20950365  0.78611812  1
  O  O258  1  0.09775030  0.70950365  0.78611812  1
  O  O259  1  0.59775030  0.79049635  0.21388188  1
  O  O260  1  0.18174807  0.44754155  0.13608269  1
  O  O261  1  0.68174807  0.05245845  0.86391731  1
  O  O262  1  0.81825193  0.55245845  0.86391731  1
  O  O263  1  0.31825193  0.94754155  0.13608269  1
  O  O264  1  0.17633855  0.39499499  0.27603783  1
  O  O265  1  0.67633855  0.10500501  0.72396217  1
  O  O266  1  0.82366145  0.60500501  0.72396217  1
  O  O267  1  0.32366145  0.89499499  0.27603783  1
  O  O268  1  0.09704609  0.30648687  0.16515318  1
  O  O269  1  0.59704609  0.19351313  0.83484682  1
  O  O270  1  0.90295391  0.69351313  0.83484682  1
  O  O271  1  0.40295391  0.80648687  0.16515318  1
