# generated using pymatgen
data_Sr(BO4)2
_symmetry_space_group_name_H-M   'P 1'
_cell_length_a   15.66210900
_cell_length_b   8.36242800
_cell_length_c   10.69395505
_cell_angle_alpha   62.31483034
_cell_angle_beta   90.00000000
_cell_angle_gamma   90.00000000
_symmetry_Int_Tables_number   1
_chemical_formula_structural   Sr(BO4)2
_chemical_formula_sum   'Sr8 B16 O64'
_cell_volume   1240.27039669
_cell_formula_units_Z   8
loop_
 _symmetry_equiv_pos_site_id
 _symmetry_equiv_pos_as_xyz
  1  'x, y, z'
loop_
 _atom_site_type_symbol
 _atom_site_label
 _atom_site_symmetry_multiplicity
 _atom_site_fract_x
 _atom_site_fract_y
 _atom_site_fract_z
 _atom_site_occupancy
  Sr  Sr0  1  0.83188200  0.99101900  0.77153700  1
  Sr  Sr1  1  0.66811800  0.99101900  0.27153700  1
  Sr  Sr2  1  0.16811800  0.00898100  0.22846300  1
  Sr  Sr3  1  0.33188200  0.00898100  0.72846300  1
  Sr  Sr4  1  0.58879200  0.51846500  0.73099700  1
  Sr  Sr5  1  0.91120800  0.51846500  0.23099700  1
  Sr  Sr6  1  0.41120800  0.48153500  0.26900300  1
  Sr  Sr7  1  0.08879200  0.48153500  0.76900300  1
  B  B8  1  0.00646900  0.23307200  0.57861600  1
  B  B9  1  0.49353100  0.23307200  0.07861600  1
  B  B10  1  0.99353100  0.76692800  0.42138400  1
  B  B11  1  0.50646900  0.76692800  0.92138400  1
  B  B12  1  0.97757500  0.21476900  0.07183200  1
  B  B13  1  0.52242500  0.21476900  0.57183200  1
  B  B14  1  0.02242500  0.78523100  0.92816800  1
  B  B15  1  0.47757500  0.78523100  0.42816800  1
  B  B16  1  0.73808900  0.28432000  0.43260300  1
  B  B17  1  0.76191100  0.28432000  0.93260300  1
  B  B18  1  0.26191100  0.71568000  0.56739700  1
  B  B19  1  0.23808900  0.71568000  0.06739700  1
  B  B20  1  0.77652100  0.72417700  0.57273100  1
  B  B21  1  0.72347900  0.72417700  0.07273100  1
  B  B22  1  0.22347900  0.27582300  0.42726900  1
  B  B23  1  0.27652100  0.27582300  0.92726900  1
  O  O24  1  0.57615100  0.71481900  0.86183800  1
  O  O25  1  0.92384900  0.71481900  0.36183800  1
  O  O26  1  0.42384900  0.28518100  0.13816200  1
  O  O27  1  0.07615100  0.28518100  0.63816200  1
  O  O28  1  0.98507900  0.66849700  0.57185500  1
  O  O29  1  0.51492100  0.66849700  0.07185500  1
  O  O30  1  0.01492100  0.33150300  0.42814500  1
  O  O31  1  0.48507900  0.33150300  0.92814500  1
  O  O32  1  0.92359100  0.30140000  0.59825800  1
  O  O33  1  0.57640900  0.30140000  0.09825800  1
  O  O34  1  0.07640900  0.69860000  0.40174200  1
  O  O35  1  0.42359100  0.69860000  0.90174200  1
  O  O36  1  0.98106200  0.04641400  0.63584400  1
  O  O37  1  0.51893800  0.04641400  0.13584400  1
  O  O38  1  0.01893800  0.95358600  0.36415600  1
  O  O39  1  0.48106200  0.95358600  0.86415600  1
  O  O40  1  0.00037600  0.97389600  0.87000400  1
  O  O41  1  0.49962400  0.97389600  0.37000400  1
  O  O42  1  0.99962400  0.02610400  0.12999600  1
  O  O43  1  0.50037600  0.02610400  0.62999600  1
  O  O44  1  0.93637500  0.71986200  0.92392300  1
  O  O45  1  0.56362500  0.71986200  0.42392300  1
  O  O46  1  0.06362500  0.28013800  0.07607700  1
  O  O47  1  0.43637500  0.28013800  0.57607700  1
  O  O48  1  0.95554200  0.30939600  0.92327500  1
  O  O49  1  0.54445800  0.30939600  0.42327500  1
  O  O50  1  0.04445800  0.69060400  0.07672500  1
  O  O51  1  0.45554200  0.69060400  0.57672500  1
  O  O52  1  0.91667400  0.28424500  0.13348500  1
  O  O53  1  0.58332600  0.28424500  0.63348500  1
  O  O54  1  0.08332600  0.71575500  0.86651500  1
  O  O55  1  0.41667400  0.71575500  0.36651500  1
  O  O56  1  0.74166200  0.47443500  0.86735900  1
  O  O57  1  0.75833800  0.47443500  0.36735900  1
  O  O58  1  0.25833800  0.52556500  0.13264100  1
  O  O59  1  0.24166200  0.52556500  0.63264100  1
  O  O60  1  0.82331400  0.21245800  0.87418700  1
  O  O61  1  0.67668600  0.21245800  0.37418700  1
  O  O62  1  0.17668600  0.78754200  0.12581300  1
  O  O63  1  0.32331400  0.78754200  0.62581300  1
  O  O64  1  0.77709700  0.19291100  0.08234400  1
  O  O65  1  0.72290300  0.19291100  0.58234400  1
  O  O66  1  0.22290300  0.80708900  0.91765600  1
  O  O67  1  0.27709700  0.80708900  0.41765600  1
  O  O68  1  0.82300600  0.22728300  0.40853300  1
  O  O69  1  0.67699400  0.22728300  0.90853300  1
  O  O70  1  0.17699400  0.77271700  0.59146700  1
  O  O71  1  0.32300600  0.77271700  0.09146700  1
  O  O72  1  0.69537900  0.81390800  0.92762300  1
  O  O73  1  0.80462100  0.81390800  0.42762300  1
  O  O74  1  0.30462100  0.18609200  0.07237700  1
  O  O75  1  0.19537900  0.18609200  0.57237700  1
  O  O76  1  0.82853500  0.78869700  0.64825400  1
  O  O77  1  0.67146500  0.78869700  0.14825400  1
  O  O78  1  0.17146500  0.21130300  0.35174600  1
  O  O79  1  0.32853500  0.21130300  0.85174600  1
  O  O80  1  0.69174500  0.79859200  0.57991500  1
  O  O81  1  0.80825500  0.79859200  0.07991500  1
  O  O82  1  0.30825500  0.20140800  0.42008500  1
  O  O83  1  0.19174500  0.20140800  0.92008500  1
  O  O84  1  0.75061300  0.53903900  0.13228300  1
  O  O85  1  0.74938700  0.53903900  0.63228300  1
  O  O86  1  0.24938700  0.46096100  0.86771700  1
  O  O87  1  0.25061300  0.46096100  0.36771700  1
