# generated using pymatgen
data_MnH6SO7
_symmetry_space_group_name_H-M   'P 1'
_cell_length_a   10.21057100
_cell_length_b   10.21951500
_cell_length_c   12.08624000
_cell_angle_alpha   90.00000000
_cell_angle_beta   90.00000000
_cell_angle_gamma   90.00000000
_symmetry_Int_Tables_number   1
_chemical_formula_structural   MnH6SO7
_chemical_formula_sum   'Mn8 H48 S8 O56'
_cell_volume   1261.16389440
_cell_formula_units_Z   8
loop_
 _symmetry_equiv_pos_site_id
 _symmetry_equiv_pos_as_xyz
  1  'x, y, z'
loop_
 _atom_site_type_symbol
 _atom_site_label
 _atom_site_symmetry_multiplicity
 _atom_site_fract_x
 _atom_site_fract_y
 _atom_site_fract_z
 _atom_site_occupancy
  Mn  Mn0  1  0.58871800  0.80188300  0.27426600  1
  Mn  Mn1  1  0.08871800  0.69811700  0.72573400  1
  Mn  Mn2  1  0.41128200  0.30188300  0.22573400  1
  Mn  Mn3  1  0.91128200  0.19811700  0.77426600  1
  Mn  Mn4  1  0.41128200  0.19811700  0.72573400  1
  Mn  Mn5  1  0.91128200  0.30188300  0.27426600  1
  Mn  Mn6  1  0.58871800  0.69811700  0.77426600  1
  Mn  Mn7  1  0.08871800  0.80188300  0.22573400  1
  H  H8  1  0.38450200  0.80568900  0.11046500  1
  H  H9  1  0.88450200  0.69431100  0.88953500  1
  H  H10  1  0.61549800  0.30568900  0.38953500  1
  H  H11  1  0.11549800  0.19431100  0.61046500  1
  H  H12  1  0.61549800  0.19431100  0.88953500  1
  H  H13  1  0.11549800  0.30568900  0.11046500  1
  H  H14  1  0.38450200  0.69431100  0.61046500  1
  H  H15  1  0.88450200  0.80568900  0.38953500  1
  H  H16  1  0.49786500  0.89480700  0.06600200  1
  H  H17  1  0.99786500  0.60519300  0.93399800  1
  H  H18  1  0.50213500  0.39480700  0.43399800  1
  H  H19  1  0.00213500  0.10519300  0.56600200  1
  H  H20  1  0.50213500  0.10519300  0.93399800  1
  H  H21  1  0.00213500  0.39480700  0.06600200  1
  H  H22  1  0.49786500  0.60519300  0.56600200  1
  H  H23  1  0.99786500  0.89480700  0.43399800  1
  H  H24  1  0.36071100  0.66184100  0.32806300  1
  H  H25  1  0.86071100  0.83815900  0.67193700  1
  H  H26  1  0.63928900  0.16184100  0.17193700  1
  H  H27  1  0.13928900  0.33815900  0.82806300  1
  H  H28  1  0.63928900  0.33815900  0.67193700  1
  H  H29  1  0.13928900  0.16184100  0.32806300  1
  H  H30  1  0.36071100  0.83815900  0.82806300  1
  H  H31  1  0.86071100  0.66184100  0.17193700  1
  H  H32  1  0.47467600  0.57847300  0.27673900  1
  H  H33  1  0.97467600  0.92152700  0.72326100  1
  H  H34  1  0.52532400  0.07847300  0.22326100  1
  H  H35  1  0.02532400  0.42152700  0.77673900  1
  H  H36  1  0.52532400  0.42152700  0.72326100  1
  H  H37  1  0.02532400  0.07847300  0.27673900  1
  H  H38  1  0.47467600  0.92152700  0.77673900  1
  H  H39  1  0.97467600  0.57847300  0.22326100  1
  H  H40  1  0.72705300  0.69210400  0.46936000  1
  H  H41  1  0.22705300  0.80789600  0.53064000  1
  H  H42  1  0.27294700  0.19210400  0.03064000  1
  H  H43  1  0.77294700  0.30789600  0.96936000  1
  H  H44  1  0.27294700  0.30789600  0.53064000  1
  H  H45  1  0.77294700  0.19210400  0.46936000  1
  H  H46  1  0.72705300  0.80789600  0.96936000  1
  H  H47  1  0.22705300  0.69210400  0.03064000  1
  H  H48  1  0.70537400  0.84811800  0.47777100  1
  H  H49  1  0.20537400  0.65188200  0.52222900  1
  H  H50  1  0.29462600  0.34811800  0.02222900  1
  H  H51  1  0.79462600  0.15188200  0.97777100  1
  H  H52  1  0.29462600  0.15188200  0.52222900  1
  H  H53  1  0.79462600  0.34811800  0.47777100  1
  H  H54  1  0.70537400  0.65188200  0.97777100  1
  H  H55  1  0.20537400  0.84811800  0.02222900  1
  S  S56  1  0.66846000  0.50039000  0.15002100  1
  S  S57  1  0.16846000  0.99961000  0.84997900  1
  S  S58  1  0.33154000  0.00039000  0.34997900  1
  S  S59  1  0.83154000  0.49961000  0.65002100  1
  S  S60  1  0.33154000  0.49961000  0.84997900  1
  S  S61  1  0.83154000  0.00039000  0.15002100  1
  S  S62  1  0.66846000  0.99961000  0.65002100  1
  S  S63  1  0.16846000  0.50039000  0.34997900  1
  O  O64  1  0.52493200  0.47368600  0.16642200  1
  O  O65  1  0.02493200  0.02631400  0.83357800  1
  O  O66  1  0.47506800  0.97368600  0.33357800  1
  O  O67  1  0.97506800  0.52631400  0.66642200  1
  O  O68  1  0.47506800  0.52631400  0.83357800  1
  O  O69  1  0.97506800  0.97368600  0.16642200  1
  O  O70  1  0.52493200  0.02631400  0.66642200  1
  O  O71  1  0.02493200  0.47368600  0.33357800  1
  O  O72  1  0.74516500  0.41167900  0.22224900  1
  O  O73  1  0.24516500  0.08832100  0.77775100  1
  O  O74  1  0.25483500  0.91167900  0.27775100  1
  O  O75  1  0.75483500  0.58832100  0.72224900  1
  O  O76  1  0.25483500  0.58832100  0.77775100  1
  O  O77  1  0.75483500  0.91167900  0.22224900  1
  O  O78  1  0.74516500  0.08832100  0.72224900  1
  O  O79  1  0.24516500  0.41167900  0.27775100  1
  O  O80  1  0.70734600  0.48449200  0.03262100  1
  O  O81  1  0.20734600  0.01550800  0.96737900  1
  O  O82  1  0.29265400  0.98449200  0.46737900  1
  O  O83  1  0.79265400  0.51550800  0.53262100  1
  O  O84  1  0.29265400  0.51550800  0.96737900  1
  O  O85  1  0.79265400  0.98449200  0.03262100  1
  O  O86  1  0.70734600  0.01550800  0.53262100  1
  O  O87  1  0.20734600  0.48449200  0.46737900  1
  O  O88  1  0.69416800  0.63982600  0.18421600  1
  O  O89  1  0.19416800  0.86017400  0.81578400  1
  O  O90  1  0.30583200  0.13982600  0.31578400  1
  O  O91  1  0.80583200  0.36017400  0.68421600  1
  O  O92  1  0.30583200  0.36017400  0.81578400  1
  O  O93  1  0.80583200  0.13982600  0.18421600  1
  O  O94  1  0.69416800  0.86017400  0.68421600  1
  O  O95  1  0.19416800  0.63982600  0.31578400  1
  O  O96  1  0.48058600  0.82164700  0.11515400  1
  O  O97  1  0.98058600  0.67835300  0.88484600  1
  O  O98  1  0.51941400  0.32164700  0.38484600  1
  O  O99  1  0.01941400  0.17835300  0.61515400  1
  O  O100  1  0.51941400  0.17835300  0.88484600  1
  O  O101  1  0.01941400  0.32164700  0.11515400  1
  O  O102  1  0.48058600  0.67835300  0.61515400  1
  O  O103  1  0.98058600  0.82164700  0.38484600  1
  O  O104  1  0.45776400  0.64895700  0.33154200  1
  O  O105  1  0.95776400  0.85104300  0.66845800  1
  O  O106  1  0.54223600  0.14895700  0.16845800  1
  O  O107  1  0.04223600  0.35104300  0.83154200  1
  O  O108  1  0.54223600  0.35104300  0.66845800  1
  O  O109  1  0.04223600  0.14895700  0.33154200  1
  O  O110  1  0.45776400  0.85104300  0.83154200  1
  O  O111  1  0.95776400  0.64895700  0.16845800  1
  O  O112  1  0.71837100  0.77319300  0.42603400  1
  O  O113  1  0.21837100  0.72680700  0.57396600  1
  O  O114  1  0.28162900  0.27319300  0.07396600  1
  O  O115  1  0.78162900  0.22680700  0.92603400  1
  O  O116  1  0.28162900  0.22680700  0.57396600  1
  O  O117  1  0.78162900  0.27319300  0.42603400  1
  O  O118  1  0.71837100  0.72680700  0.92603400  1
  O  O119  1  0.21837100  0.77319300  0.07396600  1
