# generated using pymatgen
data_SbH8C2S2Br3N4O
_symmetry_space_group_name_H-M   'P 1'
_cell_length_a   8.75054522
_cell_length_b   8.75054522
_cell_length_c   20.00858800
_cell_angle_alpha   90.00000000
_cell_angle_beta   90.00000000
_cell_angle_gamma   91.73273566
_symmetry_Int_Tables_number   1
_chemical_formula_structural   SbH8C2S2Br3N4O
_chemical_formula_sum   'Sb4 H32 C8 S8 Br12 N16 O4'
_cell_volume   1531.39787604
_cell_formula_units_Z   4
loop_
 _symmetry_equiv_pos_site_id
 _symmetry_equiv_pos_as_xyz
  1  'x, y, z'
loop_
 _atom_site_type_symbol
 _atom_site_label
 _atom_site_symmetry_multiplicity
 _atom_site_fract_x
 _atom_site_fract_y
 _atom_site_fract_z
 _atom_site_occupancy
  Sb  Sb0  1  0.91026800  0.91026800  0.09556000  1
  Sb  Sb1  1  0.08973200  0.08973200  0.90444000  1
  Sb  Sb2  1  0.58973200  0.58973200  0.59556000  1
  Sb  Sb3  1  0.41026800  0.41026800  0.40444000  1
  H  H4  1  0.37653700  0.00885300  0.07314300  1
  H  H5  1  0.99114700  0.62346300  0.92685700  1
  H  H6  1  0.49114700  0.12346300  0.57314300  1
  H  H7  1  0.87653700  0.50885300  0.42685700  1
  H  H8  1  0.62346300  0.99114700  0.92685700  1
  H  H9  1  0.00885300  0.37653700  0.07314300  1
  H  H10  1  0.50885300  0.87653700  0.42685700  1
  H  H11  1  0.12346300  0.49114700  0.57314300  1
  H  H12  1  0.54394400  0.12344300  0.07684800  1
  H  H13  1  0.87655700  0.45605600  0.92315200  1
  H  H14  1  0.37655700  0.95605600  0.57684800  1
  H  H15  1  0.04394400  0.62344300  0.42315200  1
  H  H16  1  0.45605600  0.87655700  0.92315200  1
  H  H17  1  0.12344300  0.54394400  0.07684800  1
  H  H18  1  0.62344300  0.04394400  0.42315200  1
  H  H19  1  0.95605600  0.37655700  0.57684800  1
  H  H20  1  0.34656300  0.80215800  0.14806600  1
  H  H21  1  0.19784200  0.65343700  0.85193400  1
  H  H22  1  0.69784200  0.15343700  0.64806600  1
  H  H23  1  0.84656300  0.30215800  0.35193400  1
  H  H24  1  0.65343700  0.19784200  0.85193400  1
  H  H25  1  0.80215800  0.34656300  0.14806600  1
  H  H26  1  0.30215800  0.84656300  0.35193400  1
  H  H27  1  0.15343700  0.69784200  0.64806600  1
  H  H28  1  0.49402000  0.76276400  0.20365500  1
  H  H29  1  0.23723600  0.50598000  0.79634500  1
  H  H30  1  0.73723600  0.00598000  0.70365500  1
  H  H31  1  0.99402000  0.26276400  0.29634500  1
  H  H32  1  0.50598000  0.23723600  0.79634500  1
  H  H33  1  0.76276400  0.49402000  0.20365500  1
  H  H34  1  0.26276400  0.99402000  0.29634500  1
  H  H35  1  0.00598000  0.73723600  0.70365500  1
  C  C36  1  0.53356100  0.94933800  0.14384700  1
  C  C37  1  0.05066200  0.46643900  0.85615300  1
  C  C38  1  0.55066200  0.96643900  0.64384700  1
  C  C39  1  0.03356100  0.44933800  0.35615300  1
  C  C40  1  0.46643900  0.05066200  0.85615300  1
  C  C41  1  0.94933800  0.53356100  0.14384700  1
  C  C42  1  0.44933800  0.03356100  0.35615300  1
  C  C43  1  0.96643900  0.55066200  0.64384700  1
  S  S44  1  0.70840900  0.99982100  0.18100900  1
  S  S45  1  0.00017900  0.29159100  0.81899100  1
  S  S46  1  0.50017900  0.79159100  0.68100900  1
  S  S47  1  0.20840900  0.49982100  0.31899100  1
  S  S48  1  0.29159100  0.00017900  0.81899100  1
  S  S49  1  0.99982100  0.70840900  0.18100900  1
  S  S50  1  0.49982100  0.20840900  0.31899100  1
  S  S51  1  0.79159100  0.50017900  0.68100900  1
  Br  Br52  1  0.08330700  0.08330700  0.19143600  1
  Br  Br53  1  0.91669300  0.91669300  0.80856400  1
  Br  Br54  1  0.41669300  0.41669300  0.69143600  1
  Br  Br55  1  0.58330700  0.58330700  0.30856400  1
  Br  Br56  1  0.71559900  0.71559900  0.03329700  1
  Br  Br57  1  0.28440100  0.28440100  0.96670300  1
  Br  Br58  1  0.78440100  0.78440100  0.53329700  1
  Br  Br59  1  0.21559900  0.21559900  0.46670300  1
  Br  Br60  1  0.18214800  0.81785200  0.00000000  1
  Br  Br61  1  0.68214800  0.31785200  0.50000000  1
  Br  Br62  1  0.81785200  0.18214800  0.00000000  1
  Br  Br63  1  0.31785200  0.68214800  0.50000000  1
  N  N64  1  0.47975900  0.03390600  0.09483800  1
  N  N65  1  0.96609400  0.52024100  0.90516200  1
  N  N66  1  0.46609400  0.02024100  0.59483800  1
  N  N67  1  0.97975900  0.53390600  0.40516200  1
  N  N68  1  0.52024100  0.96609400  0.90516200  1
  N  N69  1  0.03390600  0.47975900  0.09483800  1
  N  N70  1  0.53390600  0.97975900  0.40516200  1
  N  N71  1  0.02024100  0.46609400  0.59483800  1
  N  N72  1  0.45179200  0.83026300  0.16714500  1
  N  N73  1  0.16973700  0.54820800  0.83285500  1
  N  N74  1  0.66973700  0.04820800  0.66714500  1
  N  N75  1  0.95179200  0.33026300  0.33285500  1
  N  N76  1  0.54820800  0.16973700  0.83285500  1
  N  N77  1  0.83026300  0.45179200  0.16714500  1
  N  N78  1  0.33026300  0.95179200  0.33285500  1
  N  N79  1  0.04820800  0.66973700  0.66714500  1
  O  O80  1  0.43549300  0.43549300  0.13998400  1
  O  O81  1  0.56450700  0.56450700  0.86001600  1
  O  O82  1  0.06450700  0.06450700  0.63998400  1
  O  O83  1  0.93549300  0.93549300  0.36001600  1
