# generated using pymatgen
data_SiC
_symmetry_space_group_name_H-M   'P 1'
_cell_length_a   3.09485074
_cell_length_b   3.09485074
_cell_length_c   48.12149677
_cell_angle_alpha   88.15724305
_cell_angle_beta   88.15724305
_cell_angle_gamma   60.00002690
_symmetry_Int_Tables_number   1
_chemical_formula_structural   SiC
_chemical_formula_sum   'Si19 C19'
_cell_volume   398.88683191
_cell_formula_units_Z   19
loop_
 _symmetry_equiv_pos_site_id
 _symmetry_equiv_pos_as_xyz
  1  'x, y, z'
loop_
 _atom_site_type_symbol
 _atom_site_label
 _atom_site_symmetry_multiplicity
 _atom_site_fract_x
 _atom_site_fract_y
 _atom_site_fract_z
 _atom_site_occupancy
  Si  Si0  1  0.00000600  0.00000600  0.99998100  1
  Si  Si1  1  0.92981800  0.92981800  0.21054600  1
  Si  Si2  1  0.89472500  0.89472500  0.31582400  1
  Si  Si3  1  0.82458400  0.82458400  0.52624900  1
  Si  Si4  1  0.78948100  0.78948100  0.63155600  1
  Si  Si5  1  0.71930100  0.71930100  0.84209800  1
  Si  Si6  1  0.68421900  0.68421900  0.94734200  1
  Si  Si7  1  0.63157700  0.63157700  0.10526800  1
  Si  Si8  1  0.57893800  0.57893800  0.26318700  1
  Si  Si9  1  0.52632200  0.52632200  0.42103300  1
  Si  Si10  1  0.47369700  0.47369700  0.57890900  1
  Si  Si11  1  0.42107700  0.42107700  0.73676900  1
  Si  Si12  1  0.36841800  0.36841800  0.89474700  1
  Si  Si13  1  0.31579200  0.31579200  0.05262300  1
  Si  Si14  1  0.28068900  0.28068900  0.15793400  1
  Si  Si15  1  0.21053300  0.21053300  0.36840200  1
  Si  Si16  1  0.17544500  0.17544500  0.47366500  1
  Si  Si17  1  0.10528900  0.10528900  0.68413300  1
  Si  Si18  1  0.07018700  0.07018700  0.78944000  1
  C  C19  1  0.98682600  0.98682600  0.03952300  1
  C  C20  1  0.91667100  0.91667100  0.24998700  1
  C  C21  1  0.88157300  0.88157300  0.35528000  1
  C  C22  1  0.81142500  0.81142500  0.56572400  1
  C  C23  1  0.77632000  0.77632000  0.67104100  1
  C  C24  1  0.70613900  0.70613900  0.88158300  1
  C  C25  1  0.67106200  0.67106200  0.98681300  1
  C  C26  1  0.61838300  0.61838300  0.14485200  1
  C  C27  1  0.56575600  0.56575600  0.30273200  1
  C  C28  1  0.51314300  0.51314300  0.46057100  1
  C  C29  1  0.46050200  0.46050200  0.61849400  1
  C  C30  1  0.40788200  0.40788200  0.77635500  1
  C  C31  1  0.35524200  0.35524200  0.93427300  1
  C  C32  1  0.30263200  0.30263200  0.09210300  1
  C  C33  1  0.26752300  0.26752300  0.19743100  1
  C  C34  1  0.19739000  0.19739000  0.40783100  1
  C  C35  1  0.16229000  0.16229000  0.51313000  1
  C  C36  1  0.09213300  0.09213300  0.72360200  1
  C  C37  1  0.05701000  0.05701000  0.82897000  1
