# generated using pymatgen
data_KAlBP2O9
_symmetry_space_group_name_H-M   'P 1'
_cell_length_a   8.28986400
_cell_length_b   9.38822884
_cell_length_c   9.42808035
_cell_angle_alpha   103.03806347
_cell_angle_beta   90.00000000
_cell_angle_gamma   90.00000000
_symmetry_Int_Tables_number   1
_chemical_formula_structural   KAlBP2O9
_chemical_formula_sum   'K4 Al4 B4 P8 O36'
_cell_volume   714.84448426
_cell_formula_units_Z   4
loop_
 _symmetry_equiv_pos_site_id
 _symmetry_equiv_pos_as_xyz
  1  'x, y, z'
loop_
 _atom_site_type_symbol
 _atom_site_label
 _atom_site_symmetry_multiplicity
 _atom_site_fract_x
 _atom_site_fract_y
 _atom_site_fract_z
 _atom_site_occupancy
  K  K0  1  0.09627700  0.80025200  0.93015500  1
  K  K1  1  0.59627700  0.19974800  0.56984500  1
  K  K2  1  0.90372300  0.19974800  0.06984500  1
  K  K3  1  0.40372300  0.80025200  0.43015500  1
  Al  Al4  1  0.65207000  0.79322500  0.06534400  1
  Al  Al5  1  0.15207000  0.20677500  0.43465600  1
  Al  Al6  1  0.34793000  0.20677500  0.93465600  1
  Al  Al7  1  0.84793000  0.79322500  0.56534400  1
  B  B8  1  0.05740900  0.66562300  0.30728900  1
  B  B9  1  0.55740900  0.33437700  0.19271100  1
  B  B10  1  0.94259100  0.33437700  0.69271100  1
  B  B11  1  0.44259100  0.66562300  0.80728900  1
  P  P12  1  0.93385600  0.93089100  0.29532200  1
  P  P13  1  0.43385600  0.06910900  0.20467800  1
  P  P14  1  0.06614400  0.06910900  0.70467800  1
  P  P15  1  0.56614400  0.93089100  0.79532200  1
  P  P16  1  0.74098500  0.58181800  0.27606700  1
  P  P17  1  0.24098500  0.41818200  0.22393300  1
  P  P18  1  0.25901500  0.41818200  0.72393300  1
  P  P19  1  0.75901500  0.58181800  0.77606700  1
  O  O20  1  0.51138500  0.91968900  0.19378700  1
  O  O21  1  0.01138500  0.08031100  0.30621300  1
  O  O22  1  0.48861500  0.08031100  0.80621300  1
  O  O23  1  0.98861500  0.91968900  0.69378700  1
  O  O24  1  0.83535900  0.91955300  0.42963600  1
  O  O25  1  0.33535900  0.08044700  0.07036400  1
  O  O26  1  0.16464100  0.08044700  0.57036400  1
  O  O27  1  0.66464100  0.91955300  0.92963600  1
  O  O28  1  0.83993000  0.89104200  0.15161900  1
  O  O29  1  0.33993000  0.10895800  0.34838100  1
  O  O30  1  0.16007000  0.10895800  0.84838100  1
  O  O31  1  0.66007000  0.89104200  0.65161900  1
  O  O32  1  0.08087100  0.81429800  0.27644900  1
  O  O33  1  0.58087100  0.18570200  0.22355100  1
  O  O34  1  0.91912900  0.18570200  0.72355100  1
  O  O35  1  0.41912900  0.81429800  0.77644900  1
  O  O36  1  0.04150800  0.70529300  0.46418500  1
  O  O37  1  0.54150800  0.29470700  0.03581500  1
  O  O38  1  0.95849200  0.29470700  0.53581500  1
  O  O39  1  0.45849200  0.70529300  0.96418500  1
  O  O40  1  0.63196300  0.66046300  0.18773200  1
  O  O41  1  0.13196300  0.33953700  0.31226800  1
  O  O42  1  0.36803700  0.33953700  0.81226800  1
  O  O43  1  0.86803700  0.66046300  0.68773200  1
  O  O44  1  0.72075700  0.64848200  0.43813600  1
  O  O45  1  0.22075700  0.35151800  0.06186400  1
  O  O46  1  0.27924300  0.35151800  0.56186400  1
  O  O47  1  0.77924300  0.64848200  0.93813600  1
  O  O48  1  0.92230500  0.58480200  0.22836600  1
  O  O49  1  0.42230500  0.41519800  0.27163400  1
  O  O50  1  0.07769500  0.41519800  0.77163400  1
  O  O51  1  0.57769500  0.58480200  0.72836600  1
  O  O52  1  0.70724600  0.41368900  0.24070000  1
  O  O53  1  0.20724600  0.58631100  0.25930000  1
  O  O54  1  0.29275400  0.58631100  0.75930000  1
  O  O55  1  0.79275400  0.41368900  0.74070000  1
