# generated using pymatgen
data_Ca
_symmetry_space_group_name_H-M   'P 1'
_cell_length_a   6.20059370
_cell_length_b   6.20059370
_cell_length_c   6.20059370
_cell_angle_alpha   106.08259900
_cell_angle_beta   106.08259900
_cell_angle_gamma   116.48441111
_symmetry_Int_Tables_number   1
_chemical_formula_structural   Ca
_chemical_formula_sum   Ca4
_cell_volume   181.43128960
_cell_formula_units_Z   4
loop_
 _symmetry_equiv_pos_site_id
 _symmetry_equiv_pos_as_xyz
  1  'x, y, z'
loop_
 _atom_site_type_symbol
 _atom_site_label
 _atom_site_symmetry_multiplicity
 _atom_site_fract_x
 _atom_site_fract_y
 _atom_site_fract_z
 _atom_site_occupancy
  Ca  Ca0  1  0.16976600  0.66976600  0.83953100  1
  Ca  Ca1  1  0.83023400  0.33023400  0.16046900  1
  Ca  Ca2  1  0.33023400  0.16976600  0.50000000  1
  Ca  Ca3  1  0.66976600  0.83023400  0.50000000  1
