# generated using pymatgen
data_AgH10S8N8ClO6
_symmetry_space_group_name_H-M   'P 1'
_cell_length_a   15.03707900
_cell_length_b   11.74409100
_cell_length_c   11.87386179
_cell_angle_alpha   75.70265981
_cell_angle_beta   90.00000000
_cell_angle_gamma   90.00000000
_symmetry_Int_Tables_number   1
_chemical_formula_structural   AgH10S8N8ClO6
_chemical_formula_sum   'Ag4 H40 S32 N32 Cl4 O24'
_cell_volume   2031.93983537
_cell_formula_units_Z   4
loop_
 _symmetry_equiv_pos_site_id
 _symmetry_equiv_pos_as_xyz
  1  'x, y, z'
loop_
 _atom_site_type_symbol
 _atom_site_label
 _atom_site_symmetry_multiplicity
 _atom_site_fract_x
 _atom_site_fract_y
 _atom_site_fract_z
 _atom_site_occupancy
  Ag  Ag0  1  0.32777700  0.00283500  0.25071600  1
  Ag  Ag1  1  0.82777700  0.99716500  0.24928400  1
  Ag  Ag2  1  0.67222300  0.99716500  0.74928400  1
  Ag  Ag3  1  0.17222300  0.00283500  0.75071600  1
  H  H4  1  0.45915600  0.77732800  0.58680600  1
  H  H5  1  0.95915600  0.22267200  0.91319400  1
  H  H6  1  0.54084400  0.22267200  0.41319400  1
  H  H7  1  0.04084400  0.77732800  0.08680600  1
  H  H8  1  0.23937000  0.72306600  0.55170300  1
  H  H9  1  0.73937000  0.27693400  0.94829700  1
  H  H10  1  0.76063000  0.27693400  0.44829700  1
  H  H11  1  0.26063000  0.72306600  0.05170300  1
  H  H12  1  0.29455800  0.64113800  0.30110400  1
  H  H13  1  0.79455800  0.35886200  0.19889600  1
  H  H14  1  0.70544200  0.35886200  0.69889600  1
  H  H15  1  0.20544200  0.64113800  0.80110400  1
  H  H16  1  0.52340600  0.71643600  0.32430800  1
  H  H17  1  0.02340600  0.28356400  0.17569200  1
  H  H18  1  0.47659400  0.28356400  0.67569200  1
  H  H19  1  0.97659400  0.71643600  0.82430800  1
  H  H20  1  0.43266900  0.81643000  0.93634300  1
  H  H21  1  0.93266900  0.18357000  0.56365700  1
  H  H22  1  0.56733100  0.18357000  0.06365700  1
  H  H23  1  0.06733100  0.81643000  0.43634300  1
  H  H24  1  0.25014300  0.27736200  0.94637100  1
  H  H25  1  0.75014300  0.72263800  0.55362900  1
  H  H26  1  0.74985700  0.72263800  0.05362900  1
  H  H27  1  0.24985700  0.27736200  0.44637100  1
  H  H28  1  0.29889300  0.36813600  0.18833800  1
  H  H29  1  0.79889300  0.63186400  0.31166200  1
  H  H30  1  0.70110700  0.63186400  0.81166200  1
  H  H31  1  0.20110700  0.36813600  0.68833800  1
  H  H32  1  0.50333100  0.31237600  0.16542900  1
  H  H33  1  0.00333100  0.68762400  0.33457100  1
  H  H34  1  0.49666900  0.68762400  0.83457100  1
  H  H35  1  0.99666900  0.31237600  0.66542900  1
  H  H36  1  0.37355400  0.52546500  0.03421000  1
  H  H37  1  0.87355400  0.47453500  0.46579000  1
  H  H38  1  0.62644600  0.47453500  0.96579000  1
  H  H39  1  0.12644600  0.52546500  0.53421000  1
  H  H40  1  0.27371600  0.53115400  0.05996800  1
  H  H41  1  0.77371600  0.46884600  0.44003200  1
  H  H42  1  0.72628400  0.46884600  0.94003200  1
  H  H43  1  0.22628400  0.53115400  0.55996800  1
  S  S44  1  0.49787400  0.88140900  0.39816600  1
  S  S45  1  0.99787400  0.11859100  0.10183400  1
  S  S46  1  0.50212600  0.11859100  0.60183400  1
  S  S47  1  0.00212600  0.88140900  0.89816600  1
  S  S48  1  0.33133400  0.88861500  0.53173800  1
  S  S49  1  0.83133400  0.11138500  0.96826200  1
  S  S50  1  0.66866600  0.11138500  0.46826200  1
  S  S51  1  0.16866600  0.88861500  0.03173800  1
  S  S52  1  0.23129600  0.80320500  0.35188200  1
  S  S53  1  0.73129600  0.19679500  0.14811800  1
  S  S54  1  0.76870400  0.19679500  0.64811800  1
  S  S55  1  0.26870400  0.80320500  0.85188200  1
  S  S56  1  0.39708400  0.79306300  0.22201500  1
  S  S57  1  0.89708400  0.20693700  0.27798500  1
  S  S58  1  0.60291600  0.20693700  0.77798500  1
  S  S59  1  0.10291600  0.79306300  0.72201500  1
  S  S60  1  0.48668800  0.13529400  0.10188500  1
  S  S61  1  0.98668800  0.86470600  0.39811500  1
  S  S62  1  0.51331200  0.86470600  0.89811500  1
  S  S63  1  0.01331200  0.13529400  0.60188500  1
  S  S64  1  0.33511600  0.10573600  0.98418300  1
  S  S65  1  0.83511600  0.89426400  0.51581700  1
  S  S66  1  0.66488400  0.89426400  0.01581700  1
  S  S67  1  0.16488400  0.10573600  0.48418300  1
  S  S68  1  0.22467800  0.20640900  0.14457700  1
  S  S69  1  0.72467800  0.79359100  0.35542300  1
  S  S70  1  0.77532200  0.79359100  0.85542300  1
  S  S71  1  0.27532200  0.20640900  0.64457700  1
  S  S72  1  0.38848100  0.21363200  0.28214400  1
  S  S73  1  0.88848100  0.78636800  0.21785600  1
  S  S74  1  0.61151900  0.78636800  0.71785600  1
  S  S75  1  0.11151900  0.21363200  0.78214400  1
  N  N76  1  0.43641000  0.84392800  0.52033000  1
  N  N77  1  0.93641000  0.15607200  0.97967000  1
  N  N78  1  0.56359000  0.15607200  0.47967000  1
  N  N79  1  0.06359000  0.84392800  0.02033000  1
  N  N80  1  0.25832700  0.79731800  0.49084200  1
  N  N81  1  0.75832700  0.20268200  0.00915800  1
  N  N82  1  0.74167300  0.20268200  0.50915800  1
  N  N83  1  0.24167300  0.79731800  0.99084200  1
  N  N84  1  0.30529800  0.72936800  0.29143800  1
  N  N85  1  0.80529800  0.27063200  0.20856200  1
  N  N86  1  0.69470200  0.27063200  0.70856200  1
  N  N87  1  0.19470200  0.72936800  0.79143800  1
  N  N88  1  0.48056800  0.78564300  0.31647700  1
  N  N89  1  0.98056800  0.21435700  0.18352300  1
  N  N90  1  0.51943200  0.21435700  0.68352300  1
  N  N91  1  0.01943200  0.78564300  0.81647700  1
  N  N92  1  0.43692400  0.16876500  0.97708000  1
  N  N93  1  0.93692400  0.83123500  0.52292000  1
  N  N94  1  0.56307600  0.83123500  0.02292000  1
  N  N95  1  0.06307600  0.16876500  0.47708000  1
  N  N96  1  0.25870100  0.20240600  0.01137900  1
  N  N97  1  0.75870100  0.79759400  0.48862100  1
  N  N98  1  0.74129900  0.79759400  0.98862100  1
  N  N99  1  0.24129900  0.20240600  0.51137900  1
  N  N100  1  0.29763400  0.27746900  0.21129900  1
  N  N101  1  0.79763400  0.72253100  0.28870100  1
  N  N102  1  0.70236600  0.72253100  0.78870100  1
  N  N103  1  0.20236600  0.27746900  0.71129900  1
  N  N104  1  0.47684000  0.22881800  0.19297100  1
  N  N105  1  0.97684000  0.77118200  0.30702900  1
  N  N106  1  0.52316000  0.77118200  0.80702900  1
  N  N107  1  0.02316000  0.22881800  0.69297100  1
  Cl  Cl108  1  0.12158600  0.49922200  0.29858400  1
  Cl  Cl109  1  0.62158600  0.50077800  0.20141600  1
  Cl  Cl110  1  0.87841400  0.50077800  0.70141600  1
  Cl  Cl111  1  0.37841400  0.49922200  0.79858400  1
  O  O112  1  0.09340500  0.39347500  0.26691500  1
  O  O113  1  0.59340500  0.60652500  0.23308500  1
  O  O114  1  0.90659500  0.60652500  0.73308500  1
  O  O115  1  0.40659500  0.39347500  0.76691500  1
  O  O116  1  0.12170300  0.59914900  0.19690800  1
  O  O117  1  0.62170300  0.40085100  0.30309200  1
  O  O118  1  0.87829700  0.40085100  0.80309200  1
  O  O119  1  0.37829700  0.59914900  0.69690800  1
  O  O120  1  0.21186100  0.48199500  0.34864400  1
  O  O121  1  0.71186100  0.51800500  0.15135600  1
  O  O122  1  0.78813900  0.51800500  0.65135600  1
  O  O123  1  0.28813900  0.48199500  0.84864400  1
  O  O124  1  0.06063100  0.52504900  0.38718900  1
  O  O125  1  0.56063100  0.47495100  0.11281100  1
  O  O126  1  0.93936900  0.47495100  0.61281100  1
  O  O127  1  0.43936900  0.52504900  0.88718900  1
  O  O128  1  0.33169300  0.53231700  0.09611200  1
  O  O129  1  0.83169300  0.46768300  0.40388800  1
  O  O130  1  0.66830700  0.46768300  0.90388800  1
  O  O131  1  0.16830700  0.53231700  0.59611200  1
  O  O132  1  0.96566000  0.51400700  0.02163800  1
  O  O133  1  0.46566000  0.48599300  0.47836200  1
  O  O134  1  0.03434000  0.48599300  0.97836200  1
  O  O135  1  0.53434000  0.51400700  0.52163800  1
