# generated using pymatgen
data_Yb2Zn17
_symmetry_space_group_name_H-M   'P 1'
_cell_length_a   8.70485600
_cell_length_b   9.02417667
_cell_length_c   9.02417667
_cell_angle_alpha   119.79852479
_cell_angle_beta   90.00000000
_cell_angle_gamma   90.00000000
_symmetry_Int_Tables_number   1
_chemical_formula_structural   Yb2Zn17
_chemical_formula_sum   'Yb4 Zn34'
_cell_volume   615.15637526
_cell_formula_units_Z   2
loop_
 _symmetry_equiv_pos_site_id
 _symmetry_equiv_pos_as_xyz
  1  'x, y, z'
loop_
 _atom_site_type_symbol
 _atom_site_label
 _atom_site_symmetry_multiplicity
 _atom_site_fract_x
 _atom_site_fract_y
 _atom_site_fract_z
 _atom_site_occupancy
  Yb  Yb0  1  0.75000000  0.00018800  0.99981200  1
  Yb  Yb1  1  0.25000000  0.99981200  0.00018800  1
  Yb  Yb2  1  0.25000000  0.66675900  0.33324100  1
  Yb  Yb3  1  0.75000000  0.33324100  0.66675900  1
  Zn  Zn4  1  0.59213300  0.66663700  0.33336300  1
  Zn  Zn5  1  0.40786700  0.33336300  0.66663700  1
  Zn  Zn6  1  0.09213300  0.33336300  0.66663700  1
  Zn  Zn7  1  0.90786700  0.66663700  0.33336300  1
  Zn  Zn8  1  0.50000000  0.50000000  0.00000000  1
  Zn  Zn9  1  0.50000000  0.50000000  0.50000000  1
  Zn  Zn10  1  0.50000000  0.00000000  0.50000000  1
  Zn  Zn11  1  0.00000000  0.50000000  0.00000000  1
  Zn  Zn12  1  0.00000000  0.50000000  0.50000000  1
  Zn  Zn13  1  0.00000000  0.00000000  0.50000000  1
  Zn  Zn14  1  0.75000000  0.67014200  0.02890300  1
  Zn  Zn15  1  0.75000000  0.35894100  0.33004900  1
  Zn  Zn16  1  0.75000000  0.97146600  0.64176400  1
  Zn  Zn17  1  0.75000000  0.35823600  0.02853400  1
  Zn  Zn18  1  0.75000000  0.97109700  0.32985800  1
  Zn  Zn19  1  0.75000000  0.66995100  0.64105900  1
  Zn  Zn20  1  0.25000000  0.32985800  0.97109700  1
  Zn  Zn21  1  0.25000000  0.64105900  0.66995100  1
  Zn  Zn22  1  0.25000000  0.02853400  0.35823600  1
  Zn  Zn23  1  0.25000000  0.64176400  0.97146600  1
  Zn  Zn24  1  0.25000000  0.02890300  0.67014200  1
  Zn  Zn25  1  0.25000000  0.33004900  0.35894100  1
  Zn  Zn26  1  0.48207300  0.83585700  0.67170000  1
  Zn  Zn27  1  0.48185800  0.83612700  0.16387300  1
  Zn  Zn28  1  0.48207300  0.32830000  0.16414300  1
  Zn  Zn29  1  0.51792700  0.16414300  0.32830000  1
  Zn  Zn30  1  0.51814200  0.16387300  0.83612700  1
  Zn  Zn31  1  0.51792700  0.67170000  0.83585700  1
  Zn  Zn32  1  0.98207300  0.16414300  0.32830000  1
  Zn  Zn33  1  0.98185800  0.16387300  0.83612700  1
  Zn  Zn34  1  0.98207300  0.67170000  0.83585700  1
  Zn  Zn35  1  0.01792700  0.83585700  0.67170000  1
  Zn  Zn36  1  0.01814200  0.83612700  0.16387300  1
  Zn  Zn37  1  0.01792700  0.32830000  0.16414300  1
