# generated using pymatgen
data_Na4Cr2H6O11
_symmetry_space_group_name_H-M   'P 1'
_cell_length_a   5.55735698
_cell_length_b   5.55735698
_cell_length_c   18.19683696
_cell_angle_alpha   96.71930806
_cell_angle_beta   96.71930806
_cell_angle_gamma   103.51866934
_symmetry_Int_Tables_number   1
_chemical_formula_structural   Na4Cr2H6O11
_chemical_formula_sum   'Na8 Cr4 H12 O22'
_cell_volume   536.57260798
_cell_formula_units_Z   2
loop_
 _symmetry_equiv_pos_site_id
 _symmetry_equiv_pos_as_xyz
  1  'x, y, z'
loop_
 _atom_site_type_symbol
 _atom_site_label
 _atom_site_symmetry_multiplicity
 _atom_site_fract_x
 _atom_site_fract_y
 _atom_site_fract_z
 _atom_site_occupancy
  Na  Na0  1  0.56407500  0.23769100  0.18954400  1
  Na  Na1  1  0.04814700  0.37453100  0.81045600  1
  Na  Na2  1  0.62453100  0.79814700  0.31045600  1
  Na  Na3  1  0.48769100  0.31407500  0.68954400  1
  Na  Na4  1  0.90084700  0.31395100  0.00718000  1
  Na  Na5  1  0.30677100  0.89366700  0.99282000  1
  Na  Na6  1  0.14366700  0.05677100  0.49282000  1
  Na  Na7  1  0.56395100  0.65084700  0.50718000  1
  Cr  Cr8  1  0.86412500  0.84041500  0.12271000  1
  Cr  Cr9  1  0.71770500  0.74141500  0.87729000  1
  Cr  Cr10  1  0.99141500  0.46770500  0.37729000  1
  Cr  Cr11  1  0.09041500  0.61412500  0.62271000  1
  H  H12  1  0.15924200  0.49198000  0.23031600  1
  H  H13  1  0.26166400  0.92892500  0.76968400  1
  H  H14  1  0.17892500  0.01166400  0.26968400  1
  H  H15  1  0.74198000  0.90924200  0.73031600  1
  H  H16  1  0.27792600  0.63507900  0.16921800  1
  H  H17  1  0.46586100  0.10870900  0.83078200  1
  H  H18  1  0.35870900  0.21586100  0.33078200  1
  H  H19  1  0.88507900  0.02792600  0.66921800  1
  H  H20  1  0.46710700  0.41907000  0.04263600  1
  H  H21  1  0.37643400  0.42447000  0.95736400  1
  H  H22  1  0.67447000  0.12643400  0.45736400  1
  H  H23  1  0.66907000  0.21710700  0.54263600  1
  O  O24  1  0.73297100  0.53106800  0.10418300  1
  O  O25  1  0.42688600  0.62878900  0.89581700  1
  O  O26  1  0.87878900  0.17688600  0.39581700  1
  O  O27  1  0.78106800  0.48297100  0.60418300  1
  O  O28  1  0.71179500  0.98498000  0.06512100  1
  O  O29  1  0.91985900  0.64667400  0.93487900  1
  O  O30  1  0.89667400  0.66985900  0.43487900  1
  O  O31  1  0.23498000  0.46179500  0.56512100  1
  O  O32  1  0.84216700  0.94818900  0.20988400  1
  O  O33  1  0.73830500  0.63228200  0.79011600  1
  O  O34  1  0.88228200  0.48830500  0.29011600  1
  O  O35  1  0.19818900  0.59216700  0.70988400  1
  O  O36  1  0.16643400  0.89358800  0.11239300  1
  O  O37  1  0.78119500  0.05404100  0.88760700  1
  O  O38  1  0.30404100  0.53119500  0.38760700  1
  O  O39  1  0.14358800  0.91643400  0.61239300  1
  O  O40  1  0.31239100  0.52950700  0.20692300  1
  O  O41  1  0.32258400  0.10546700  0.79307700  1
  O  O42  1  0.35546700  0.07258400  0.29307700  1
  O  O43  1  0.77950700  0.06239100  0.70692300  1
  O  O44  1  0.33230900  0.33230900  0.00000000  1
  O  O45  1  0.58230900  0.08230900  0.50000000  1
