# generated using pymatgen
data_TeS4(NO3)2
_symmetry_space_group_name_H-M   'P 1'
_cell_length_a   20.45449100
_cell_length_b   5.31371900
_cell_length_c   13.10119523
_cell_angle_alpha   80.73558910
_cell_angle_beta   90.00000000
_cell_angle_gamma   90.00000000
_symmetry_Int_Tables_number   1
_chemical_formula_structural   TeS4(NO3)2
_chemical_formula_sum   'Te4 S16 N8 O24'
_cell_volume   1405.38699199
_cell_formula_units_Z   4
loop_
 _symmetry_equiv_pos_site_id
 _symmetry_equiv_pos_as_xyz
  1  'x, y, z'
loop_
 _atom_site_type_symbol
 _atom_site_label
 _atom_site_symmetry_multiplicity
 _atom_site_fract_x
 _atom_site_fract_y
 _atom_site_fract_z
 _atom_site_occupancy
  Te  Te0  1  0.10732100  0.83920000  0.09637500  1
  Te  Te1  1  0.60732100  0.16080000  0.40362500  1
  Te  Te2  1  0.89267900  0.16080000  0.90362500  1
  Te  Te3  1  0.39267900  0.83920000  0.59637500  1
  S  S4  1  0.01125100  0.62194600  0.10200300  1
  S  S5  1  0.51125100  0.37805400  0.39799700  1
  S  S6  1  0.98874900  0.37805400  0.89799700  1
  S  S7  1  0.48874900  0.62194600  0.60200300  1
  S  S8  1  0.18841000  0.58019200  0.17009500  1
  S  S9  1  0.68841000  0.41980800  0.32990500  1
  S  S10  1  0.81159000  0.41980800  0.82990500  1
  S  S11  1  0.31159000  0.58019200  0.67009500  1
  S  S12  1  0.97566500  0.55823000  0.33696500  1
  S  S13  1  0.47566500  0.44177000  0.16303500  1
  S  S14  1  0.02433500  0.44177000  0.66303500  1
  S  S15  1  0.52433500  0.55823000  0.83696500  1
  S  S16  1  0.24416100  0.44137900  0.98501200  1
  S  S17  1  0.74416100  0.55862100  0.51498800  1
  S  S18  1  0.75583900  0.55862100  0.01498800  1
  S  S19  1  0.25583900  0.44137900  0.48501200  1
  N  N20  1  0.09828800  0.93542000  0.45602500  1
  N  N21  1  0.59828800  0.06458000  0.04397500  1
  N  N22  1  0.90171200  0.06458000  0.54397500  1
  N  N23  1  0.40171200  0.93542000  0.95602500  1
  N  N24  1  0.33263700  0.97116800  0.27502700  1
  N  N25  1  0.83263700  0.02883200  0.22497300  1
  N  N26  1  0.66736300  0.02883200  0.72497300  1
  N  N27  1  0.16736300  0.97116800  0.77502700  1
  O  O28  1  0.92113700  0.40405600  0.31663500  1
  O  O29  1  0.42113700  0.59594400  0.18336500  1
  O  O30  1  0.07886300  0.59594400  0.68336500  1
  O  O31  1  0.57886300  0.40405600  0.81663500  1
  O  O32  1  0.96944700  0.83129000  0.32427300  1
  O  O33  1  0.46944700  0.16871000  0.17572700  1
  O  O34  1  0.03055300  0.16871000  0.67572700  1
  O  O35  1  0.53055300  0.83129000  0.82427300  1
  O  O36  1  0.03588000  0.44006300  0.37597600  1
  O  O37  1  0.53588000  0.55993700  0.12402400  1
  O  O38  1  0.96412000  0.55993700  0.62402400  1
  O  O39  1  0.46412000  0.44006300  0.87597600  1
  O  O40  1  0.28545300  0.26529600  0.05035200  1
  O  O41  1  0.78545300  0.73470400  0.44964800  1
  O  O42  1  0.71454700  0.73470400  0.94964800  1
  O  O43  1  0.21454700  0.26529600  0.55035200  1
  O  O44  1  0.26866700  0.68547500  0.93715500  1
  O  O45  1  0.76866700  0.31452500  0.56284500  1
  O  O46  1  0.73133300  0.31452500  0.06284500  1
  O  O47  1  0.23133300  0.68547500  0.43715500  1
  O  O48  1  0.18150500  0.35618800  0.95275700  1
  O  O49  1  0.68150500  0.64381200  0.54724300  1
  O  O50  1  0.81849500  0.64381200  0.04724300  1
  O  O51  1  0.31849500  0.35618800  0.45275700  1
