# generated using pymatgen
data_Mn(N3O8)2
_symmetry_space_group_name_H-M   'P 1'
_cell_length_a   7.29998500
_cell_length_b   9.07197400
_cell_length_c   12.34515334
_cell_angle_alpha   58.62476875
_cell_angle_beta   90.00000000
_cell_angle_gamma   90.00000000
_symmetry_Int_Tables_number   1
_chemical_formula_structural   Mn(N3O8)2
_chemical_formula_sum   'Mn2 N12 O32'
_cell_volume   698.01405810
_cell_formula_units_Z   2
loop_
 _symmetry_equiv_pos_site_id
 _symmetry_equiv_pos_as_xyz
  1  'x, y, z'
loop_
 _atom_site_type_symbol
 _atom_site_label
 _atom_site_symmetry_multiplicity
 _atom_site_fract_x
 _atom_site_fract_y
 _atom_site_fract_z
 _atom_site_occupancy
  Mn  Mn0  1  0.00000000  0.00000000  0.00000000  1
  Mn  Mn1  1  0.50000000  0.00000000  0.50000000  1
  N  N2  1  0.72372300  0.38518800  0.91010800  1
  N  N3  1  0.77627700  0.38518800  0.41010800  1
  N  N4  1  0.27627700  0.61481200  0.08989200  1
  N  N5  1  0.22372300  0.61481200  0.58989200  1
  N  N6  1  0.53647600  0.37690700  0.91715100  1
  N  N7  1  0.96352400  0.37690700  0.41715100  1
  N  N8  1  0.46352400  0.62309300  0.08284900  1
  N  N9  1  0.03647600  0.62309300  0.58284900  1
  N  N10  1  0.78944600  0.54866800  0.85506400  1
  N  N11  1  0.71055400  0.54866800  0.35506400  1
  N  N12  1  0.21055400  0.45133200  0.14493600  1
  N  N13  1  0.28944600  0.45133200  0.64493600  1
  O  O14  1  0.10908300  0.15916500  0.05716900  1
  O  O15  1  0.39091700  0.15916500  0.55716900  1
  O  O16  1  0.89091700  0.84083500  0.94283100  1
  O  O17  1  0.60908300  0.84083500  0.44283100  1
  O  O18  1  0.13924000  0.00233700  0.14801500  1
  O  O19  1  0.36076000  0.00233700  0.64801500  1
  O  O20  1  0.86076000  0.99766300  0.85198500  1
  O  O21  1  0.63924000  0.99766300  0.35198500  1
  O  O22  1  0.79907200  0.00140300  0.06794900  1
  O  O23  1  0.70092800  0.00140300  0.56794900  1
  O  O24  1  0.20092800  0.99859700  0.93205100  1
  O  O25  1  0.29907200  0.99859700  0.43205100  1
  O  O26  1  0.43396700  0.84412100  0.27897400  1
  O  O27  1  0.06603300  0.84412100  0.77897400  1
  O  O28  1  0.56603300  0.15587900  0.72102600  1
  O  O29  1  0.93396700  0.15587900  0.22102600  1
  O  O30  1  0.47019300  0.22992400  0.96615000  1
  O  O31  1  0.02980700  0.22992400  0.46615000  1
  O  O32  1  0.52980700  0.77007600  0.03385000  1
  O  O33  1  0.97019300  0.77007600  0.53385000  1
  O  O34  1  0.43212000  0.50678200  0.87756900  1
  O  O35  1  0.06788000  0.50678200  0.37756900  1
  O  O36  1  0.56788000  0.49321800  0.12243100  1
  O  O37  1  0.93212000  0.49321800  0.62243100  1
  O  O38  1  0.96118800  0.55815400  0.84890500  1
  O  O39  1  0.53881200  0.55815400  0.34890500  1
  O  O40  1  0.03881200  0.44184600  0.15109500  1
  O  O41  1  0.46118800  0.44184600  0.65109500  1
  O  O42  1  0.69300800  0.68256600  0.81238900  1
  O  O43  1  0.80699200  0.68256600  0.31238900  1
  O  O44  1  0.30699200  0.31743400  0.18761100  1
  O  O45  1  0.19300800  0.31743400  0.68761100  1
