# generated using pymatgen
data_VBr5N3
_symmetry_space_group_name_H-M   'P 1'
_cell_length_a   8.13313400
_cell_length_b   12.39364600
_cell_length_c   11.36855700
_cell_angle_alpha   90.00000000
_cell_angle_beta   90.00000000
_cell_angle_gamma   90.00000000
_symmetry_Int_Tables_number   1
_chemical_formula_structural   VBr5N3
_chemical_formula_sum   'V4 Br20 N12'
_cell_volume   1145.94126507
_cell_formula_units_Z   4
loop_
 _symmetry_equiv_pos_site_id
 _symmetry_equiv_pos_as_xyz
  1  'x, y, z'
loop_
 _atom_site_type_symbol
 _atom_site_label
 _atom_site_symmetry_multiplicity
 _atom_site_fract_x
 _atom_site_fract_y
 _atom_site_fract_z
 _atom_site_occupancy
  V  V0  1  0.34403100  0.75000000  0.40547700  1
  V  V1  1  0.15596900  0.75000000  0.90547700  1
  V  V2  1  0.65596900  0.25000000  0.59452300  1
  V  V3  1  0.84403100  0.25000000  0.09452300  1
  Br  Br4  1  0.31062800  0.52953400  0.36056000  1
  Br  Br5  1  0.18937200  0.97046600  0.86056000  1
  Br  Br6  1  0.68937200  0.02953400  0.63944000  1
  Br  Br7  1  0.81062800  0.47046600  0.13944000  1
  Br  Br8  1  0.68937200  0.47046600  0.63944000  1
  Br  Br9  1  0.81062800  0.02953400  0.13944000  1
  Br  Br10  1  0.31062800  0.97046600  0.36056000  1
  Br  Br11  1  0.18937200  0.52953400  0.86056000  1
  Br  Br12  1  0.05725600  0.75000000  0.45588900  1
  Br  Br13  1  0.44274400  0.75000000  0.95588900  1
  Br  Br14  1  0.94274400  0.25000000  0.54411100  1
  Br  Br15  1  0.55725600  0.25000000  0.04411100  1
  Br  Br16  1  0.05586200  0.75000000  0.20037500  1
  Br  Br17  1  0.44413800  0.75000000  0.70037500  1
  Br  Br18  1  0.94413800  0.25000000  0.79962500  1
  Br  Br19  1  0.55586200  0.25000000  0.29962500  1
  Br  Br20  1  0.57489400  0.75000000  0.27990500  1
  Br  Br21  1  0.92510600  0.75000000  0.77990500  1
  Br  Br22  1  0.42510600  0.25000000  0.72009500  1
  Br  Br23  1  0.07489400  0.25000000  0.22009500  1
  N  N24  1  0.81589900  0.49090500  0.29515800  1
  N  N25  1  0.68410100  0.00909500  0.79515800  1
  N  N26  1  0.18410100  0.99090500  0.70484200  1
  N  N27  1  0.31589900  0.50909500  0.20484200  1
  N  N28  1  0.18410100  0.50909500  0.70484200  1
  N  N29  1  0.31589900  0.99090500  0.20484200  1
  N  N30  1  0.81589900  0.00909500  0.29515800  1
  N  N31  1  0.68410100  0.49090500  0.79515800  1
  N  N32  1  0.42163900  0.75000000  0.53980200  1
  N  N33  1  0.07836100  0.75000000  0.03980200  1
  N  N34  1  0.57836100  0.25000000  0.46019800  1
  N  N35  1  0.92163900  0.25000000  0.96019800  1
