# generated using pymatgen
data_In5(Mo9O14)2
_symmetry_space_group_name_H-M   'P 1'
_cell_length_a   10.05397300
_cell_length_b   10.43259700
_cell_length_c   14.75929179
_cell_angle_alpha   79.22783472
_cell_angle_beta   90.00000000
_cell_angle_gamma   90.00000000
_symmetry_Int_Tables_number   1
_chemical_formula_structural   In5(Mo9O14)2
_chemical_formula_sum   'In10 Mo36 O56'
_cell_volume   1520.80792218
_cell_formula_units_Z   2
loop_
 _symmetry_equiv_pos_site_id
 _symmetry_equiv_pos_as_xyz
  1  'x, y, z'
loop_
 _atom_site_type_symbol
 _atom_site_label
 _atom_site_symmetry_multiplicity
 _atom_site_fract_x
 _atom_site_fract_y
 _atom_site_fract_z
 _atom_site_occupancy
  In  In0  1  0.55195400  0.94678200  0.89921300  1
  In  In1  1  0.05195400  0.55321800  0.10078700  1
  In  In2  1  0.44804600  0.05321800  0.10078700  1
  In  In3  1  0.94804600  0.44678200  0.89921300  1
  In  In4  1  0.47619700  0.91882700  0.70701500  1
  In  In5  1  0.97619700  0.58117300  0.29298500  1
  In  In6  1  0.52380300  0.08117300  0.29298500  1
  In  In7  1  0.02380300  0.41882700  0.70701500  1
  In  In8  1  0.50000000  0.00000000  0.50000000  1
  In  In9  1  0.00000000  0.50000000  0.50000000  1
  Mo  Mo10  1  0.62355200  0.28376900  0.95016600  1
  Mo  Mo11  1  0.12355200  0.21623100  0.04983400  1
  Mo  Mo12  1  0.37644800  0.71623100  0.04983400  1
  Mo  Mo13  1  0.87644800  0.78376900  0.95016600  1
  Mo  Mo14  1  0.36109300  0.47276100  0.94368000  1
  Mo  Mo15  1  0.86109300  0.02723900  0.05632000  1
  Mo  Mo16  1  0.63890700  0.52723900  0.05632000  1
  Mo  Mo17  1  0.13890700  0.97276100  0.94368000  1
  Mo  Mo18  1  0.63286800  0.59215300  0.83344500  1
  Mo  Mo19  1  0.13286800  0.90784700  0.16655500  1
  Mo  Mo20  1  0.36713200  0.40784700  0.16655500  1
  Mo  Mo21  1  0.86713200  0.09215300  0.83344500  1
  Mo  Mo22  1  0.35510200  0.24151600  0.83930700  1
  Mo  Mo23  1  0.85510200  0.25848400  0.16069300  1
  Mo  Mo24  1  0.64489800  0.75848400  0.16069300  1
  Mo  Mo25  1  0.14489800  0.74151600  0.83930700  1
  Mo  Mo26  1  0.62500800  0.33989500  0.72496100  1
  Mo  Mo27  1  0.12500800  0.16010500  0.27503900  1
  Mo  Mo28  1  0.37499200  0.66010500  0.27503900  1
  Mo  Mo29  1  0.87499200  0.83989500  0.72496100  1
  Mo  Mo30  1  0.37155100  0.54329700  0.72182700  1
  Mo  Mo31  1  0.87155100  0.95670300  0.27817300  1
  Mo  Mo32  1  0.62844900  0.45670300  0.27817300  1
  Mo  Mo33  1  0.12844900  0.04329700  0.72182700  1
  Mo  Mo34  1  0.64451600  0.64054100  0.61102300  1
  Mo  Mo35  1  0.14451600  0.85945900  0.38897700  1
  Mo  Mo36  1  0.35548400  0.35945900  0.38897700  1
  Mo  Mo37  1  0.85548400  0.14054100  0.61102300  1
  Mo  Mo38  1  0.35370600  0.30474100  0.61256300  1
  Mo  Mo39  1  0.85370600  0.19525900  0.38743700  1
  Mo  Mo40  1  0.64629400  0.69525900  0.38743700  1
  Mo  Mo41  1  0.14629400  0.80474100  0.61256300  1
  Mo  Mo42  1  0.62594400  0.39611500  0.50156000  1
  Mo  Mo43  1  0.12594400  0.10388500  0.49844000  1
  Mo  Mo44  1  0.37405600  0.60388500  0.49844000  1
  Mo  Mo45  1  0.87405600  0.89611500  0.50156000  1
  O  O46  1  0.53004700  0.74521100  0.49779000  1
  O  O47  1  0.03004700  0.75478900  0.50221000  1
  O  O48  1  0.46995300  0.25478900  0.50221000  1
  O  O49  1  0.96995300  0.24521100  0.49779000  1
  O  O50  1  0.74325900  0.56678400  0.50216600  1
  O  O51  1  0.24325900  0.93321600  0.49783400  1
  O  O52  1  0.25674100  0.43321600  0.49783400  1
  O  O53  1  0.75674100  0.06678400  0.50216600  1
  O  O54  1  0.51929400  0.69584600  0.71995200  1
  O  O55  1  0.01929400  0.80415400  0.28004800  1
  O  O56  1  0.48070600  0.30415400  0.28004800  1
  O  O57  1  0.98070600  0.19584600  0.71995200  1
  O  O58  1  0.46904400  0.20325200  0.72691000  1
  O  O59  1  0.96904400  0.29674800  0.27309000  1
  O  O60  1  0.53095600  0.79674800  0.27309000  1
  O  O61  1  0.03095600  0.70325200  0.72691000  1
  O  O62  1  0.48482100  0.13087200  0.94615800  1
  O  O63  1  0.98482100  0.36912800  0.05384200  1
  O  O64  1  0.51517900  0.86912800  0.05384200  1
  O  O65  1  0.01517900  0.63087200  0.94615800  1
  O  O66  1  0.26876900  0.64497100  0.61114800  1
  O  O67  1  0.76876900  0.85502900  0.38885200  1
  O  O68  1  0.73123100  0.35502900  0.38885200  1
  O  O69  1  0.23123100  0.14497100  0.61114800  1
  O  O70  1  0.50424500  0.62327600  0.95427600  1
  O  O71  1  0.00424500  0.87672400  0.04572400  1
  O  O72  1  0.49575500  0.37672400  0.04572400  1
  O  O73  1  0.99575500  0.12327600  0.95427600  1
  O  O74  1  0.25128300  0.37158500  0.72781700  1
  O  O75  1  0.75128300  0.12841500  0.27218300  1
  O  O76  1  0.74871700  0.62841500  0.27218300  1
  O  O77  1  0.24871700  0.87158500  0.72781700  1
  O  O78  1  0.25333800  0.31441600  0.94761600  1
  O  O79  1  0.75333800  0.18558400  0.05238400  1
  O  O80  1  0.74666200  0.68558400  0.05238400  1
  O  O81  1  0.24666200  0.81441600  0.94761600  1
  O  O82  1  0.72535900  0.29289200  0.61487900  1
  O  O83  1  0.22535900  0.20710800  0.38512100  1
  O  O84  1  0.27464100  0.70710800  0.38512100  1
  O  O85  1  0.77464100  0.79289200  0.61487900  1
  O  O86  1  0.73494400  0.46396000  0.94488200  1
  O  O87  1  0.23494400  0.03604000  0.05511800  1
  O  O88  1  0.26505600  0.53604000  0.05511800  1
  O  O89  1  0.76505600  0.96396000  0.94488200  1
  O  O90  1  0.27614700  0.58769500  0.83860500  1
  O  O91  1  0.77614700  0.91230500  0.16139500  1
  O  O92  1  0.72385300  0.41230500  0.16139500  1
  O  O93  1  0.22385300  0.08769500  0.83860500  1
  O  O94  1  0.73377400  0.24323400  0.83849800  1
  O  O95  1  0.23377400  0.25676600  0.16150200  1
  O  O96  1  0.26622600  0.75676600  0.16150200  1
  O  O97  1  0.76622600  0.74323400  0.83849800  1
  O  O98  1  0.72839800  0.51564400  0.72810700  1
  O  O99  1  0.22839800  0.98435600  0.27189300  1
  O  O100  1  0.27160200  0.48435600  0.27189300  1
  O  O101  1  0.77160200  0.01564400  0.72810700  1
