# generated using pymatgen
data_Fe(PO4)3
_symmetry_space_group_name_H-M   'P 1'
_cell_length_a   9.82388567
_cell_length_b   9.82388567
_cell_length_c   9.82388602
_cell_angle_alpha   48.94592408
_cell_angle_beta   48.94592408
_cell_angle_gamma   48.94592335
_symmetry_Int_Tables_number   1
_chemical_formula_structural   Fe(PO4)3
_chemical_formula_sum   'Fe2 P6 O24'
_cell_volume   494.96278144
_cell_formula_units_Z   2
loop_
 _symmetry_equiv_pos_site_id
 _symmetry_equiv_pos_as_xyz
  1  'x, y, z'
loop_
 _atom_site_type_symbol
 _atom_site_label
 _atom_site_symmetry_multiplicity
 _atom_site_fract_x
 _atom_site_fract_y
 _atom_site_fract_z
 _atom_site_occupancy
  Fe  Fe0  1  0.50000000  0.50000000  0.50000000  1
  Fe  Fe1  1  0.00000000  0.00000000  0.00000000  1
  P  P2  1  0.60447000  0.89553000  0.25000000  1
  P  P3  1  0.25000000  0.60447000  0.89553000  1
  P  P4  1  0.89553000  0.25000000  0.60447000  1
  P  P5  1  0.75000000  0.39553000  0.10447000  1
  P  P6  1  0.10447000  0.75000000  0.39553000  1
  P  P7  1  0.39553000  0.10447000  0.75000000  1
  O  O8  1  0.80408800  0.87894600  0.18312900  1
  O  O9  1  0.18312900  0.80408800  0.87894600  1
  O  O10  1  0.87894600  0.18312900  0.80408800  1
  O  O11  1  0.68312900  0.37894600  0.30408800  1
  O  O12  1  0.30408800  0.68312900  0.37894600  1
  O  O13  1  0.37894600  0.30408800  0.68312900  1
  O  O14  1  0.19591200  0.12105400  0.81687100  1
  O  O15  1  0.81687100  0.19591200  0.12105400  1
  O  O16  1  0.12105400  0.81687100  0.19591200  1
  O  O17  1  0.31687100  0.62105400  0.69591200  1
  O  O18  1  0.69591200  0.31687100  0.62105400  1
  O  O19  1  0.62105400  0.69591200  0.31687100  1
  O  O20  1  0.44606900  0.98353900  0.40866700  1
  O  O21  1  0.40866700  0.44606900  0.98353900  1
  O  O22  1  0.98353900  0.40866700  0.44606900  1
  O  O23  1  0.90866700  0.48353900  0.94606900  1
  O  O24  1  0.94606900  0.90866700  0.48353900  1
  O  O25  1  0.48353900  0.94606900  0.90866700  1
  O  O26  1  0.55393100  0.01646100  0.59133300  1
  O  O27  1  0.59133300  0.55393100  0.01646100  1
  O  O28  1  0.01646100  0.59133300  0.55393100  1
  O  O29  1  0.09133300  0.51646100  0.05393100  1
  O  O30  1  0.05393100  0.09133300  0.51646100  1
  O  O31  1  0.51646100  0.05393100  0.09133300  1
