# generated using pymatgen
data_ZnCu2H4(SO4)2
_symmetry_space_group_name_H-M   'P 1'
_cell_length_a   7.91501700
_cell_length_b   5.91272200
_cell_length_c   9.76551007
_cell_angle_alpha   55.59314470
_cell_angle_beta   90.00000000
_cell_angle_gamma   90.00000000
_symmetry_Int_Tables_number   1
_chemical_formula_structural   ZnCu2H4(SO4)2
_chemical_formula_sum   'Zn2 Cu4 H8 S4 O16'
_cell_volume   377.06164020
_cell_formula_units_Z   2
loop_
 _symmetry_equiv_pos_site_id
 _symmetry_equiv_pos_as_xyz
  1  'x, y, z'
loop_
 _atom_site_type_symbol
 _atom_site_label
 _atom_site_symmetry_multiplicity
 _atom_site_fract_x
 _atom_site_fract_y
 _atom_site_fract_z
 _atom_site_occupancy
  Zn  Zn0  1  0.50000000  0.00000000  0.50000000  1
  Zn  Zn1  1  0.00000000  0.00000000  0.00000000  1
  Cu  Cu2  1  0.63055800  0.80727100  0.95046000  1
  Cu  Cu3  1  0.86944200  0.80727100  0.45046000  1
  Cu  Cu4  1  0.36944200  0.19272900  0.04954000  1
  Cu  Cu5  1  0.13055800  0.19272900  0.54954000  1
  H  H6  1  0.51395000  0.52273200  0.23777700  1
  H  H7  1  0.98605000  0.52273200  0.73777700  1
  H  H8  1  0.48605000  0.47726800  0.76222300  1
  H  H9  1  0.01395000  0.47726800  0.26222300  1
  H  H10  1  0.61474300  0.47684900  0.39564100  1
  H  H11  1  0.88525700  0.47684900  0.89564100  1
  H  H12  1  0.38525700  0.52315100  0.60435900  1
  H  H13  1  0.11474300  0.52315100  0.10435900  1
  S  S14  1  0.87342100  0.12924200  0.62936200  1
  S  S15  1  0.62657900  0.12924200  0.12936200  1
  S  S16  1  0.12657900  0.87075800  0.37063800  1
  S  S17  1  0.37342100  0.87075800  0.87063800  1
  O  O18  1  0.86140200  0.96151000  0.82073300  1
  O  O19  1  0.63859800  0.96151000  0.32073300  1
  O  O20  1  0.13859800  0.03849000  0.17926700  1
  O  O21  1  0.36140200  0.03849000  0.67926700  1
  O  O22  1  0.76541300  0.96028100  0.58497300  1
  O  O23  1  0.73458700  0.96028100  0.08497300  1
  O  O24  1  0.23458700  0.03971900  0.41502700  1
  O  O25  1  0.26541300  0.03971900  0.91502700  1
  O  O26  1  0.77859500  0.39524500  0.55943400  1
  O  O27  1  0.72140500  0.39524500  0.05943400  1
  O  O28  1  0.22140500  0.60475500  0.44056600  1
  O  O29  1  0.27859500  0.60475500  0.94056600  1
  O  O30  1  0.51867400  0.41579900  0.35895500  1
  O  O31  1  0.98132600  0.41579900  0.85895500  1
  O  O32  1  0.48132600  0.58420100  0.64104500  1
  O  O33  1  0.01867400  0.58420100  0.14104500  1
