# generated using pymatgen
data_RbCu2H2C3N3O
_symmetry_space_group_name_H-M   'P 1'
_cell_length_a   7.80966470
_cell_length_b   8.35605900
_cell_length_c   12.17448595
_cell_angle_alpha   90.00000000
_cell_angle_beta   92.21199855
_cell_angle_gamma   90.00000000
_symmetry_Int_Tables_number   1
_chemical_formula_structural   RbCu2H2C3N3O
_chemical_formula_sum   'Rb4 Cu8 H8 C12 N12 O4'
_cell_volume   793.89083045
_cell_formula_units_Z   4
loop_
 _symmetry_equiv_pos_site_id
 _symmetry_equiv_pos_as_xyz
  1  'x, y, z'
loop_
 _atom_site_type_symbol
 _atom_site_label
 _atom_site_symmetry_multiplicity
 _atom_site_fract_x
 _atom_site_fract_y
 _atom_site_fract_z
 _atom_site_occupancy
  Rb  Rb0  1  0.35629300  0.05987400  0.79937200  1
  Rb  Rb1  1  0.14370700  0.55987400  0.20062800  1
  Rb  Rb2  1  0.64370700  0.94012600  0.20062800  1
  Rb  Rb3  1  0.85629300  0.44012600  0.79937200  1
  Cu  Cu4  1  0.32158600  0.21690800  0.39900400  1
  Cu  Cu5  1  0.17841400  0.71690800  0.60099600  1
  Cu  Cu6  1  0.67841400  0.78309200  0.60099600  1
  Cu  Cu7  1  0.82158600  0.28309200  0.39900400  1
  Cu  Cu8  1  0.37311400  0.60707600  0.93170400  1
  Cu  Cu9  1  0.12688600  0.10707600  0.06829600  1
  Cu  Cu10  1  0.62688600  0.39292400  0.06829600  1
  Cu  Cu11  1  0.87311400  0.89292400  0.93170400  1
  H  H12  1  0.60641100  0.22060700  0.60983200  1
  H  H13  1  0.89358900  0.72060700  0.39016800  1
  H  H14  1  0.39358900  0.77939300  0.39016800  1
  H  H15  1  0.10641100  0.27939300  0.60983200  1
  H  H16  1  0.48120300  0.35738400  0.63597800  1
  H  H17  1  0.01879700  0.85738400  0.36402200  1
  H  H18  1  0.51879700  0.64261600  0.36402200  1
  H  H19  1  0.98120300  0.14261600  0.63597800  1
  C  C20  1  0.27124400  0.02291000  0.46832600  1
  C  C21  1  0.22875600  0.52291000  0.53167400  1
  C  C22  1  0.72875600  0.97709000  0.53167400  1
  C  C23  1  0.77124400  0.47709000  0.46832600  1
  C  C24  1  0.26766200  0.41326500  0.95993300  1
  C  C25  1  0.23233800  0.91326500  0.04006700  1
  C  C26  1  0.73233800  0.58673500  0.04006700  1
  C  C27  1  0.76766200  0.08673500  0.95993300  1
  C  C28  1  0.43926900  0.27449600  0.27251100  1
  C  C29  1  0.06073100  0.77449600  0.72748900  1
  C  C30  1  0.56073100  0.72550400  0.72748900  1
  C  C31  1  0.93926900  0.22550400  0.27251100  1
  N  N32  1  0.25691400  0.40356400  0.48395900  1
  N  N33  1  0.24308600  0.90356400  0.51604100  1
  N  N34  1  0.74308600  0.59643600  0.51604100  1
  N  N35  1  0.75691400  0.09643600  0.48395900  1
  N  N36  1  0.30988200  0.79664000  0.01839900  1
  N  N37  1  0.19011800  0.29664000  0.98160100  1
  N  N38  1  0.69011800  0.20336000  0.98160100  1
  N  N39  1  0.80988200  0.70336000  0.01839900  1
  N  N40  1  0.49085600  0.68281100  0.80642200  1
  N  N41  1  0.00914400  0.18281100  0.19357800  1
  N  N42  1  0.50914400  0.31718900  0.19357800  1
  N  N43  1  0.99085600  0.81718900  0.80642200  1
  O  O44  1  0.55760800  0.27857200  0.67151700  1
  O  O45  1  0.94239200  0.77857200  0.32848300  1
  O  O46  1  0.44239200  0.72142800  0.32848300  1
  O  O47  1  0.05760800  0.22142800  0.67151700  1
