# generated using pymatgen
data_NiP2(NO4)2
_symmetry_space_group_name_H-M   'P 1'
_cell_length_a   10.93148700
_cell_length_b   6.38545200
_cell_length_c   12.68676839
_cell_angle_alpha   76.58875531
_cell_angle_beta   90.00000000
_cell_angle_gamma   90.00000000
_symmetry_Int_Tables_number   1
_chemical_formula_structural   NiP2(NO4)2
_chemical_formula_sum   'Ni4 P8 N8 O32'
_cell_volume   861.41886241
_cell_formula_units_Z   4
loop_
 _symmetry_equiv_pos_site_id
 _symmetry_equiv_pos_as_xyz
  1  'x, y, z'
loop_
 _atom_site_type_symbol
 _atom_site_label
 _atom_site_symmetry_multiplicity
 _atom_site_fract_x
 _atom_site_fract_y
 _atom_site_fract_z
 _atom_site_occupancy
  Ni  Ni0  1  0.74515000  0.00639100  0.65458200  1
  Ni  Ni1  1  0.24515000  0.99360900  0.84541800  1
  Ni  Ni2  1  0.25485000  0.99360900  0.34541800  1
  Ni  Ni3  1  0.75485000  0.00639100  0.15458200  1
  P  P4  1  0.94306700  0.69750200  0.60319700  1
  P  P5  1  0.44306700  0.30249800  0.89680300  1
  P  P6  1  0.05693300  0.30249800  0.39680300  1
  P  P7  1  0.55693300  0.69750200  0.10319700  1
  P  P8  1  0.68597400  0.95239100  0.92660500  1
  P  P9  1  0.18597400  0.04760900  0.57339500  1
  P  P10  1  0.31402600  0.04760900  0.07339500  1
  P  P11  1  0.81402600  0.95239100  0.42660500  1
  N  N12  1  0.57726300  0.79376300  0.97574700  1
  N  N13  1  0.07726300  0.20623700  0.52425300  1
  N  N14  1  0.42273700  0.20623700  0.02425300  1
  N  N15  1  0.92273700  0.79376300  0.47574700  1
  N  N16  1  0.11727300  0.76040000  0.58888400  1
  N  N17  1  0.61727300  0.23960000  0.91111600  1
  N  N18  1  0.88272700  0.23960000  0.41111600  1
  N  N19  1  0.38272700  0.76040000  0.08888400  1
  O  O20  1  0.90017000  0.84215300  0.67566600  1
  O  O21  1  0.40017000  0.15784700  0.82433400  1
  O  O22  1  0.09983000  0.15784700  0.32433400  1
  O  O23  1  0.59983000  0.84215300  0.17566600  1
  O  O24  1  0.93823400  0.45854400  0.64189400  1
  O  O25  1  0.43823400  0.54145600  0.85810600  1
  O  O26  1  0.06176600  0.54145600  0.35810600  1
  O  O27  1  0.56176600  0.45854400  0.14189400  1
  O  O28  1  0.79031300  0.96253500  0.00394200  1
  O  O29  1  0.29031300  0.03746500  0.49605800  1
  O  O30  1  0.20968700  0.03746500  0.99605800  1
  O  O31  1  0.70968700  0.96253500  0.50394200  1
  O  O32  1  0.71588500  0.96130300  0.81069400  1
  O  O33  1  0.21588500  0.03869700  0.68930600  1
  O  O34  1  0.28411500  0.03869700  0.18930600  1
  O  O35  1  0.78411500  0.96130300  0.31069400  1
  O  O36  1  0.02341000  0.11436700  0.83827500  1
  O  O37  1  0.52341000  0.88563300  0.66172500  1
  O  O38  1  0.97659000  0.88563300  0.16172500  1
  O  O39  1  0.47659000  0.11436700  0.33827500  1
  O  O40  1  0.73629200  0.30938500  0.60462900  1
  O  O41  1  0.23629200  0.69061500  0.89537100  1
  O  O42  1  0.26370800  0.69061500  0.39537100  1
  O  O43  1  0.76370800  0.30938500  0.10462900  1
  O  O44  1  0.52487000  0.69711800  0.65274100  1
  O  O45  1  0.02487000  0.30288200  0.84725900  1
  O  O46  1  0.47513000  0.30288200  0.34725900  1
  O  O47  1  0.97513000  0.69711800  0.15274100  1
  O  O48  1  0.68667500  0.37670200  0.92643900  1
  O  O49  1  0.18667500  0.62329800  0.57356100  1
  O  O50  1  0.31332500  0.62329800  0.07356100  1
  O  O51  1  0.81332500  0.37670200  0.42643900  1
