# generated using pymatgen
data_K4NaV10O38
_symmetry_space_group_name_H-M   'P 1'
_cell_length_a   10.85289800
_cell_length_b   10.45449300
_cell_length_c   16.58013059
_cell_angle_alpha   55.14763343
_cell_angle_beta   90.00000000
_cell_angle_gamma   90.00000000
_symmetry_Int_Tables_number   1
_chemical_formula_structural   K4NaV10O38
_chemical_formula_sum   'K8 Na2 V20 O76'
_cell_volume   1543.76993758
_cell_formula_units_Z   2
loop_
 _symmetry_equiv_pos_site_id
 _symmetry_equiv_pos_as_xyz
  1  'x, y, z'
loop_
 _atom_site_type_symbol
 _atom_site_label
 _atom_site_symmetry_multiplicity
 _atom_site_fract_x
 _atom_site_fract_y
 _atom_site_fract_z
 _atom_site_occupancy
  K  K0  1  0.22497900  0.26068400  0.97313600  1
  K  K1  1  0.77502100  0.73931600  0.02686400  1
  K  K2  1  0.22497900  0.73931600  0.52686400  1
  K  K3  1  0.77502100  0.26068400  0.47313600  1
  K  K4  1  0.21412000  0.78815800  0.26403300  1
  K  K5  1  0.78588000  0.21184200  0.73596700  1
  K  K6  1  0.21412000  0.21184200  0.23596700  1
  K  K7  1  0.78588000  0.78815800  0.76403300  1
  Na  Na8  1  0.99278800  0.50000000  0.25000000  1
  Na  Na9  1  0.00721200  0.50000000  0.75000000  1
  V  V10  1  0.27933400  0.14751600  0.76002000  1
  V  V11  1  0.72066600  0.85248400  0.23998000  1
  V  V12  1  0.27933400  0.85248400  0.73998000  1
  V  V13  1  0.72066600  0.14751600  0.26002000  1
  V  V14  1  0.27706300  0.62373300  0.97059000  1
  V  V15  1  0.72293700  0.37626700  0.02941000  1
  V  V16  1  0.27706300  0.37626700  0.52941000  1
  V  V17  1  0.72293700  0.62373300  0.47059000  1
  V  V18  1  0.27824600  0.90512900  0.98981300  1
  V  V19  1  0.72175400  0.09487100  0.01018700  1
  V  V20  1  0.27824600  0.09487100  0.51018700  1
  V  V21  1  0.72175400  0.90512900  0.48981300  1
  V  V22  1  0.48353100  0.88188800  0.86479100  1
  V  V23  1  0.51646900  0.11811200  0.13520900  1
  V  V24  1  0.48353100  0.11811200  0.63520900  1
  V  V25  1  0.51646900  0.88188800  0.36479100  1
  V  V26  1  0.06462000  0.88017400  0.86959100  1
  V  V27  1  0.93538000  0.11982600  0.13040900  1
  V  V28  1  0.06462000  0.11982600  0.63040900  1
  V  V29  1  0.93538000  0.88017400  0.36959100  1
  O  O30  1  0.27408100  0.90092000  0.84618600  1
  O  O31  1  0.72591900  0.09908000  0.15381400  1
  O  O32  1  0.27408100  0.09908000  0.65381400  1
  O  O33  1  0.72591900  0.90092000  0.34618600  1
  O  O34  1  0.44872200  0.11152800  0.75837000  1
  O  O35  1  0.55127800  0.88847200  0.24163000  1
  O  O36  1  0.44872200  0.88847200  0.74163000  1
  O  O37  1  0.55127800  0.11152800  0.25837000  1
  O  O38  1  0.10234100  0.10364300  0.75810300  1
  O  O39  1  0.89765900  0.89635700  0.24189700  1
  O  O40  1  0.10234100  0.89635700  0.74189700  1
  O  O41  1  0.89765900  0.10364300  0.25810300  1
  O  O42  1  0.27323100  0.34368200  0.66351900  1
  O  O43  1  0.72676900  0.65631800  0.33648100  1
  O  O44  1  0.27323100  0.65631800  0.83648100  1
  O  O45  1  0.72676900  0.34368200  0.16351900  1
  O  O46  1  0.27214200  0.69234700  0.05081900  1
  O  O47  1  0.72785800  0.30765300  0.94918100  1
  O  O48  1  0.27214200  0.30765300  0.44918100  1
  O  O49  1  0.72785800  0.69234700  0.55081900  1
  O  O50  1  0.27344000  0.13032500  0.87083500  1
  O  O51  1  0.72656000  0.86967500  0.12916500  1
  O  O52  1  0.27344000  0.86967500  0.62916500  1
  O  O53  1  0.72656000  0.13032500  0.37083500  1
  O  O54  1  0.10279900  0.67293200  0.94186200  1
  O  O55  1  0.89720100  0.32706800  0.05813800  1
  O  O56  1  0.10279900  0.32706800  0.55813800  1
  O  O57  1  0.89720100  0.67293200  0.44186200  1
  O  O58  1  0.10372900  0.91451700  0.96115900  1
  O  O59  1  0.89627100  0.08548300  0.03884100  1
  O  O60  1  0.10372900  0.08548300  0.53884100  1
  O  O61  1  0.89627100  0.91451700  0.46115900  1
  O  O62  1  0.44252700  0.67527700  0.94190900  1
  O  O63  1  0.55747300  0.32472300  0.05809100  1
  O  O64  1  0.44252700  0.32472300  0.55809100  1
  O  O65  1  0.55747300  0.67527700  0.44190900  1
  O  O66  1  0.44430700  0.91208000  0.95961700  1
  O  O67  1  0.55569300  0.08792000  0.04038300  1
  O  O68  1  0.44430700  0.08792000  0.54038300  1
  O  O69  1  0.55569300  0.91208000  0.45961700  1
  O  O70  1  0.27441600  0.43435100  0.04630200  1
  O  O71  1  0.72558400  0.56564900  0.95369800  1
  O  O72  1  0.27441600  0.56564900  0.45369800  1
  O  O73  1  0.72558400  0.43435100  0.54630200  1
  O  O74  1  0.27772100  0.92930800  0.07849000  1
  O  O75  1  0.72227900  0.07069200  0.92151000  1
  O  O76  1  0.27772100  0.07069200  0.42151000  1
  O  O77  1  0.72227900  0.92930800  0.57849000  1
  O  O78  1  0.91330700  0.88572000  0.86301600  1
  O  O79  1  0.08669300  0.11428000  0.13698400  1
  O  O80  1  0.91330700  0.11428000  0.63698400  1
  O  O81  1  0.08669300  0.88572000  0.36301600  1
  O  O82  1  0.63444500  0.88352500  0.85991600  1
  O  O83  1  0.36555500  0.11647500  0.14008400  1
  O  O84  1  0.63444500  0.11647500  0.64008400  1
  O  O85  1  0.36555500  0.88352500  0.35991600  1
  O  O86  1  0.49727300  0.45040900  0.82407100  1
  O  O87  1  0.50272700  0.54959100  0.17592900  1
  O  O88  1  0.49727300  0.54959100  0.67592900  1
  O  O89  1  0.50272700  0.45040900  0.32407100  1
  O  O90  1  0.22074800  0.50000000  0.75000000  1
  O  O91  1  0.77925200  0.50000000  0.25000000  1
  O  O92  1  0.20655200  0.50000000  0.25000000  1
  O  O93  1  0.79344800  0.50000000  0.75000000  1
  O  O94  1  0.02307900  0.76440600  0.13819200  1
  O  O95  1  0.97692100  0.23559400  0.86180800  1
  O  O96  1  0.02307900  0.23559400  0.36180800  1
  O  O97  1  0.97692100  0.76440600  0.63819200  1
  O  O98  1  0.97016500  0.51580400  0.09675600  1
  O  O99  1  0.02983500  0.48419600  0.90324400  1
  O  O100  1  0.97016500  0.48419600  0.40324400  1
  O  O101  1  0.02983500  0.51580400  0.59675600  1
  O  O102  1  0.48109800  0.60828200  0.23669400  1
  O  O103  1  0.51890200  0.39171800  0.76330600  1
  O  O104  1  0.48109800  0.39171800  0.26330600  1
  O  O105  1  0.51890200  0.60828200  0.73669400  1
