# generated using pymatgen
data_Y3Si3O11
_symmetry_space_group_name_H-M   'P 1'
_cell_length_a   11.40064200
_cell_length_b   7.43144500
_cell_length_c   12.05472603
_cell_angle_alpha   59.38196256
_cell_angle_beta   90.00000000
_cell_angle_gamma   90.00000000
_symmetry_Int_Tables_number   1
_chemical_formula_structural   Y3Si3O11
_chemical_formula_sum   'Y12 Si12 O44'
_cell_volume   878.92545682
_cell_formula_units_Z   4
loop_
 _symmetry_equiv_pos_site_id
 _symmetry_equiv_pos_as_xyz
  1  'x, y, z'
loop_
 _atom_site_type_symbol
 _atom_site_label
 _atom_site_symmetry_multiplicity
 _atom_site_fract_x
 _atom_site_fract_y
 _atom_site_fract_z
 _atom_site_occupancy
  Y  Y0  1  0.27058800  0.59565800  0.81578900  1
  Y  Y1  1  0.77058800  0.40434200  0.68421100  1
  Y  Y2  1  0.72941200  0.40434200  0.18421100  1
  Y  Y3  1  0.22941200  0.59565800  0.31578900  1
  Y  Y4  1  0.96841000  0.25153500  0.48488500  1
  Y  Y5  1  0.46841000  0.74846500  0.01511500  1
  Y  Y6  1  0.03159000  0.74846500  0.51511500  1
  Y  Y7  1  0.53159000  0.25153500  0.98488500  1
  Y  Y8  1  0.10041800  0.80460600  0.99645400  1
  Y  Y9  1  0.60041800  0.19539400  0.50354600  1
  Y  Y10  1  0.89958200  0.19539400  0.00354600  1
  Y  Y11  1  0.39958200  0.80460600  0.49645400  1
  Si  Si12  1  0.25578000  0.12210900  0.61251300  1
  Si  Si13  1  0.75578000  0.87789100  0.88748700  1
  Si  Si14  1  0.74422000  0.87789100  0.38748700  1
  Si  Si15  1  0.24422000  0.12210900  0.11251300  1
  Si  Si16  1  0.46017800  0.28765100  0.70860800  1
  Si  Si17  1  0.96017800  0.71234900  0.79139200  1
  Si  Si18  1  0.53982200  0.71234900  0.29139200  1
  Si  Si19  1  0.03982200  0.28765100  0.20860800  1
  Si  Si20  1  0.41370100  0.28343700  0.23990100  1
  Si  Si21  1  0.91370100  0.71656300  0.26009900  1
  Si  Si22  1  0.58629900  0.71656300  0.76009900  1
  Si  Si23  1  0.08629900  0.28343700  0.73990100  1
  O  O24  1  0.18229700  0.28431100  0.48409100  1
  O  O25  1  0.68229700  0.71568900  0.01590900  1
  O  O26  1  0.81770300  0.71568900  0.51590900  1
  O  O27  1  0.31770300  0.28431100  0.98409100  1
  O  O28  1  0.27538200  0.89601200  0.62515000  1
  O  O29  1  0.77538200  0.10398800  0.87485000  1
  O  O30  1  0.72461800  0.10398800  0.37485000  1
  O  O31  1  0.22461800  0.89601200  0.12515000  1
  O  O32  1  0.47640600  0.10514500  0.86150600  1
  O  O33  1  0.97640600  0.89485500  0.63849400  1
  O  O34  1  0.52359400  0.89485500  0.13849400  1
  O  O35  1  0.02359400  0.10514500  0.36150600  1
  O  O36  1  0.38873500  0.19942200  0.62448000  1
  O  O37  1  0.88873500  0.80057800  0.87552000  1
  O  O38  1  0.61126500  0.80057800  0.37552000  1
  O  O39  1  0.11126500  0.19942200  0.12448000  1
  O  O40  1  0.17680600  0.11256200  0.73223300  1
  O  O41  1  0.67680600  0.88743800  0.76776700  1
  O  O42  1  0.82319400  0.88743800  0.26776700  1
  O  O43  1  0.32319400  0.11256200  0.23223300  1
  O  O44  1  0.08585800  0.65513400  0.86893500  1
  O  O45  1  0.58585800  0.34486600  0.63106500  1
  O  O46  1  0.91414200  0.34486600  0.13106500  1
  O  O47  1  0.41414200  0.65513400  0.36893500  1
  O  O48  1  0.47748500  0.64930700  0.86279700  1
  O  O49  1  0.97748500  0.35069300  0.63720300  1
  O  O50  1  0.52251500  0.35069300  0.13720300  1
  O  O51  1  0.02251500  0.64930700  0.36279700  1
  O  O52  1  0.10491300  0.49499100  0.19319100  1
  O  O53  1  0.60491300  0.50500900  0.30680900  1
  O  O54  1  0.89508700  0.50500900  0.80680900  1
  O  O55  1  0.39508700  0.49499100  0.69319100  1
  O  O56  1  0.35501200  0.51220200  0.19555700  1
  O  O57  1  0.85501200  0.48779800  0.30444300  1
  O  O58  1  0.64498800  0.48779800  0.80444300  1
  O  O59  1  0.14498800  0.51220200  0.69555700  1
  O  O60  1  0.45001900  0.15025400  0.39121900  1
  O  O61  1  0.95001900  0.84974600  0.10878100  1
  O  O62  1  0.54998100  0.84974600  0.60878100  1
  O  O63  1  0.04998100  0.15025400  0.89121900  1
  O  O64  1  0.28494600  0.74302000  0.95078800  1
  O  O65  1  0.78494600  0.25698000  0.54921200  1
  O  O66  1  0.71505400  0.25698000  0.04921200  1
  O  O67  1  0.21505400  0.74302000  0.45078800  1
