# generated using pymatgen
data_Ba6Nb3HO14
_symmetry_space_group_name_H-M   'P 1'
_cell_length_a   6.14856500
_cell_length_b   10.67553100
_cell_length_c   12.75860800
_cell_angle_alpha   90.00000000
_cell_angle_beta   90.00000000
_cell_angle_gamma   90.00000000
_symmetry_Int_Tables_number   1
_chemical_formula_structural   Ba6Nb3HO14
_chemical_formula_sum   'Ba12 Nb6 H2 O28'
_cell_volume   837.46477455
_cell_formula_units_Z   2
loop_
 _symmetry_equiv_pos_site_id
 _symmetry_equiv_pos_as_xyz
  1  'x, y, z'
loop_
 _atom_site_type_symbol
 _atom_site_label
 _atom_site_symmetry_multiplicity
 _atom_site_fract_x
 _atom_site_fract_y
 _atom_site_fract_z
 _atom_site_occupancy
  Ba  Ba0  1  0.00000000  0.49962000  0.49524400  1
  Ba  Ba1  1  0.50000000  0.99962000  0.50475600  1
  Ba  Ba2  1  0.00000000  0.17571600  0.64337500  1
  Ba  Ba3  1  0.50000000  0.67571600  0.35662500  1
  Ba  Ba4  1  0.00000000  0.45909700  0.83450600  1
  Ba  Ba5  1  0.50000000  0.95909700  0.16549400  1
  Ba  Ba6  1  0.00000000  0.17774800  0.32801000  1
  Ba  Ba7  1  0.50000000  0.67774700  0.67199000  1
  Ba  Ba8  1  0.50000000  0.05795100  0.83208900  1
  Ba  Ba9  1  0.00000000  0.55795100  0.16791100  1
  Ba  Ba10  1  0.00000000  0.83362700  0.91278000  1
  Ba  Ba11  1  0.50000000  0.33362700  0.08722000  1
  Nb  Nb12  1  0.00000000  0.83813400  0.64106700  1
  Nb  Nb13  1  0.50000000  0.33813400  0.35893300  1
  Nb  Nb14  1  0.00000000  0.84563000  0.40314000  1
  Nb  Nb15  1  0.50000000  0.34563000  0.59686000  1
  Nb  Nb16  1  0.50000000  0.65450500  0.00714000  1
  Nb  Nb17  1  0.00000000  0.15450500  0.99286000  1
  H  H18  1  0.50000000  0.33677900  0.82436000  1
  H  H19  1  0.00000000  0.83677900  0.17564000  1
  O  O20  1  0.75932200  0.91957900  0.33150400  1
  O  O21  1  0.24067800  0.91957900  0.33150400  1
  O  O22  1  0.74067800  0.41957900  0.66849600  1
  O  O23  1  0.25932200  0.41957900  0.66849600  1
  O  O24  1  0.77360600  0.76839000  0.52663900  1
  O  O25  1  0.22639400  0.76839000  0.52663900  1
  O  O26  1  0.72639400  0.26839000  0.47336100  1
  O  O27  1  0.27360600  0.26839000  0.47336100  1
  O  O28  1  0.77125700  0.92664200  0.71170000  1
  O  O29  1  0.22874300  0.92664200  0.71170000  1
  O  O30  1  0.72874300  0.42664200  0.28830000  1
  O  O31  1  0.27125700  0.42664200  0.28830000  1
  O  O32  1  0.00000000  0.68885600  0.72790400  1
  O  O33  1  0.50000000  0.18885600  0.27209600  1
  O  O34  1  0.00000000  0.98673100  0.51595900  1
  O  O35  1  0.50000000  0.48673100  0.48404100  1
  O  O36  1  0.00000000  0.67886900  0.34660700  1
  O  O37  1  0.50000000  0.17886900  0.65339300  1
  O  O38  1  0.25683900  0.55015800  0.99260400  1
  O  O39  1  0.74316100  0.55015800  0.99260400  1
  O  O40  1  0.24316100  0.05015800  0.00739600  1
  O  O41  1  0.75683900  0.05015800  0.00739600  1
  O  O42  1  0.00000000  0.20980300  0.85344900  1
  O  O43  1  0.50000000  0.70980300  0.14655100  1
  O  O44  1  0.50000000  0.78060200  0.90354500  1
  O  O45  1  0.00000000  0.28060200  0.09645500  1
  O  O46  1  0.50000000  0.30298400  0.89556300  1
  O  O47  1  0.00000000  0.80298400  0.10443700  1
