# generated using pymatgen
data_CaCd(NO3)4
_symmetry_space_group_name_H-M   'P 1'
_cell_length_a   7.59773120
_cell_length_b   7.59773120
_cell_length_c   18.28346200
_cell_angle_alpha   90.00000000
_cell_angle_beta   90.00000000
_cell_angle_gamma   119.99999304
_symmetry_Int_Tables_number   1
_chemical_formula_structural   CaCd(NO3)4
_chemical_formula_sum   'Ca3 Cd3 N12 O36'
_cell_volume   914.02262254
_cell_formula_units_Z   3
loop_
 _symmetry_equiv_pos_site_id
 _symmetry_equiv_pos_as_xyz
  1  'x, y, z'
loop_
 _atom_site_type_symbol
 _atom_site_label
 _atom_site_symmetry_multiplicity
 _atom_site_fract_x
 _atom_site_fract_y
 _atom_site_fract_z
 _atom_site_occupancy
  Ca  Ca0  1  0.00000000  0.51087100  0.83333300  1
  Ca  Ca1  1  0.48912900  0.48912900  0.50000000  1
  Ca  Ca2  1  0.51087100  0.00000000  0.16666700  1
  Cd  Cd3  1  0.98592000  0.98592000  0.00000000  1
  Cd  Cd4  1  0.01408000  0.00000000  0.66666700  1
  Cd  Cd5  1  0.00000000  0.01408000  0.33333300  1
  N  N6  1  0.25386000  0.94727600  0.89243000  1
  N  N7  1  0.05272400  0.30658300  0.55909700  1
  N  N8  1  0.69341700  0.74614000  0.22576400  1
  N  N9  1  0.94727600  0.25386000  0.10757000  1
  N  N10  1  0.30658300  0.05272400  0.44090300  1
  N  N11  1  0.74614000  0.69341700  0.77423600  1
  N  N12  1  0.78480400  0.09862600  0.89415800  1
  N  N13  1  0.90137400  0.68617800  0.56082400  1
  N  N14  1  0.31382200  0.21519600  0.22749100  1
  N  N15  1  0.09862600  0.78480400  0.10584200  1
  N  N16  1  0.68617800  0.90137400  0.43917600  1
  N  N17  1  0.21519600  0.31382200  0.77250900  1
  O  O18  1  0.31607300  0.11660900  0.91820200  1
  O  O19  1  0.88339100  0.19946400  0.58486900  1
  O  O20  1  0.80053600  0.68392700  0.25153500  1
  O  O21  1  0.11660900  0.31607300  0.08179800  1
  O  O22  1  0.19946400  0.88339100  0.41513100  1
  O  O23  1  0.68392700  0.80053600  0.74846500  1
  O  O24  1  0.08212500  0.80258900  0.91578000  1
  O  O25  1  0.19741100  0.27953600  0.58244700  1
  O  O26  1  0.72046400  0.91787500  0.24911400  1
  O  O27  1  0.80258900  0.08212500  0.08422000  1
  O  O28  1  0.27953600  0.19741100  0.41755300  1
  O  O29  1  0.91787500  0.72046400  0.75088600  1
  O  O30  1  0.70432800  0.91982400  0.91908800  1
  O  O31  1  0.08017600  0.78450400  0.58575500  1
  O  O32  1  0.21549600  0.29567200  0.25242100  1
  O  O33  1  0.91982400  0.70432800  0.08091200  1
  O  O34  1  0.78450400  0.08017600  0.41424500  1
  O  O35  1  0.29567200  0.21549600  0.74757900  1
  O  O36  1  0.96085600  0.23455700  0.92058800  1
  O  O37  1  0.76544300  0.72629900  0.58725500  1
  O  O38  1  0.27370100  0.03914400  0.25392200  1
  O  O39  1  0.23455700  0.96085600  0.07941200  1
  O  O40  1  0.72629900  0.76544300  0.41274500  1
  O  O41  1  0.03914400  0.27370100  0.74607800  1
  O  O42  1  0.29223400  0.80453500  0.77966800  1
  O  O43  1  0.19546500  0.48769900  0.44633400  1
  O  O44  1  0.51230100  0.70776600  0.11300100  1
  O  O45  1  0.80453500  0.29223400  0.22033200  1
  O  O46  1  0.48769900  0.19546500  0.55366600  1
  O  O47  1  0.70776600  0.51230100  0.88699900  1
  O  O48  1  0.29440800  0.44542600  0.82169100  1
  O  O49  1  0.55457400  0.84898200  0.48835800  1
  O  O50  1  0.15101800  0.70559200  0.15502400  1
  O  O51  1  0.44542600  0.29440800  0.17830900  1
  O  O52  1  0.84898200  0.55457400  0.51164200  1
  O  O53  1  0.70559200  0.15101800  0.84497600  1
