# generated using pymatgen
data_Zr2(SO6)3
_symmetry_space_group_name_H-M   'P 1'
_cell_length_a   7.62467665
_cell_length_b   7.62467665
_cell_length_c   15.42102490
_cell_angle_alpha   85.63735573
_cell_angle_beta   85.63735573
_cell_angle_gamma   50.51328191
_symmetry_Int_Tables_number   1
_chemical_formula_structural   Zr2(SO6)3
_chemical_formula_sum   'Zr4 S6 O36'
_cell_volume   689.45112446
_cell_formula_units_Z   2
loop_
 _symmetry_equiv_pos_site_id
 _symmetry_equiv_pos_as_xyz
  1  'x, y, z'
loop_
 _atom_site_type_symbol
 _atom_site_label
 _atom_site_symmetry_multiplicity
 _atom_site_fract_x
 _atom_site_fract_y
 _atom_site_fract_z
 _atom_site_occupancy
  Zr  Zr0  1  0.89605400  0.88582500  0.07974900  1
  Zr  Zr1  1  0.11417500  0.10394600  0.42025100  1
  Zr  Zr2  1  0.10394600  0.11417500  0.92025100  1
  Zr  Zr3  1  0.88582500  0.89605400  0.57974900  1
  S  S4  1  0.73113500  0.26886500  0.25000000  1
  S  S5  1  0.26886500  0.73113500  0.75000000  1
  S  S6  1  0.30240500  0.27618700  0.06935900  1
  S  S7  1  0.72381300  0.69759500  0.43064100  1
  S  S8  1  0.69759500  0.72381300  0.93064100  1
  S  S9  1  0.27618700  0.30240500  0.56935900  1
  O  O10  1  0.04640500  0.87329500  0.95638800  1
  O  O11  1  0.12670500  0.95359500  0.54361200  1
  O  O12  1  0.95359500  0.12670500  0.04361200  1
  O  O13  1  0.87329500  0.04640500  0.45638800  1
  O  O14  1  0.80115100  0.06376000  0.20480300  1
  O  O15  1  0.93624000  0.19884900  0.29519700  1
  O  O16  1  0.19884900  0.93624000  0.79519700  1
  O  O17  1  0.06376000  0.80115100  0.70480300  1
  O  O18  1  0.54222100  0.34330500  0.31255400  1
  O  O19  1  0.65669500  0.45777900  0.18744600  1
  O  O20  1  0.45777900  0.65669500  0.68744600  1
  O  O21  1  0.34330500  0.54222100  0.81255400  1
  O  O22  1  0.18556400  0.51775300  0.09351500  1
  O  O23  1  0.48224700  0.81443600  0.40648500  1
  O  O24  1  0.81443600  0.48224700  0.90648500  1
  O  O25  1  0.51775300  0.18556400  0.59351500  1
  O  O26  1  0.54684600  0.17319800  0.05328600  1
  O  O27  1  0.82680200  0.45315400  0.44671400  1
  O  O28  1  0.45315400  0.82680200  0.94671400  1
  O  O29  1  0.17319800  0.54684600  0.55328600  1
  O  O30  1  0.21562500  0.28081300  0.98484200  1
  O  O31  1  0.71918700  0.78437500  0.51515800  1
  O  O32  1  0.78437500  0.71918700  0.01515800  1
  O  O33  1  0.28081300  0.21562500  0.48484200  1
  O  O34  1  0.26937500  0.15855000  0.13788900  1
  O  O35  1  0.84145000  0.73062500  0.36211100  1
  O  O36  1  0.73062500  0.84145000  0.86211100  1
  O  O37  1  0.15855000  0.26937500  0.63788900  1
  O  O38  1  0.17459600  0.84318300  0.13607900  1
  O  O39  1  0.15681700  0.82540400  0.36392100  1
  O  O40  1  0.82540400  0.15681700  0.86392100  1
  O  O41  1  0.84318300  0.17459600  0.63607900  1
  O  O42  1  0.81406400  0.72016100  0.18582500  1
  O  O43  1  0.27983900  0.18593600  0.31417500  1
  O  O44  1  0.18593600  0.27983900  0.81417500  1
  O  O45  1  0.72016100  0.81406400  0.68582500  1
