# generated using pymatgen
data_RbHoS2O9
_symmetry_space_group_name_H-M   'P 1'
_cell_length_a   8.55629000
_cell_length_b   10.19259700
_cell_length_c   10.38168852
_cell_angle_alpha   62.27096346
_cell_angle_beta   90.00000000
_cell_angle_gamma   90.00000000
_symmetry_Int_Tables_number   1
_chemical_formula_structural   RbHoS2O9
_chemical_formula_sum   'Rb4 Ho4 S8 O36'
_cell_volume   801.41803574
_cell_formula_units_Z   4
loop_
 _symmetry_equiv_pos_site_id
 _symmetry_equiv_pos_as_xyz
  1  'x, y, z'
loop_
 _atom_site_type_symbol
 _atom_site_label
 _atom_site_symmetry_multiplicity
 _atom_site_fract_x
 _atom_site_fract_y
 _atom_site_fract_z
 _atom_site_occupancy
  Rb  Rb0  1  0.83529600  0.78166200  0.18168100  1
  Rb  Rb1  1  0.33529600  0.21833800  0.31831900  1
  Rb  Rb2  1  0.16470400  0.21833800  0.81831900  1
  Rb  Rb3  1  0.66470400  0.78166200  0.68168100  1
  Ho  Ho4  1  0.87084700  0.24820700  0.46997700  1
  Ho  Ho5  1  0.37084700  0.75179300  0.03002300  1
  Ho  Ho6  1  0.12915300  0.75179300  0.53002300  1
  Ho  Ho7  1  0.62915300  0.24820700  0.96997700  1
  S  S8  1  0.13636200  0.93960200  0.68409800  1
  S  S9  1  0.63636200  0.06039800  0.81590200  1
  S  S10  1  0.86363800  0.06039800  0.31590200  1
  S  S11  1  0.36363800  0.93960200  0.18409800  1
  S  S12  1  0.19642700  0.50749200  0.39099500  1
  S  S13  1  0.69642700  0.49250800  0.10900500  1
  S  S14  1  0.80357300  0.49250800  0.60900500  1
  S  S15  1  0.30357300  0.50749200  0.89099500  1
  O  O16  1  0.06649900  0.09120100  0.61854700  1
  O  O17  1  0.56649900  0.90879900  0.88145300  1
  O  O18  1  0.93350100  0.90879900  0.38145300  1
  O  O19  1  0.43350100  0.09120100  0.11854700  1
  O  O20  1  0.62005700  0.34612900  0.43416100  1
  O  O21  1  0.12005700  0.65387100  0.06583900  1
  O  O22  1  0.37994300  0.65387100  0.56583900  1
  O  O23  1  0.87994300  0.34612900  0.93416100  1
  O  O24  1  0.71072800  0.08804500  0.67684200  1
  O  O25  1  0.21072800  0.91195500  0.82315800  1
  O  O26  1  0.28927200  0.91195500  0.32315800  1
  O  O27  1  0.78927200  0.08804500  0.17684200  1
  O  O28  1  0.29505700  0.43973800  0.52256600  1
  O  O29  1  0.79505700  0.56026200  0.97743400  1
  O  O30  1  0.70494300  0.56026200  0.47743400  1
  O  O31  1  0.20494300  0.43973800  0.02256600  1
  O  O32  1  0.39408300  0.63476000  0.88541900  1
  O  O33  1  0.89408300  0.36524000  0.61458100  1
  O  O34  1  0.60591700  0.36524000  0.11458100  1
  O  O35  1  0.10591700  0.63476000  0.38541900  1
  O  O36  1  0.09102300  0.39447000  0.38598200  1
  O  O37  1  0.59102300  0.60553000  0.11401800  1
  O  O38  1  0.90897700  0.60553000  0.61401800  1
  O  O39  1  0.40897700  0.39447000  0.88598200  1
  O  O40  1  0.29747100  0.56267600  0.25675600  1
  O  O41  1  0.79747100  0.43732400  0.24324400  1
  O  O42  1  0.70252900  0.43732400  0.74324400  1
  O  O43  1  0.20252900  0.56267600  0.75675600  1
  O  O44  1  0.25546000  0.93104800  0.58104100  1
  O  O45  1  0.75546000  0.06895200  0.91895900  1
  O  O46  1  0.74454000  0.06895200  0.41895900  1
  O  O47  1  0.24454000  0.93104800  0.08104100  1
  O  O48  1  0.01547900  0.82783700  0.70063100  1
  O  O49  1  0.51547900  0.17216300  0.79936900  1
  O  O50  1  0.98452100  0.17216300  0.29936900  1
  O  O51  1  0.48452100  0.82783700  0.20063100  1
