# generated using pymatgen
data_Si17CO34
_symmetry_space_group_name_H-M   'P 1'
_cell_length_a   14.15207330
_cell_length_b   14.15207330
_cell_length_c   14.15207330
_cell_angle_alpha   60.00000000
_cell_angle_beta   60.00000000
_cell_angle_gamma   60.00000000
_symmetry_Int_Tables_number   1
_chemical_formula_structural   Si17CO34
_chemical_formula_sum   'Si34 C2 O68'
_cell_volume   2004.21916342
_cell_formula_units_Z   2
loop_
 _symmetry_equiv_pos_site_id
 _symmetry_equiv_pos_as_xyz
  1  'x, y, z'
loop_
 _atom_site_type_symbol
 _atom_site_label
 _atom_site_symmetry_multiplicity
 _atom_site_fract_x
 _atom_site_fract_y
 _atom_site_fract_z
 _atom_site_occupancy
  Si  Si0  1  0.50000000  0.50000000  0.50000000  1
  Si  Si1  1  0.75000000  0.75000000  0.75000000  1
  Si  Si2  1  0.77677700  0.40774100  0.40774100  1
  Si  Si3  1  0.40774100  0.77677700  0.40774100  1
  Si  Si4  1  0.40774100  0.40774100  0.77677700  1
  Si  Si5  1  0.40774100  0.40774100  0.40774100  1
  Si  Si6  1  0.47322300  0.84225900  0.84225900  1
  Si  Si7  1  0.84225900  0.47322300  0.84225900  1
  Si  Si8  1  0.84225900  0.84225900  0.47322300  1
  Si  Si9  1  0.84225900  0.84225900  0.84225900  1
  Si  Si10  1  0.86058500  0.25432500  0.25432500  1
  Si  Si11  1  0.25432500  0.86058500  0.63076500  1
  Si  Si12  1  0.25432500  0.63076500  0.86058500  1
  Si  Si13  1  0.63076500  0.25432500  0.25432500  1
  Si  Si14  1  0.25432500  0.25432500  0.86058500  1
  Si  Si15  1  0.86058500  0.63076500  0.25432500  1
  Si  Si16  1  0.63076500  0.86058500  0.25432500  1
  Si  Si17  1  0.25432500  0.25432500  0.63076500  1
  Si  Si18  1  0.25432500  0.86058500  0.25432500  1
  Si  Si19  1  0.63076500  0.25432500  0.86058500  1
  Si  Si20  1  0.86058500  0.25432500  0.63076500  1
  Si  Si21  1  0.25432500  0.63076500  0.25432500  1
  Si  Si22  1  0.38941500  0.99567500  0.99567500  1
  Si  Si23  1  0.99567500  0.38941500  0.61923500  1
  Si  Si24  1  0.99567500  0.61923500  0.38941500  1
  Si  Si25  1  0.61923500  0.99567500  0.99567500  1
  Si  Si26  1  0.99567500  0.99567500  0.38941500  1
  Si  Si27  1  0.38941500  0.61923500  0.99567500  1
  Si  Si28  1  0.61923500  0.38941500  0.99567500  1
  Si  Si29  1  0.99567500  0.99567500  0.61923500  1
  Si  Si30  1  0.99567500  0.38941500  0.99567500  1
  Si  Si31  1  0.61923500  0.99567500  0.38941500  1
  Si  Si32  1  0.38941500  0.99567500  0.61923500  1
  Si  Si33  1  0.99567500  0.61923500  0.99567500  1
  C  C34  1  0.25000000  0.25000000  0.25000000  1
  C  C35  1  0.00000000  0.00000000  0.00000000  1
  O  O36  1  0.63842000  0.45386000  0.45386000  1
  O  O37  1  0.45386000  0.63842000  0.45386000  1
  O  O38  1  0.45386000  0.45386000  0.63842000  1
  O  O39  1  0.45386000  0.45386000  0.45386000  1
  O  O40  1  0.61158000  0.79614000  0.79614000  1
  O  O41  1  0.79614000  0.61158000  0.79614000  1
  O  O42  1  0.79614000  0.79614000  0.61158000  1
  O  O43  1  0.79614000  0.79614000  0.79614000  1
  O  O44  1  0.82003100  0.33086500  0.33086500  1
  O  O45  1  0.33086500  0.82003100  0.51823800  1
  O  O46  1  0.33086500  0.51823800  0.82003100  1
  O  O47  1  0.51823800  0.33086500  0.33086500  1
  O  O48  1  0.33086500  0.33086500  0.82003100  1
  O  O49  1  0.82003100  0.51823800  0.33086500  1
  O  O50  1  0.51823800  0.82003100  0.33086500  1
  O  O51  1  0.33086500  0.33086500  0.51823800  1
  O  O52  1  0.33086500  0.82003100  0.33086500  1
  O  O53  1  0.51823800  0.33086500  0.82003100  1
  O  O54  1  0.82003100  0.33086500  0.51823800  1
  O  O55  1  0.33086500  0.51823800  0.33086500  1
  O  O56  1  0.42996900  0.91913500  0.91913500  1
  O  O57  1  0.91913500  0.42996900  0.73176200  1
  O  O58  1  0.91913500  0.73176200  0.42996900  1
  O  O59  1  0.73176200  0.91913500  0.91913500  1
  O  O60  1  0.91913500  0.91913500  0.42996900  1
  O  O61  1  0.42996900  0.73176200  0.91913500  1
  O  O62  1  0.73176200  0.42996900  0.91913500  1
  O  O63  1  0.91913500  0.91913500  0.73176200  1
  O  O64  1  0.91913500  0.42996900  0.91913500  1
  O  O65  1  0.73176200  0.91913500  0.42996900  1
  O  O66  1  0.42996900  0.91913500  0.73176200  1
  O  O67  1  0.91913500  0.73176200  0.91913500  1
  O  O68  1  0.74820200  0.25179800  0.25179800  1
  O  O69  1  0.25179800  0.74820200  0.74820200  1
  O  O70  1  0.25179800  0.25179800  0.74820200  1
  O  O71  1  0.74820200  0.74820200  0.25179800  1
  O  O72  1  0.25179800  0.74820200  0.25179800  1
  O  O73  1  0.74820200  0.25179800  0.74820200  1
  O  O74  1  0.50179800  0.99820200  0.99820200  1
  O  O75  1  0.99820200  0.50179800  0.50179800  1
  O  O76  1  0.99820200  0.99820200  0.50179800  1
  O  O77  1  0.50179800  0.50179800  0.99820200  1
  O  O78  1  0.99820200  0.50179800  0.99820200  1
  O  O79  1  0.50179800  0.99820200  0.50179800  1
  O  O80  1  0.93896900  0.31103100  0.12500000  1
  O  O81  1  0.31103100  0.93896900  0.62500000  1
  O  O82  1  0.12500000  0.62500000  0.93896900  1
  O  O83  1  0.62500000  0.12500000  0.31103100  1
  O  O84  1  0.31103100  0.12500000  0.93896900  1
  O  O85  1  0.93896900  0.62500000  0.31103100  1
  O  O86  1  0.62500000  0.93896900  0.12500000  1
  O  O87  1  0.12500000  0.31103100  0.62500000  1
  O  O88  1  0.12500000  0.93896900  0.31103100  1
  O  O89  1  0.62500000  0.31103100  0.93896900  1
  O  O90  1  0.93896900  0.12500000  0.62500000  1
  O  O91  1  0.31103100  0.62500000  0.12500000  1
  O  O92  1  0.93896900  0.12500000  0.31103100  1
  O  O93  1  0.31103100  0.62500000  0.93896900  1
  O  O94  1  0.12500000  0.93896900  0.62500000  1
  O  O95  1  0.62500000  0.31103100  0.12500000  1
  O  O96  1  0.31103100  0.93896900  0.12500000  1
  O  O97  1  0.93896900  0.31103100  0.62500000  1
  O  O98  1  0.62500000  0.12500000  0.93896900  1
  O  O99  1  0.12500000  0.62500000  0.31103100  1
  O  O100  1  0.12500000  0.31103100  0.93896900  1
  O  O101  1  0.62500000  0.93896900  0.31103100  1
  O  O102  1  0.93896900  0.62500000  0.12500000  1
  O  O103  1  0.31103100  0.12500000  0.62500000  1
