# generated using pymatgen
data_SnH10C3NCl3
_symmetry_space_group_name_H-M   'P 1'
_cell_length_a   6.54201310
_cell_length_b   6.54201310
_cell_length_c   12.83882000
_cell_angle_alpha   90.00000000
_cell_angle_beta   90.00000000
_cell_angle_gamma   99.38599419
_symmetry_Int_Tables_number   1
_chemical_formula_structural   SnH10C3NCl3
_chemical_formula_sum   'Sn2 H20 C6 N2 Cl6'
_cell_volume   542.11864893
_cell_formula_units_Z   2
loop_
 _symmetry_equiv_pos_site_id
 _symmetry_equiv_pos_as_xyz
  1  'x, y, z'
loop_
 _atom_site_type_symbol
 _atom_site_label
 _atom_site_symmetry_multiplicity
 _atom_site_fract_x
 _atom_site_fract_y
 _atom_site_fract_z
 _atom_site_occupancy
  Sn  Sn0  1  0.95581900  0.95581900  0.75522800  1
  Sn  Sn1  1  0.04418100  0.04418100  0.25522800  1
  H  H2  1  0.34423500  0.34423500  0.42399200  1
  H  H3  1  0.65576500  0.65576500  0.92399200  1
  H  H4  1  0.39628100  0.64856900  0.59696600  1
  H  H5  1  0.64856900  0.39628100  0.59696600  1
  H  H6  1  0.60371900  0.35143100  0.09696600  1
  H  H7  1  0.35143100  0.60371900  0.09696600  1
  H  H8  1  0.19294200  0.42901100  0.58757500  1
  H  H9  1  0.42901100  0.19294200  0.58757500  1
  H  H10  1  0.80705800  0.57098900  0.08757500  1
  H  H11  1  0.57098900  0.80705800  0.08757500  1
  H  H12  1  0.20953200  0.63281700  0.49328400  1
  H  H13  1  0.63281700  0.20953200  0.49328400  1
  H  H14  1  0.79046800  0.36718300  0.99328400  1
  H  H15  1  0.36718300  0.79046800  0.99328400  1
  H  H16  1  0.68566300  0.68566300  0.47208900  1
  H  H17  1  0.31433700  0.31433700  0.97208900  1
  H  H18  1  0.50053600  0.68039600  0.36807100  1
  H  H19  1  0.68039600  0.50053600  0.36807100  1
  H  H20  1  0.49946400  0.31960400  0.86807100  1
  H  H21  1  0.31960400  0.49946400  0.86807100  1
  C  C22  1  0.29838400  0.54438600  0.54338700  1
  C  C23  1  0.54438600  0.29838400  0.54338700  1
  C  C24  1  0.70161600  0.45561400  0.04338700  1
  C  C25  1  0.45561400  0.70161600  0.04338700  1
  C  C26  1  0.58683400  0.58683400  0.41702800  1
  C  C27  1  0.41316600  0.41316600  0.91702800  1
  N  N28  1  0.43621900  0.43621900  0.47768000  1
  N  N29  1  0.56378100  0.56378100  0.97768000  1
  Cl  Cl30  1  0.97501000  0.97501000  0.95170400  1
  Cl  Cl31  1  0.02499000  0.02499000  0.45170400  1
  Cl  Cl32  1  0.56436800  0.92786000  0.75880800  1
  Cl  Cl33  1  0.92786000  0.56436800  0.75880800  1
  Cl  Cl34  1  0.43563200  0.07214000  0.25880800  1
  Cl  Cl35  1  0.07214000  0.43563200  0.25880800  1
