# generated using pymatgen
data_La4(TmS2)11
_symmetry_space_group_name_H-M   'P 1'
_cell_length_a   19.68395127
_cell_length_b   19.68395127
_cell_length_c   11.33374693
_cell_angle_alpha   88.61520107
_cell_angle_beta   88.61520107
_cell_angle_gamma   11.53231020
_symmetry_Int_Tables_number   1
_chemical_formula_structural   La4(TmS2)11
_chemical_formula_sum   'La4 Tm11 S22'
_cell_volume   877.66191190
_cell_formula_units_Z   1
loop_
 _symmetry_equiv_pos_site_id
 _symmetry_equiv_pos_as_xyz
  1  'x, y, z'
loop_
 _atom_site_type_symbol
 _atom_site_label
 _atom_site_symmetry_multiplicity
 _atom_site_fract_x
 _atom_site_fract_y
 _atom_site_fract_z
 _atom_site_occupancy
  La  La0  1  0.10404400  0.10404400  0.98758500  1
  La  La1  1  0.89595600  0.89595600  0.01241500  1
  La  La2  1  0.36716800  0.36716800  0.65208000  1
  La  La3  1  0.63283200  0.63283200  0.34792000  1
  Tm  Tm4  1  0.79773500  0.79773500  0.94194200  1
  Tm  Tm5  1  0.20226500  0.20226500  0.05805800  1
  Tm  Tm6  1  0.46210700  0.46210700  0.72902100  1
  Tm  Tm7  1  0.53789300  0.53789300  0.27097900  1
  Tm  Tm8  1  0.65771200  0.65771200  0.69874800  1
  Tm  Tm9  1  0.34228800  0.34228800  0.30125200  1
  Tm  Tm10  1  0.26378700  0.26378700  0.64799700  1
  Tm  Tm11  1  0.73621300  0.73621300  0.35200300  1
  Tm  Tm12  1  0.06928600  0.06928600  0.63927400  1
  Tm  Tm13  1  0.93071400  0.93071400  0.36072600  1
  Tm  Tm14  1  0.00000000  0.00000000  0.00000000  1
  S  S15  1  0.08671900  0.08671900  0.24835900  1
  S  S16  1  0.91328100  0.91328100  0.75164100  1
  S  S17  1  0.18943300  0.18943300  0.30794500  1
  S  S18  1  0.81056700  0.81056700  0.69205500  1
  S  S19  1  0.27998400  0.27998400  0.40976700  1
  S  S20  1  0.72001600  0.72001600  0.59023300  1
  S  S21  1  0.44574800  0.44574800  0.50450900  1
  S  S22  1  0.55425200  0.55425200  0.49549100  1
  S  S23  1  0.13438800  0.13438800  0.54858100  1
  S  S24  1  0.86561200  0.86561200  0.45141900  1
  S  S25  1  0.59286500  0.59286500  0.78583100  1
  S  S26  1  0.40713500  0.40713500  0.21416900  1
  S  S27  1  0.45378700  0.45378700  0.96834500  1
  S  S28  1  0.54621300  0.54621300  0.03165500  1
  S  S29  1  0.35006500  0.35006500  0.90896500  1
  S  S30  1  0.64993500  0.64993500  0.09103500  1
  S  S31  1  0.16868600  0.16868600  0.84730000  1
  S  S32  1  0.83131400  0.83131400  0.15270000  1
  S  S33  1  0.00775200  0.00775200  0.76085400  1
  S  S34  1  0.99224800  0.99224800  0.23914600  1
  S  S35  1  0.25545300  0.25545300  0.88095800  1
  S  S36  1  0.74454700  0.74454700  0.11904200  1
