# generated using pymatgen
data_Sm(Ga4Fe)2
_symmetry_space_group_name_H-M   'P 1'
_cell_length_a   4.00004600
_cell_length_b   12.69757800
_cell_length_c   14.35220000
_cell_angle_alpha   90.00000000
_cell_angle_beta   90.00000000
_cell_angle_gamma   90.00000000
_symmetry_Int_Tables_number   1
_chemical_formula_structural   Sm(Ga4Fe)2
_chemical_formula_sum   'Sm4 Ga32 Fe8'
_cell_volume   728.96109884
_cell_formula_units_Z   4
loop_
 _symmetry_equiv_pos_site_id
 _symmetry_equiv_pos_as_xyz
  1  'x, y, z'
loop_
 _atom_site_type_symbol
 _atom_site_label
 _atom_site_symmetry_multiplicity
 _atom_site_fract_x
 _atom_site_fract_y
 _atom_site_fract_z
 _atom_site_occupancy
  Sm  Sm0  1  0.00000000  0.84261100  0.18074700  1
  Sm  Sm1  1  0.00000000  0.15738900  0.81925300  1
  Sm  Sm2  1  0.00000000  0.65738900  0.68074700  1
  Sm  Sm3  1  0.00000000  0.34261100  0.31925300  1
  Ga  Ga4  1  0.00000000  0.50000000  0.50000000  1
  Ga  Ga5  1  0.00000000  0.00000000  0.00000000  1
  Ga  Ga6  1  0.50000000  0.00000000  0.50000000  1
  Ga  Ga7  1  0.50000000  0.50000000  0.00000000  1
  Ga  Ga8  1  0.50000000  0.73875800  0.32581500  1
  Ga  Ga9  1  0.50000000  0.26124200  0.67418500  1
  Ga  Ga10  1  0.50000000  0.76124200  0.82581500  1
  Ga  Ga11  1  0.50000000  0.23875800  0.17418500  1
  Ga  Ga12  1  0.50000000  0.95070400  0.31804600  1
  Ga  Ga13  1  0.50000000  0.04929600  0.68195400  1
  Ga  Ga14  1  0.50000000  0.54929600  0.81804600  1
  Ga  Ga15  1  0.50000000  0.45070400  0.18195400  1
  Ga  Ga16  1  0.50000000  0.66447100  0.12169100  1
  Ga  Ga17  1  0.50000000  0.33552900  0.87830900  1
  Ga  Ga18  1  0.50000000  0.83552900  0.62169100  1
  Ga  Ga19  1  0.50000000  0.16447100  0.37830900  1
  Ga  Ga20  1  0.00000000  0.83821000  0.45444100  1
  Ga  Ga21  1  0.00000000  0.16179000  0.54555900  1
  Ga  Ga22  1  0.00000000  0.66179000  0.95444100  1
  Ga  Ga23  1  0.00000000  0.33821000  0.04555900  1
  Ga  Ga24  1  0.00000000  0.59900200  0.24579800  1
  Ga  Ga25  1  0.00000000  0.40099800  0.75420200  1
  Ga  Ga26  1  0.00000000  0.90099800  0.74579800  1
  Ga  Ga27  1  0.00000000  0.09900200  0.25420200  1
  Ga  Ga28  1  0.50000000  0.83151200  0.00907500  1
  Ga  Ga29  1  0.50000000  0.16848800  0.99092500  1
  Ga  Ga30  1  0.50000000  0.66848800  0.50907500  1
  Ga  Ga31  1  0.50000000  0.33151200  0.49092500  1
  Ga  Ga32  1  0.50000000  0.52425500  0.36609900  1
  Ga  Ga33  1  0.50000000  0.47574500  0.63390100  1
  Ga  Ga34  1  0.50000000  0.97574500  0.86609900  1
  Ga  Ga35  1  0.50000000  0.02425500  0.13390100  1
  Fe  Fe36  1  0.00000000  0.65188700  0.40293700  1
  Fe  Fe37  1  0.00000000  0.34811300  0.59706300  1
  Fe  Fe38  1  0.00000000  0.84811300  0.90293700  1
  Fe  Fe39  1  0.00000000  0.15188700  0.09706300  1
  Fe  Fe40  1  0.00000000  0.53485800  0.09371900  1
  Fe  Fe41  1  0.00000000  0.46514200  0.90628100  1
  Fe  Fe42  1  0.00000000  0.96514200  0.59371900  1
  Fe  Fe43  1  0.00000000  0.03485800  0.40628100  1
