# generated using pymatgen
data_Os3C9SO9
_symmetry_space_group_name_H-M   'P 1'
_cell_length_a   9.29068000
_cell_length_b   12.17711138
_cell_length_c   14.83573384
_cell_angle_alpha   89.66590524
_cell_angle_beta   78.14864989
_cell_angle_gamma   82.74892760
_symmetry_Int_Tables_number   1
_chemical_formula_structural   Os3C9SO9
_chemical_formula_sum   'Os12 C36 S4 O36'
_cell_volume   1629.15713026
_cell_formula_units_Z   4
loop_
 _symmetry_equiv_pos_site_id
 _symmetry_equiv_pos_as_xyz
  1  'x, y, z'
loop_
 _atom_site_type_symbol
 _atom_site_label
 _atom_site_symmetry_multiplicity
 _atom_site_fract_x
 _atom_site_fract_y
 _atom_site_fract_z
 _atom_site_occupancy
  Os  Os0  1  0.79997800  0.94321100  0.82978000  1
  Os  Os1  1  0.20002200  0.05678900  0.17022000  1
  Os  Os2  1  0.05635300  0.49932500  0.77156300  1
  Os  Os3  1  0.94364700  0.50067500  0.22843700  1
  Os  Os4  1  0.05176700  0.66894300  0.61661500  1
  Os  Os5  1  0.94823300  0.33105700  0.38338500  1
  Os  Os6  1  0.61381300  0.03383900  0.70446100  1
  Os  Os7  1  0.38618700  0.96616100  0.29553900  1
  Os  Os8  1  0.59812100  0.80311700  0.75751500  1
  Os  Os9  1  0.40187900  0.19688300  0.24248500  1
  Os  Os10  1  0.76104800  0.61266700  0.81674700  1
  Os  Os11  1  0.23895200  0.38733300  0.18325300  1
  C  C12  1  0.89915800  0.88526200  0.92464300  1
  C  C13  1  0.10084200  0.11473800  0.07535700  1
  C  C14  1  0.95484000  0.02133600  0.77248100  1
  C  C15  1  0.04516000  0.97866400  0.22751900  1
  C  C16  1  0.70425700  0.06369100  0.91009800  1
  C  C17  1  0.29574300  0.93630900  0.08990200  1
  C  C18  1  0.11163700  0.54848200  0.88017200  1
  C  C19  1  0.88836300  0.45151800  0.11982800  1
  C  C20  1  0.24782900  0.42702300  0.71412300  1
  C  C21  1  0.75217100  0.57297700  0.28587700  1
  C  C22  1  0.00098300  0.36672000  0.82448900  1
  C  C23  1  0.99901700  0.63328000  0.17551100  1
  C  C24  1  0.96481200  0.70601800  0.51378000  1
  C  C25  1  0.03518800  0.29398200  0.48622000  1
  C  C26  1  0.21264500  0.57448400  0.54446400  1
  C  C27  1  0.78735500  0.42551600  0.45553600  1
  C  C28  1  0.17199700  0.78658700  0.60165500  1
  C  C29  1  0.82800300  0.21341300  0.39834500  1
  C  C30  1  0.78060400  0.97322300  0.60782200  1
  C  C31  1  0.21939600  0.02677700  0.39217800  1
  C  C32  1  0.47460500  0.05888800  0.62448300  1
  C  C33  1  0.52539500  0.94111200  0.37551700  1
  C  C34  1  0.45623800  0.07548400  0.81278500  1
  C  C35  1  0.54376200  0.92451600  0.18721500  1
  C  C36  1  0.68096100  0.17601800  0.69345200  1
  C  C37  1  0.31903900  0.82398200  0.30654800  1
  C  C38  1  0.39106100  0.84629100  0.80008300  1
  C  C39  1  0.60893900  0.15370900  0.19991700  1
  C  C40  1  0.57314300  0.76644100  0.64053800  1
  C  C41  1  0.42685700  0.23355900  0.35946200  1
  C  C42  1  0.69223800  0.47908500  0.86342400  1
  C  C43  1  0.30776200  0.52091500  0.13657600  1
  C  C44  1  0.73901500  0.65742300  0.94144000  1
  C  C45  1  0.26098500  0.34257700  0.05856000  1
  C  C46  1  0.54395400  0.64696400  0.79724800  1
  C  C47  1  0.45604600  0.35303600  0.20275200  1
  S  S48  1  0.86438800  0.77204200  0.73968500  1
  S  S49  1  0.13561200  0.22795800  0.26031500  1
  S  S50  1  0.89519300  0.52584300  0.66779500  1
  S  S51  1  0.10480700  0.47415700  0.33220500  1
  O  O52  1  0.96271000  0.86147400  0.98297300  1
  O  O53  1  0.03729000  0.13852600  0.01702700  1
  O  O54  1  0.05203600  0.06790100  0.73617300  1
  O  O55  1  0.94796400  0.93209900  0.26382700  1
  O  O56  1  0.65368400  0.13578300  0.96256300  1
  O  O57  1  0.34631600  0.86421700  0.03743700  1
  O  O58  1  0.13559800  0.58021500  0.94869600  1
  O  O59  1  0.86440200  0.41978500  0.05130400  1
  O  O60  1  0.36056700  0.37384400  0.68451600  1
  O  O61  1  0.63943300  0.62615600  0.31548400  1
  O  O62  1  0.96906700  0.28097200  0.85085700  1
  O  O63  1  0.03093300  0.71902800  0.14914300  1
  O  O64  1  0.91357300  0.72222000  0.44922400  1
  O  O65  1  0.08642700  0.27778000  0.55077600  1
  O  O66  1  0.31316500  0.52245300  0.49793600  1
  O  O67  1  0.68683500  0.47754700  0.50206400  1
  O  O68  1  0.24185000  0.86015800  0.59065300  1
  O  O69  1  0.75815000  0.13984200  0.40934700  1
  O  O70  1  0.87927300  0.94154200  0.54870100  1
  O  O71  1  0.12072700  0.05845800  0.45129900  1
  O  O72  1  0.38956800  0.07663400  0.57727300  1
  O  O73  1  0.61043200  0.92336600  0.42272700  1
  O  O74  1  0.35980000  0.10020200  0.87485300  1
  O  O75  1  0.64020000  0.89979800  0.12514700  1
  O  O76  1  0.72500000  0.26151500  0.68468600  1
  O  O77  1  0.27500000  0.73848500  0.31531400  1
  O  O78  1  0.26262500  0.86386000  0.82324600  1
  O  O79  1  0.73737500  0.13614000  0.17675400  1
  O  O80  1  0.56002800  0.73636100  0.56863600  1
  O  O81  1  0.43997200  0.26363900  0.43136400  1
  O  O82  1  0.64222900  0.40130000  0.89521700  1
  O  O83  1  0.35777100  0.59870000  0.10478300  1
  O  O84  1  0.73016500  0.67964100  0.01871900  1
  O  O85  1  0.26983500  0.32035900  0.98128100  1
  O  O86  1  0.43937400  0.59848000  0.80295000  1
  O  O87  1  0.56062600  0.40152000  0.19705000  1
