# generated using pymatgen
data_Ca8P6O29
_symmetry_space_group_name_H-M   'P 1'
_cell_length_a   6.87132700
_cell_length_b   9.63350393
_cell_length_c   18.91094100
_cell_angle_alpha   100.62353835
_cell_angle_beta   92.15554059
_cell_angle_gamma   90.11053535
_symmetry_Int_Tables_number   1
_chemical_formula_structural   Ca8P6O29
_chemical_formula_sum   'Ca16 P12 O58'
_cell_volume   1229.43185718
_cell_formula_units_Z   2
loop_
 _symmetry_equiv_pos_site_id
 _symmetry_equiv_pos_as_xyz
  1  'x, y, z'
loop_
 _atom_site_type_symbol
 _atom_site_label
 _atom_site_symmetry_multiplicity
 _atom_site_fract_x
 _atom_site_fract_y
 _atom_site_fract_z
 _atom_site_occupancy
  Ca  Ca0  1  0.99851900  0.72088900  0.92793200  1
  Ca  Ca1  1  0.00148100  0.27911100  0.07206800  1
  Ca  Ca2  1  0.49752000  0.73506400  0.92736900  1
  Ca  Ca3  1  0.50248000  0.26493600  0.07263100  1
  Ca  Ca4  1  0.98031500  0.66819600  0.62808400  1
  Ca  Ca5  1  0.01968500  0.33180400  0.37191600  1
  Ca  Ca6  1  0.46788800  0.46037200  0.63464800  1
  Ca  Ca7  1  0.53211200  0.53962800  0.36535200  1
  Ca  Ca8  1  0.23654700  0.34117500  0.88368800  1
  Ca  Ca9  1  0.76345300  0.65882500  0.11631200  1
  Ca  Ca10  1  0.73066700  0.45867800  0.79659900  1
  Ca  Ca11  1  0.26933300  0.54132200  0.20340100  1
  Ca  Ca12  1  0.23751300  0.92368700  0.77288000  1
  Ca  Ca13  1  0.76248700  0.07631300  0.22712000  1
  Ca  Ca14  1  0.73919400  0.08905800  0.88457600  1
  Ca  Ca15  1  0.26080600  0.91094200  0.11542400  1
  P  P16  1  0.74089200  0.40450000  0.95731400  1
  P  P17  1  0.25910800  0.59550000  0.04268600  1
  P  P18  1  0.22751000  0.56971800  0.79036900  1
  P  P19  1  0.77249000  0.43028200  0.20963100  1
  P  P20  1  0.73104600  0.77227900  0.76219100  1
  P  P21  1  0.26895400  0.22772100  0.23780900  1
  P  P22  1  0.24179600  0.01538200  0.94201100  1
  P  P23  1  0.75820400  0.98461800  0.05798900  1
  P  P24  1  0.72817700  0.36728800  0.50446000  1
  P  P25  1  0.27182300  0.63271200  0.49554000  1
  P  P26  1  0.74953700  0.17041700  0.70087200  1
  P  P27  1  0.25046300  0.82958300  0.29912800  1
  O  O28  1  0.92844500  0.31960100  0.93567600  1
  O  O29  1  0.07155500  0.68039900  0.06432400  1
  O  O30  1  0.56311800  0.30968400  0.92556900  1
  O  O31  1  0.43688200  0.69031600  0.07443100  1
  O  O32  1  0.40717700  0.48480100  0.81012900  1
  O  O33  1  0.59282300  0.51519900  0.18987100  1
  O  O34  1  0.05037000  0.50217500  0.82072700  1
  O  O35  1  0.94963000  0.49782500  0.17927300  1
  O  O36  1  0.92479900  0.82748600  0.73837600  1
  O  O37  1  0.07520100  0.17251400  0.26162400  1
  O  O38  1  0.57028600  0.88313800  0.75933800  1
  O  O39  1  0.42971400  0.11686200  0.24066200  1
  O  O40  1  0.42448200  0.99832200  0.89518800  1
  O  O41  1  0.57551800  0.00167800  0.10481200  1
  O  O42  1  0.05968900  0.00071100  0.88956800  1
  O  O43  1  0.94031100  0.99928900  0.11043200  1
  O  O44  1  0.89548700  0.25613800  0.50331900  1
  O  O45  1  0.10451300  0.74386200  0.49668100  1
  O  O46  1  0.52533800  0.31380100  0.51972800  1
  O  O47  1  0.47466200  0.68619900  0.48027200  1
  O  O48  1  0.73817600  0.54542300  0.92909100  1
  O  O49  1  0.26182400  0.45457700  0.07090900  1
  O  O50  1  0.26455100  0.56858400  0.95900300  1
  O  O51  1  0.73544900  0.43141600  0.04099700  1
  O  O52  1  0.24785800  0.72377800  0.83416700  1
  O  O53  1  0.75214200  0.27622200  0.16583300  1
  O  O54  1  0.20731200  0.56869100  0.70907000  1
  O  O55  1  0.79268800  0.43130900  0.29093000  1
  O  O56  1  0.74666100  0.75043500  0.84212000  1
  O  O57  1  0.25333900  0.24956500  0.15788000  1
  O  O58  1  0.68743700  0.62572600  0.71347100  1
  O  O59  1  0.31256300  0.37427400  0.28652900  1
  O  O60  1  0.24486800  0.15915100  0.99477600  1
  O  O61  1  0.75513200  0.84084900  0.00522400  1
  O  O62  1  0.24174400  0.89120900  0.98477800  1
  O  O63  1  0.75825600  0.10879100  0.01522200  1
  O  O64  1  0.78299100  0.48960000  0.56752400  1
  O  O65  1  0.21700900  0.51040000  0.43247600  1
  O  O66  1  0.26787300  0.58431500  0.56872100  1
  O  O67  1  0.73212700  0.41568500  0.43127900  1
  O  O68  1  0.77044200  0.19495300  0.78382800  1
  O  O69  1  0.22955800  0.80504700  0.21617200  1
  O  O70  1  0.59685300  0.05112900  0.66949200  1
  O  O71  1  0.40314700  0.94887100  0.33050800  1
  O  O72  1  0.93809400  0.11177500  0.66430400  1
  O  O73  1  0.06190600  0.88822500  0.33569600  1
  O  O74  1  0.68563400  0.31320300  0.68215900  1
  O  O75  1  0.31436600  0.68679700  0.31784100  1
  O  O76  1  0.74477700  0.81514700  0.56496200  1
  O  O77  1  0.25522300  0.18485300  0.43503800  1
  O  O78  1  0.19097800  0.87656700  0.62975100  1
  O  O79  1  0.80902200  0.12343300  0.37024900  1
  O  O80  1  0.30203900  0.20526400  0.66320800  1
  O  O81  1  0.69796100  0.79473600  0.33679200  1
  O  O82  1  0.24068500  0.16924000  0.76902800  1
  O  O83  1  0.75931500  0.83076000  0.23097200  1
  O  O84  1  0.32772900  0.01956700  0.58075200  1
  O  O85  1  0.67227100  0.98043300  0.41924800  1
