# generated using pymatgen
data_MgH16(ClO4)2
_symmetry_space_group_name_H-M   'P 1'
_cell_length_a   7.39351500
_cell_length_b   12.23440200
_cell_length_c   13.54687500
_cell_angle_alpha   90.00000000
_cell_angle_beta   90.00000000
_cell_angle_gamma   90.00000000
_symmetry_Int_Tables_number   1
_chemical_formula_structural   MgH16(ClO4)2
_chemical_formula_sum   'Mg4 H64 Cl8 O32'
_cell_volume   1225.38575762
_cell_formula_units_Z   4
loop_
 _symmetry_equiv_pos_site_id
 _symmetry_equiv_pos_as_xyz
  1  'x, y, z'
loop_
 _atom_site_type_symbol
 _atom_site_label
 _atom_site_symmetry_multiplicity
 _atom_site_fract_x
 _atom_site_fract_y
 _atom_site_fract_z
 _atom_site_occupancy
  Mg  Mg0  1  0.50000000  0.50000000  0.00000000  1
  Mg  Mg1  1  0.50000000  0.00000000  0.50000000  1
  Mg  Mg2  1  0.00000000  0.50000000  0.50000000  1
  Mg  Mg3  1  0.00000000  0.00000000  0.00000000  1
  H  H4  1  0.25234200  0.48704500  0.85575900  1
  H  H5  1  0.74765800  0.98704500  0.64424100  1
  H  H6  1  0.24765800  0.51295500  0.35575900  1
  H  H7  1  0.75234200  0.01295500  0.14424100  1
  H  H8  1  0.74765800  0.51295500  0.14424100  1
  H  H9  1  0.25234200  0.01295500  0.35575900  1
  H  H10  1  0.75234200  0.48704500  0.64424100  1
  H  H11  1  0.24765800  0.98704500  0.85575900  1
  H  H12  1  0.49921300  0.29291900  0.92116600  1
  H  H13  1  0.50078700  0.79291900  0.57883400  1
  H  H14  1  0.00078700  0.70708100  0.42116600  1
  H  H15  1  0.99921300  0.20708100  0.07883400  1
  H  H16  1  0.50078700  0.70708100  0.07883400  1
  H  H17  1  0.49921300  0.20708100  0.42116600  1
  H  H18  1  0.99921300  0.29291900  0.57883400  1
  H  H19  1  0.00078700  0.79291900  0.92116600  1
  H  H20  1  0.16627700  0.53692900  0.08143300  1
  H  H21  1  0.83372300  0.03692900  0.41856700  1
  H  H22  1  0.33372300  0.46307100  0.58143300  1
  H  H23  1  0.66627700  0.96307100  0.91856700  1
  H  H24  1  0.83372300  0.46307100  0.91856700  1
  H  H25  1  0.16627700  0.96307100  0.58143300  1
  H  H26  1  0.66627700  0.53692900  0.41856700  1
  H  H27  1  0.33372300  0.03692900  0.08143300  1
  H  H28  1  0.51520800  0.27916800  0.03697000  1
  H  H29  1  0.48479200  0.77916800  0.46303000  1
  H  H30  1  0.98479200  0.72083200  0.53697000  1
  H  H31  1  0.01520800  0.22083200  0.96303000  1
  H  H32  1  0.48479200  0.72083200  0.96303000  1
  H  H33  1  0.51520800  0.22083200  0.53697000  1
  H  H34  1  0.01520800  0.27916800  0.46303000  1
  H  H35  1  0.98479200  0.77916800  0.03697000  1
  H  H36  1  0.19364200  0.41302300  0.09901900  1
  H  H37  1  0.80635800  0.91302300  0.40098100  1
  H  H38  1  0.30635800  0.58697700  0.59901900  1
  H  H39  1  0.69364200  0.08697700  0.90098100  1
  H  H40  1  0.80635800  0.58697700  0.90098100  1
  H  H41  1  0.19364200  0.08697700  0.59901900  1
  H  H42  1  0.69364200  0.41302300  0.40098100  1
  H  H43  1  0.30635800  0.91302300  0.09901900  1
  H  H44  1  0.50064100  0.22564300  0.19065300  1
  H  H45  1  0.49935900  0.72564300  0.30934700  1
  H  H46  1  0.99935900  0.77435700  0.69065300  1
  H  H47  1  0.00064100  0.27435700  0.80934700  1
  H  H48  1  0.49935900  0.77435700  0.80934700  1
  H  H49  1  0.50064100  0.27435700  0.69065300  1
  H  H50  1  0.00064100  0.22564300  0.30934700  1
  H  H51  1  0.99935900  0.72564300  0.19065300  1
  H  H52  1  0.33254700  0.19431200  0.13036700  1
  H  H53  1  0.66745300  0.69431200  0.36963300  1
  H  H54  1  0.16745300  0.80568800  0.63036700  1
  H  H55  1  0.83254700  0.30568800  0.86963300  1
  H  H56  1  0.66745300  0.80568800  0.86963300  1
  H  H57  1  0.33254700  0.30568800  0.63036700  1
  H  H58  1  0.83254700  0.19431200  0.36963300  1
  H  H59  1  0.16745300  0.69431200  0.13036700  1
  H  H60  1  0.40601500  0.55752100  0.80634900  1
  H  H61  1  0.59398500  0.05752100  0.69365100  1
  H  H62  1  0.09398500  0.44247900  0.30634900  1
  H  H63  1  0.90601500  0.94247900  0.19365100  1
  H  H64  1  0.59398500  0.44247900  0.19365100  1
  H  H65  1  0.40601500  0.94247900  0.30634900  1
  H  H66  1  0.90601500  0.55752100  0.69365100  1
  H  H67  1  0.09398500  0.05752100  0.80634900  1
  Cl  Cl68  1  0.51472700  0.33100800  0.30968500  1
  Cl  Cl69  1  0.48527300  0.83100800  0.19031500  1
  Cl  Cl70  1  0.98527300  0.66899200  0.80968500  1
  Cl  Cl71  1  0.01472700  0.16899200  0.69031500  1
  Cl  Cl72  1  0.48527300  0.66899200  0.69031500  1
  Cl  Cl73  1  0.51472700  0.16899200  0.80968500  1
  Cl  Cl74  1  0.01472700  0.33100800  0.19031500  1
  Cl  Cl75  1  0.98527300  0.83100800  0.30968500  1
  O  O76  1  0.52811800  0.33349500  0.98216600  1
  O  O77  1  0.47188200  0.83349500  0.51783400  1
  O  O78  1  0.97188200  0.66650500  0.48216600  1
  O  O79  1  0.02811800  0.16650500  0.01783400  1
  O  O80  1  0.47188200  0.66650500  0.01783400  1
  O  O81  1  0.52811800  0.16650500  0.48216600  1
  O  O82  1  0.02811800  0.33349500  0.51783400  1
  O  O83  1  0.97188200  0.83349500  0.98216600  1
  O  O84  1  0.38147900  0.50325800  0.85900400  1
  O  O85  1  0.61852100  0.00325800  0.64099600  1
  O  O86  1  0.11852100  0.49674200  0.35900400  1
  O  O87  1  0.88147900  0.99674200  0.14099600  1
  O  O88  1  0.61852100  0.49674200  0.14099600  1
  O  O89  1  0.38147900  0.99674200  0.35900400  1
  O  O90  1  0.88147900  0.50325800  0.64099600  1
  O  O91  1  0.11852100  0.00325800  0.85900400  1
  O  O92  1  0.24523300  0.47639400  0.06264900  1
  O  O93  1  0.75476700  0.97639400  0.43735100  1
  O  O94  1  0.25476700  0.52360600  0.56264900  1
  O  O95  1  0.74523300  0.02360600  0.93735100  1
  O  O96  1  0.75476700  0.52360600  0.93735100  1
  O  O97  1  0.24523300  0.02360600  0.56264900  1
  O  O98  1  0.74523300  0.47639400  0.43735100  1
  O  O99  1  0.25476700  0.97639400  0.06264900  1
  O  O100  1  0.46442200  0.18677900  0.12874200  1
  O  O101  1  0.53557800  0.68677900  0.37125800  1
  O  O102  1  0.03557800  0.81322100  0.62874200  1
  O  O103  1  0.96442200  0.31322100  0.87125800  1
  O  O104  1  0.53557800  0.81322100  0.87125800  1
  O  O105  1  0.46442200  0.31322100  0.62874200  1
  O  O106  1  0.96442200  0.18677900  0.37125800  1
  O  O107  1  0.03557800  0.68677900  0.12874200  1
