# generated using pymatgen
data_BaP6H16(N2O9)2
_symmetry_space_group_name_H-M   'P 1'
_cell_length_a   11.23278957
_cell_length_b   11.23278957
_cell_length_c   9.13288100
_cell_angle_alpha   90.00000000
_cell_angle_beta   90.00000000
_cell_angle_gamma   119.99999747
_symmetry_Int_Tables_number   1
_chemical_formula_structural   BaP6H16(N2O9)2
_chemical_formula_sum   'Ba2 P12 H32 N8 O36'
_cell_volume   997.96127199
_cell_formula_units_Z   2
loop_
 _symmetry_equiv_pos_site_id
 _symmetry_equiv_pos_as_xyz
  1  'x, y, z'
loop_
 _atom_site_type_symbol
 _atom_site_label
 _atom_site_symmetry_multiplicity
 _atom_site_fract_x
 _atom_site_fract_y
 _atom_site_fract_z
 _atom_site_occupancy
  Ba  Ba0  1  0.33333300  0.66666700  0.24486600  1
  Ba  Ba1  1  0.66666700  0.33333300  0.74486600  1
  P  P2  1  0.99250600  0.44784900  0.01605500  1
  P  P3  1  0.45534200  0.00749400  0.01605500  1
  P  P4  1  0.55215100  0.54465800  0.01605500  1
  P  P5  1  0.44784900  0.99250600  0.51605500  1
  P  P6  1  0.00749400  0.45534200  0.51605500  1
  P  P7  1  0.54465800  0.55215100  0.51605500  1
  P  P8  1  0.01733000  0.29444600  0.26256600  1
  P  P9  1  0.27711600  0.98267000  0.26256600  1
  P  P10  1  0.70555400  0.72288400  0.26256600  1
  P  P11  1  0.29444600  0.01733000  0.76256600  1
  P  P12  1  0.98267000  0.27711600  0.76256600  1
  P  P13  1  0.72288400  0.70555400  0.76256600  1
  H  H14  1  0.33333300  0.66666700  0.87701100  1
  H  H15  1  0.66666700  0.33333300  0.37701100  1
  H  H16  1  0.23988800  0.58865600  0.72648000  1
  H  H17  1  0.34876800  0.76011200  0.72648000  1
  H  H18  1  0.41134400  0.65123200  0.72648000  1
  H  H19  1  0.58865600  0.23988800  0.22648000  1
  H  H20  1  0.76011200  0.34876800  0.22648000  1
  H  H21  1  0.65123200  0.41134400  0.22648000  1
  H  H22  1  0.84451400  0.05267100  0.06829900  1
  H  H23  1  0.20815600  0.15548600  0.06829900  1
  H  H24  1  0.94732900  0.79184400  0.06829900  1
  H  H25  1  0.05267100  0.84451400  0.56829900  1
  H  H26  1  0.15548600  0.20815600  0.56829900  1
  H  H27  1  0.79184400  0.94732900  0.56829900  1
  H  H28  1  0.74494200  0.07274700  0.94152600  1
  H  H29  1  0.32780500  0.25505800  0.94152600  1
  H  H30  1  0.92725300  0.67219500  0.94152600  1
  H  H31  1  0.07274700  0.74494200  0.44152600  1
  H  H32  1  0.25505800  0.32780500  0.44152600  1
  H  H33  1  0.67219500  0.92725300  0.44152600  1
  H  H34  1  0.68361100  0.92555500  0.03617000  1
  H  H35  1  0.24194400  0.31638900  0.03617000  1
  H  H36  1  0.07444500  0.75805600  0.03617000  1
  H  H37  1  0.92555500  0.68361100  0.53617000  1
  H  H38  1  0.31638900  0.24194400  0.53617000  1
  H  H39  1  0.75805600  0.07444500  0.53617000  1
  H  H40  1  0.80102100  0.96264200  0.90228100  1
  H  H41  1  0.16162100  0.19897900  0.90228100  1
  H  H42  1  0.03735800  0.83837900  0.90228100  1
  H  H43  1  0.96264200  0.80102100  0.40228100  1
  H  H44  1  0.19897900  0.16162100  0.40228100  1
  H  H45  1  0.83837900  0.03735800  0.40228100  1
  N  N46  1  0.33333300  0.66666700  0.76393800  1
  N  N47  1  0.66666700  0.33333300  0.26393800  1
  N  N48  1  0.77025000  0.00371300  0.98686800  1
  N  N49  1  0.23346300  0.22975000  0.98686800  1
  N  N50  1  0.99628700  0.76653700  0.98686800  1
  N  N51  1  0.00371300  0.77025000  0.48686800  1
  N  N52  1  0.22975000  0.23346300  0.48686800  1
  N  N53  1  0.76653700  0.99628700  0.48686800  1
  O  O54  1  0.87060200  0.45419400  0.95946800  1
  O  O55  1  0.58359300  0.12939800  0.95946800  1
  O  O56  1  0.54580600  0.41640700  0.95946800  1
  O  O57  1  0.45419400  0.87060200  0.45946800  1
  O  O58  1  0.12939800  0.58359300  0.45946800  1
  O  O59  1  0.41640700  0.54580600  0.45946800  1
  O  O60  1  0.12862700  0.57691800  0.02818200  1
  O  O61  1  0.44829000  0.87137300  0.02818200  1
  O  O62  1  0.42308200  0.55171000  0.02818200  1
  O  O63  1  0.57691800  0.12862700  0.52818200  1
  O  O64  1  0.87137300  0.44829000  0.52818200  1
  O  O65  1  0.55171000  0.42308200  0.52818200  1
  O  O66  1  0.94369500  0.36885500  0.17485100  1
  O  O67  1  0.42516000  0.05630500  0.17485100  1
  O  O68  1  0.63114500  0.57484000  0.17485100  1
  O  O69  1  0.36885500  0.94369500  0.67485100  1
  O  O70  1  0.05630500  0.42516000  0.67485100  1
  O  O71  1  0.57484000  0.63114500  0.67485100  1
  O  O72  1  0.93558100  0.14185200  0.23777900  1
  O  O73  1  0.20627100  0.06441900  0.23777900  1
  O  O74  1  0.85814800  0.79372900  0.23777900  1
  O  O75  1  0.14185200  0.93558100  0.73777900  1
  O  O76  1  0.06441900  0.20627100  0.73777900  1
  O  O77  1  0.79372900  0.85814800  0.73777900  1
  O  O78  1  0.16911300  0.37245700  0.23458600  1
  O  O79  1  0.20334300  0.83088700  0.23458600  1
  O  O80  1  0.62754300  0.79665700  0.23458600  1
  O  O81  1  0.37245700  0.16911300  0.73458600  1
  O  O82  1  0.83088700  0.20334300  0.73458600  1
  O  O83  1  0.79665700  0.62754300  0.73458600  1
  O  O84  1  0.98463500  0.31753000  0.42978400  1
  O  O85  1  0.33289500  0.01536500  0.42978400  1
  O  O86  1  0.68247000  0.66710500  0.42978400  1
  O  O87  1  0.31753000  0.98463500  0.92978400  1
  O  O88  1  0.01536500  0.33289500  0.92978400  1
  O  O89  1  0.66710500  0.68247000  0.92978400  1
