# generated using pymatgen
data_Ru(NO2)6
_symmetry_space_group_name_H-M   'P 1'
_cell_length_a   13.92430200
_cell_length_b   6.81891000
_cell_length_c   7.08255889
_cell_angle_alpha   66.68436763
_cell_angle_beta   90.00000000
_cell_angle_gamma   90.00000000
_symmetry_Int_Tables_number   1
_chemical_formula_structural   Ru(NO2)6
_chemical_formula_sum   'Ru2 N12 O24'
_cell_volume   617.56310866
_cell_formula_units_Z   2
loop_
 _symmetry_equiv_pos_site_id
 _symmetry_equiv_pos_as_xyz
  1  'x, y, z'
loop_
 _atom_site_type_symbol
 _atom_site_label
 _atom_site_symmetry_multiplicity
 _atom_site_fract_x
 _atom_site_fract_y
 _atom_site_fract_z
 _atom_site_occupancy
  Ru  Ru0  1  0.66408100  0.24311700  0.25319800  1
  Ru  Ru1  1  0.16408100  0.75688300  0.74680200  1
  N  N2  1  0.76449600  0.05369700  0.44874200  1
  N  N3  1  0.26449600  0.94630300  0.55125800  1
  N  N4  1  0.57870300  0.03094600  0.53983000  1
  N  N5  1  0.07870300  0.96905400  0.46017000  1
  N  N6  1  0.76211100  0.34538700  0.10484500  1
  N  N7  1  0.26211100  0.65461300  0.89515500  1
  N  N8  1  0.45177800  0.43102800  0.66148900  1
  N  N9  1  0.95177800  0.56897200  0.33851100  1
  N  N10  1  0.69440500  0.44193200  0.56891300  1
  N  N11  1  0.19440500  0.55806800  0.43108700  1
  N  N12  1  0.69729700  0.91175400  0.08065700  1
  N  N13  1  0.19729700  0.08824600  0.91934300  1
  O  O14  1  0.50109700  0.28783500  0.79425300  1
  O  O15  1  0.00109700  0.71216500  0.20574700  1
  O  O16  1  0.42150200  0.39836000  0.50942900  1
  O  O17  1  0.92150200  0.60164000  0.49057100  1
  O  O18  1  0.43349500  0.60176900  0.68051000  1
  O  O19  1  0.93349500  0.39823100  0.31949000  1
  O  O20  1  0.68507200  0.59771300  0.61395300  1
  O  O21  1  0.18507200  0.40228700  0.38604700  1
  O  O22  1  0.65687800  0.46889600  0.38397600  1
  O  O23  1  0.15687800  0.53110400  0.61602400  1
  O  O24  1  0.73240800  0.27008700  0.67699100  1
  O  O25  1  0.23240800  0.72991300  0.32300900  1
  O  O26  1  0.62796200  0.02079800  0.13402600  1
  O  O27  1  0.12796200  0.97920200  0.86597400  1
  O  O28  1  0.66882200  0.82189700  0.97110300  1
  O  O29  1  0.16882200  0.17810300  0.02889700  1
  O  O30  1  0.78049700  0.91093400  0.14261900  1
  O  O31  1  0.28049700  0.08906600  0.85738100  1
  O  O32  1  0.82313800  0.95639600  0.55803900  1
  O  O33  1  0.32313800  0.04360400  0.44196100  1
  O  O34  1  0.55694600  0.36431400  0.13755000  1
  O  O35  1  0.05694600  0.63568600  0.86245000  1
  O  O36  1  0.45695900  0.70923300  0.10597600  1
  O  O37  1  0.95695900  0.29076700  0.89402400  1
