# generated using pymatgen
data_Cs3SbH2S4O
_symmetry_space_group_name_H-M   'P 1'
_cell_length_a   10.20640700
_cell_length_b   10.02653500
_cell_length_c   16.32698253
_cell_angle_alpha   53.76555212
_cell_angle_beta   90.00000000
_cell_angle_gamma   90.00000000
_symmetry_Int_Tables_number   1
_chemical_formula_structural   Cs3SbH2S4O
_chemical_formula_sum   'Cs12 Sb4 H8 S16 O4'
_cell_volume   1347.69195572
_cell_formula_units_Z   4
loop_
 _symmetry_equiv_pos_site_id
 _symmetry_equiv_pos_as_xyz
  1  'x, y, z'
loop_
 _atom_site_type_symbol
 _atom_site_label
 _atom_site_symmetry_multiplicity
 _atom_site_fract_x
 _atom_site_fract_y
 _atom_site_fract_z
 _atom_site_occupancy
  Cs  Cs0  1  0.36891300  0.89865500  0.20348700  1
  Cs  Cs1  1  0.86891300  0.10134500  0.29651300  1
  Cs  Cs2  1  0.63108700  0.10134500  0.79651300  1
  Cs  Cs3  1  0.13108700  0.89865500  0.70348700  1
  Cs  Cs4  1  0.07835400  0.71601900  0.04680400  1
  Cs  Cs5  1  0.57835400  0.28398100  0.45319600  1
  Cs  Cs6  1  0.92164600  0.28398100  0.95319600  1
  Cs  Cs7  1  0.42164600  0.71601900  0.54680400  1
  Cs  Cs8  1  0.08355700  0.42349500  0.42054600  1
  Cs  Cs9  1  0.58355700  0.57650500  0.07945400  1
  Cs  Cs10  1  0.91644300  0.57650500  0.57945400  1
  Cs  Cs11  1  0.41644300  0.42349500  0.92054600  1
  Sb  Sb12  1  0.29194800  0.24778600  0.27450500  1
  Sb  Sb13  1  0.79194800  0.75221400  0.22549500  1
  Sb  Sb14  1  0.70805200  0.75221400  0.72549500  1
  Sb  Sb15  1  0.20805200  0.24778600  0.77450500  1
  H  H16  1  0.15570800  0.87073900  0.40662700  1
  H  H17  1  0.65570800  0.12926100  0.09337300  1
  H  H18  1  0.84429200  0.12926100  0.59337300  1
  H  H19  1  0.34429200  0.87073900  0.90662700  1
  H  H20  1  0.09755400  0.81445100  0.34182500  1
  H  H21  1  0.59755400  0.18554900  0.15817500  1
  H  H22  1  0.90244600  0.18554900  0.65817500  1
  H  H23  1  0.40244600  0.81445100  0.84182500  1
  S  S24  1  0.66946300  0.92849100  0.07418900  1
  S  S25  1  0.16946300  0.07150900  0.42581100  1
  S  S26  1  0.33053700  0.07150900  0.92581100  1
  S  S27  1  0.83053700  0.92849100  0.57418900  1
  S  S28  1  0.99836500  0.88004700  0.19975800  1
  S  S29  1  0.49836500  0.11995300  0.30024200  1
  S  S30  1  0.00163500  0.11995300  0.80024200  1
  S  S31  1  0.50163500  0.88004700  0.69975800  1
  S  S32  1  0.32685600  0.50370500  0.24841000  1
  S  S33  1  0.82685600  0.49629500  0.25159000  1
  S  S34  1  0.67314400  0.49629500  0.75159000  1
  S  S35  1  0.17314400  0.50370500  0.74841000  1
  S  S36  1  0.18312300  0.28387400  0.13586300  1
  S  S37  1  0.68312300  0.71612600  0.36413700  1
  S  S38  1  0.81687700  0.71612600  0.86413700  1
  S  S39  1  0.31687700  0.28387400  0.63586300  1
  O  O40  1  0.14904500  0.77384900  0.40409000  1
  O  O41  1  0.64904500  0.22615100  0.09591000  1
  O  O42  1  0.85095500  0.22615100  0.59591000  1
  O  O43  1  0.35095500  0.77384900  0.90409000  1
