# generated using pymatgen
data_H4CSIN2
_symmetry_space_group_name_H-M   'P 1'
_cell_length_a   5.77068600
_cell_length_b   11.85541370
_cell_length_c   11.86945556
_cell_angle_alpha   105.81375004
_cell_angle_beta   104.06897203
_cell_angle_gamma   90.00000000
_symmetry_Int_Tables_number   1
_chemical_formula_structural   H4CSIN2
_chemical_formula_sum   'H16 C4 S4 I4 N8'
_cell_volume   755.95437470
_cell_formula_units_Z   4
loop_
 _symmetry_equiv_pos_site_id
 _symmetry_equiv_pos_as_xyz
  1  'x, y, z'
loop_
 _atom_site_type_symbol
 _atom_site_label
 _atom_site_symmetry_multiplicity
 _atom_site_fract_x
 _atom_site_fract_y
 _atom_site_fract_z
 _atom_site_occupancy
  H  H0  1  0.03752700  0.18245100  0.36523500  1
  H  H1  1  0.67229100  0.31754900  0.63476500  1
  H  H2  1  0.96247300  0.81754900  0.63476500  1
  H  H3  1  0.32770900  0.68245100  0.36523500  1
  H  H4  1  0.96107900  0.20407900  0.21960100  1
  H  H5  1  0.74147800  0.29592100  0.78039900  1
  H  H6  1  0.03892100  0.79592100  0.78039900  1
  H  H7  1  0.25852200  0.70407900  0.21960100  1
  H  H8  1  0.56948700  0.16124300  0.10303300  1
  H  H9  1  0.46645400  0.33875700  0.89696700  1
  H  H10  1  0.43051300  0.83875700  0.89696700  1
  H  H11  1  0.53354600  0.66124300  0.10303300  1
  H  H12  1  0.38364800  0.06478200  0.13710000  1
  H  H13  1  0.24654800  0.43521800  0.86290000  1
  H  H14  1  0.61635200  0.93521800  0.86290000  1
  H  H15  1  0.75345200  0.56478200  0.13710000  1
  C  C16  1  0.70279300  0.11662100  0.26163500  1
  C  C17  1  0.44115800  0.38337900  0.73836500  1
  C  C18  1  0.29720700  0.88337900  0.73836500  1
  C  C19  1  0.55884200  0.61662100  0.26163500  1
  S  S20  1  0.61100600  0.05261200  0.35905700  1
  S  S21  1  0.25194900  0.44738800  0.64094300  1
  S  S22  1  0.38899400  0.94738800  0.64094300  1
  S  S23  1  0.74805100  0.55261200  0.35905700  1
  I  I24  1  0.00000000  0.00000000  0.50000000  1
  I  I25  1  0.50000000  0.50000000  0.50000000  1
  I  I26  1  0.92887100  0.25000000  0.00000000  1
  I  I27  1  0.07112900  0.75000000  0.00000000  1
  N  N28  1  0.91811700  0.17096900  0.28380800  1
  N  N29  1  0.63430900  0.32903100  0.71619200  1
  N  N30  1  0.08188300  0.82903100  0.71619200  1
  N  N31  1  0.36569100  0.67096900  0.28380800  1
  N  N32  1  0.54090500  0.11290400  0.15844100  1
  N  N33  1  0.38246400  0.38709600  0.84155900  1
  N  N34  1  0.45909500  0.88709600  0.84155900  1
  N  N35  1  0.61753600  0.61290400  0.15844100  1
