# generated using pymatgen
data_MgCrO15
_symmetry_space_group_name_H-M   'P 1'
_cell_length_a   5.61752832
_cell_length_b   7.37508716
_cell_length_c   12.66029687
_cell_angle_alpha   78.35405330
_cell_angle_beta   91.10268832
_cell_angle_gamma   68.08934413
_symmetry_Int_Tables_number   1
_chemical_formula_structural   MgCrO15
_chemical_formula_sum   'Mg2 Cr2 O30'
_cell_volume   474.01965624
_cell_formula_units_Z   2
loop_
 _symmetry_equiv_pos_site_id
 _symmetry_equiv_pos_as_xyz
  1  'x, y, z'
loop_
 _atom_site_type_symbol
 _atom_site_label
 _atom_site_symmetry_multiplicity
 _atom_site_fract_x
 _atom_site_fract_y
 _atom_site_fract_z
 _atom_site_occupancy
  Mg  Mg0  1  0.00000000  0.00000000  0.00000000  1
  Mg  Mg1  1  0.00000000  0.00000000  0.50000000  1
  Cr  Cr2  1  0.57748400  0.67584700  0.80495100  1
  Cr  Cr3  1  0.42251600  0.32415300  0.19504900  1
  O  O4  1  0.40997900  0.84934400  0.01310900  1
  O  O5  1  0.59002100  0.15065600  0.98689100  1
  O  O6  1  0.18887900  0.22195400  0.92111600  1
  O  O7  1  0.81112100  0.77804600  0.07888400  1
  O  O8  1  0.97989600  0.94458200  0.83479100  1
  O  O9  1  0.02010400  0.05541800  0.16520900  1
  O  O10  1  0.91952300  0.00993800  0.65918600  1
  O  O11  1  0.08047700  0.99006200  0.34081400  1
  O  O12  1  0.27237300  0.15175900  0.50516800  1
  O  O13  1  0.72762700  0.84824100  0.49483200  1
  O  O14  1  0.27625600  0.71393200  0.55292600  1
  O  O15  1  0.72374400  0.28606800  0.44707400  1
  O  O16  1  0.75978800  0.58791500  0.92234500  1
  O  O17  1  0.24021200  0.41208500  0.07765500  1
  O  O18  1  0.73744700  0.53621900  0.72118800  1
  O  O19  1  0.26255300  0.46378100  0.27881200  1
  O  O20  1  0.49642500  0.91942200  0.75674700  1
  O  O21  1  0.50357500  0.08057800  0.24325300  1
  O  O22  1  0.29784600  0.64392500  0.81771200  1
  O  O23  1  0.70215400  0.35607500  0.18228800  1
  O  O24  1  0.76970400  0.66844300  0.52801300  1
  O  O25  1  0.23029600  0.33155700  0.47198700  1
  O  O26  1  0.41225400  0.22379000  0.90027700  1
  O  O27  1  0.58774600  0.77621000  0.09972300  1
  O  O28  1  0.42133600  0.40528900  0.65205300  1
  O  O29  1  0.57866400  0.59471100  0.34794700  1
  O  O30  1  0.24031700  0.57475200  0.63472700  1
  O  O31  1  0.75968300  0.42524800  0.36527300  1
  O  O32  1  0.00537500  0.05641800  0.74379100  1
  O  O33  1  0.99462500  0.94358200  0.25620900  1
