# generated using pymatgen
data_Al3P3H8C2NO13
_symmetry_space_group_name_H-M   'P 1'
_cell_length_a   10.50648180
_cell_length_b   13.93690295
_cell_length_c   17.48032740
_cell_angle_alpha   90.00000000
_cell_angle_beta   90.00000000
_cell_angle_gamma   90.00000000
_symmetry_Int_Tables_number   1
_chemical_formula_structural   Al3P3H8C2NO13
_chemical_formula_sum   'Al24 P24 H64 C16 N8 O104'
_cell_volume   2559.60618499
_cell_formula_units_Z   8
loop_
 _symmetry_equiv_pos_site_id
 _symmetry_equiv_pos_as_xyz
  1  'x, y, z'
loop_
 _atom_site_type_symbol
 _atom_site_label
 _atom_site_symmetry_multiplicity
 _atom_site_fract_x
 _atom_site_fract_y
 _atom_site_fract_z
 _atom_site_occupancy
  Al  Al0  1  0.62820216  0.44199849  0.89208890  1
  Al  Al1  1  0.87179784  0.94199849  0.10791110  1
  Al  Al2  1  0.12820216  0.55800151  0.60791110  1
  Al  Al3  1  0.37179784  0.05800151  0.39208890  1
  Al  Al4  1  0.37179784  0.55800151  0.10791110  1
  Al  Al5  1  0.12820216  0.05800151  0.89208890  1
  Al  Al6  1  0.87179784  0.44199849  0.39208890  1
  Al  Al7  1  0.62820216  0.94199849  0.60791110  1
  Al  Al8  1  0.66838143  0.52010166  0.69578781  1
  Al  Al9  1  0.83161857  0.02010166  0.30421219  1
  Al  Al10  1  0.16838143  0.47989834  0.80421219  1
  Al  Al11  1  0.33161857  0.97989834  0.19578781  1
  Al  Al12  1  0.33161857  0.47989834  0.30421219  1
  Al  Al13  1  0.16838143  0.97989834  0.69578781  1
  Al  Al14  1  0.83161857  0.52010166  0.19578781  1
  Al  Al15  1  0.66838143  0.02010166  0.80421219  1
  Al  Al16  1  0.87104013  0.76033541  0.80314502  1
  Al  Al17  1  0.62895987  0.26033541  0.19685498  1
  Al  Al18  1  0.37104013  0.23966459  0.69685498  1
  Al  Al19  1  0.12895987  0.73966459  0.30314502  1
  Al  Al20  1  0.12895987  0.23966459  0.19685498  1
  Al  Al21  1  0.37104013  0.73966459  0.80314502  1
  Al  Al22  1  0.62895987  0.76033541  0.30314502  1
  Al  Al23  1  0.87104013  0.26033541  0.69685498  1
  P  P24  1  0.86982220  0.93346216  0.91950405  1
  P  P25  1  0.63017780  0.43346216  0.08049595  1
  P  P26  1  0.36982220  0.06653784  0.58049595  1
  P  P27  1  0.13017780  0.56653784  0.41950405  1
  P  P28  1  0.13017780  0.06653784  0.08049595  1
  P  P29  1  0.36982220  0.56653784  0.91950405  1
  P  P30  1  0.63017780  0.93346216  0.41950405  1
  P  P31  1  0.86982220  0.43346216  0.58049595  1
  P  P32  1  0.87160140  0.53608738  0.83184239  1
  P  P33  1  0.62839860  0.03608738  0.16815761  1
  P  P34  1  0.37160140  0.46391262  0.66815761  1
  P  P35  1  0.12839860  0.96391262  0.33184239  1
  P  P36  1  0.12839860  0.46391262  0.16815761  1
  P  P37  1  0.37160140  0.96391262  0.83184239  1
  P  P38  1  0.62839860  0.53608738  0.33184239  1
  P  P39  1  0.87160140  0.03608738  0.66815761  1
  P  P40  1  0.62889054  0.74712866  0.70283691  1
  P  P41  1  0.87110946  0.24712866  0.29716309  1
  P  P42  1  0.12889054  0.25287134  0.79716309  1
  P  P43  1  0.37110946  0.75287134  0.20283691  1
  P  P44  1  0.37110946  0.25287134  0.29716309  1
  P  P45  1  0.12889054  0.75287134  0.70283691  1
  P  P46  1  0.87110946  0.74712866  0.20283691  1
  P  P47  1  0.62889054  0.24712866  0.79716309  1
  H  H48  1  0.48532230  0.27135124  0.94128551  1
  H  H49  1  0.01467770  0.77135124  0.05871449  1
  H  H50  1  0.98532230  0.72864876  0.55871449  1
  H  H51  1  0.51467770  0.22864876  0.44128551  1
  H  H52  1  0.51467770  0.72864876  0.05871449  1
  H  H53  1  0.98532230  0.22864876  0.94128551  1
  H  H54  1  0.01467770  0.27135124  0.44128551  1
  H  H55  1  0.48532230  0.77135124  0.55871449  1
  H  H56  1  0.36249253  0.20922532  0.90996968  1
  H  H57  1  0.13750747  0.70922532  0.09003032  1
  H  H58  1  0.86249253  0.79077468  0.59003032  1
  H  H59  1  0.63750747  0.29077468  0.40996968  1
  H  H60  1  0.63750747  0.79077468  0.09003032  1
  H  H61  1  0.86249253  0.29077468  0.90996968  1
  H  H62  1  0.13750747  0.20922532  0.40996968  1
  H  H63  1  0.36249253  0.70922532  0.59003032  1
  H  H64  1  0.05500957  0.35615548  0.00692856  1
  H  H65  1  0.44499043  0.85615548  0.99307144  1
  H  H66  1  0.55500957  0.64384452  0.49307144  1
  H  H67  1  0.94499043  0.14384452  0.50692856  1
  H  H68  1  0.94499043  0.64384452  0.99307144  1
  H  H69  1  0.55500957  0.14384452  0.00692856  1
  H  H70  1  0.44499043  0.35615548  0.50692856  1
  H  H71  1  0.05500957  0.85615548  0.49307144  1
  H  H72  1  0.91994633  0.41954078  0.97005273  1
  H  H73  1  0.58005367  0.91954078  0.02994727  1
  H  H74  1  0.41994633  0.58045922  0.52994727  1
  H  H75  1  0.08005367  0.08045922  0.47005273  1
  H  H76  1  0.08005367  0.58045922  0.02994727  1
  H  H77  1  0.41994633  0.08045922  0.97005273  1
  H  H78  1  0.58005367  0.41954078  0.47005273  1
  H  H79  1  0.91994633  0.91954078  0.52994727  1
  H  H80  1  0.90743569  0.35687699  0.05839717  1
  H  H81  1  0.59256431  0.85687699  0.94160283  1
  H  H82  1  0.40743569  0.64312301  0.44160283  1
  H  H83  1  0.09256431  0.14312301  0.55839717  1
  H  H84  1  0.09256431  0.64312301  0.94160283  1
  H  H85  1  0.40743569  0.14312301  0.05839717  1
  H  H86  1  0.59256431  0.35687699  0.55839717  1
  H  H87  1  0.90743569  0.85687699  0.44160283  1
  H  H88  1  0.85997592  0.18346223  0.05607938  1
  H  H89  1  0.64002408  0.68346223  0.94392062  1
  H  H90  1  0.35997592  0.81653777  0.44392062  1
  H  H91  1  0.14002408  0.31653777  0.55607938  1
  H  H92  1  0.14002408  0.81653777  0.94392062  1
  H  H93  1  0.35997592  0.31653777  0.05607938  1
  H  H94  1  0.64002408  0.18346223  0.55607938  1
  H  H95  1  0.85997592  0.68346223  0.44392062  1
  H  H96  1  0.73341463  0.25377472  0.01583700  1
  H  H97  1  0.76658537  0.75377472  0.98416300  1
  H  H98  1  0.23341463  0.74622528  0.48416300  1
  H  H99  1  0.26658537  0.24622528  0.51583700  1
  H  H100  1  0.26658537  0.74622528  0.98416300  1
  H  H101  1  0.23341463  0.24622528  0.01583700  1
  H  H102  1  0.76658537  0.25377472  0.51583700  1
  H  H103  1  0.73341463  0.75377472  0.48416300  1
  H  H104  1  0.78628209  0.14733828  0.96753109  1
  H  H105  1  0.71371791  0.64733828  0.03246891  1
  H  H106  1  0.28628209  0.85266172  0.53246891  1
  H  H107  1  0.21371791  0.35266172  0.46753109  1
  H  H108  1  0.21371791  0.85266172  0.03246891  1
  H  H109  1  0.28628209  0.35266172  0.96753109  1
  H  H110  1  0.71371791  0.14733828  0.46753109  1
  H  H111  1  0.78628209  0.64733828  0.53246891  1
  C  C112  1  0.95155618  0.35655981  0.00191796  1
  C  C113  1  0.54844382  0.85655981  0.99808204  1
  C  C114  1  0.45155618  0.64344019  0.49808204  1
  C  C115  1  0.04844382  0.14344019  0.50191796  1
  C  C116  1  0.04844382  0.64344019  0.99808204  1
  C  C117  1  0.45155618  0.14344019  0.00191796  1
  C  C118  1  0.54844382  0.35655981  0.50191796  1
  C  C119  1  0.95155618  0.85655981  0.49808204  1
  C  C120  1  0.81529571  0.20810441  0.00302135  1
  C  C121  1  0.68470429  0.70810441  0.99697865  1
  C  C122  1  0.31529571  0.79189559  0.49697865  1
  C  C123  1  0.18470429  0.29189559  0.50302135  1
  C  C124  1  0.18470429  0.79189559  0.99697865  1
  C  C125  1  0.31529571  0.29189559  0.00302135  1
  C  C126  1  0.68470429  0.20810441  0.50302135  1
  C  C127  1  0.81529571  0.70810441  0.49697865  1
  N  N128  1  0.40754764  0.23145090  0.95918202  1
  N  N129  1  0.09245236  0.73145090  0.04081798  1
  N  N130  1  0.90754764  0.76854910  0.54081798  1
  N  N131  1  0.59245236  0.26854910  0.45918202  1
  N  N132  1  0.59245236  0.76854910  0.04081798  1
  N  N133  1  0.90754764  0.26854910  0.95918202  1
  N  N134  1  0.09245236  0.23145090  0.45918202  1
  N  N135  1  0.40754764  0.73145090  0.54081798  1
  O  O136  1  0.61894185  0.49030565  0.79211967  1
  O  O137  1  0.88105815  0.99030565  0.20788033  1
  O  O138  1  0.11894185  0.50969435  0.70788033  1
  O  O139  1  0.38105815  0.00969435  0.29211967  1
  O  O140  1  0.38105815  0.50969435  0.20788033  1
  O  O141  1  0.11894185  0.00969435  0.79211967  1
  O  O142  1  0.88105815  0.49030565  0.29211967  1
  O  O143  1  0.61894185  0.99030565  0.70788033  1
  O  O144  1  0.86035074  0.64605375  0.84413952  1
  O  O145  1  0.63964926  0.14605375  0.15586048  1
  O  O146  1  0.36035074  0.35394625  0.65586048  1
  O  O147  1  0.13964926  0.85394625  0.34413952  1
  O  O148  1  0.13964926  0.35394625  0.15586048  1
  O  O149  1  0.36035074  0.85394625  0.84413952  1
  O  O150  1  0.63964926  0.64605375  0.34413952  1
  O  O151  1  0.86035074  0.14605375  0.65586048  1
  O  O152  1  0.79060804  0.48747488  0.89511884  1
  O  O153  1  0.70939196  0.98747488  0.10488116  1
  O  O154  1  0.29060804  0.51252512  0.60488116  1
  O  O155  1  0.20939196  0.01252512  0.39511884  1
  O  O156  1  0.20939196  0.51252512  0.10488116  1
  O  O157  1  0.29060804  0.01252512  0.89511884  1
  O  O158  1  0.70939196  0.48747488  0.39511884  1
  O  O159  1  0.79060804  0.98747488  0.60488116  1
  O  O160  1  0.67656140  0.64825611  0.67735606  1
  O  O161  1  0.82343860  0.14825611  0.32264394  1
  O  O162  1  0.17656140  0.35174389  0.82264394  1
  O  O163  1  0.32343860  0.85174389  0.17735606  1
  O  O164  1  0.32343860  0.35174389  0.32264394  1
  O  O165  1  0.17656140  0.85174389  0.67735606  1
  O  O166  1  0.82343860  0.64825611  0.17735606  1
  O  O167  1  0.67656140  0.14825611  0.82264394  1
  O  O168  1  0.62613913  0.31349374  0.86829481  1
  O  O169  1  0.87386087  0.81349374  0.13170519  1
  O  O170  1  0.12613913  0.68650626  0.63170519  1
  O  O171  1  0.37386087  0.18650626  0.36829481  1
  O  O172  1  0.37386087  0.68650626  0.13170519  1
  O  O173  1  0.12613913  0.18650626  0.86829481  1
  O  O174  1  0.87386087  0.31349374  0.36829481  1
  O  O175  1  0.62613913  0.81349374  0.63170519  1
  O  O176  1  0.91032745  0.84049167  0.87614899  1
  O  O177  1  0.58967255  0.34049167  0.12385101  1
  O  O178  1  0.41032745  0.15950833  0.62385101  1
  O  O179  1  0.08967255  0.65950833  0.37614899  1
  O  O180  1  0.08967255  0.15950833  0.12385101  1
  O  O181  1  0.41032745  0.65950833  0.87614899  1
  O  O182  1  0.58967255  0.84049167  0.37614899  1
  O  O183  1  0.91032745  0.34049167  0.62385101  1
  O  O184  1  0.97127598  0.01192311  0.90857617  1
  O  O185  1  0.52872402  0.51192311  0.09142383  1
  O  O186  1  0.47127598  0.98807689  0.59142383  1
  O  O187  1  0.02872402  0.48807689  0.40857617  1
  O  O188  1  0.02872402  0.98807689  0.09142383  1
  O  O189  1  0.47127598  0.48807689  0.90857617  1
  O  O190  1  0.52872402  0.01192311  0.40857617  1
  O  O191  1  0.97127598  0.51192311  0.59142383  1
  O  O192  1  0.85763569  0.90673706  0.00422729  1
  O  O193  1  0.64236431  0.40673706  0.99577271  1
  O  O194  1  0.35763569  0.09326294  0.49577271  1
  O  O195  1  0.14236431  0.59326294  0.50422729  1
  O  O196  1  0.14236431  0.09326294  0.99577271  1
  O  O197  1  0.35763569  0.59326294  0.00422729  1
  O  O198  1  0.64236431  0.90673706  0.50422729  1
  O  O199  1  0.85763569  0.40673706  0.49577271  1
  O  O200  1  0.74122095  0.96829423  0.88814663  1
  O  O201  1  0.75877905  0.46829423  0.11185337  1
  O  O202  1  0.24122095  0.03170577  0.61185337  1
  O  O203  1  0.25877905  0.53170577  0.38814663  1
  O  O204  1  0.25877905  0.03170577  0.11185337  1
  O  O205  1  0.24122095  0.53170577  0.88814663  1
  O  O206  1  0.75877905  0.96829423  0.38814663  1
  O  O207  1  0.74122095  0.46829423  0.61185337  1
  O  O208  1  0.00929442  0.50378227  0.84271667  1
  O  O209  1  0.49070558  0.00378227  0.15728333  1
  O  O210  1  0.50929442  0.49621773  0.65728333  1
  O  O211  1  0.99070558  0.99621773  0.34271667  1
  O  O212  1  0.99070558  0.49621773  0.15728333  1
  O  O213  1  0.50929442  0.99621773  0.84271667  1
  O  O214  1  0.49070558  0.50378227  0.34271667  1
  O  O215  1  0.00929442  0.00378227  0.65728333  1
  O  O216  1  0.71989962  0.78948835  0.76398924  1
  O  O217  1  0.78010038  0.28948835  0.23601076  1
  O  O218  1  0.21989962  0.21051165  0.73601076  1
  O  O219  1  0.28010038  0.71051165  0.26398924  1
  O  O220  1  0.28010038  0.21051165  0.23601076  1
  O  O221  1  0.21989962  0.71051165  0.76398924  1
  O  O222  1  0.78010038  0.78948835  0.26398924  1
  O  O223  1  0.71989962  0.28948835  0.73601076  1
  O  O224  1  0.49132248  0.74004342  0.73345266  1
  O  O225  1  0.00867752  0.24004342  0.26654734  1
  O  O226  1  0.99132248  0.25995658  0.76654734  1
  O  O227  1  0.50867752  0.75995658  0.23345266  1
  O  O228  1  0.50867752  0.25995658  0.26654734  1
  O  O229  1  0.99132248  0.75995658  0.73345266  1
  O  O230  1  0.00867752  0.74004342  0.23345266  1
  O  O231  1  0.49132248  0.24004342  0.76654734  1
  O  O232  1  0.82466105  0.50814955  0.75056951  1
  O  O233  1  0.67533895  0.00814955  0.24943049  1
  O  O234  1  0.32466105  0.49185045  0.74943049  1
  O  O235  1  0.17533895  0.99185045  0.25056951  1
  O  O236  1  0.17533895  0.49185045  0.24943049  1
  O  O237  1  0.32466105  0.99185045  0.75056951  1
  O  O238  1  0.67533895  0.50814955  0.25056951  1
  O  O239  1  0.82466105  0.00814955  0.74943049  1
