# generated using pymatgen
data_PrB7IO15
_symmetry_space_group_name_H-M   'P 1'
_cell_length_a   17.37477800
_cell_length_b   8.20601700
_cell_length_c   12.86933346
_cell_angle_alpha   50.67628476
_cell_angle_beta   90.00000000
_cell_angle_gamma   90.00000000
_symmetry_Int_Tables_number   1
_chemical_formula_structural   PrB7IO15
_chemical_formula_sum   'Pr4 B28 I4 O60'
_cell_volume   1419.42297498
_cell_formula_units_Z   4
loop_
 _symmetry_equiv_pos_site_id
 _symmetry_equiv_pos_as_xyz
  1  'x, y, z'
loop_
 _atom_site_type_symbol
 _atom_site_label
 _atom_site_symmetry_multiplicity
 _atom_site_fract_x
 _atom_site_fract_y
 _atom_site_fract_z
 _atom_site_occupancy
  Pr  Pr0  1  0.79546700  0.44411800  0.74980300  1
  Pr  Pr1  1  0.70453300  0.44411800  0.24980300  1
  Pr  Pr2  1  0.20453300  0.55588200  0.25019700  1
  Pr  Pr3  1  0.29546700  0.55588200  0.75019700  1
  B  B4  1  0.91649600  0.09253300  0.21543400  1
  B  B5  1  0.58350400  0.09253300  0.71543400  1
  B  B6  1  0.08350400  0.90746700  0.78456600  1
  B  B7  1  0.41649600  0.90746700  0.28456600  1
  B  B8  1  0.80536900  0.93087400  0.36602700  1
  B  B9  1  0.69463100  0.93087400  0.86602700  1
  B  B10  1  0.19463100  0.06912600  0.63397300  1
  B  B11  1  0.30536900  0.06912600  0.13397300  1
  B  B12  1  0.79797000  0.84822800  0.74888900  1
  B  B13  1  0.70203000  0.84822800  0.24888900  1
  B  B14  1  0.20203000  0.15177200  0.25111100  1
  B  B15  1  0.29797000  0.15177200  0.75111100  1
  B  B16  1  0.78874000  0.19213200  0.10951100  1
  B  B17  1  0.71126000  0.19213200  0.60951100  1
  B  B18  1  0.21126000  0.80786800  0.89048900  1
  B  B19  1  0.28874000  0.80786800  0.39048900  1
  B  B20  1  0.75043500  0.56931700  0.47663900  1
  B  B21  1  0.74956500  0.56931700  0.97663900  1
  B  B22  1  0.24956500  0.43068300  0.52336100  1
  B  B23  1  0.25043500  0.43068300  0.02336100  1
  B  B24  1  0.94390100  0.91541700  0.72761400  1
  B  B25  1  0.55609900  0.91541700  0.22761400  1
  B  B26  1  0.05609900  0.08458300  0.27238600  1
  B  B27  1  0.44390100  0.08458300  0.77238600  1
  B  B28  1  0.72792200  0.03990000  0.00779200  1
  B  B29  1  0.77207800  0.03990000  0.50779200  1
  B  B30  1  0.27207800  0.96010000  0.99220800  1
  B  B31  1  0.22792200  0.96010000  0.49220800  1
  I  I32  1  0.57570200  0.67178300  0.65639800  1
  I  I33  1  0.92429800  0.67178300  0.15639800  1
  I  I34  1  0.42429800  0.32821700  0.34360200  1
  I  I35  1  0.07570200  0.32821700  0.84360200  1
  O  O36  1  0.87036300  0.90162600  0.77132400  1
  O  O37  1  0.62963700  0.90162600  0.27132400  1
  O  O38  1  0.12963700  0.09837400  0.22867600  1
  O  O39  1  0.37036300  0.09837400  0.72867600  1
  O  O40  1  0.78427300  0.71391800  0.48360800  1
  O  O41  1  0.71572700  0.71391800  0.98360800  1
  O  O42  1  0.21572700  0.28608200  0.51639200  1
  O  O43  1  0.28427300  0.28608200  0.01639200  1
  O  O44  1  0.75810900  0.20537600  0.99720600  1
  O  O45  1  0.74189100  0.20537600  0.49720600  1
  O  O46  1  0.24189100  0.79462400  0.00279400  1
  O  O47  1  0.25810900  0.79462400  0.50279400  1
  O  O48  1  0.73631500  0.98640200  0.74149200  1
  O  O49  1  0.76368500  0.98640200  0.24149200  1
  O  O50  1  0.26368500  0.01359800  0.25850800  1
  O  O51  1  0.23631500  0.01359800  0.75850800  1
  O  O52  1  0.79358900  0.85696600  0.62993300  1
  O  O53  1  0.70641100  0.85696600  0.12993300  1
  O  O54  1  0.20641100  0.14303400  0.37006700  1
  O  O55  1  0.29358900  0.14303400  0.87006700  1
  O  O56  1  0.99464800  0.11998400  0.19335200  1
  O  O57  1  0.50535200  0.11998400  0.69335200  1
  O  O58  1  0.00535200  0.88001600  0.80664800  1
  O  O59  1  0.49464800  0.88001600  0.30664800  1
  O  O60  1  0.87042200  0.20924700  0.10340100  1
  O  O61  1  0.62957800  0.20924700  0.60340100  1
  O  O62  1  0.12957800  0.79075300  0.89659900  1
  O  O63  1  0.37042200  0.79075300  0.39659900  1
  O  O64  1  0.88619000  0.95386900  0.34246400  1
  O  O65  1  0.61381000  0.95386900  0.84246400  1
  O  O66  1  0.11381000  0.04613100  0.65753600  1
  O  O67  1  0.38619000  0.04613100  0.15753600  1
  O  O68  1  0.74780800  0.36903800  0.59837200  1
  O  O69  1  0.75219200  0.36903800  0.09837200  1
  O  O70  1  0.25219200  0.63096200  0.40162800  1
  O  O71  1  0.24780800  0.63096200  0.90162800  1
  O  O72  1  0.96779300  0.50421300  0.75902500  1
  O  O73  1  0.53220700  0.50421300  0.25902500  1
  O  O74  1  0.03220700  0.49578700  0.24097500  1
  O  O75  1  0.46779300  0.49578700  0.74097500  1
  O  O76  1  0.77861300  0.62321200  0.85976400  1
  O  O77  1  0.72138700  0.62321200  0.35976400  1
  O  O78  1  0.22138700  0.37678800  0.14023600  1
  O  O79  1  0.27861300  0.37678800  0.64023600  1
  O  O80  1  0.88814700  0.19537400  0.84001200  1
  O  O81  1  0.61185300  0.19537400  0.34001200  1
  O  O82  1  0.11185300  0.80462600  0.15998800  1
  O  O83  1  0.38814700  0.80462600  0.65998800  1
  O  O84  1  0.72472500  0.07920000  0.88704000  1
  O  O85  1  0.77527500  0.07920000  0.38704000  1
  O  O86  1  0.27527500  0.92080000  0.11296000  1
  O  O87  1  0.22472500  0.92080000  0.61296000  1
  O  O88  1  0.93739600  0.52160800  0.65941300  1
  O  O89  1  0.56260400  0.52160800  0.15941300  1
  O  O90  1  0.06260400  0.47839200  0.34058700  1
  O  O91  1  0.43739600  0.47839200  0.84058700  1
  O  O92  1  0.95261800  0.95655600  0.60816500  1
  O  O93  1  0.54738200  0.95655600  0.10816500  1
  O  O94  1  0.04738200  0.04344400  0.39183500  1
  O  O95  1  0.45261800  0.04344400  0.89183500  1
