# generated using pymatgen
data_ThH8(CO3)4
_symmetry_space_group_name_H-M   'P 1'
_cell_length_a   8.09854100
_cell_length_b   8.07971120
_cell_length_c   10.60903183
_cell_angle_alpha   69.74773674
_cell_angle_beta   67.56212931
_cell_angle_gamma   59.92288165
_symmetry_Int_Tables_number   1
_chemical_formula_structural   ThH8(CO3)4
_chemical_formula_sum   'Th2 H16 C8 O24'
_cell_volume   544.73290310
_cell_formula_units_Z   2
loop_
 _symmetry_equiv_pos_site_id
 _symmetry_equiv_pos_as_xyz
  1  'x, y, z'
loop_
 _atom_site_type_symbol
 _atom_site_label
 _atom_site_symmetry_multiplicity
 _atom_site_fract_x
 _atom_site_fract_y
 _atom_site_fract_z
 _atom_site_occupancy
  Th  Th0  1  0.23053400  0.25000000  0.75000000  1
  Th  Th1  1  0.76946600  0.75000000  0.25000000  1
  H  H2  1  0.40051800  0.55796600  0.61848600  1
  H  H3  1  0.57697000  0.94203400  0.88151400  1
  H  H4  1  0.59948200  0.44203400  0.38151400  1
  H  H5  1  0.42303000  0.05796600  0.11848600  1
  H  H6  1  0.45946800  0.47114200  0.76174400  1
  H  H7  1  0.69235400  0.02885800  0.73825600  1
  H  H8  1  0.54053200  0.52885800  0.23825600  1
  H  H9  1  0.30764600  0.97114200  0.26174400  1
  H  H10  1  0.00581200  0.83007100  0.65664900  1
  H  H11  1  0.49253200  0.66992900  0.84335100  1
  H  H12  1  0.99418800  0.16992900  0.34335100  1
  H  H13  1  0.50746800  0.33007100  0.15664900  1
  H  H14  1  0.98677300  0.04703300  0.62456900  1
  H  H15  1  0.65837600  0.45296700  0.87543100  1
  H  H16  1  0.01322700  0.95296700  0.37543100  1
  H  H17  1  0.34162400  0.54703300  0.12456900  1
  C  C18  1  0.53839500  0.07859100  0.45714100  1
  C  C19  1  0.07412800  0.42140900  0.04285900  1
  C  C20  1  0.46160500  0.92140900  0.54285900  1
  C  C21  1  0.92587200  0.57859100  0.95714100  1
  C  C22  1  0.02829700  0.58273200  0.48900800  1
  C  C23  1  0.10003700  0.91726800  0.01099200  1
  C  C24  1  0.97170300  0.41726800  0.51099200  1
  C  C25  1  0.89996300  0.08273200  0.98900800  1
  O  O26  1  0.13034600  0.55914100  0.56385100  1
  O  O27  1  0.25333800  0.94085900  0.93614900  1
  O  O28  1  0.86965400  0.44085900  0.43614900  1
  O  O29  1  0.74666200  0.05914100  0.06385100  1
  O  O30  1  0.39627100  0.45692700  0.70203500  1
  O  O31  1  0.55523400  0.04307300  0.79796500  1
  O  O32  1  0.60372900  0.54307300  0.29796500  1
  O  O33  1  0.44476600  0.95692700  0.20203500  1
  O  O34  1  0.48201700  0.21884900  0.51469500  1
  O  O35  1  0.21556000  0.28115100  0.98530500  1
  O  O36  1  0.51798300  0.78115100  0.48530500  1
  O  O37  1  0.78444000  0.71884900  0.01469500  1
  O  O38  1  0.03516200  0.26846800  0.60293500  1
  O  O39  1  0.90656500  0.23153200  0.89706500  1
  O  O40  1  0.96483800  0.73153200  0.39706500  1
  O  O41  1  0.09343500  0.76846800  0.10293500  1
  O  O42  1  0.34971800  0.94419800  0.66288900  1
  O  O43  1  0.95680500  0.55580200  0.83711100  1
  O  O44  1  0.65028200  0.05580200  0.33711100  1
  O  O45  1  0.04319500  0.44419800  0.16288900  1
  O  O46  1  0.91572600  0.96402200  0.66776700  1
  O  O47  1  0.54751500  0.53597800  0.83223300  1
  O  O48  1  0.08427400  0.03597800  0.33223300  1
  O  O49  1  0.45248500  0.46402200  0.16776700  1
