# generated using pymatgen
data_Ca3MnH12S2O17
_symmetry_space_group_name_H-M   'P 1'
_cell_length_a   8.62575032
_cell_length_b   8.62575032
_cell_length_c   10.84252600
_cell_angle_alpha   90.00000000
_cell_angle_beta   90.00000000
_cell_angle_gamma   120.00000248
_symmetry_Int_Tables_number   1
_chemical_formula_structural   Ca3MnH12S2O17
_chemical_formula_sum   'Ca6 Mn2 H24 S4 O34'
_cell_volume   698.64227174
_cell_formula_units_Z   2
loop_
 _symmetry_equiv_pos_site_id
 _symmetry_equiv_pos_as_xyz
  1  'x, y, z'
loop_
 _atom_site_type_symbol
 _atom_site_label
 _atom_site_symmetry_multiplicity
 _atom_site_fract_x
 _atom_site_fract_y
 _atom_site_fract_z
 _atom_site_occupancy
  Ca  Ca0  1  0.85536700  0.15918900  0.75000000  1
  Ca  Ca1  1  0.84081100  0.69617800  0.75000000  1
  Ca  Ca2  1  0.30382200  0.14463300  0.75000000  1
  Ca  Ca3  1  0.15918900  0.85536700  0.25000000  1
  Ca  Ca4  1  0.69617800  0.84081100  0.25000000  1
  Ca  Ca5  1  0.14463300  0.30382200  0.25000000  1
  Mn  Mn6  1  0.00000000  0.00000000  0.00000000  1
  Mn  Mn7  1  0.00000000  0.00000000  0.50000000  1
  H  H8  1  0.16694900  0.31135800  0.93904900  1
  H  H9  1  0.68864200  0.85559000  0.93904900  1
  H  H10  1  0.14441000  0.83305100  0.93904900  1
  H  H11  1  0.16694900  0.31135800  0.56095100  1
  H  H12  1  0.68864200  0.85559000  0.56095100  1
  H  H13  1  0.14441000  0.83305100  0.56095100  1
  H  H14  1  0.31135800  0.16694900  0.43904900  1
  H  H15  1  0.85559000  0.68864200  0.43904900  1
  H  H16  1  0.83305100  0.14441000  0.43904900  1
  H  H17  1  0.31135800  0.16694900  0.06095100  1
  H  H18  1  0.85559000  0.68864200  0.06095100  1
  H  H19  1  0.83305100  0.14441000  0.06095100  1
  H  H20  1  0.46290900  0.90612300  0.81988800  1
  H  H21  1  0.09387700  0.55678500  0.81988800  1
  H  H22  1  0.44321500  0.53709100  0.81988800  1
  H  H23  1  0.46290900  0.90612300  0.68011200  1
  H  H24  1  0.09387700  0.55678500  0.68011200  1
  H  H25  1  0.44321500  0.53709100  0.68011200  1
  H  H26  1  0.90612300  0.46290900  0.31988800  1
  H  H27  1  0.55678500  0.09387700  0.31988800  1
  H  H28  1  0.53709100  0.44321500  0.31988800  1
  H  H29  1  0.90612300  0.46290900  0.18011200  1
  H  H30  1  0.55678500  0.09387700  0.18011200  1
  H  H31  1  0.53709100  0.44321500  0.18011200  1
  S  S32  1  0.66666700  0.33333300  0.97677100  1
  S  S33  1  0.66666700  0.33333300  0.52322900  1
  S  S34  1  0.33333300  0.66666700  0.47677100  1
  S  S35  1  0.33333300  0.66666700  0.02322900  1
  O  O36  1  0.66666700  0.33333300  0.11456800  1
  O  O37  1  0.66666700  0.33333300  0.38543200  1
  O  O38  1  0.33333300  0.66666700  0.61456800  1
  O  O39  1  0.33333300  0.66666700  0.88543200  1
  O  O40  1  0.75786300  0.23561700  0.93324400  1
  O  O41  1  0.76438300  0.52224600  0.93324400  1
  O  O42  1  0.47775400  0.24213700  0.93324400  1
  O  O43  1  0.75786300  0.23561700  0.56675600  1
  O  O44  1  0.76438300  0.52224600  0.56675600  1
  O  O45  1  0.47775400  0.24213700  0.56675600  1
  O  O46  1  0.23561700  0.75786300  0.43324400  1
  O  O47  1  0.52224600  0.76438300  0.43324400  1
  O  O48  1  0.24213700  0.47775400  0.43324400  1
  O  O49  1  0.23561700  0.75786300  0.06675600  1
  O  O50  1  0.52224600  0.76438300  0.06675600  1
  O  O51  1  0.24213700  0.47775400  0.06675600  1
  O  O52  1  0.10596300  0.20233200  0.88758200  1
  O  O53  1  0.79766800  0.90363000  0.88758200  1
  O  O54  1  0.09637000  0.89403700  0.88758200  1
  O  O55  1  0.10596300  0.20233200  0.61241800  1
  O  O56  1  0.79766800  0.90363000  0.61241800  1
  O  O57  1  0.09637000  0.89403700  0.61241800  1
  O  O58  1  0.20233200  0.10596300  0.38758200  1
  O  O59  1  0.90363000  0.79766800  0.38758200  1
  O  O60  1  0.89403700  0.09637000  0.38758200  1
  O  O61  1  0.20233200  0.10596300  0.11241800  1
  O  O62  1  0.90363000  0.79766800  0.11241800  1
  O  O63  1  0.89403700  0.09637000  0.11241800  1
  O  O64  1  0.50472000  0.99082200  0.75000000  1
  O  O65  1  0.00917800  0.51389800  0.75000000  1
  O  O66  1  0.48610200  0.49528000  0.75000000  1
  O  O67  1  0.99082200  0.50472000  0.25000000  1
  O  O68  1  0.51389800  0.00917800  0.25000000  1
  O  O69  1  0.49528000  0.48610200  0.25000000  1
