# generated using pymatgen
data_CsAlV(PO5)2
_symmetry_space_group_name_H-M   'P 1'
_cell_length_a   8.06880004
_cell_length_b   8.27653200
_cell_length_c   14.27645967
_cell_angle_alpha   90.00000000
_cell_angle_beta   104.60935638
_cell_angle_gamma   90.00000000
_symmetry_Int_Tables_number   1
_chemical_formula_structural   CsAlV(PO5)2
_chemical_formula_sum   'Cs4 Al4 V4 P8 O40'
_cell_volume   922.58045810
_cell_formula_units_Z   4
loop_
 _symmetry_equiv_pos_site_id
 _symmetry_equiv_pos_as_xyz
  1  'x, y, z'
loop_
 _atom_site_type_symbol
 _atom_site_label
 _atom_site_symmetry_multiplicity
 _atom_site_fract_x
 _atom_site_fract_y
 _atom_site_fract_z
 _atom_site_occupancy
  Cs  Cs0  1  0.61783600  0.97604100  0.29944100  1
  Cs  Cs1  1  0.11783600  0.52395900  0.79944100  1
  Cs  Cs2  1  0.38216400  0.02395900  0.70055900  1
  Cs  Cs3  1  0.88216400  0.47604100  0.20055900  1
  Al  Al4  1  0.24694700  0.96181500  0.96650800  1
  Al  Al5  1  0.74694700  0.53818500  0.46650800  1
  Al  Al6  1  0.75305300  0.03818500  0.03349200  1
  Al  Al7  1  0.25305300  0.46181500  0.53349200  1
  V  V8  1  0.66043200  0.54480100  0.86394300  1
  V  V9  1  0.16043200  0.95519900  0.36394300  1
  V  V10  1  0.33956800  0.45519900  0.13605700  1
  V  V11  1  0.83956800  0.04480100  0.63605700  1
  P  P12  1  0.53645600  0.72820900  0.03990800  1
  P  P13  1  0.03645600  0.77179100  0.53990800  1
  P  P14  1  0.46354400  0.27179100  0.96009200  1
  P  P15  1  0.96354400  0.22820900  0.46009200  1
  P  P16  1  0.14268900  0.10718300  0.14700200  1
  P  P17  1  0.64268900  0.39281700  0.64700200  1
  P  P18  1  0.85731100  0.89281700  0.85299800  1
  P  P19  1  0.35731100  0.60718300  0.35299800  1
  O  O20  1  0.50486200  0.66020600  0.79899800  1
  O  O21  1  0.00486200  0.83979400  0.29899800  1
  O  O22  1  0.49513800  0.33979400  0.20100200  1
  O  O23  1  0.99513800  0.16020600  0.70100200  1
  O  O24  1  0.64078400  0.61279700  0.99110600  1
  O  O25  1  0.14078400  0.88720300  0.49110600  1
  O  O26  1  0.35921600  0.38720300  0.00889400  1
  O  O27  1  0.85921600  0.11279700  0.50889400  1
  O  O28  1  0.50010200  0.64223300  0.12837500  1
  O  O29  1  0.00010200  0.85776700  0.62837500  1
  O  O30  1  0.49989800  0.35776700  0.87162500  1
  O  O31  1  0.99989800  0.14223300  0.37162500  1
  O  O32  1  0.37072000  0.78550200  0.96651700  1
  O  O33  1  0.87072000  0.71449800  0.46651700  1
  O  O34  1  0.62928000  0.21449800  0.03348300  1
  O  O35  1  0.12928000  0.28550200  0.53348300  1
  O  O36  1  0.35191100  0.12104300  0.92135300  1
  O  O37  1  0.85191100  0.37895700  0.42135300  1
  O  O38  1  0.64808900  0.87895700  0.07864700  1
  O  O39  1  0.14808900  0.62104300  0.57864700  1
  O  O40  1  0.54981500  0.56472800  0.38341300  1
  O  O41  1  0.04981500  0.93527200  0.88341300  1
  O  O42  1  0.45018500  0.43527200  0.61658700  1
  O  O43  1  0.95018500  0.06472800  0.11658700  1
  O  O44  1  0.23921700  0.00935200  0.08498200  1
  O  O45  1  0.73921700  0.49064800  0.58498200  1
  O  O46  1  0.76078300  0.99064800  0.91501800  1
  O  O47  1  0.26078300  0.50935200  0.41501800  1
  O  O48  1  0.16034400  0.28970700  0.13216600  1
  O  O49  1  0.66034400  0.21029300  0.63216600  1
  O  O50  1  0.83965600  0.71029300  0.86783400  1
  O  O51  1  0.33965600  0.78970700  0.36783400  1
  O  O52  1  0.21841800  0.06243900  0.25409600  1
  O  O53  1  0.71841800  0.43756100  0.75409600  1
  O  O54  1  0.78158200  0.93756100  0.74590400  1
  O  O55  1  0.28158200  0.56243900  0.24590400  1
  O  O56  1  0.35602000  0.08526100  0.43185000  1
  O  O57  1  0.85602000  0.41473900  0.93185000  1
  O  O58  1  0.64398000  0.91473900  0.56815000  1
  O  O59  1  0.14398000  0.58526100  0.06815000  1
