# generated using pymatgen
data_Mg30NbAlO32
_symmetry_space_group_name_H-M   'P 1'
_cell_length_a   8.58063700
_cell_length_b   8.58063700
_cell_length_c   8.58379900
_cell_angle_alpha   90.00000000
_cell_angle_beta   90.00000000
_cell_angle_gamma   90.00000000
_symmetry_Int_Tables_number   1
_chemical_formula_structural   Mg30NbAlO32
_chemical_formula_sum   'Mg30 Nb1 Al1 O32'
_cell_volume   632.00221301
_cell_formula_units_Z   1
loop_
 _symmetry_equiv_pos_site_id
 _symmetry_equiv_pos_as_xyz
  1  'x, y, z'
loop_
 _atom_site_type_symbol
 _atom_site_label
 _atom_site_symmetry_multiplicity
 _atom_site_fract_x
 _atom_site_fract_y
 _atom_site_fract_z
 _atom_site_occupancy
  Mg  Mg0  1  0.00000000  0.50000000  0.00000000  1
  Mg  Mg1  1  0.50000000  0.00000000  0.00000000  1
  Mg  Mg2  1  0.00000000  0.00000000  0.50000000  1
  Mg  Mg3  1  0.00000000  0.50000000  0.50000000  1
  Mg  Mg4  1  0.50000000  0.00000000  0.50000000  1
  Mg  Mg5  1  0.50000000  0.50000000  0.50000000  1
  Mg  Mg6  1  0.24935100  0.24935100  0.00000000  1
  Mg  Mg7  1  0.24935100  0.75064900  0.00000000  1
  Mg  Mg8  1  0.75064900  0.24935100  0.00000000  1
  Mg  Mg9  1  0.75064900  0.75064900  0.00000000  1
  Mg  Mg10  1  0.25049500  0.25049500  0.50000000  1
  Mg  Mg11  1  0.25049500  0.74950500  0.50000000  1
  Mg  Mg12  1  0.74950500  0.25049500  0.50000000  1
  Mg  Mg13  1  0.74950500  0.74950500  0.50000000  1
  Mg  Mg14  1  0.00000000  0.25086500  0.25100600  1
  Mg  Mg15  1  0.00000000  0.74913500  0.25100600  1
  Mg  Mg16  1  0.50000000  0.24886100  0.25231900  1
  Mg  Mg17  1  0.50000000  0.75113900  0.25231900  1
  Mg  Mg18  1  0.00000000  0.25086500  0.74899400  1
  Mg  Mg19  1  0.00000000  0.74913500  0.74899400  1
  Mg  Mg20  1  0.50000000  0.24886100  0.74768100  1
  Mg  Mg21  1  0.50000000  0.75113900  0.74768100  1
  Mg  Mg22  1  0.25086500  0.00000000  0.25100600  1
  Mg  Mg23  1  0.24886100  0.50000000  0.25231900  1
  Mg  Mg24  1  0.74913500  0.00000000  0.25100600  1
  Mg  Mg25  1  0.75113900  0.50000000  0.25231900  1
  Mg  Mg26  1  0.25086500  0.00000000  0.74899400  1
  Mg  Mg27  1  0.24886100  0.50000000  0.74768100  1
  Mg  Mg28  1  0.74913500  0.00000000  0.74899400  1
  Mg  Mg29  1  0.75113900  0.50000000  0.74768100  1
  Nb  Nb30  1  0.50000000  0.50000000  0.00000000  1
  Al  Al31  1  0.00000000  0.00000000  0.00000000  1
  O  O32  1  0.00000000  0.00000000  0.23520600  1
  O  O33  1  0.00000000  0.50000000  0.24953100  1
  O  O34  1  0.50000000  0.00000000  0.24953100  1
  O  O35  1  0.50000000  0.50000000  0.26215200  1
  O  O36  1  0.00000000  0.00000000  0.76479400  1
  O  O37  1  0.00000000  0.50000000  0.75046900  1
  O  O38  1  0.50000000  0.00000000  0.75046900  1
  O  O39  1  0.50000000  0.50000000  0.73784800  1
  O  O40  1  0.24982900  0.24982900  0.24946800  1
  O  O41  1  0.24982900  0.75017100  0.24946800  1
  O  O42  1  0.75017100  0.24982900  0.24946800  1
  O  O43  1  0.75017100  0.75017100  0.24946800  1
  O  O44  1  0.24982900  0.24982900  0.75053200  1
  O  O45  1  0.24982900  0.75017100  0.75053200  1
  O  O46  1  0.75017100  0.24982900  0.75053200  1
  O  O47  1  0.75017100  0.75017100  0.75053200  1
  O  O48  1  0.00000000  0.23331900  0.00000000  1
  O  O49  1  0.00000000  0.76668100  0.00000000  1
  O  O50  1  0.50000000  0.23584100  0.00000000  1
  O  O51  1  0.50000000  0.76415900  0.00000000  1
  O  O52  1  0.00000000  0.24764300  0.50000000  1
  O  O53  1  0.00000000  0.75235700  0.50000000  1
  O  O54  1  0.50000000  0.24798200  0.50000000  1
  O  O55  1  0.50000000  0.75201800  0.50000000  1
  O  O56  1  0.23331900  0.00000000  0.00000000  1
  O  O57  1  0.23584100  0.50000000  0.00000000  1
  O  O58  1  0.76668100  0.00000000  0.00000000  1
  O  O59  1  0.76415900  0.50000000  0.00000000  1
  O  O60  1  0.24764300  0.00000000  0.50000000  1
  O  O61  1  0.24798200  0.50000000  0.50000000  1
  O  O62  1  0.75235700  0.00000000  0.50000000  1
  O  O63  1  0.75201800  0.50000000  0.50000000  1
