# generated using pymatgen
data_H13RuC5SN2(ClO)3
_symmetry_space_group_name_H-M   'P 1'
_cell_length_a   8.01198300
_cell_length_b   10.08622261
_cell_length_c   10.43622677
_cell_angle_alpha   92.99350745
_cell_angle_beta   110.64141777
_cell_angle_gamma   93.49522987
_symmetry_Int_Tables_number   1
_chemical_formula_structural   H13RuC5SN2(ClO)3
_chemical_formula_sum   'H26 Ru2 C10 S2 N4 Cl6 O6'
_cell_volume   785.29385420
_cell_formula_units_Z   2
loop_
 _symmetry_equiv_pos_site_id
 _symmetry_equiv_pos_as_xyz
  1  'x, y, z'
loop_
 _atom_site_type_symbol
 _atom_site_label
 _atom_site_symmetry_multiplicity
 _atom_site_fract_x
 _atom_site_fract_y
 _atom_site_fract_z
 _atom_site_occupancy
  H  H0  1  0.17933300  0.87154300  0.61964200  1
  H  H1  1  0.82066700  0.12845700  0.38035800  1
  H  H2  1  0.17970200  0.77156800  0.75907400  1
  H  H3  1  0.82029800  0.22843200  0.24092600  1
  H  H4  1  0.06233900  0.70511900  0.58464100  1
  H  H5  1  0.93766100  0.29488100  0.41535900  1
  H  H6  1  0.87906500  0.06556400  0.76793000  1
  H  H7  1  0.12093500  0.93443600  0.23207000  1
  H  H8  1  0.06875500  0.98234400  0.86824800  1
  H  H9  1  0.93124500  0.01765600  0.13175200  1
  H  H10  1  0.07973300  0.07116000  0.72366700  1
  H  H11  1  0.92026700  0.92884000  0.27633300  1
  H  H12  1  0.70464900  0.45168500  0.83348000  1
  H  H13  1  0.29535100  0.54831500  0.16652000  1
  H  H14  1  0.64389400  0.26052100  0.89503600  1
  H  H15  1  0.35610600  0.73947900  0.10496400  1
  H  H16  1  0.46053000  0.24155400  0.95446400  1
  H  H17  1  0.53947000  0.75844600  0.04553600  1
  H  H18  1  0.43041600  0.19009100  0.78019400  1
  H  H19  1  0.56958400  0.80990900  0.21980600  1
  H  H20  1  0.18207000  0.37623100  0.69282800  1
  H  H21  1  0.81793000  0.62376900  0.30717200  1
  H  H22  1  0.21632200  0.38203400  0.87238600  1
  H  H23  1  0.78367800  0.61796600  0.12761400  1
  H  H24  1  0.25159200  0.53089000  0.79459200  1
  H  H25  1  0.74840800  0.46911000  0.20540800  1
  Ru  Ru26  1  0.70922900  0.72984700  0.71197500  1
  Ru  Ru27  1  0.29077100  0.27015300  0.28802500  1
  C  C28  1  0.56999400  0.48542100  0.81010800  1
  C  C29  1  0.43000600  0.51457900  0.18989200  1
  C  C30  1  0.10413100  0.79577800  0.65444000  1
  C  C31  1  0.89586900  0.20422200  0.34556000  1
  C  C32  1  0.99379900  0.01300800  0.76592900  1
  C  C33  1  0.00620100  0.98699200  0.23407100  1
  C  C34  1  0.49911800  0.26461800  0.86646600  1
  C  C35  1  0.50088200  0.73538200  0.13353400  1
  C  C36  1  0.26377900  0.42359800  0.79492600  1
  C  C37  1  0.73622100  0.57640200  0.20507400  1
  S  S38  1  0.90366100  0.86937100  0.64800900  1
  S  S39  1  0.09633900  0.13062900  0.35199100  1
  N  N40  1  0.53472000  0.75827400  0.55989600  1
  N  N41  1  0.46528000  0.24172600  0.44010400  1
  N  N42  1  0.45063900  0.39752000  0.82664700  1
  N  N43  1  0.54936100  0.60248000  0.17335300  1
  Cl  Cl44  1  0.79068300  0.54038500  0.60415900  1
  Cl  Cl45  1  0.20931700  0.45961500  0.39584100  1
  Cl  Cl46  1  0.62810900  0.90924200  0.83565800  1
  Cl  Cl47  1  0.37189100  0.09075800  0.16434200  1
  Cl  Cl48  1  0.94751000  0.70104600  0.91471300  1
  Cl  Cl49  1  0.05249000  0.29895400  0.08528700  1
  O  O50  1  0.81813900  0.91373500  0.50887200  1
  O  O51  1  0.18186100  0.08626500  0.49112800  1
  O  O52  1  0.53310500  0.60121800  0.77234700  1
  O  O53  1  0.46689500  0.39878200  0.22765300  1
  O  O54  1  0.42391500  0.78286900  0.45903800  1
  O  O55  1  0.57608500  0.21713100  0.54096200  1
