# generated using pymatgen
data_CeBiW2O9
_symmetry_space_group_name_H-M   'P 1'
_cell_length_a   7.22542070
_cell_length_b   7.22542070
_cell_length_c   13.89623947
_cell_angle_alpha   80.79120863
_cell_angle_beta   80.79120863
_cell_angle_gamma   87.87497007
_symmetry_Int_Tables_number   1
_chemical_formula_structural   CeBiW2O9
_chemical_formula_sum   'Ce4 Bi4 W8 O36'
_cell_volume   706.84810086
_cell_formula_units_Z   4
loop_
 _symmetry_equiv_pos_site_id
 _symmetry_equiv_pos_as_xyz
  1  'x, y, z'
loop_
 _atom_site_type_symbol
 _atom_site_label
 _atom_site_symmetry_multiplicity
 _atom_site_fract_x
 _atom_site_fract_y
 _atom_site_fract_z
 _atom_site_occupancy
  Ce  Ce0  1  0.87488200  0.82807000  0.11656400  1
  Ce  Ce1  1  0.17193000  0.12511800  0.38343600  1
  Ce  Ce2  1  0.12511800  0.17193000  0.88343600  1
  Ce  Ce3  1  0.82807000  0.87488200  0.61656400  1
  Bi  Bi4  1  0.34520900  0.52583300  0.13803700  1
  Bi  Bi5  1  0.47416700  0.65479100  0.36196300  1
  Bi  Bi6  1  0.65479100  0.47416700  0.86196300  1
  Bi  Bi7  1  0.52583300  0.34520900  0.63803700  1
  W  W8  1  0.41290300  0.99619800  0.11809700  1
  W  W9  1  0.00380200  0.58709700  0.38190300  1
  W  W10  1  0.58709700  0.00380200  0.88190300  1
  W  W11  1  0.99619800  0.41290300  0.61809700  1
  W  W12  1  0.83440400  0.30757100  0.13494200  1
  W  W13  1  0.69242900  0.16559600  0.36505800  1
  W  W14  1  0.16559600  0.69242900  0.86505800  1
  W  W15  1  0.30757100  0.83440400  0.63494200  1
  O  O16  1  0.65032900  0.08679000  0.12980500  1
  O  O17  1  0.91321000  0.34967100  0.37019500  1
  O  O18  1  0.34967100  0.91321000  0.87019500  1
  O  O19  1  0.08679000  0.65032900  0.62980500  1
  O  O20  1  0.63845300  0.36154700  0.25000000  1
  O  O21  1  0.36154700  0.63845300  0.75000000  1
  O  O22  1  0.00470100  0.49227700  0.14125300  1
  O  O23  1  0.50772300  0.99529900  0.35874700  1
  O  O24  1  0.99529900  0.50772300  0.85874700  1
  O  O25  1  0.49227700  0.00470100  0.64125300  1
  O  O26  1  0.51576700  0.75479200  0.19423000  1
  O  O27  1  0.24520800  0.48423300  0.30577000  1
  O  O28  1  0.48423300  0.24520800  0.80577000  1
  O  O29  1  0.75479200  0.51576700  0.69423000  1
  O  O30  1  0.28272500  0.13884000  0.20303900  1
  O  O31  1  0.86116000  0.71727500  0.29696100  1
  O  O32  1  0.71727500  0.86116000  0.79696100  1
  O  O33  1  0.13884000  0.28272500  0.70303900  1
  O  O34  1  0.88680200  0.11319800  0.25000000  1
  O  O35  1  0.11319800  0.88680200  0.75000000  1
  O  O36  1  0.21674000  0.81922000  0.11672600  1
  O  O37  1  0.18078000  0.78326000  0.38327400  1
  O  O38  1  0.78326000  0.18078000  0.88327400  1
  O  O39  1  0.81922000  0.21674000  0.61672600  1
  O  O40  1  0.39507700  0.14595800  0.99597800  1
  O  O41  1  0.85404200  0.60492300  0.50402200  1
  O  O42  1  0.60492300  0.85404200  0.00402200  1
  O  O43  1  0.14595800  0.39507700  0.49597800  1
  O  O44  1  0.99079300  0.16653800  0.05084500  1
  O  O45  1  0.83346200  0.00920700  0.44915500  1
  O  O46  1  0.00920700  0.83346200  0.94915500  1
  O  O47  1  0.16653800  0.99079300  0.55084500  1
  O  O48  1  0.69236500  0.45754800  0.05169800  1
  O  O49  1  0.54245200  0.30763500  0.44830200  1
  O  O50  1  0.30763500  0.54245200  0.94830200  1
  O  O51  1  0.45754800  0.69236500  0.55169800  1
