# generated using pymatgen
data_ZnH12C6(S2N)2
_symmetry_space_group_name_H-M   'P 1'
_cell_length_a   9.42928062
_cell_length_b   9.42928062
_cell_length_c   18.79687654
_cell_angle_alpha   86.56977980
_cell_angle_beta   86.56977980
_cell_angle_gamma   118.96767926
_symmetry_Int_Tables_number   1
_chemical_formula_structural   ZnH12C6(S2N)2
_chemical_formula_sum   'Zn4 H48 C24 S16 N8'
_cell_volume   1451.98355605
_cell_formula_units_Z   4
loop_
 _symmetry_equiv_pos_site_id
 _symmetry_equiv_pos_as_xyz
  1  'x, y, z'
loop_
 _atom_site_type_symbol
 _atom_site_label
 _atom_site_symmetry_multiplicity
 _atom_site_fract_x
 _atom_site_fract_y
 _atom_site_fract_z
 _atom_site_occupancy
  Zn  Zn0  1  0.09436900  0.87953800  0.36143800  1
  Zn  Zn1  1  0.12046200  0.90563100  0.13856200  1
  Zn  Zn2  1  0.90563100  0.12046200  0.63856200  1
  Zn  Zn3  1  0.87953800  0.09436900  0.86143800  1
  H  H4  1  0.20706900  0.47641700  0.19805800  1
  H  H5  1  0.52358300  0.79293100  0.30194200  1
  H  H6  1  0.79293100  0.52358300  0.80194200  1
  H  H7  1  0.47641700  0.20706900  0.69805800  1
  H  H8  1  0.01679700  0.31004300  0.23522600  1
  H  H9  1  0.68995700  0.98320300  0.26477400  1
  H  H10  1  0.98320300  0.68995700  0.76477400  1
  H  H11  1  0.31004300  0.01679700  0.73522600  1
  H  H12  1  0.13266000  0.47093200  0.28852300  1
  H  H13  1  0.52906800  0.86734000  0.21147700  1
  H  H14  1  0.86734000  0.52906800  0.71147700  1
  H  H15  1  0.47093200  0.13266000  0.78852300  1
  H  H16  1  0.29754000  0.46492600  0.35458400  1
  H  H17  1  0.53507400  0.70246000  0.14541600  1
  H  H18  1  0.70246000  0.53507400  0.64541600  1
  H  H19  1  0.46492600  0.29754000  0.85458400  1
  H  H20  1  0.42767100  0.38150000  0.33090600  1
  H  H21  1  0.61850000  0.57232900  0.16909400  1
  H  H22  1  0.57232900  0.61850000  0.66909400  1
  H  H23  1  0.38150000  0.42767100  0.83090600  1
  H  H24  1  0.23890100  0.25847400  0.38411800  1
  H  H25  1  0.74152600  0.76109900  0.11588200  1
  H  H26  1  0.76109900  0.74152600  0.61588200  1
  H  H27  1  0.25847400  0.23890100  0.88411800  1
  H  H28  1  0.42347400  0.65269100  0.47258900  1
  H  H29  1  0.34730900  0.57652600  0.02741100  1
  H  H30  1  0.57652600  0.34730900  0.52741100  1
  H  H31  1  0.65269100  0.42347400  0.97258900  1
  H  H32  1  0.38174800  0.60091900  0.56726400  1
  H  H33  1  0.39908100  0.61825200  0.93273600  1
  H  H34  1  0.61825200  0.39908100  0.43273600  1
  H  H35  1  0.60091900  0.38174800  0.06726400  1
  H  H36  1  0.22461100  0.49838400  0.51054300  1
  H  H37  1  0.50161600  0.77538900  0.98945700  1
  H  H38  1  0.77538900  0.50161600  0.48945700  1
  H  H39  1  0.49838400  0.22461100  0.01054300  1
  H  H40  1  0.26371000  0.89477600  0.59818200  1
  H  H41  1  0.10522400  0.73629000  0.90181800  1
  H  H42  1  0.73629000  0.10522400  0.40181800  1
  H  H43  1  0.89477600  0.26371000  0.09818200  1
  H  H44  1  0.28075600  0.72694100  0.63869300  1
  H  H45  1  0.27305900  0.71924400  0.86130700  1
  H  H46  1  0.71924400  0.27305900  0.36130700  1
  H  H47  1  0.72694100  0.28075600  0.13869300  1
  H  H48  1  0.45569700  0.89704000  0.59124300  1
  H  H49  1  0.10296000  0.54430300  0.90875700  1
  H  H50  1  0.54430300  0.10296000  0.40875700  1
  H  H51  1  0.89704000  0.45569700  0.09124300  1
  C  C52  1  0.14006600  0.39676900  0.24737300  1
  C  C53  1  0.60323100  0.85993400  0.25262700  1
  C  C54  1  0.85993400  0.60323100  0.75262700  1
  C  C55  1  0.39676900  0.14006600  0.74737300  1
  C  C56  1  0.30091300  0.35572400  0.33988200  1
  C  C57  1  0.64427600  0.69908700  0.16011800  1
  C  C58  1  0.69908700  0.64427600  0.66011800  1
  C  C59  1  0.35572400  0.30091300  0.83988200  1
  C  C60  1  0.22156700  0.18817700  0.23923500  1
  C  C61  1  0.81182300  0.77843300  0.26076500  1
  C  C62  1  0.77843300  0.81182300  0.76076500  1
  C  C63  1  0.18817700  0.22156700  0.73923500  1
  C  C64  1  0.21303100  0.78172500  0.47552600  1
  C  C65  1  0.21827500  0.78696900  0.02447400  1
  C  C66  1  0.78696900  0.21827500  0.52447400  1
  C  C67  1  0.78172500  0.21303100  0.97552600  1
  C  C68  1  0.33052700  0.61541600  0.51841800  1
  C  C69  1  0.38458400  0.66947300  0.98158200  1
  C  C70  1  0.66947300  0.38458400  0.48158200  1
  C  C71  1  0.61541600  0.33052700  0.01841800  1
  C  C72  1  0.32273400  0.81993900  0.59265300  1
  C  C73  1  0.18006100  0.67726600  0.90734700  1
  C  C74  1  0.67726600  0.18006100  0.40734700  1
  C  C75  1  0.81993900  0.32273400  0.09265300  1
  S  S76  1  0.84193600  0.85403900  0.34312200  1
  S  S77  1  0.14596100  0.15806400  0.15687800  1
  S  S78  1  0.15806400  0.14596100  0.65687800  1
  S  S79  1  0.85403900  0.84193600  0.84312200  1
  S  S80  1  0.30460300  0.07412200  0.27473800  1
  S  S81  1  0.92587800  0.69539700  0.22526200  1
  S  S82  1  0.69539700  0.92587800  0.72526200  1
  S  S83  1  0.07412200  0.30460300  0.77473800  1
  S  S84  1  0.17555700  0.68599100  0.39736200  1
  S  S85  1  0.31400900  0.82444300  0.10263800  1
  S  S86  1  0.82444300  0.31400900  0.60263800  1
  S  S87  1  0.68599100  0.17555700  0.89736200  1
  S  S88  1  0.15926400  0.93121000  0.48358100  1
  S  S89  1  0.06879000  0.84073600  0.01641900  1
  S  S90  1  0.84073600  0.06879000  0.51641900  1
  S  S91  1  0.93121000  0.15926400  0.98358100  1
  N  N92  1  0.22057100  0.30805600  0.27429200  1
  N  N93  1  0.69194400  0.77942900  0.22570800  1
  N  N94  1  0.77942900  0.69194400  0.72570800  1
  N  N95  1  0.30805600  0.22057100  0.77429200  1
  N  N96  1  0.28205400  0.73975800  0.52687000  1
  N  N97  1  0.26024200  0.71794600  0.97313000  1
  N  N98  1  0.71794600  0.26024200  0.47313000  1
  N  N99  1  0.73975800  0.28205400  0.02687000  1
