# generated using pymatgen
data_B10H18C2S
_symmetry_space_group_name_H-M   'P 1'
_cell_length_a   6.18420800
_cell_length_b   13.49338900
_cell_length_c   15.94587400
_cell_angle_alpha   90.00000000
_cell_angle_beta   90.00000000
_cell_angle_gamma   90.00000000
_symmetry_Int_Tables_number   1
_chemical_formula_structural   B10H18C2S
_chemical_formula_sum   'B40 H72 C8 S4'
_cell_volume   1330.61819312
_cell_formula_units_Z   4
loop_
 _symmetry_equiv_pos_site_id
 _symmetry_equiv_pos_as_xyz
  1  'x, y, z'
loop_
 _atom_site_type_symbol
 _atom_site_label
 _atom_site_symmetry_multiplicity
 _atom_site_fract_x
 _atom_site_fract_y
 _atom_site_fract_z
 _atom_site_occupancy
  B  B0  1  0.07809000  0.07532600  0.96508600  1
  B  B1  1  0.42191000  0.92467400  0.46508600  1
  B  B2  1  0.57809000  0.42467400  0.03491400  1
  B  B3  1  0.92191000  0.57532600  0.53491400  1
  B  B4  1  0.02127100  0.03562400  0.86214800  1
  B  B5  1  0.47872900  0.96437600  0.36214800  1
  B  B6  1  0.52127100  0.46437500  0.13785200  1
  B  B7  1  0.97872900  0.53562400  0.63785200  1
  B  B8  1  0.03152300  0.94680800  0.94364800  1
  B  B9  1  0.46847700  0.05319200  0.44364800  1
  B  B10  1  0.53152300  0.55319200  0.05635200  1
  B  B11  1  0.96847700  0.44680800  0.55635200  1
  B  B12  1  0.96095800  0.99782400  0.04368800  1
  B  B13  1  0.53904200  0.00217600  0.54368800  1
  B  B14  1  0.46095800  0.50217600  0.95631200  1
  B  B15  1  0.03904200  0.49782400  0.45631200  1
  B  B16  1  0.88916900  0.14201100  0.90320000  1
  B  B17  1  0.61083100  0.85798900  0.40320000  1
  B  B18  1  0.38916900  0.35798900  0.09680000  1
  B  B19  1  0.11083100  0.64201100  0.59680000  1
  B  B20  1  0.74781000  0.05652400  0.84013200  1
  B  B21  1  0.75219000  0.94347600  0.34013200  1
  B  B22  1  0.24781000  0.44347600  0.15986800  1
  B  B23  1  0.25219000  0.55652400  0.65986800  1
  B  B24  1  0.81502000  0.94469300  0.87554900  1
  B  B25  1  0.68498000  0.05530700  0.37554900  1
  B  B26  1  0.31502000  0.55530700  0.12445100  1
  B  B27  1  0.18498000  0.44469300  0.62445100  1
  B  B28  1  0.76434400  0.92470900  0.98661300  1
  B  B29  1  0.73565600  0.07529100  0.48661300  1
  B  B30  1  0.26434400  0.57529100  0.01338700  1
  B  B31  1  0.23565600  0.42470900  0.51338700  1
  B  B32  1  0.69074600  0.02304000  0.05561900  1
  B  B33  1  0.80925400  0.97696000  0.55561900  1
  B  B34  1  0.19074600  0.47696000  0.94438100  1
  B  B35  1  0.30925400  0.52304000  0.44438100  1
  B  B36  1  0.86813300  0.12083300  0.02709600  1
  B  B37  1  0.63186700  0.87916700  0.52709600  1
  B  B38  1  0.36813300  0.37916700  0.97290400  1
  B  B39  1  0.13186700  0.62083300  0.47290400  1
  H  H40  1  0.24702800  0.11566500  0.97867900  1
  H  H41  1  0.25297200  0.88433500  0.47867900  1
  H  H42  1  0.74702800  0.38433500  0.02132100  1
  H  H43  1  0.75297200  0.61566500  0.52132100  1
  H  H44  1  0.15684200  0.03665000  0.80847600  1
  H  H45  1  0.34315800  0.96335000  0.30847600  1
  H  H46  1  0.65684200  0.46335000  0.19152400  1
  H  H47  1  0.84315800  0.53665000  0.69152400  1
  H  H48  1  0.16362300  0.88178800  0.94614300  1
  H  H49  1  0.33637700  0.11821200  0.44614300  1
  H  H50  1  0.66362300  0.61821200  0.05385700  1
  H  H51  1  0.83637700  0.38178800  0.55385700  1
  H  H52  1  0.06254900  0.97237800  0.10381500  1
  H  H53  1  0.43745100  0.02762200  0.60381500  1
  H  H54  1  0.56254900  0.52762200  0.89618500  1
  H  H55  1  0.93745100  0.47237800  0.39618500  1
  H  H56  1  0.68159600  0.11981600  0.89904100  1
  H  H57  1  0.81840400  0.88018400  0.39904100  1
  H  H58  1  0.18159600  0.38018400  0.10095900  1
  H  H59  1  0.31840400  0.61981600  0.60095900  1
  H  H60  1  0.90861200  0.22723900  0.88421800  1
  H  H61  1  0.59138800  0.77276100  0.38421800  1
  H  H62  1  0.40861200  0.27276100  0.11578200  1
  H  H63  1  0.09138800  0.72723900  0.61578200  1
  H  H64  1  0.65767400  0.07920900  0.77644000  1
  H  H65  1  0.84232600  0.92079100  0.27644000  1
  H  H66  1  0.15767400  0.42079100  0.22356000  1
  H  H67  1  0.34232600  0.57920900  0.72356000  1
  H  H68  1  0.70811900  0.84354700  0.00819400  1
  H  H69  1  0.79188100  0.15645300  0.50819400  1
  H  H70  1  0.20811900  0.65645300  0.99180600  1
  H  H71  1  0.29188100  0.34354700  0.49180600  1
  H  H72  1  0.58570300  0.98011200  0.99289400  1
  H  H73  1  0.91429700  0.01988800  0.49289400  1
  H  H74  1  0.08570300  0.51988800  0.00710600  1
  H  H75  1  0.41429700  0.48011200  0.50710600  1
  H  H76  1  0.58570900  0.01666200  0.11804900  1
  H  H77  1  0.91429100  0.98333800  0.61804900  1
  H  H78  1  0.08570900  0.48333800  0.88195100  1
  H  H79  1  0.41429100  0.51666200  0.38195100  1
  H  H80  1  0.65309900  0.11167400  0.02192900  1
  H  H81  1  0.84690100  0.88832600  0.52192900  1
  H  H82  1  0.15309900  0.38832600  0.97807100  1
  H  H83  1  0.34690100  0.61167400  0.47807100  1
  H  H84  1  0.89320500  0.19069700  0.07194700  1
  H  H85  1  0.60679500  0.80930300  0.57194700  1
  H  H86  1  0.39320500  0.30930300  0.92805300  1
  H  H87  1  0.10679500  0.69069700  0.42805300  1
  H  H88  1  0.48117800  0.76161100  0.73999200  1
  H  H89  1  0.01882200  0.23838900  0.23999200  1
  H  H90  1  0.98117800  0.73838900  0.26000800  1
  H  H91  1  0.51882200  0.26161100  0.76000800  1
  H  H92  1  0.44454900  0.89322900  0.74873900  1
  H  H93  1  0.05545100  0.10677100  0.24873900  1
  H  H94  1  0.94454900  0.60677100  0.25126100  1
  H  H95  1  0.55545100  0.39322900  0.75126100  1
  H  H96  1  0.42261700  0.81707000  0.84100700  1
  H  H97  1  0.07738300  0.18293000  0.34100700  1
  H  H98  1  0.92261700  0.68293000  0.15899300  1
  H  H99  1  0.57738300  0.31707000  0.65899300  1
  H  H100  1  0.75930300  0.71679000  0.90311900  1
  H  H101  1  0.74069700  0.28321000  0.40311900  1
  H  H102  1  0.25930300  0.78321000  0.09688100  1
  H  H103  1  0.24069700  0.21679000  0.59688100  1
  H  H104  1  0.02766200  0.72754500  0.86072000  1
  H  H105  1  0.47233800  0.27245500  0.36072000  1
  H  H106  1  0.52766200  0.77245500  0.13928000  1
  H  H107  1  0.97233800  0.22754500  0.63928000  1
  H  H108  1  0.82162700  0.66756100  0.80041800  1
  H  H109  1  0.67837300  0.33243900  0.30041800  1
  H  H110  1  0.32162700  0.83243900  0.19958200  1
  H  H111  1  0.17837300  0.16756100  0.69958200  1
  C  C112  1  0.50390300  0.82652900  0.78043200  1
  C  C113  1  0.99609700  0.17347100  0.28043200  1
  C  C114  1  0.00390300  0.67347100  0.21956800  1
  C  C115  1  0.49609700  0.32652900  0.71956800  1
  C  C116  1  0.85472000  0.72662200  0.84586400  1
  C  C117  1  0.64528000  0.27337800  0.34586400  1
  C  C118  1  0.35472000  0.77337800  0.15413600  1
  C  C119  1  0.14528000  0.22662200  0.65413600  1
  S  S120  1  0.79056600  0.84247200  0.79576900  1
  S  S121  1  0.70943400  0.15752800  0.29576900  1
  S  S122  1  0.29056600  0.65752800  0.20423100  1
  S  S123  1  0.20943400  0.34247200  0.70423100  1
