# generated using pymatgen
data_Ba3Al2O12
_symmetry_space_group_name_H-M   'P 1'
_cell_length_a   12.39376230
_cell_length_b   12.39376230
_cell_length_c   12.39376230
_cell_angle_alpha   109.47122063
_cell_angle_beta   109.47122063
_cell_angle_gamma   109.47122063
_symmetry_Int_Tables_number   1
_chemical_formula_structural   Ba3Al2O12
_chemical_formula_sum   'Ba12 Al8 O48'
_cell_volume   1465.50598666
_cell_formula_units_Z   4
loop_
 _symmetry_equiv_pos_site_id
 _symmetry_equiv_pos_as_xyz
  1  'x, y, z'
loop_
 _atom_site_type_symbol
 _atom_site_label
 _atom_site_symmetry_multiplicity
 _atom_site_fract_x
 _atom_site_fract_y
 _atom_site_fract_z
 _atom_site_occupancy
  Ba  Ba0  1  0.12500000  0.37500000  0.75000000  1
  Ba  Ba1  1  0.37500000  0.12500000  0.25000000  1
  Ba  Ba2  1  0.37500000  0.75000000  0.12500000  1
  Ba  Ba3  1  0.12500000  0.25000000  0.37500000  1
  Ba  Ba4  1  0.75000000  0.12500000  0.37500000  1
  Ba  Ba5  1  0.25000000  0.37500000  0.12500000  1
  Ba  Ba6  1  0.87500000  0.62500000  0.25000000  1
  Ba  Ba7  1  0.62500000  0.87500000  0.75000000  1
  Ba  Ba8  1  0.62500000  0.25000000  0.87500000  1
  Ba  Ba9  1  0.87500000  0.75000000  0.62500000  1
  Ba  Ba10  1  0.25000000  0.87500000  0.62500000  1
  Ba  Ba11  1  0.75000000  0.62500000  0.87500000  1
  Al  Al12  1  0.00000000  0.50000000  0.00000000  1
  Al  Al13  1  0.00000000  0.00000000  0.50000000  1
  Al  Al14  1  0.50000000  0.00000000  0.00000000  1
  Al  Al15  1  0.50000000  0.50000000  0.50000000  1
  Al  Al16  1  0.50000000  0.50000000  0.00000000  1
  Al  Al17  1  0.50000000  0.00000000  0.50000000  1
  Al  Al18  1  0.00000000  0.50000000  0.50000000  1
  Al  Al19  1  0.00000000  0.00000000  0.00000000  1
  O  O20  1  0.39189700  0.56399000  0.93569700  1
  O  O21  1  0.12829300  0.45620000  0.56430300  1
  O  O22  1  0.37170700  0.93601000  0.32790700  1
  O  O23  1  0.10810300  0.04380000  0.17209300  1
  O  O24  1  0.56399000  0.93569700  0.39189700  1
  O  O25  1  0.45620000  0.56430300  0.12829300  1
  O  O26  1  0.93601000  0.32790700  0.37170700  1
  O  O27  1  0.04380000  0.17209300  0.10810300  1
  O  O28  1  0.93569700  0.39189700  0.56399000  1
  O  O29  1  0.56430300  0.12829300  0.45620000  1
  O  O30  1  0.32790700  0.37170700  0.93601000  1
  O  O31  1  0.17209300  0.10810300  0.04380000  1
  O  O32  1  0.60810300  0.43601000  0.06430300  1
  O  O33  1  0.87170700  0.54380000  0.43569700  1
  O  O34  1  0.62829300  0.06399000  0.67209300  1
  O  O35  1  0.89189700  0.95620000  0.82790700  1
  O  O36  1  0.43601000  0.06430300  0.60810300  1
  O  O37  1  0.54380000  0.43569700  0.87170700  1
  O  O38  1  0.06399000  0.67209300  0.62829300  1
  O  O39  1  0.95620000  0.82790700  0.89189700  1
  O  O40  1  0.06430300  0.60810300  0.43601000  1
  O  O41  1  0.43569700  0.87170700  0.54380000  1
  O  O42  1  0.67209300  0.62829300  0.06399000  1
  O  O43  1  0.82790700  0.89189700  0.95620000  1
  O  O44  1  0.89189700  0.43569700  0.06399000  1
  O  O45  1  0.62829300  0.06430300  0.95620000  1
  O  O46  1  0.87170700  0.82790700  0.43601000  1
  O  O47  1  0.60810300  0.67209300  0.54380000  1
  O  O48  1  0.06399000  0.89189700  0.43569700  1
  O  O49  1  0.95620000  0.62829300  0.06430300  1
  O  O50  1  0.43601000  0.87170700  0.82790700  1
  O  O51  1  0.54380000  0.60810300  0.67209300  1
  O  O52  1  0.43569700  0.06399000  0.89189700  1
  O  O53  1  0.06430300  0.95620000  0.62829300  1
  O  O54  1  0.82790700  0.43601000  0.87170700  1
  O  O55  1  0.67209300  0.54380000  0.60810300  1
  O  O56  1  0.10810300  0.56430300  0.93601000  1
  O  O57  1  0.37170700  0.93569700  0.04380000  1
  O  O58  1  0.12829300  0.17209300  0.56399000  1
  O  O59  1  0.39189700  0.32790700  0.45620000  1
  O  O60  1  0.93601000  0.10810300  0.56430300  1
  O  O61  1  0.04380000  0.37170700  0.93569700  1
  O  O62  1  0.56399000  0.12829300  0.17209300  1
  O  O63  1  0.45620000  0.39189700  0.32790700  1
  O  O64  1  0.56430300  0.93601000  0.10810300  1
  O  O65  1  0.93569700  0.04380000  0.37170700  1
  O  O66  1  0.17209300  0.56399000  0.12829300  1
  O  O67  1  0.32790700  0.45620000  0.39189700  1
