# generated using pymatgen
data_Cu3NiP2O9
_symmetry_space_group_name_H-M   'P 1'
_cell_length_a   10.00063000
_cell_length_b   8.31630500
_cell_length_c   9.88381011
_cell_angle_alpha   53.62687786
_cell_angle_beta   90.00000000
_cell_angle_gamma   90.00000000
_symmetry_Int_Tables_number   1
_chemical_formula_structural   Cu3NiP2O9
_chemical_formula_sum   'Cu12 Ni4 P8 O36'
_cell_volume   661.86721830
_cell_formula_units_Z   4
loop_
 _symmetry_equiv_pos_site_id
 _symmetry_equiv_pos_as_xyz
  1  'x, y, z'
loop_
 _atom_site_type_symbol
 _atom_site_label
 _atom_site_symmetry_multiplicity
 _atom_site_fract_x
 _atom_site_fract_y
 _atom_site_fract_z
 _atom_site_occupancy
  Cu  Cu0  1  0.39284100  0.41777200  0.12445200  1
  Cu  Cu1  1  0.10715900  0.41777200  0.62445200  1
  Cu  Cu2  1  0.60715900  0.58222800  0.87554800  1
  Cu  Cu3  1  0.89284100  0.58222800  0.37554800  1
  Cu  Cu4  1  0.31158600  0.74049900  0.75399400  1
  Cu  Cu5  1  0.18841400  0.74049900  0.25399400  1
  Cu  Cu6  1  0.68841400  0.25950100  0.24600600  1
  Cu  Cu7  1  0.81158600  0.25950100  0.74600600  1
  Cu  Cu8  1  0.44481200  0.92165600  0.90199400  1
  Cu  Cu9  1  0.05518800  0.92165600  0.40199400  1
  Cu  Cu10  1  0.55518800  0.07834400  0.09800600  1
  Cu  Cu11  1  0.94481200  0.07834400  0.59800600  1
  Ni  Ni12  1  0.36090800  0.27069600  0.49914300  1
  Ni  Ni13  1  0.13909200  0.27069600  0.99914300  1
  Ni  Ni14  1  0.63909200  0.72930400  0.50085700  1
  Ni  Ni15  1  0.86090800  0.72930400  0.00085700  1
  P  P16  1  0.10001200  0.38693200  0.25769400  1
  P  P17  1  0.39998800  0.38693200  0.75769400  1
  P  P18  1  0.89998800  0.61306800  0.74230600  1
  P  P19  1  0.60001200  0.61306800  0.24230600  1
  P  P20  1  0.15970500  0.96678300  0.86606300  1
  P  P21  1  0.34029500  0.96678300  0.36606300  1
  P  P22  1  0.84029500  0.03321700  0.13393700  1
  P  P23  1  0.65970500  0.03321700  0.63393700  1
  O  O24  1  0.47356500  0.48462600  0.30069200  1
  O  O25  1  0.02643500  0.48462600  0.80069200  1
  O  O26  1  0.52643500  0.51537400  0.69930800  1
  O  O27  1  0.97356500  0.51537400  0.19930800  1
  O  O28  1  0.36705300  0.16294000  0.34910800  1
  O  O29  1  0.13294700  0.16294000  0.84910800  1
  O  O30  1  0.63294700  0.83706000  0.65089200  1
  O  O31  1  0.86705300  0.83706000  0.15089200  1
  O  O32  1  0.52506900  0.11367800  0.64825400  1
  O  O33  1  0.97493100  0.11367800  0.14825400  1
  O  O34  1  0.47493100  0.88632200  0.35174600  1
  O  O35  1  0.02506900  0.88632200  0.85174600  1
  O  O36  1  0.32289000  0.41160900  0.60999100  1
  O  O37  1  0.17711000  0.41160900  0.10999100  1
  O  O38  1  0.67711000  0.58839100  0.39000900  1
  O  O39  1  0.82289000  0.58839100  0.89000900  1
  O  O40  1  0.19457100  0.44601900  0.34943800  1
  O  O41  1  0.30542900  0.44601900  0.84943800  1
  O  O42  1  0.80542900  0.55398100  0.65056200  1
  O  O43  1  0.69457100  0.55398100  0.15056200  1
  O  O44  1  0.25447300  0.00633400  0.72009100  1
  O  O45  1  0.24552700  0.00633400  0.22009100  1
  O  O46  1  0.74552700  0.99366600  0.27990900  1
  O  O47  1  0.75447300  0.99366600  0.77990900  1
  O  O48  1  0.43856300  0.67790900  0.92392300  1
  O  O49  1  0.06143700  0.67790900  0.42392300  1
  O  O50  1  0.56143700  0.32209100  0.07607700  1
  O  O51  1  0.93856300  0.32209100  0.57607700  1
  O  O52  1  0.43747500  0.16334300  0.89594500  1
  O  O53  1  0.06252500  0.16334300  0.39594500  1
  O  O54  1  0.56252500  0.83665700  0.10405500  1
  O  O55  1  0.93747500  0.83665700  0.60405500  1
  O  O56  1  0.23751400  0.82133900  0.03173400  1
  O  O57  1  0.26248600  0.82133900  0.53173400  1
  O  O58  1  0.76248600  0.17866100  0.96826600  1
  O  O59  1  0.73751400  0.17866100  0.46826600  1
