# generated using pymatgen
data_CoH2CO3
_symmetry_space_group_name_H-M   'P 1'
_cell_length_a   7.75992918
_cell_length_b   7.75992918
_cell_length_c   7.75992847
_cell_angle_alpha   96.33262928
_cell_angle_beta   96.33262928
_cell_angle_gamma   96.33262722
_symmetry_Int_Tables_number   1
_chemical_formula_structural   CoH2CO3
_chemical_formula_sum   'Co6 H12 C6 O18'
_cell_volume   458.02978317
_cell_formula_units_Z   6
loop_
 _symmetry_equiv_pos_site_id
 _symmetry_equiv_pos_as_xyz
  1  'x, y, z'
loop_
 _atom_site_type_symbol
 _atom_site_label
 _atom_site_symmetry_multiplicity
 _atom_site_fract_x
 _atom_site_fract_y
 _atom_site_fract_z
 _atom_site_occupancy
  Co  Co0  1  0.70385900  0.06891300  0.97748500  1
  Co  Co1  1  0.97748500  0.70385900  0.06891300  1
  Co  Co2  1  0.06891300  0.97748500  0.70385900  1
  Co  Co3  1  0.29614100  0.93108700  0.02251500  1
  Co  Co4  1  0.02251500  0.29614100  0.93108700  1
  Co  Co5  1  0.93108700  0.02251500  0.29614100  1
  H  H6  1  0.68077800  0.79309500  0.10085000  1
  H  H7  1  0.10085000  0.68077800  0.79309500  1
  H  H8  1  0.79309500  0.10085000  0.68077800  1
  H  H9  1  0.31922200  0.20690500  0.89915000  1
  H  H10  1  0.89915000  0.31922200  0.20690500  1
  H  H11  1  0.20690500  0.89915000  0.31922200  1
  H  H12  1  0.53109200  0.84991400  0.59741400  1
  H  H13  1  0.59741400  0.53109200  0.84991400  1
  H  H14  1  0.84991400  0.59741400  0.53109200  1
  H  H15  1  0.46890800  0.15008600  0.40258600  1
  H  H16  1  0.40258600  0.46890800  0.15008600  1
  H  H17  1  0.15008600  0.40258600  0.46890800  1
  C  C18  1  0.42309000  0.88184000  0.67253000  1
  C  C19  1  0.67253000  0.42309000  0.88184000  1
  C  C20  1  0.88184000  0.67253000  0.42309000  1
  C  C21  1  0.57691000  0.11816000  0.32747000  1
  C  C22  1  0.32747000  0.57691000  0.11816000  1
  C  C23  1  0.11816000  0.32747000  0.57691000  1
  O  O24  1  0.46214400  0.91259200  0.83873600  1
  O  O25  1  0.83873600  0.46214400  0.91259200  1
  O  O26  1  0.91259200  0.83873600  0.46214400  1
  O  O27  1  0.53785600  0.08740800  0.16126400  1
  O  O28  1  0.16126400  0.53785600  0.08740800  1
  O  O29  1  0.08740800  0.16126400  0.53785600  1
  O  O30  1  0.27551200  0.88509800  0.58772800  1
  O  O31  1  0.58772800  0.27551200  0.88509800  1
  O  O32  1  0.88509800  0.58772800  0.27551200  1
  O  O33  1  0.72448800  0.11490200  0.41227200  1
  O  O34  1  0.41227200  0.72448800  0.11490200  1
  O  O35  1  0.11490200  0.41227200  0.72448800  1
  O  O36  1  0.78906900  0.85625800  0.07407200  1
  O  O37  1  0.07407200  0.78906900  0.85625800  1
  O  O38  1  0.85625800  0.07407200  0.78906900  1
  O  O39  1  0.21093100  0.14374200  0.92592800  1
  O  O40  1  0.92592800  0.21093100  0.14374200  1
  O  O41  1  0.14374200  0.92592800  0.21093100  1
