# generated using pymatgen
data_Ba4MnIn2(S3F2)2
_symmetry_space_group_name_H-M   'P 1'
_cell_length_a   6.45716300
_cell_length_b   13.24601500
_cell_length_c   19.07975000
_cell_angle_alpha   90.00000000
_cell_angle_beta   90.00000000
_cell_angle_gamma   90.00000000
_symmetry_Int_Tables_number   1
_chemical_formula_structural   Ba4MnIn2(S3F2)2
_chemical_formula_sum   'Ba16 Mn4 In8 S24 F16'
_cell_volume   1631.92303247
_cell_formula_units_Z   4
loop_
 _symmetry_equiv_pos_site_id
 _symmetry_equiv_pos_as_xyz
  1  'x, y, z'
loop_
 _atom_site_type_symbol
 _atom_site_label
 _atom_site_symmetry_multiplicity
 _atom_site_fract_x
 _atom_site_fract_y
 _atom_site_fract_z
 _atom_site_occupancy
  Ba  Ba0  1  0.26067300  0.74844700  0.07481500  1
  Ba  Ba1  1  0.23932700  0.24844700  0.42518500  1
  Ba  Ba2  1  0.73932700  0.25155300  0.57481500  1
  Ba  Ba3  1  0.76067300  0.75155300  0.92518500  1
  Ba  Ba4  1  0.73932700  0.25155300  0.92518500  1
  Ba  Ba5  1  0.76067300  0.75155300  0.57481500  1
  Ba  Ba6  1  0.26067300  0.74844700  0.42518500  1
  Ba  Ba7  1  0.23932700  0.24844700  0.07481500  1
  Ba  Ba8  1  0.75370800  0.00022500  0.07477700  1
  Ba  Ba9  1  0.74629200  0.50022500  0.42522300  1
  Ba  Ba10  1  0.24629200  0.99977500  0.57477700  1
  Ba  Ba11  1  0.25370800  0.49977500  0.92522300  1
  Ba  Ba12  1  0.24629200  0.99977500  0.92522300  1
  Ba  Ba13  1  0.25370800  0.49977500  0.57477700  1
  Ba  Ba14  1  0.75370800  0.00022500  0.42522300  1
  Ba  Ba15  1  0.74629200  0.50022500  0.07477700  1
  Mn  Mn16  1  0.49941500  0.12435000  0.25000000  1
  Mn  Mn17  1  0.00058500  0.62435000  0.25000000  1
  Mn  Mn18  1  0.50058500  0.87565000  0.75000000  1
  Mn  Mn19  1  0.99941500  0.37565000  0.75000000  1
  In  In20  1  0.63446600  0.79393400  0.25000000  1
  In  In21  1  0.86553400  0.29393400  0.25000000  1
  In  In22  1  0.36553400  0.20606600  0.75000000  1
  In  In23  1  0.13446600  0.70606600  0.75000000  1
  In  In24  1  0.13290500  0.95427100  0.25000000  1
  In  In25  1  0.36709500  0.45427100  0.25000000  1
  In  In26  1  0.86709500  0.04572900  0.75000000  1
  In  In27  1  0.63290500  0.54572900  0.75000000  1
  S  S28  1  0.28181800  0.02431300  0.35651800  1
  S  S29  1  0.21818200  0.52431200  0.14348200  1
  S  S30  1  0.71818200  0.97568800  0.85651800  1
  S  S31  1  0.78181800  0.47568700  0.64348200  1
  S  S32  1  0.71818200  0.97568800  0.64348200  1
  S  S33  1  0.78181800  0.47568700  0.85651800  1
  S  S34  1  0.28181800  0.02431300  0.14348200  1
  S  S35  1  0.21818200  0.52431200  0.35651800  1
  S  S36  1  0.78534400  0.72439900  0.14355700  1
  S  S37  1  0.71465600  0.22439900  0.35644300  1
  S  S38  1  0.21465600  0.27560100  0.64355700  1
  S  S39  1  0.28534400  0.77560100  0.85644300  1
  S  S40  1  0.21465600  0.27560100  0.85644300  1
  S  S41  1  0.28534400  0.77560100  0.64355700  1
  S  S42  1  0.78534400  0.72439900  0.35644300  1
  S  S43  1  0.71465600  0.22439900  0.14355700  1
  S  S44  1  0.25095900  0.77344500  0.25000000  1
  S  S45  1  0.24904100  0.27344500  0.25000000  1
  S  S46  1  0.74904100  0.22655500  0.75000000  1
  S  S47  1  0.75095900  0.72655500  0.75000000  1
  S  S48  1  0.74924900  0.97503800  0.25000000  1
  S  S49  1  0.75075100  0.47503800  0.25000000  1
  S  S50  1  0.25075100  0.02496200  0.75000000  1
  S  S51  1  0.24924900  0.52496200  0.75000000  1
  F  F52  1  0.00544500  0.87481300  0.00304800  1
  F  F53  1  0.49455500  0.37481300  0.49695200  1
  F  F54  1  0.99455500  0.12518700  0.50304800  1
  F  F55  1  0.50544500  0.62518700  0.99695200  1
  F  F56  1  0.99455500  0.12518700  0.99695200  1
  F  F57  1  0.50544500  0.62518700  0.50304800  1
  F  F58  1  0.00544500  0.87481300  0.49695200  1
  F  F59  1  0.49455500  0.37481300  0.00304800  1
  F  F60  1  0.00873000  0.62535200  0.99810600  1
  F  F61  1  0.49127000  0.12535200  0.50189400  1
  F  F62  1  0.99127000  0.37464800  0.49810600  1
  F  F63  1  0.50873000  0.87464800  0.00189400  1
  F  F64  1  0.99127000  0.37464800  0.00189400  1
  F  F65  1  0.50873000  0.87464800  0.49810600  1
  F  F66  1  0.00873000  0.62535200  0.50189400  1
  F  F67  1  0.49127000  0.12535200  0.99810600  1
