# generated using pymatgen
data_Yb2(Ni2B)5
_symmetry_space_group_name_H-M   'P 1'
_cell_length_a   8.89324800
_cell_length_b   9.42295700
_cell_length_c   17.38290300
_cell_angle_alpha   90.00000000
_cell_angle_beta   90.00000000
_cell_angle_gamma   90.00000000
_symmetry_Int_Tables_number   1
_chemical_formula_structural   Yb2(Ni2B)5
_chemical_formula_sum   'Yb16 Ni80 B40'
_cell_volume   1456.69932634
_cell_formula_units_Z   8
loop_
 _symmetry_equiv_pos_site_id
 _symmetry_equiv_pos_as_xyz
  1  'x, y, z'
loop_
 _atom_site_type_symbol
 _atom_site_label
 _atom_site_symmetry_multiplicity
 _atom_site_fract_x
 _atom_site_fract_y
 _atom_site_fract_z
 _atom_site_occupancy
  Yb  Yb0  1  0.12372800  0.85853000  0.27818900  1
  Yb  Yb1  1  0.37627200  0.14147000  0.77818900  1
  Yb  Yb2  1  0.62372800  0.64147000  0.72181100  1
  Yb  Yb3  1  0.87627200  0.35853000  0.22181100  1
  Yb  Yb4  1  0.87627200  0.14147000  0.72181100  1
  Yb  Yb5  1  0.62372800  0.85853000  0.22181100  1
  Yb  Yb6  1  0.37627200  0.35853000  0.27818900  1
  Yb  Yb7  1  0.12372800  0.64147000  0.77818900  1
  Yb  Yb8  1  0.21975000  0.88665200  0.48001200  1
  Yb  Yb9  1  0.28025000  0.11334800  0.98001200  1
  Yb  Yb10  1  0.71975000  0.61334800  0.51998800  1
  Yb  Yb11  1  0.78025000  0.38665200  0.01998800  1
  Yb  Yb12  1  0.78025000  0.11334800  0.51998800  1
  Yb  Yb13  1  0.71975000  0.88665200  0.01998800  1
  Yb  Yb14  1  0.28025000  0.38665200  0.48001200  1
  Yb  Yb15  1  0.21975000  0.61334800  0.98001200  1
  Ni  Ni16  1  0.12040400  0.96233300  0.72637700  1
  Ni  Ni17  1  0.37959600  0.03766700  0.22637700  1
  Ni  Ni18  1  0.62040400  0.53766700  0.27362300  1
  Ni  Ni19  1  0.87959600  0.46233300  0.77362300  1
  Ni  Ni20  1  0.87959600  0.03766700  0.27362300  1
  Ni  Ni21  1  0.62040400  0.96233300  0.77362300  1
  Ni  Ni22  1  0.37959600  0.46233300  0.72637700  1
  Ni  Ni23  1  0.12040400  0.53766700  0.22637700  1
  Ni  Ni24  1  0.12700200  0.17625000  0.23678100  1
  Ni  Ni25  1  0.37299800  0.82375000  0.73678100  1
  Ni  Ni26  1  0.62700200  0.32375000  0.76321900  1
  Ni  Ni27  1  0.87299800  0.67625000  0.26321900  1
  Ni  Ni28  1  0.87299800  0.82375000  0.76321900  1
  Ni  Ni29  1  0.62700200  0.17625000  0.26321900  1
  Ni  Ni30  1  0.37299800  0.67625000  0.23678100  1
  Ni  Ni31  1  0.12700200  0.32375000  0.73678100  1
  Ni  Ni32  1  0.07858400  0.88530400  0.01561200  1
  Ni  Ni33  1  0.42141600  0.11469600  0.51561200  1
  Ni  Ni34  1  0.57858400  0.61469600  0.98438800  1
  Ni  Ni35  1  0.92141600  0.38530400  0.48438800  1
  Ni  Ni36  1  0.92141600  0.11469600  0.98438800  1
  Ni  Ni37  1  0.57858400  0.88530400  0.48438800  1
  Ni  Ni38  1  0.42141600  0.38530400  0.01561200  1
  Ni  Ni39  1  0.07858400  0.61469600  0.51561200  1
  Ni  Ni40  1  0.16257400  0.78116800  0.62761600  1
  Ni  Ni41  1  0.33742600  0.21883200  0.12761600  1
  Ni  Ni42  1  0.66257400  0.71883200  0.37238400  1
  Ni  Ni43  1  0.83742600  0.28116800  0.87238400  1
  Ni  Ni44  1  0.83742600  0.21883200  0.37238400  1
  Ni  Ni45  1  0.66257400  0.78116800  0.87238400  1
  Ni  Ni46  1  0.33742600  0.28116800  0.62761600  1
  Ni  Ni47  1  0.16257400  0.71883200  0.12761600  1
  Ni  Ni48  1  0.17809400  0.99393400  0.13110000  1
  Ni  Ni49  1  0.32190600  0.00606600  0.63110000  1
  Ni  Ni50  1  0.67809400  0.50606600  0.86890000  1
  Ni  Ni51  1  0.82190600  0.49393400  0.36890000  1
  Ni  Ni52  1  0.82190600  0.00606600  0.86890000  1
  Ni  Ni53  1  0.67809400  0.99393400  0.36890000  1
  Ni  Ni54  1  0.32190600  0.49393400  0.13110000  1
  Ni  Ni55  1  0.17809400  0.50606600  0.63110000  1
  Ni  Ni56  1  0.23121500  0.89363300  0.86523800  1
  Ni  Ni57  1  0.26878500  0.10636700  0.36523800  1
  Ni  Ni58  1  0.73121500  0.60636700  0.13476200  1
  Ni  Ni59  1  0.76878500  0.39363300  0.63476200  1
  Ni  Ni60  1  0.76878500  0.10636700  0.13476200  1
  Ni  Ni61  1  0.73121500  0.89363300  0.63476200  1
  Ni  Ni62  1  0.26878500  0.39363300  0.86523800  1
  Ni  Ni63  1  0.23121500  0.60636700  0.36523800  1
  Ni  Ni64  1  0.08904100  0.14633800  0.84928200  1
  Ni  Ni65  1  0.41095900  0.85366200  0.34928200  1
  Ni  Ni66  1  0.58904100  0.35366200  0.15071800  1
  Ni  Ni67  1  0.91095900  0.64633800  0.65071800  1
  Ni  Ni68  1  0.91095900  0.85366200  0.15071800  1
  Ni  Ni69  1  0.58904100  0.14633800  0.65071800  1
  Ni  Ni70  1  0.41095900  0.64633800  0.84928200  1
  Ni  Ni71  1  0.08904100  0.35366200  0.34928200  1
  Ni  Ni72  1  0.04164000  0.02163700  0.59560200  1
  Ni  Ni73  1  0.45836000  0.97836300  0.09560200  1
  Ni  Ni74  1  0.54164000  0.47836300  0.40439800  1
  Ni  Ni75  1  0.95836000  0.52163700  0.90439800  1
  Ni  Ni76  1  0.95836000  0.97836300  0.40439800  1
  Ni  Ni77  1  0.54164000  0.02163700  0.90439800  1
  Ni  Ni78  1  0.45836000  0.52163700  0.59560200  1
  Ni  Ni79  1  0.04164000  0.47836300  0.09560200  1
  Ni  Ni80  1  0.04398300  0.21861100  0.09858800  1
  Ni  Ni81  1  0.45601700  0.78138900  0.59858800  1
  Ni  Ni82  1  0.54398300  0.28138900  0.90141200  1
  Ni  Ni83  1  0.95601700  0.71861100  0.40141200  1
  Ni  Ni84  1  0.95601700  0.78138900  0.90141200  1
  Ni  Ni85  1  0.54398300  0.21861100  0.40141200  1
  Ni  Ni86  1  0.45601700  0.71861100  0.09858800  1
  Ni  Ni87  1  0.04398300  0.28138900  0.59858800  1
  Ni  Ni88  1  0.08082500  0.16865900  0.46888700  1
  Ni  Ni89  1  0.41917500  0.83134100  0.96888700  1
  Ni  Ni90  1  0.58082500  0.33134100  0.53111300  1
  Ni  Ni91  1  0.91917500  0.66865900  0.03111300  1
  Ni  Ni92  1  0.91917500  0.83134100  0.53111300  1
  Ni  Ni93  1  0.58082500  0.16865900  0.03111300  1
  Ni  Ni94  1  0.41917500  0.66865900  0.46888700  1
  Ni  Ni95  1  0.08082500  0.33134100  0.96888700  1
  B  B96  1  0.97669100  0.06378100  0.17661400  1
  B  B97  1  0.52330900  0.93621900  0.67661400  1
  B  B98  1  0.47669100  0.43621900  0.82338600  1
  B  B99  1  0.02330900  0.56378100  0.32338600  1
  B  B100  1  0.02330900  0.93621900  0.82338600  1
  B  B101  1  0.47669100  0.06378100  0.32338600  1
  B  B102  1  0.52330900  0.56378100  0.17661400  1
  B  B103  1  0.97669100  0.43621900  0.67661400  1
  B  B104  1  0.16571500  0.14849700  0.66712900  1
  B  B105  1  0.33428500  0.85150300  0.16712900  1
  B  B106  1  0.66571500  0.35150300  0.33287100  1
  B  B107  1  0.83428500  0.64849700  0.83287100  1
  B  B108  1  0.83428500  0.85150300  0.33287100  1
  B  B109  1  0.66571500  0.14849700  0.83287100  1
  B  B110  1  0.33428500  0.64849700  0.66712900  1
  B  B111  1  0.16571500  0.35150300  0.16712900  1
  B  B112  1  0.04680600  0.14245000  0.34485600  1
  B  B113  1  0.45319400  0.85755000  0.84485600  1
  B  B114  1  0.54680600  0.35755000  0.65514400  1
  B  B115  1  0.95319400  0.64245000  0.15514400  1
  B  B116  1  0.95319400  0.85755000  0.65514400  1
  B  B117  1  0.54680600  0.14245000  0.15514400  1
  B  B118  1  0.45319400  0.64245000  0.34485600  1
  B  B119  1  0.04680600  0.35755000  0.84485600  1
  B  B120  1  0.21254100  0.14741900  0.56119100  1
  B  B121  1  0.28745900  0.85258100  0.06119100  1
  B  B122  1  0.71254100  0.35258100  0.43880900  1
  B  B123  1  0.78745900  0.64741900  0.93880900  1
  B  B124  1  0.78745900  0.85258100  0.43880900  1
  B  B125  1  0.71254100  0.14741900  0.93880900  1
  B  B126  1  0.28745900  0.64741900  0.56119100  1
  B  B127  1  0.21254100  0.35258100  0.06119100  1
  B  B128  1  0.03817400  0.98163700  0.91835500  1
  B  B129  1  0.46182600  0.01836300  0.41835500  1
  B  B130  1  0.53817400  0.51836300  0.08164500  1
  B  B131  1  0.96182600  0.48163700  0.58164500  1
  B  B132  1  0.96182600  0.01836300  0.08164500  1
  B  B133  1  0.53817400  0.98163700  0.58164500  1
  B  B134  1  0.46182600  0.48163700  0.91835500  1
  B  B135  1  0.03817400  0.51836300  0.41835500  1
