# generated using pymatgen
data_ZnP14Pb
_symmetry_space_group_name_H-M   'P 1'
_cell_length_a   9.71192500
_cell_length_b   11.98427000
_cell_length_c   14.90336900
_cell_angle_alpha   90.00000000
_cell_angle_beta   90.00000000
_cell_angle_gamma   90.00000000
_symmetry_Int_Tables_number   1
_chemical_formula_structural   ZnP14Pb
_chemical_formula_sum   'Zn4 P56 Pb4'
_cell_volume   1734.60805718
_cell_formula_units_Z   4
loop_
 _symmetry_equiv_pos_site_id
 _symmetry_equiv_pos_as_xyz
  1  'x, y, z'
loop_
 _atom_site_type_symbol
 _atom_site_label
 _atom_site_symmetry_multiplicity
 _atom_site_fract_x
 _atom_site_fract_y
 _atom_site_fract_z
 _atom_site_occupancy
  Zn  Zn0  1  0.25000000  0.83888000  0.88518500  1
  Zn  Zn1  1  0.25000000  0.66112000  0.38518500  1
  Zn  Zn2  1  0.75000000  0.16112000  0.11481500  1
  Zn  Zn3  1  0.75000000  0.33888000  0.61481500  1
  P  P4  1  0.25000000  0.68163600  0.54309800  1
  P  P5  1  0.25000000  0.81836400  0.04309800  1
  P  P6  1  0.75000000  0.31836400  0.45690200  1
  P  P7  1  0.75000000  0.18163600  0.95690200  1
  P  P8  1  0.25000000  0.26260000  0.96514000  1
  P  P9  1  0.25000000  0.23740000  0.46514000  1
  P  P10  1  0.75000000  0.73740000  0.03486000  1
  P  P11  1  0.75000000  0.76260000  0.53486000  1
  P  P12  1  0.25000000  0.12645800  0.58773000  1
  P  P13  1  0.25000000  0.37354200  0.08773000  1
  P  P14  1  0.75000000  0.87354200  0.41227000  1
  P  P15  1  0.75000000  0.62645800  0.91227000  1
  P  P16  1  0.25000000  0.64854600  0.84998800  1
  P  P17  1  0.25000000  0.85145400  0.34998800  1
  P  P18  1  0.75000000  0.35145400  0.15001200  1
  P  P19  1  0.75000000  0.14854600  0.65001200  1
  P  P20  1  0.06678000  0.15594500  0.98283000  1
  P  P21  1  0.43322000  0.34405500  0.48283000  1
  P  P22  1  0.56678000  0.84405500  0.01717000  1
  P  P23  1  0.93322000  0.65594500  0.51717000  1
  P  P24  1  0.93322000  0.84405500  0.01717000  1
  P  P25  1  0.56678000  0.65594500  0.51717000  1
  P  P26  1  0.43322000  0.15594500  0.98283000  1
  P  P27  1  0.06678000  0.34405500  0.48283000  1
  P  P28  1  0.07204500  0.79417500  0.56035400  1
  P  P29  1  0.42795500  0.70582500  0.06035400  1
  P  P30  1  0.57204500  0.20582500  0.43964600  1
  P  P31  1  0.92795500  0.29417500  0.93964600  1
  P  P32  1  0.92795500  0.20582500  0.43964600  1
  P  P33  1  0.57204500  0.29417500  0.93964600  1
  P  P34  1  0.42795500  0.79417500  0.56035400  1
  P  P35  1  0.07204500  0.70582500  0.06035400  1
  P  P36  1  0.07475400  0.59194400  0.93193100  1
  P  P37  1  0.42524600  0.90805600  0.43193100  1
  P  P38  1  0.57475400  0.40805600  0.06806900  1
  P  P39  1  0.92524600  0.09194400  0.56806900  1
  P  P40  1  0.92524600  0.40805600  0.06806900  1
  P  P41  1  0.57475400  0.09194400  0.56806900  1
  P  P42  1  0.42524600  0.59194400  0.93193100  1
  P  P43  1  0.07475400  0.90805600  0.43193100  1
  P  P44  1  0.06570800  0.18031500  0.66364500  1
  P  P45  1  0.43429200  0.31968500  0.16364500  1
  P  P46  1  0.56570800  0.81968500  0.33635500  1
  P  P47  1  0.93429200  0.68031500  0.83635500  1
  P  P48  1  0.93429200  0.81968500  0.33635500  1
  P  P49  1  0.56570800  0.68031500  0.83635500  1
  P  P50  1  0.43429200  0.18031500  0.66364500  1
  P  P51  1  0.06570800  0.31968500  0.16364500  1
  P  P52  1  0.01979700  0.35607100  0.62818200  1
  P  P53  1  0.48020300  0.14392900  0.12818200  1
  P  P54  1  0.51979700  0.64392900  0.37181800  1
  P  P55  1  0.98020300  0.85607100  0.87181800  1
  P  P56  1  0.98020300  0.64392900  0.37181800  1
  P  P57  1  0.51979700  0.85607100  0.87181800  1
  P  P58  1  0.48020300  0.35607100  0.62818200  1
  P  P59  1  0.01979700  0.14392900  0.12818200  1
  Pb  Pb60  1  0.25000000  0.50466300  0.68207500  1
  Pb  Pb61  1  0.25000000  0.99533700  0.18207500  1
  Pb  Pb62  1  0.75000000  0.49533700  0.31792500  1
  Pb  Pb63  1  0.75000000  0.00466300  0.81792500  1
