# generated using pymatgen
data_Ho2Co12Ni5
_symmetry_space_group_name_H-M   'P 1'
_cell_length_a   8.29344024
_cell_length_b   8.29344024
_cell_length_c   8.01834700
_cell_angle_alpha   90.00000000
_cell_angle_beta   90.00000000
_cell_angle_gamma   120.00000190
_symmetry_Int_Tables_number   1
_chemical_formula_structural   Ho2Co12Ni5
_chemical_formula_sum   'Ho4 Co24 Ni10'
_cell_volume   477.62264481
_cell_formula_units_Z   2
loop_
 _symmetry_equiv_pos_site_id
 _symmetry_equiv_pos_as_xyz
  1  'x, y, z'
loop_
 _atom_site_type_symbol
 _atom_site_label
 _atom_site_symmetry_multiplicity
 _atom_site_fract_x
 _atom_site_fract_y
 _atom_site_fract_z
 _atom_site_occupancy
  Ho  Ho0  1  0.00000000  0.00000000  0.25000000  1
  Ho  Ho1  1  0.00000000  0.00000000  0.75000000  1
  Ho  Ho2  1  0.33333300  0.66666700  0.75000000  1
  Ho  Ho3  1  0.66666700  0.33333300  0.25000000  1
  Co  Co4  1  0.32696400  0.37660700  0.25000000  1
  Co  Co5  1  0.62339300  0.95035700  0.25000000  1
  Co  Co6  1  0.04964300  0.67303600  0.25000000  1
  Co  Co7  1  0.62339300  0.67303600  0.25000000  1
  Co  Co8  1  0.04964300  0.37660700  0.25000000  1
  Co  Co9  1  0.32696400  0.95035700  0.25000000  1
  Co  Co10  1  0.67303600  0.62339300  0.75000000  1
  Co  Co11  1  0.37660700  0.04964300  0.75000000  1
  Co  Co12  1  0.95035700  0.32696400  0.75000000  1
  Co  Co13  1  0.37660700  0.32696400  0.75000000  1
  Co  Co14  1  0.95035700  0.62339300  0.75000000  1
  Co  Co15  1  0.67303600  0.04964300  0.75000000  1
  Co  Co16  1  0.16221100  0.83778900  0.52376900  1
  Co  Co17  1  0.16221100  0.32442300  0.52376900  1
  Co  Co18  1  0.67557700  0.83778900  0.52376900  1
  Co  Co19  1  0.83778900  0.16221100  0.47623100  1
  Co  Co20  1  0.83778900  0.67557700  0.47623100  1
  Co  Co21  1  0.32442300  0.16221100  0.47623100  1
  Co  Co22  1  0.83778900  0.16221100  0.02376900  1
  Co  Co23  1  0.83778900  0.67557700  0.02376900  1
  Co  Co24  1  0.32442300  0.16221100  0.02376900  1
  Co  Co25  1  0.16221100  0.83778900  0.97623100  1
  Co  Co26  1  0.16221100  0.32442300  0.97623100  1
  Co  Co27  1  0.67557700  0.83778900  0.97623100  1
  Ni  Ni28  1  0.33333300  0.66666700  0.40090600  1
  Ni  Ni29  1  0.66666700  0.33333300  0.59909400  1
  Ni  Ni30  1  0.66666700  0.33333300  0.90090600  1
  Ni  Ni31  1  0.33333300  0.66666700  0.09909400  1
  Ni  Ni32  1  0.50000000  0.50000000  0.50000000  1
  Ni  Ni33  1  0.50000000  0.00000000  0.50000000  1
  Ni  Ni34  1  0.00000000  0.50000000  0.50000000  1
  Ni  Ni35  1  0.50000000  0.50000000  0.00000000  1
  Ni  Ni36  1  0.50000000  0.00000000  0.00000000  1
  Ni  Ni37  1  0.00000000  0.50000000  0.00000000  1
