# generated using pymatgen
data_Al(SO6)2
_symmetry_space_group_name_H-M   'P 1'
_cell_length_a   5.35960700
_cell_length_b   9.35462900
_cell_length_c   17.75692600
_cell_angle_alpha   90.00000000
_cell_angle_beta   90.00000000
_cell_angle_gamma   90.00000000
_symmetry_Int_Tables_number   1
_chemical_formula_structural   Al(SO6)2
_chemical_formula_sum   'Al4 S8 O48'
_cell_volume   890.28139730
_cell_formula_units_Z   4
loop_
 _symmetry_equiv_pos_site_id
 _symmetry_equiv_pos_as_xyz
  1  'x, y, z'
loop_
 _atom_site_type_symbol
 _atom_site_label
 _atom_site_symmetry_multiplicity
 _atom_site_fract_x
 _atom_site_fract_y
 _atom_site_fract_z
 _atom_site_occupancy
  Al  Al0  1  0.00000000  0.00000000  0.50000000  1
  Al  Al1  1  0.50000000  0.50000000  0.00000000  1
  Al  Al2  1  0.00000000  0.00000000  0.00000000  1
  Al  Al3  1  0.50000000  0.50000000  0.50000000  1
  S  S4  1  0.28950100  0.24093100  0.59149500  1
  S  S5  1  0.21049900  0.74093100  0.90850500  1
  S  S6  1  0.71049900  0.75906900  0.09149500  1
  S  S7  1  0.78950100  0.25906900  0.40850500  1
  S  S8  1  0.71049900  0.75906900  0.40850500  1
  S  S9  1  0.78950100  0.25906900  0.09149500  1
  S  S10  1  0.28950100  0.24093100  0.90850500  1
  S  S11  1  0.21049900  0.74093100  0.59149500  1
  O  O12  1  0.51577400  0.23516000  0.63859000  1
  O  O13  1  0.98422600  0.73516000  0.86141000  1
  O  O14  1  0.48422600  0.76484000  0.13859000  1
  O  O15  1  0.01577400  0.26484000  0.36141000  1
  O  O16  1  0.48422600  0.76484000  0.36141000  1
  O  O17  1  0.01577400  0.26484000  0.13859000  1
  O  O18  1  0.51577400  0.23516000  0.86141000  1
  O  O19  1  0.98422600  0.73516000  0.63859000  1
  O  O20  1  0.23172200  0.09090700  0.56477900  1
  O  O21  1  0.26827800  0.59090700  0.93522100  1
  O  O22  1  0.76827800  0.90909300  0.06477900  1
  O  O23  1  0.73172200  0.40909300  0.43522100  1
  O  O24  1  0.76827800  0.90909300  0.43522100  1
  O  O25  1  0.73172200  0.40909300  0.06477900  1
  O  O26  1  0.23172200  0.09090700  0.93522100  1
  O  O27  1  0.26827800  0.59090700  0.56477900  1
  O  O28  1  0.08175100  0.30049600  0.63456100  1
  O  O29  1  0.41824900  0.80049600  0.86543900  1
  O  O30  1  0.91824900  0.69950400  0.13456100  1
  O  O31  1  0.58175100  0.19950400  0.36543900  1
  O  O32  1  0.91824900  0.69950400  0.36543900  1
  O  O33  1  0.58175100  0.19950400  0.13456100  1
  O  O34  1  0.08175100  0.30049600  0.86543900  1
  O  O35  1  0.41824900  0.80049600  0.63456100  1
  O  O36  1  0.34129800  0.32449200  0.52046400  1
  O  O37  1  0.15870200  0.82449200  0.97953600  1
  O  O38  1  0.65870200  0.67550800  0.02046400  1
  O  O39  1  0.84129800  0.17550800  0.47953600  1
  O  O40  1  0.65870200  0.67550800  0.47953600  1
  O  O41  1  0.84129800  0.17550800  0.02046400  1
  O  O42  1  0.34129800  0.32449200  0.97953600  1
  O  O43  1  0.15870200  0.82449200  0.52046400  1
  O  O44  1  0.79979400  0.98351600  0.58897600  1
  O  O45  1  0.70020600  0.48351600  0.91102400  1
  O  O46  1  0.20020600  0.01648400  0.08897600  1
  O  O47  1  0.29979400  0.51648400  0.41102400  1
  O  O48  1  0.20020600  0.01648400  0.41102400  1
  O  O49  1  0.29979400  0.51648400  0.08897600  1
  O  O50  1  0.79979400  0.98351600  0.91102400  1
  O  O51  1  0.70020600  0.48351600  0.58897600  1
  O  O52  1  0.94407500  0.08124300  0.75000000  1
  O  O53  1  0.55592500  0.58124300  0.75000000  1
  O  O54  1  0.05592500  0.91875700  0.25000000  1
  O  O55  1  0.44407500  0.41875700  0.25000000  1
  O  O56  1  0.57607800  0.45332700  0.75000000  1
  O  O57  1  0.92392200  0.95332700  0.75000000  1
  O  O58  1  0.42392200  0.54667300  0.25000000  1
  O  O59  1  0.07607800  0.04667300  0.25000000  1
