# generated using pymatgen
data_Sm11Hg45
_symmetry_space_group_name_H-M   'P 1'
_cell_length_a   15.69922435
_cell_length_b   15.69922435
_cell_length_c   15.69922435
_cell_angle_alpha   60.00000000
_cell_angle_beta   60.00000000
_cell_angle_gamma   60.00000000
_symmetry_Int_Tables_number   1
_chemical_formula_structural   Sm11Hg45
_chemical_formula_sum   'Sm22 Hg90'
_cell_volume   2736.02202966
_cell_formula_units_Z   2
loop_
 _symmetry_equiv_pos_site_id
 _symmetry_equiv_pos_as_xyz
  1  'x, y, z'
loop_
 _atom_site_type_symbol
 _atom_site_label
 _atom_site_symmetry_multiplicity
 _atom_site_fract_x
 _atom_site_fract_y
 _atom_site_fract_z
 _atom_site_occupancy
  Sm  Sm0  1  0.00000000  0.00000000  0.00000000  1
  Sm  Sm1  1  0.01556000  0.33080400  0.63807600  1
  Sm  Sm2  1  0.01556000  0.01556000  0.63807600  1
  Sm  Sm3  1  0.33080400  0.01556000  0.63807600  1
  Sm  Sm4  1  0.01556000  0.63807600  0.33080400  1
  Sm  Sm5  1  0.33080400  0.63807600  0.01556000  1
  Sm  Sm6  1  0.01556000  0.63807600  0.01556000  1
  Sm  Sm7  1  0.63807600  0.01556000  0.01556000  1
  Sm  Sm8  1  0.63807600  0.33080400  0.01556000  1
  Sm  Sm9  1  0.63807600  0.01556000  0.33080400  1
  Sm  Sm10  1  0.33080400  0.01556000  0.01556000  1
  Sm  Sm11  1  0.01556000  0.01556000  0.33080400  1
  Sm  Sm12  1  0.01556000  0.33080400  0.01556000  1
  Sm  Sm13  1  0.25000000  0.25000000  0.25000000  1
  Sm  Sm14  1  0.40569400  0.40569400  0.78291700  1
  Sm  Sm15  1  0.40569400  0.78291700  0.40569400  1
  Sm  Sm16  1  0.78291700  0.40569400  0.40569400  1
  Sm  Sm17  1  0.40569400  0.40569400  0.40569400  1
  Sm  Sm18  1  0.66244600  0.66244600  0.01266100  1
  Sm  Sm19  1  0.66244600  0.01266100  0.66244600  1
  Sm  Sm20  1  0.01266100  0.66244600  0.66244600  1
  Sm  Sm21  1  0.66244600  0.66244600  0.66244600  1
  Hg  Hg22  1  0.08302000  0.08302000  0.75094100  1
  Hg  Hg23  1  0.08302000  0.75094100  0.08302000  1
  Hg  Hg24  1  0.75094100  0.08302000  0.08302000  1
  Hg  Hg25  1  0.08302000  0.08302000  0.08302000  1
  Hg  Hg26  1  0.91471000  0.91471000  0.25587100  1
  Hg  Hg27  1  0.91471000  0.25587100  0.91471000  1
  Hg  Hg28  1  0.25587100  0.91471000  0.91471000  1
  Hg  Hg29  1  0.91471000  0.91471000  0.91471000  1
  Hg  Hg30  1  0.15250200  0.15250200  0.84749800  1
  Hg  Hg31  1  0.84749800  0.15250200  0.84749800  1
  Hg  Hg32  1  0.15250200  0.84749800  0.84749800  1
  Hg  Hg33  1  0.84749800  0.84749800  0.15250200  1
  Hg  Hg34  1  0.15250200  0.84749800  0.15250200  1
  Hg  Hg35  1  0.84749800  0.15250200  0.15250200  1
  Hg  Hg36  1  0.39213700  0.19952300  0.01620300  1
  Hg  Hg37  1  0.39213700  0.39213700  0.01620300  1
  Hg  Hg38  1  0.19952300  0.39213700  0.01620300  1
  Hg  Hg39  1  0.39213700  0.01620300  0.19952300  1
  Hg  Hg40  1  0.19952300  0.01620300  0.39213700  1
  Hg  Hg41  1  0.39213700  0.01620300  0.39213700  1
  Hg  Hg42  1  0.01620300  0.39213700  0.39213700  1
  Hg  Hg43  1  0.01620300  0.19952300  0.39213700  1
  Hg  Hg44  1  0.01620300  0.39213700  0.19952300  1
  Hg  Hg45  1  0.19952300  0.39213700  0.39213700  1
  Hg  Hg46  1  0.39213700  0.39213700  0.19952300  1
  Hg  Hg47  1  0.39213700  0.19952300  0.39213700  1
  Hg  Hg48  1  0.16179200  0.16179200  0.51462300  1
  Hg  Hg49  1  0.16179200  0.51462300  0.16179200  1
  Hg  Hg50  1  0.51462300  0.16179200  0.16179200  1
  Hg  Hg51  1  0.16179200  0.16179200  0.16179200  1
  Hg  Hg52  1  0.25860700  0.61148800  0.87129800  1
  Hg  Hg53  1  0.25860700  0.25860700  0.87129800  1
  Hg  Hg54  1  0.61148800  0.25860700  0.87129800  1
  Hg  Hg55  1  0.25860700  0.87129800  0.61148800  1
  Hg  Hg56  1  0.61148800  0.87129800  0.25860700  1
  Hg  Hg57  1  0.25860700  0.87129800  0.25860700  1
  Hg  Hg58  1  0.87129800  0.25860700  0.25860700  1
  Hg  Hg59  1  0.87129800  0.61148800  0.25860700  1
  Hg  Hg60  1  0.87129800  0.25860700  0.61148800  1
  Hg  Hg61  1  0.61148800  0.25860700  0.25860700  1
  Hg  Hg62  1  0.25860700  0.25860700  0.61148800  1
  Hg  Hg63  1  0.25860700  0.61148800  0.25860700  1
  Hg  Hg64  1  0.50000000  0.50000000  0.50000000  1
  Hg  Hg65  1  0.64315700  0.44803200  0.26565500  1
  Hg  Hg66  1  0.64315700  0.64315700  0.26565500  1
  Hg  Hg67  1  0.44803200  0.64315700  0.26565500  1
  Hg  Hg68  1  0.64315700  0.26565500  0.44803200  1
  Hg  Hg69  1  0.44803200  0.26565500  0.64315700  1
  Hg  Hg70  1  0.64315700  0.26565500  0.64315700  1
  Hg  Hg71  1  0.26565500  0.64315700  0.64315700  1
  Hg  Hg72  1  0.26565500  0.44803200  0.64315700  1
  Hg  Hg73  1  0.26565500  0.64315700  0.44803200  1
  Hg  Hg74  1  0.44803200  0.64315700  0.64315700  1
  Hg  Hg75  1  0.64315700  0.64315700  0.44803200  1
  Hg  Hg76  1  0.64315700  0.44803200  0.64315700  1
  Hg  Hg77  1  0.51286100  0.83633600  0.13794200  1
  Hg  Hg78  1  0.51286100  0.51286100  0.13794200  1
  Hg  Hg79  1  0.83633600  0.51286100  0.13794200  1
  Hg  Hg80  1  0.51286100  0.13794200  0.83633600  1
  Hg  Hg81  1  0.83633600  0.13794200  0.51286100  1
  Hg  Hg82  1  0.51286100  0.13794200  0.51286100  1
  Hg  Hg83  1  0.13794200  0.51286100  0.51286100  1
  Hg  Hg84  1  0.13794200  0.83633600  0.51286100  1
  Hg  Hg85  1  0.13794200  0.51286100  0.83633600  1
  Hg  Hg86  1  0.83633600  0.51286100  0.51286100  1
  Hg  Hg87  1  0.51286100  0.51286100  0.83633600  1
  Hg  Hg88  1  0.51286100  0.83633600  0.51286100  1
  Hg  Hg89  1  0.75000000  0.75000000  0.75000000  1
  Hg  Hg90  1  0.82711200  0.82711200  0.51866500  1
  Hg  Hg91  1  0.82711200  0.51866500  0.82711200  1
  Hg  Hg92  1  0.51866500  0.82711200  0.82711200  1
  Hg  Hg93  1  0.82711200  0.82711200  0.82711200  1
  Hg  Hg94  1  0.91185100  0.91185100  0.58814900  1
  Hg  Hg95  1  0.58814900  0.91185100  0.58814900  1
  Hg  Hg96  1  0.91185100  0.58814900  0.58814900  1
  Hg  Hg97  1  0.58814900  0.58814900  0.91185100  1
  Hg  Hg98  1  0.91185100  0.58814900  0.91185100  1
  Hg  Hg99  1  0.58814900  0.91185100  0.91185100  1
  Hg  Hg100  1  0.76615900  0.06356300  0.40411900  1
  Hg  Hg101  1  0.76615900  0.76615900  0.40411900  1
  Hg  Hg102  1  0.06356300  0.76615900  0.40411900  1
  Hg  Hg103  1  0.76615900  0.40411900  0.06356300  1
  Hg  Hg104  1  0.06356300  0.40411900  0.76615900  1
  Hg  Hg105  1  0.76615900  0.40411900  0.76615900  1
  Hg  Hg106  1  0.40411900  0.76615900  0.76615900  1
  Hg  Hg107  1  0.40411900  0.06356300  0.76615900  1
  Hg  Hg108  1  0.40411900  0.76615900  0.06356300  1
  Hg  Hg109  1  0.06356300  0.76615900  0.76615900  1
  Hg  Hg110  1  0.76615900  0.76615900  0.06356300  1
  Hg  Hg111  1  0.76615900  0.06356300  0.76615900  1
