# generated using pymatgen
data_SiBH6C2NCl2
_symmetry_space_group_name_H-M   'P 1'
_cell_length_a   11.32943496
_cell_length_b   11.32943496
_cell_length_c   11.32943413
_cell_angle_alpha   105.14619844
_cell_angle_beta   105.14619844
_cell_angle_gamma   105.14619849
_symmetry_Int_Tables_number   1
_chemical_formula_structural   SiBH6C2NCl2
_chemical_formula_sum   'Si6 B6 H36 C12 N6 Cl12'
_cell_volume   1267.34247567
_cell_formula_units_Z   6
loop_
 _symmetry_equiv_pos_site_id
 _symmetry_equiv_pos_as_xyz
  1  'x, y, z'
loop_
 _atom_site_type_symbol
 _atom_site_label
 _atom_site_symmetry_multiplicity
 _atom_site_fract_x
 _atom_site_fract_y
 _atom_site_fract_z
 _atom_site_occupancy
  Si  Si0  1  0.54160500  0.12731900  0.35605200  1
  Si  Si1  1  0.35605200  0.54160500  0.12731900  1
  Si  Si2  1  0.12731900  0.35605200  0.54160500  1
  Si  Si3  1  0.85605200  0.62731900  0.04160500  1
  Si  Si4  1  0.04160500  0.85605200  0.62731900  1
  Si  Si5  1  0.62731900  0.04160500  0.85605200  1
  B  B6  1  0.28418600  0.12140900  0.20995200  1
  B  B7  1  0.20995200  0.28418600  0.12140900  1
  B  B8  1  0.12140900  0.20995200  0.28418600  1
  B  B9  1  0.70995200  0.62140900  0.78418600  1
  B  B10  1  0.78418600  0.70995200  0.62140900  1
  B  B11  1  0.62140900  0.78418600  0.70995200  1
  H  H12  1  0.19511800  0.07215700  0.34173100  1
  H  H13  1  0.34173100  0.19511800  0.07215700  1
  H  H14  1  0.07215700  0.34173100  0.19511800  1
  H  H15  1  0.84173100  0.57215700  0.69511800  1
  H  H16  1  0.69511800  0.84173100  0.57215700  1
  H  H17  1  0.57215700  0.69511800  0.84173100  1
  H  H18  1  0.39812000  0.00645800  0.13239200  1
  H  H19  1  0.13239200  0.39812000  0.00645800  1
  H  H20  1  0.00645800  0.13239200  0.39812000  1
  H  H21  1  0.63239200  0.50645800  0.89812000  1
  H  H22  1  0.89812000  0.63239200  0.50645800  1
  H  H23  1  0.50645800  0.89812000  0.63239200  1
  H  H24  1  0.33336800  0.95113900  0.24270000  1
  H  H25  1  0.24270000  0.33336800  0.95113900  1
  H  H26  1  0.95113900  0.24270000  0.33336800  1
  H  H27  1  0.74270000  0.45113900  0.83336800  1
  H  H28  1  0.83336800  0.74270000  0.45113900  1
  H  H29  1  0.45113900  0.83336800  0.74270000  1
  H  H30  1  0.73888700  0.32146700  0.42914900  1
  H  H31  1  0.42914900  0.73888700  0.32146700  1
  H  H32  1  0.32146700  0.42914900  0.73888700  1
  H  H33  1  0.92914900  0.82146700  0.23888700  1
  H  H34  1  0.23888700  0.92914900  0.82146700  1
  H  H35  1  0.82146700  0.23888700  0.92914900  1
  H  H36  1  0.59703400  0.34770900  0.34378700  1
  H  H37  1  0.34378700  0.59703400  0.34770900  1
  H  H38  1  0.34770900  0.34378700  0.59703400  1
  H  H39  1  0.84378700  0.84770900  0.09703400  1
  H  H40  1  0.09703400  0.84378700  0.84770900  1
  H  H41  1  0.84770900  0.09703400  0.84378700  1
  H  H42  1  0.66961000  0.25280400  0.25500000  1
  H  H43  1  0.25500000  0.66961000  0.25280400  1
  H  H44  1  0.25280400  0.25500000  0.66961000  1
  H  H45  1  0.75500000  0.75280400  0.16961000  1
  H  H46  1  0.16961000  0.75500000  0.75280400  1
  H  H47  1  0.75280400  0.16961000  0.75500000  1
  C  C48  1  0.37816100  0.03941600  0.22333000  1
  C  C49  1  0.22333000  0.37816100  0.03941600  1
  C  C50  1  0.03941600  0.22333000  0.37816100  1
  C  C51  1  0.72333000  0.53941600  0.87816100  1
  C  C52  1  0.87816100  0.72333000  0.53941600  1
  C  C53  1  0.53941600  0.87816100  0.72333000  1
  C  C54  1  0.64697500  0.27667200  0.34498600  1
  C  C55  1  0.34498600  0.64697500  0.27667200  1
  C  C56  1  0.27667200  0.34498600  0.64697500  1
  C  C57  1  0.84498600  0.77667200  0.14697500  1
  C  C58  1  0.14697500  0.84498600  0.77667200  1
  C  C59  1  0.77667200  0.14697500  0.84498600  1
  N  N60  1  0.19812400  0.12679800  0.28326200  1
  N  N61  1  0.28326200  0.19812400  0.12679800  1
  N  N62  1  0.12679800  0.28326200  0.19812400  1
  N  N63  1  0.78326200  0.62679800  0.69812400  1
  N  N64  1  0.69812400  0.78326200  0.62679800  1
  N  N65  1  0.62679800  0.69812400  0.78326200  1
  Cl  Cl66  1  0.64724500  0.00219100  0.36539500  1
  Cl  Cl67  1  0.36539500  0.64724500  0.00219100  1
  Cl  Cl68  1  0.00219100  0.36539500  0.64724500  1
  Cl  Cl69  1  0.86539500  0.50219100  0.14724500  1
  Cl  Cl70  1  0.14724500  0.86539500  0.50219100  1
  Cl  Cl71  1  0.50219100  0.14724500  0.86539500  1
  Cl  Cl72  1  0.51514300  0.17570000  0.53511200  1
  Cl  Cl73  1  0.53511200  0.51514300  0.17570000  1
  Cl  Cl74  1  0.17570000  0.53511200  0.51514300  1
  Cl  Cl75  1  0.03511200  0.67570000  0.01514300  1
  Cl  Cl76  1  0.01514300  0.03511200  0.67570000  1
  Cl  Cl77  1  0.67570000  0.01514300  0.03511200  1
