# generated using pymatgen
data_Cd3H6C2I6(NO)2
_symmetry_space_group_name_H-M   'P 1'
_cell_length_a   14.19799000
_cell_length_b   16.60059900
_cell_length_c   4.31345400
_cell_angle_alpha   90.00000000
_cell_angle_beta   90.00000000
_cell_angle_gamma   90.00000000
_symmetry_Int_Tables_number   1
_chemical_formula_structural   Cd3H6C2I6(NO)2
_chemical_formula_sum   'Cd6 H12 C4 I12 N4 O4'
_cell_volume   1016.66013836
_cell_formula_units_Z   2
loop_
 _symmetry_equiv_pos_site_id
 _symmetry_equiv_pos_as_xyz
  1  'x, y, z'
loop_
 _atom_site_type_symbol
 _atom_site_label
 _atom_site_symmetry_multiplicity
 _atom_site_fract_x
 _atom_site_fract_y
 _atom_site_fract_z
 _atom_site_occupancy
  Cd  Cd0  1  0.73714900  0.11152300  0.10242600  1
  Cd  Cd1  1  0.26285100  0.88847700  0.10242600  1
  Cd  Cd2  1  0.23714900  0.38847700  0.60242600  1
  Cd  Cd3  1  0.76285100  0.61152300  0.60242600  1
  Cd  Cd4  1  0.50000000  0.00000000  0.62511600  1
  Cd  Cd5  1  0.00000000  0.50000000  0.12511600  1
  H  H6  1  0.07781200  0.05432000  0.04782100  1
  H  H7  1  0.92218800  0.94568000  0.04782100  1
  H  H8  1  0.57781200  0.44568000  0.54782100  1
  H  H9  1  0.42218800  0.55432000  0.54782100  1
  H  H10  1  0.10664200  0.15730800  0.02500900  1
  H  H11  1  0.89335800  0.84269200  0.02500900  1
  H  H12  1  0.60664200  0.34269200  0.52500900  1
  H  H13  1  0.39335800  0.65730800  0.52500900  1
  H  H14  1  0.94848300  0.19515200  0.98393000  1
  H  H15  1  0.05151700  0.80484800  0.98393000  1
  H  H16  1  0.44848300  0.30484800  0.48393000  1
  H  H17  1  0.55151700  0.69515200  0.48393000  1
  C  C18  1  0.96562200  0.13069400  0.01515700  1
  C  C19  1  0.03437800  0.86930600  0.01515700  1
  C  C20  1  0.46562200  0.36930600  0.51515700  1
  C  C21  1  0.53437800  0.63069400  0.51515700  1
  I  I22  1  0.52285700  0.12573200  0.12486800  1
  I  I23  1  0.47714300  0.87426800  0.12486800  1
  I  I24  1  0.02285700  0.37426800  0.62486800  1
  I  I25  1  0.97714300  0.62573200  0.62486800  1
  I  I26  1  0.76102100  0.23182900  0.58788900  1
  I  I27  1  0.23897900  0.76817100  0.58788900  1
  I  I28  1  0.26102100  0.26817100  0.08788900  1
  I  I29  1  0.73897900  0.73182900  0.08788900  1
  I  I30  1  0.71276600  0.98195400  0.61509400  1
  I  I31  1  0.28723400  0.01804600  0.61509400  1
  I  I32  1  0.21276600  0.51804600  0.11509400  1
  I  I33  1  0.78723400  0.48195400  0.11509400  1
  N  N34  1  0.05666500  0.11308100  0.02833300  1
  N  N35  1  0.94333500  0.88691900  0.02833300  1
  N  N36  1  0.55666500  0.38691900  0.52833300  1
  N  N37  1  0.44333500  0.61308100  0.52833300  1
  O  O38  1  0.90150100  0.07835900  0.03331400  1
  O  O39  1  0.09849900  0.92164100  0.03331400  1
  O  O40  1  0.40150100  0.42164100  0.53331400  1
  O  O41  1  0.59849900  0.57835900  0.53331400  1
