# generated using pymatgen
data_Mg19Al4Zn15
_symmetry_space_group_name_H-M   'P 1'
_cell_length_a   8.69968819
_cell_length_b   8.69968819
_cell_length_c   19.51676100
_cell_angle_alpha   90.00000000
_cell_angle_beta   90.00000000
_cell_angle_gamma   110.04620960
_symmetry_Int_Tables_number   1
_chemical_formula_structural   Mg19Al4Zn15
_chemical_formula_sum   'Mg38 Al8 Zn30'
_cell_volume   1387.62874924
_cell_formula_units_Z   2
loop_
 _symmetry_equiv_pos_site_id
 _symmetry_equiv_pos_as_xyz
  1  'x, y, z'
loop_
 _atom_site_type_symbol
 _atom_site_label
 _atom_site_symmetry_multiplicity
 _atom_site_fract_x
 _atom_site_fract_y
 _atom_site_fract_z
 _atom_site_occupancy
  Mg  Mg0  1  0.31933400  0.95695000  0.47621600  1
  Mg  Mg1  1  0.04305000  0.68066600  0.52378400  1
  Mg  Mg2  1  0.31933400  0.95695000  0.02378400  1
  Mg  Mg3  1  0.04305000  0.68066600  0.97621600  1
  Mg  Mg4  1  0.68066600  0.04305000  0.52378400  1
  Mg  Mg5  1  0.95695000  0.31933400  0.47621600  1
  Mg  Mg6  1  0.68066600  0.04305000  0.97621600  1
  Mg  Mg7  1  0.95695000  0.31933400  0.02378400  1
  Mg  Mg8  1  0.58053000  0.17862600  0.38136100  1
  Mg  Mg9  1  0.82137400  0.41947000  0.61863900  1
  Mg  Mg10  1  0.58053000  0.17862600  0.11863900  1
  Mg  Mg11  1  0.82137400  0.41947000  0.88136100  1
  Mg  Mg12  1  0.41947000  0.82137400  0.61863900  1
  Mg  Mg13  1  0.17862600  0.58053000  0.38136100  1
  Mg  Mg14  1  0.41947000  0.82137400  0.88136100  1
  Mg  Mg15  1  0.17862600  0.58053000  0.11863900  1
  Mg  Mg16  1  0.64885700  0.02087300  0.25000000  1
  Mg  Mg17  1  0.97912700  0.35114300  0.75000000  1
  Mg  Mg18  1  0.35114300  0.97912700  0.75000000  1
  Mg  Mg19  1  0.02087300  0.64885700  0.25000000  1
  Mg  Mg20  1  0.42411200  0.67684100  0.25000000  1
  Mg  Mg21  1  0.32315900  0.57588800  0.75000000  1
  Mg  Mg22  1  0.57588800  0.32315900  0.75000000  1
  Mg  Mg23  1  0.67684100  0.42411200  0.25000000  1
  Mg  Mg24  1  0.17830600  0.17830600  0.37694700  1
  Mg  Mg25  1  0.82169400  0.82169400  0.62305300  1
  Mg  Mg26  1  0.17830600  0.17830600  0.12305300  1
  Mg  Mg27  1  0.82169400  0.82169400  0.87694700  1
  Mg  Mg28  1  0.28326500  0.28326500  0.97561300  1
  Mg  Mg29  1  0.71673500  0.71673500  0.02438700  1
  Mg  Mg30  1  0.28326500  0.28326500  0.52438700  1
  Mg  Mg31  1  0.71673500  0.71673500  0.47561300  1
  Mg  Mg32  1  0.47908700  0.47908700  0.38123400  1
  Mg  Mg33  1  0.52091300  0.52091300  0.61876600  1
  Mg  Mg34  1  0.47908700  0.47908700  0.11876600  1
  Mg  Mg35  1  0.52091300  0.52091300  0.88123400  1
  Mg  Mg36  1  0.00244800  0.00244800  0.25000000  1
  Mg  Mg37  1  0.99755200  0.99755200  0.75000000  1
  Al  Al38  1  0.29250200  0.91404300  0.32087600  1
  Al  Al39  1  0.08595700  0.70749900  0.67912400  1
  Al  Al40  1  0.29250200  0.91404300  0.17912400  1
  Al  Al41  1  0.08595700  0.70749900  0.82087600  1
  Al  Al42  1  0.70749900  0.08595700  0.67912400  1
  Al  Al43  1  0.91404300  0.29250200  0.32087600  1
  Al  Al44  1  0.70749900  0.08595700  0.82087600  1
  Al  Al45  1  0.91404300  0.29250200  0.17912400  1
  Zn  Zn46  1  0.51206300  0.82635900  0.38797200  1
  Zn  Zn47  1  0.17364100  0.48793700  0.61202800  1
  Zn  Zn48  1  0.51206300  0.82635900  0.11202800  1
  Zn  Zn49  1  0.17364100  0.48793700  0.88797200  1
  Zn  Zn50  1  0.48793700  0.17364100  0.61202800  1
  Zn  Zn51  1  0.82635900  0.51206300  0.38797200  1
  Zn  Zn52  1  0.48793700  0.17364100  0.88797200  1
  Zn  Zn53  1  0.82635900  0.51206300  0.11202800  1
  Zn  Zn54  1  0.82498200  0.01559900  0.38893800  1
  Zn  Zn55  1  0.98440100  0.17501800  0.61106200  1
  Zn  Zn56  1  0.82498200  0.01559900  0.11106200  1
  Zn  Zn57  1  0.98440100  0.17501800  0.88893800  1
  Zn  Zn58  1  0.17501800  0.98440100  0.61106200  1
  Zn  Zn59  1  0.01559900  0.82498200  0.38893800  1
  Zn  Zn60  1  0.17501800  0.98440100  0.88893800  1
  Zn  Zn61  1  0.01559900  0.82498200  0.11106200  1
  Zn  Zn62  1  0.37633900  0.19531700  0.25000000  1
  Zn  Zn63  1  0.80468300  0.62366100  0.75000000  1
  Zn  Zn64  1  0.62366100  0.80468300  0.75000000  1
  Zn  Zn65  1  0.19531700  0.37633900  0.25000000  1
  Zn  Zn66  1  0.26553400  0.26553400  0.81700200  1
  Zn  Zn67  1  0.73446600  0.73446600  0.18299800  1
  Zn  Zn68  1  0.26553400  0.26553400  0.68299800  1
  Zn  Zn69  1  0.73446600  0.73446600  0.31700200  1
  Zn  Zn70  1  0.36860400  0.63139600  0.50000000  1
  Zn  Zn71  1  0.36860400  0.63139600  0.00000000  1
  Zn  Zn72  1  0.63139600  0.36860400  0.50000000  1
  Zn  Zn73  1  0.63139600  0.36860400  0.00000000  1
  Zn  Zn74  1  0.00000000  0.00000000  0.50000000  1
  Zn  Zn75  1  0.00000000  0.00000000  0.00000000  1
