# generated using pymatgen
data_V2Ag6As2O13
_symmetry_space_group_name_H-M   'P 1'
_cell_length_a   9.99941786
_cell_length_b   9.99941786
_cell_length_c   13.20577362
_cell_angle_alpha   67.68493369
_cell_angle_beta   67.68493369
_cell_angle_gamma   31.83763508
_symmetry_Int_Tables_number   1
_chemical_formula_structural   V2Ag6As2O13
_chemical_formula_sum   'V4 Ag12 As4 O26'
_cell_volume   639.94743897
_cell_formula_units_Z   2
loop_
 _symmetry_equiv_pos_site_id
 _symmetry_equiv_pos_as_xyz
  1  'x, y, z'
loop_
 _atom_site_type_symbol
 _atom_site_label
 _atom_site_symmetry_multiplicity
 _atom_site_fract_x
 _atom_site_fract_y
 _atom_site_fract_z
 _atom_site_occupancy
  V  V0  1  0.38225100  0.43500300  0.77473200  1
  V  V1  1  0.56499700  0.61774900  0.72526800  1
  V  V2  1  0.61774900  0.56499700  0.22526800  1
  V  V3  1  0.43500300  0.38225100  0.27473200  1
  Ag  Ag4  1  0.22323200  0.18775300  0.29421700  1
  Ag  Ag5  1  0.81224700  0.77676800  0.20578300  1
  Ag  Ag6  1  0.77676800  0.81224700  0.70578300  1
  Ag  Ag7  1  0.18775300  0.22323200  0.79421700  1
  Ag  Ag8  1  0.19441200  0.20163700  0.54209600  1
  Ag  Ag9  1  0.79836300  0.80558800  0.95790400  1
  Ag  Ag10  1  0.80558800  0.79836300  0.45790400  1
  Ag  Ag11  1  0.20163700  0.19441200  0.04209600  1
  Ag  Ag12  1  0.98173700  0.02648600  0.61080500  1
  Ag  Ag13  1  0.97351400  0.01826300  0.88919500  1
  Ag  Ag14  1  0.01826300  0.97351400  0.38919500  1
  Ag  Ag15  1  0.02648600  0.98173700  0.11080500  1
  As  As16  1  0.37803300  0.37763400  0.04445900  1
  As  As17  1  0.62236600  0.62196700  0.45554100  1
  As  As18  1  0.62196700  0.62236600  0.95554100  1
  As  As19  1  0.37763400  0.37803300  0.54445900  1
  O  O20  1  0.36432000  0.63568000  0.25000000  1
  O  O21  1  0.63568000  0.36432000  0.75000000  1
  O  O22  1  0.32982700  0.52600400  0.12115500  1
  O  O23  1  0.47399600  0.67017300  0.37884500  1
  O  O24  1  0.67017300  0.47399600  0.87884500  1
  O  O25  1  0.52600400  0.32982700  0.62115500  1
  O  O26  1  0.18078100  0.39077500  0.11091900  1
  O  O27  1  0.60922500  0.81921900  0.38908100  1
  O  O28  1  0.81921900  0.60922500  0.88908100  1
  O  O29  1  0.39077500  0.18078100  0.61091900  1
  O  O30  1  0.26378200  0.56608300  0.91904200  1
  O  O31  1  0.43391700  0.73621800  0.58095800  1
  O  O32  1  0.73621800  0.43391700  0.08095800  1
  O  O33  1  0.56608300  0.26378200  0.41904200  1
  O  O34  1  0.07529300  0.72374100  0.74403600  1
  O  O35  1  0.27625900  0.92470700  0.75596400  1
  O  O36  1  0.92470700  0.27625900  0.25596400  1
  O  O37  1  0.72374100  0.07529300  0.24403600  1
  O  O38  1  0.69535600  0.06888100  0.02888300  1
  O  O39  1  0.93111900  0.30464400  0.47111700  1
  O  O40  1  0.30464400  0.93111900  0.97111700  1
  O  O41  1  0.06888100  0.69535600  0.52888300  1
  O  O42  1  0.43679700  0.21153100  0.83748800  1
  O  O43  1  0.78846900  0.56320300  0.66251200  1
  O  O44  1  0.56320300  0.78846900  0.16251200  1
  O  O45  1  0.21153100  0.43679700  0.33748800  1
