# generated using pymatgen
data_Ag2WO4
_symmetry_space_group_name_H-M   'P 1'
_cell_length_a   6.08334100
_cell_length_b   11.39251000
_cell_length_c   11.84215100
_cell_angle_alpha   90.00000000
_cell_angle_beta   90.00000000
_cell_angle_gamma   90.00000000
_symmetry_Int_Tables_number   1
_chemical_formula_structural   Ag2WO4
_chemical_formula_sum   'Ag16 W8 O32'
_cell_volume   820.71462843
_cell_formula_units_Z   8
loop_
 _symmetry_equiv_pos_site_id
 _symmetry_equiv_pos_as_xyz
  1  'x, y, z'
loop_
 _atom_site_type_symbol
 _atom_site_label
 _atom_site_symmetry_multiplicity
 _atom_site_fract_x
 _atom_site_fract_y
 _atom_site_fract_z
 _atom_site_occupancy
  Ag  Ag0  1  0.51214400  0.26772900  0.66492500  1
  Ag  Ag1  1  0.48785600  0.73227100  0.66492500  1
  Ag  Ag2  1  0.01214400  0.23227100  0.16492500  1
  Ag  Ag3  1  0.98785600  0.76772900  0.16492500  1
  Ag  Ag4  1  0.49600100  0.74021200  0.31014500  1
  Ag  Ag5  1  0.50399900  0.25978800  0.31014500  1
  Ag  Ag6  1  0.99600100  0.75978800  0.81014500  1
  Ag  Ag7  1  0.00399900  0.24021200  0.81014500  1
  Ag  Ag8  1  0.50000000  0.50000000  0.48652300  1
  Ag  Ag9  1  0.00000000  0.00000000  0.98652300  1
  Ag  Ag10  1  0.50000000  0.50000000  0.14427700  1
  Ag  Ag11  1  0.00000000  0.00000000  0.64427700  1
  Ag  Ag12  1  0.50000000  0.50000000  0.84149700  1
  Ag  Ag13  1  0.00000000  0.00000000  0.34149700  1
  Ag  Ag14  1  0.00000000  0.50000000  0.99455600  1
  Ag  Ag15  1  0.50000000  0.00000000  0.49455600  1
  W  W16  1  0.96093400  0.74088500  0.48609700  1
  W  W17  1  0.03906600  0.25911500  0.48609700  1
  W  W18  1  0.46093400  0.75911500  0.98609700  1
  W  W19  1  0.53906600  0.24088500  0.98609700  1
  W  W20  1  0.00000000  0.50000000  0.33621800  1
  W  W21  1  0.50000000  0.00000000  0.83621800  1
  W  W22  1  0.00000000  0.50000000  0.63405000  1
  W  W23  1  0.50000000  0.00000000  0.13405000  1
  O  O24  1  0.30197600  0.86647500  0.10765800  1
  O  O25  1  0.69802400  0.13352500  0.10765800  1
  O  O26  1  0.80197600  0.63352500  0.60765800  1
  O  O27  1  0.19802400  0.36647500  0.60765800  1
  O  O28  1  0.31079800  0.86218100  0.86191400  1
  O  O29  1  0.68920200  0.13781900  0.86191400  1
  O  O30  1  0.81079800  0.63781900  0.36191400  1
  O  O31  1  0.18920200  0.36218100  0.36191400  1
  O  O32  1  0.69549700  0.91928200  0.22365200  1
  O  O33  1  0.30450300  0.08071800  0.22365200  1
  O  O34  1  0.19549700  0.58071800  0.72365200  1
  O  O35  1  0.80450300  0.41928200  0.72365200  1
  O  O36  1  0.69746800  0.92347900  0.74584300  1
  O  O37  1  0.30253200  0.07652100  0.74584300  1
  O  O38  1  0.19746800  0.57652100  0.24584300  1
  O  O39  1  0.80253200  0.42347900  0.24584300  1
  O  O40  1  0.26203900  0.62822100  0.99234900  1
  O  O41  1  0.73796100  0.37177900  0.99234900  1
  O  O42  1  0.76203900  0.87177900  0.49234900  1
  O  O43  1  0.23796000  0.12822100  0.49234900  1
  O  O44  1  0.65145000  0.92407500  0.98425800  1
  O  O45  1  0.34855000  0.07592500  0.98425800  1
  O  O46  1  0.15145000  0.57592500  0.48425800  1
  O  O47  1  0.84855000  0.42407500  0.48425800  1
  O  O48  1  0.73774700  0.68073500  0.04000900  1
  O  O49  1  0.26225300  0.31926500  0.04000900  1
  O  O50  1  0.23774700  0.81926500  0.54000900  1
  O  O51  1  0.76225300  0.18073500  0.54000900  1
  O  O52  1  0.72090500  0.66312800  0.90653900  1
  O  O53  1  0.27909500  0.33687200  0.90653900  1
  O  O54  1  0.22090500  0.83687200  0.40653900  1
  O  O55  1  0.77909500  0.16312800  0.40653900  1
