# generated using pymatgen
data_CrPt(NCl)5
_symmetry_space_group_name_H-M   'P 1'
_cell_length_a   7.88209300
_cell_length_b   11.31047200
_cell_length_c   14.34927000
_cell_angle_alpha   90.00000000
_cell_angle_beta   90.00000000
_cell_angle_gamma   90.00000000
_symmetry_Int_Tables_number   1
_chemical_formula_structural   CrPt(NCl)5
_chemical_formula_sum   'Cr4 Pt4 N20 Cl20'
_cell_volume   1279.24017811
_cell_formula_units_Z   4
loop_
 _symmetry_equiv_pos_site_id
 _symmetry_equiv_pos_as_xyz
  1  'x, y, z'
loop_
 _atom_site_type_symbol
 _atom_site_label
 _atom_site_symmetry_multiplicity
 _atom_site_fract_x
 _atom_site_fract_y
 _atom_site_fract_z
 _atom_site_occupancy
  Cr  Cr0  1  0.25000000  0.91708300  0.90743900  1
  Cr  Cr1  1  0.25000000  0.58291700  0.40743900  1
  Cr  Cr2  1  0.75000000  0.08291700  0.09256100  1
  Cr  Cr3  1  0.75000000  0.41708300  0.59256100  1
  Pt  Pt4  1  0.25000000  0.33706000  0.84640900  1
  Pt  Pt5  1  0.25000000  0.16294000  0.34640900  1
  Pt  Pt6  1  0.75000000  0.66294000  0.15359100  1
  Pt  Pt7  1  0.75000000  0.83706000  0.65359100  1
  N  N8  1  0.09878200  0.95097400  0.83717100  1
  N  N9  1  0.40121800  0.54902600  0.33717100  1
  N  N10  1  0.59878200  0.04902600  0.16282900  1
  N  N11  1  0.90121800  0.45097400  0.66282900  1
  N  N12  1  0.90121800  0.04902600  0.16282900  1
  N  N13  1  0.59878200  0.45097400  0.66282900  1
  N  N14  1  0.40121800  0.95097400  0.83717100  1
  N  N15  1  0.09878200  0.54902600  0.33717100  1
  N  N16  1  0.14531000  0.72864000  0.89654900  1
  N  N17  1  0.35469000  0.77136000  0.39654900  1
  N  N18  1  0.64531000  0.27136000  0.10345100  1
  N  N19  1  0.85469000  0.22864000  0.60345100  1
  N  N20  1  0.85469000  0.27136000  0.10345100  1
  N  N21  1  0.64531000  0.22864000  0.60345100  1
  N  N22  1  0.35469000  0.72864000  0.89654900  1
  N  N23  1  0.14531000  0.77136000  0.39654900  1
  N  N24  1  0.25000000  0.65216200  0.86044500  1
  N  N25  1  0.25000000  0.84783800  0.36044500  1
  N  N26  1  0.75000000  0.34783800  0.13955500  1
  N  N27  1  0.75000000  0.15216200  0.63955500  1
  Cl  Cl28  1  0.25000000  0.42519900  0.98743400  1
  Cl  Cl29  1  0.25000000  0.07480100  0.48743400  1
  Cl  Cl30  1  0.75000000  0.57480100  0.01256600  1
  Cl  Cl31  1  0.75000000  0.92519900  0.51256600  1
  Cl  Cl32  1  0.96270700  0.34150800  0.84465100  1
  Cl  Cl33  1  0.53729300  0.15849200  0.34465100  1
  Cl  Cl34  1  0.46270700  0.65849200  0.15534900  1
  Cl  Cl35  1  0.03729300  0.84150800  0.65534900  1
  Cl  Cl36  1  0.03729300  0.65849200  0.15534900  1
  Cl  Cl37  1  0.46270700  0.84150800  0.65534900  1
  Cl  Cl38  1  0.53729300  0.34150800  0.84465100  1
  Cl  Cl39  1  0.96270700  0.15849200  0.34465100  1
  Cl  Cl40  1  0.25000000  0.23078200  0.71340400  1
  Cl  Cl41  1  0.25000000  0.26921800  0.21340400  1
  Cl  Cl42  1  0.75000000  0.76921800  0.28659600  1
  Cl  Cl43  1  0.75000000  0.73078200  0.78659600  1
  Cl  Cl44  1  0.25000000  0.03857700  0.02366300  1
  Cl  Cl45  1  0.25000000  0.46142300  0.52366300  1
  Cl  Cl46  1  0.75000000  0.96142300  0.97633700  1
  Cl  Cl47  1  0.75000000  0.53857700  0.47633700  1
