# generated using pymatgen
data_KB6F6
_symmetry_space_group_name_H-M   'P 1'
_cell_length_a   8.36979153
_cell_length_b   8.36979153
_cell_length_c   11.53401593
_cell_angle_alpha   88.54504347
_cell_angle_beta   88.54504347
_cell_angle_gamma   120.21922670
_symmetry_Int_Tables_number   1
_chemical_formula_structural   KB6F6
_chemical_formula_sum   'K4 B24 F24'
_cell_volume   697.28829953
_cell_formula_units_Z   4
loop_
 _symmetry_equiv_pos_site_id
 _symmetry_equiv_pos_as_xyz
  1  'x, y, z'
loop_
 _atom_site_type_symbol
 _atom_site_label
 _atom_site_symmetry_multiplicity
 _atom_site_fract_x
 _atom_site_fract_y
 _atom_site_fract_z
 _atom_site_occupancy
  K  K0  1  0.33344000  0.66656000  0.25000000  1
  K  K1  1  0.66656000  0.33344000  0.75000000  1
  K  K2  1  0.00000000  0.00000000  0.00000000  1
  K  K3  1  0.00000000  0.00000000  0.50000000  1
  B  B4  1  0.70201300  0.36184700  0.10061700  1
  B  B5  1  0.63815300  0.29798700  0.39938300  1
  B  B6  1  0.29798700  0.63815300  0.89938300  1
  B  B7  1  0.36184700  0.70201300  0.60061700  1
  B  B8  1  0.64099100  0.49934500  0.18856100  1
  B  B9  1  0.50065500  0.35900900  0.31143900  1
  B  B10  1  0.35900900  0.50065500  0.81143900  1
  B  B11  1  0.49934500  0.64099100  0.68856100  1
  B  B12  1  0.86502900  0.52482200  0.19776900  1
  B  B13  1  0.47517800  0.13497100  0.30223100  1
  B  B14  1  0.13497100  0.47517800  0.80223100  1
  B  B15  1  0.52482200  0.86502900  0.69776900  1
  B  B16  1  0.83968800  0.29989000  0.18771700  1
  B  B17  1  0.70011000  0.16031200  0.31228300  1
  B  B18  1  0.16031200  0.70011000  0.81228300  1
  B  B19  1  0.29989000  0.83968800  0.68771700  1
  B  B20  1  0.60044300  0.13605400  0.17277200  1
  B  B21  1  0.86394600  0.39955700  0.32722800  1
  B  B22  1  0.39955700  0.86394600  0.82722800  1
  B  B23  1  0.13605400  0.60044300  0.67277200  1
  B  B24  1  0.47615500  0.25873000  0.17188800  1
  B  B25  1  0.74127000  0.52384500  0.32811200  1
  B  B26  1  0.52384500  0.74127000  0.82811200  1
  B  B27  1  0.25873000  0.47615500  0.67188800  1
  F  F28  1  0.72882300  0.39146700  0.98117100  1
  F  F29  1  0.60853300  0.27117700  0.51882900  1
  F  F30  1  0.27117700  0.60853300  0.01882900  1
  F  F31  1  0.39146700  0.72882300  0.48117100  1
  F  F32  1  0.62267500  0.64473200  0.14112200  1
  F  F33  1  0.35526800  0.37732500  0.35887800  1
  F  F34  1  0.37732500  0.35526800  0.85887800  1
  F  F35  1  0.64473200  0.62267500  0.64112200  1
  F  F36  1  0.02229100  0.69018500  0.15762600  1
  F  F37  1  0.30981500  0.97770900  0.34237400  1
  F  F38  1  0.97770900  0.30981500  0.84237400  1
  F  F39  1  0.69018500  0.02229100  0.65762600  1
  F  F40  1  0.97615500  0.26709300  0.14170200  1
  F  F41  1  0.73290700  0.02384500  0.35829800  1
  F  F42  1  0.02384500  0.73290700  0.85829800  1
  F  F43  1  0.26709300  0.97615500  0.64170200  1
  F  F44  1  0.54851800  0.97425100  0.11442500  1
  F  F45  1  0.02574900  0.45148200  0.38557500  1
  F  F46  1  0.45148200  0.02574900  0.88557500  1
  F  F47  1  0.97425100  0.54851800  0.61442500  1
  F  F48  1  0.31301700  0.19785000  0.11314200  1
  F  F49  1  0.80215000  0.68698300  0.38685800  1
  F  F50  1  0.68698300  0.80215000  0.88685800  1
  F  F51  1  0.19785000  0.31301700  0.61314200  1
