# generated using pymatgen
data_MgB6(H3O4)4
_symmetry_space_group_name_H-M   'P 1'
_cell_length_a   10.54204100
_cell_length_b   10.90630000
_cell_length_c   11.42556560
_cell_angle_alpha   85.10807635
_cell_angle_beta   90.00000000
_cell_angle_gamma   90.00000000
_symmetry_Int_Tables_number   1
_chemical_formula_structural   MgB6(H3O4)4
_chemical_formula_sum   'Mg4 B24 H48 O64'
_cell_volume   1308.86534082
_cell_formula_units_Z   4
loop_
 _symmetry_equiv_pos_site_id
 _symmetry_equiv_pos_as_xyz
  1  'x, y, z'
loop_
 _atom_site_type_symbol
 _atom_site_label
 _atom_site_symmetry_multiplicity
 _atom_site_fract_x
 _atom_site_fract_y
 _atom_site_fract_z
 _atom_site_occupancy
  Mg  Mg0  1  0.00000000  0.00000000  0.00000000  1
  Mg  Mg1  1  0.50000000  0.00000000  0.50000000  1
  Mg  Mg2  1  0.00000000  0.50000000  0.50000000  1
  Mg  Mg3  1  0.50000000  0.50000000  0.00000000  1
  B  B4  1  0.10213000  0.90936000  0.25479500  1
  B  B5  1  0.60213000  0.09064000  0.24520500  1
  B  B6  1  0.89787000  0.09064000  0.74520500  1
  B  B7  1  0.39787000  0.90936000  0.75479500  1
  B  B8  1  0.10475300  0.74643600  0.09965400  1
  B  B9  1  0.60475300  0.25356400  0.40034600  1
  B  B10  1  0.89524700  0.25356400  0.90034600  1
  B  B11  1  0.39524700  0.74643600  0.59965400  1
  B  B12  1  0.88871300  0.80740600  0.19321600  1
  B  B13  1  0.38871300  0.19259400  0.30678400  1
  B  B14  1  0.11128700  0.19259400  0.80678400  1
  B  B15  1  0.61128700  0.80740600  0.69321600  1
  B  B16  1  0.91003500  0.90248900  0.38235300  1
  B  B17  1  0.41003500  0.09751100  0.11764700  1
  B  B18  1  0.08996500  0.09751100  0.61764700  1
  B  B19  1  0.58996500  0.90248900  0.88235300  1
  B  B20  1  0.91593100  0.60415600  0.11521200  1
  B  B21  1  0.41593100  0.39584400  0.38478800  1
  B  B22  1  0.08406900  0.39584400  0.88478800  1
  B  B23  1  0.58406900  0.60415600  0.61521200  1
  B  B24  1  0.29724800  0.79392800  0.20953900  1
  B  B25  1  0.79724800  0.20607200  0.29046100  1
  B  B26  1  0.70275200  0.20607200  0.79046100  1
  B  B27  1  0.20275200  0.79392800  0.70953900  1
  H  H28  1  0.16688500  0.07008200  0.17176100  1
  H  H29  1  0.66688500  0.92991800  0.32823900  1
  H  H30  1  0.83311500  0.92991800  0.82823900  1
  H  H31  1  0.33311500  0.07008200  0.67176100  1
  H  H32  1  0.77878600  0.89846700  0.05704500  1
  H  H33  1  0.27878600  0.10153300  0.44295500  1
  H  H34  1  0.22121400  0.10153300  0.94295500  1
  H  H35  1  0.72121400  0.89846700  0.55704500  1
  H  H36  1  0.18011700  0.84152000  0.94989100  1
  H  H37  1  0.68011700  0.15848000  0.55010900  1
  H  H38  1  0.81988300  0.15848000  0.05010900  1
  H  H39  1  0.31988300  0.84152000  0.44989100  1
  H  H40  1  0.46891700  0.84016700  0.26746800  1
  H  H41  1  0.96891700  0.15983300  0.23253200  1
  H  H42  1  0.53108300  0.15983300  0.73253200  1
  H  H43  1  0.03108300  0.84016700  0.76746800  1
  H  H44  1  0.89824400  0.99213500  0.53268300  1
  H  H45  1  0.39824400  0.00786500  0.96731700  1
  H  H46  1  0.10175600  0.00786500  0.46731700  1
  H  H47  1  0.60175600  0.99213500  0.03268300  1
  H  H48  1  0.90798100  0.44440600  0.03978200  1
  H  H49  1  0.40798100  0.55559400  0.46021800  1
  H  H50  1  0.09201900  0.55559400  0.96021800  1
  H  H51  1  0.59201900  0.44440600  0.53978200  1
  H  H52  1  0.16809300  0.42553200  0.68148200  1
  H  H53  1  0.66809300  0.57446800  0.81851800  1
  H  H54  1  0.83190700  0.57446800  0.31851800  1
  H  H55  1  0.33190700  0.42553200  0.18148200  1
  H  H56  1  0.20074800  0.56280600  0.62836700  1
  H  H57  1  0.70074800  0.43719400  0.87163300  1
  H  H58  1  0.79925200  0.43719400  0.37163300  1
  H  H59  1  0.29925200  0.56280600  0.12836700  1
  H  H60  1  0.02011600  0.29846600  0.37342100  1
  H  H61  1  0.52011600  0.70153400  0.12657900  1
  H  H62  1  0.97988400  0.70153400  0.62657900  1
  H  H63  1  0.47988400  0.29846600  0.87342100  1
  H  H64  1  0.15967800  0.33966300  0.40102700  1
  H  H65  1  0.65967800  0.66033700  0.09897300  1
  H  H66  1  0.84032200  0.66033700  0.59897300  1
  H  H67  1  0.34032200  0.33966300  0.90102700  1
  H  H68  1  0.79136200  0.42077800  0.61663000  1
  H  H69  1  0.29136200  0.57922200  0.88337000  1
  H  H70  1  0.20863800  0.57922200  0.38337000  1
  H  H71  1  0.70863800  0.42077800  0.11663000  1
  H  H72  1  0.89527600  0.31583100  0.65401900  1
  H  H73  1  0.39527600  0.68416900  0.84598100  1
  H  H74  1  0.10472400  0.68416900  0.34598100  1
  H  H75  1  0.60472400  0.31583100  0.15401900  1
  O  O76  1  0.08803200  0.02184500  0.17240300  1
  O  O77  1  0.58803200  0.97815500  0.32759700  1
  O  O78  1  0.91196800  0.97815500  0.82759700  1
  O  O79  1  0.41196800  0.02184500  0.67240300  1
  O  O80  1  0.86528400  0.89436400  0.09169200  1
  O  O81  1  0.36528400  0.10563600  0.40830800  1
  O  O82  1  0.13471600  0.10563600  0.90830800  1
  O  O83  1  0.63471600  0.89436400  0.59169200  1
  O  O84  1  0.10326400  0.83883400  0.99772600  1
  O  O85  1  0.60326400  0.16116600  0.50227400  1
  O  O86  1  0.89673600  0.16116600  0.00227400  1
  O  O87  1  0.39673600  0.83883400  0.49772600  1
  O  O88  1  0.42760200  0.78182200  0.21866700  1
  O  O89  1  0.92760200  0.21817800  0.28133300  1
  O  O90  1  0.57239800  0.21817800  0.78133300  1
  O  O91  1  0.07239800  0.78182200  0.71866700  1
  O  O92  1  0.84900100  0.94236600  0.47882100  1
  O  O93  1  0.34900100  0.05763400  0.02117900  1
  O  O94  1  0.15099900  0.05763400  0.52117900  1
  O  O95  1  0.65099900  0.94236600  0.97882100  1
  O  O96  1  0.86187300  0.49256200  0.09647400  1
  O  O97  1  0.36187300  0.50743800  0.40352600  1
  O  O98  1  0.13812700  0.50743800  0.90352600  1
  O  O99  1  0.63812700  0.49256200  0.59647400  1
  O  O100  1  0.03542500  0.80237600  0.20115000  1
  O  O101  1  0.53542500  0.19762400  0.29885000  1
  O  O102  1  0.96457500  0.19762400  0.79885000  1
  O  O103  1  0.46457500  0.80237600  0.70115000  1
  O  O104  1  0.03860000  0.92429800  0.36698700  1
  O  O105  1  0.53860000  0.07570200  0.13301300  1
  O  O106  1  0.96140000  0.07570200  0.63301300  1
  O  O107  1  0.46140000  0.92429800  0.86698700  1
  O  O108  1  0.23432600  0.87523200  0.27458500  1
  O  O109  1  0.73432600  0.12476800  0.22541500  1
  O  O110  1  0.76567400  0.12476800  0.72541500  1
  O  O111  1  0.26567400  0.87523200  0.77458500  1
  O  O112  1  0.23512400  0.71836900  0.13737200  1
  O  O113  1  0.73512400  0.28163100  0.36262800  1
  O  O114  1  0.76487600  0.28163100  0.86262800  1
  O  O115  1  0.26487600  0.71836900  0.63737200  1
  O  O116  1  0.03636600  0.63425700  0.07541600  1
  O  O117  1  0.53636600  0.36574300  0.42458400  1
  O  O118  1  0.96363400  0.36574300  0.92458400  1
  O  O119  1  0.46363400  0.63425700  0.57541600  1
  O  O120  1  0.84354400  0.68203200  0.17734800  1
  O  O121  1  0.34354400  0.31796800  0.32265200  1
  O  O122  1  0.15645600  0.31796800  0.82265200  1
  O  O123  1  0.65645600  0.68203200  0.67734800  1
  O  O124  1  0.83850600  0.84545900  0.30331800  1
  O  O125  1  0.33850600  0.15454100  0.19668200  1
  O  O126  1  0.16149400  0.15454100  0.69668200  1
  O  O127  1  0.66149400  0.84545900  0.80331800  1
  O  O128  1  0.15393200  0.48686400  0.61464400  1
  O  O129  1  0.65393200  0.51313600  0.88535600  1
  O  O130  1  0.84606800  0.51313600  0.38535600  1
  O  O131  1  0.34606800  0.48686400  0.11464400  1
  O  O132  1  0.87979900  0.39272500  0.60678200  1
  O  O133  1  0.37979900  0.60727500  0.89321800  1
  O  O134  1  0.12020100  0.60727500  0.39321800  1
  O  O135  1  0.62020100  0.39272500  0.10678200  1
  O  O136  1  0.07205900  0.34257100  0.42896500  1
  O  O137  1  0.57205900  0.65742900  0.07103500  1
  O  O138  1  0.92794100  0.65742900  0.57103500  1
  O  O139  1  0.42794100  0.34257100  0.92896500  1
