# generated using pymatgen
data_SmAgS2
_symmetry_space_group_name_H-M   'P 1'
_cell_length_a   7.76333000
_cell_length_b   7.76679100
_cell_length_c   13.12343242
_cell_angle_alpha   89.87664100
_cell_angle_beta   90.00000000
_cell_angle_gamma   90.00000000
_symmetry_Int_Tables_number   1
_chemical_formula_structural   SmAgS2
_chemical_formula_sum   'Sm8 Ag8 S16'
_cell_volume   791.29076739
_cell_formula_units_Z   8
loop_
 _symmetry_equiv_pos_site_id
 _symmetry_equiv_pos_as_xyz
  1  'x, y, z'
loop_
 _atom_site_type_symbol
 _atom_site_label
 _atom_site_symmetry_multiplicity
 _atom_site_fract_x
 _atom_site_fract_y
 _atom_site_fract_z
 _atom_site_occupancy
  Sm  Sm0  1  0.50494300  0.74570200  0.00386100  1
  Sm  Sm1  1  0.00494300  0.25429800  0.99613900  1
  Sm  Sm2  1  0.25701000  0.00300100  0.75316600  1
  Sm  Sm3  1  0.75701000  0.99699900  0.24683400  1
  Sm  Sm4  1  0.74827800  0.50336000  0.74689000  1
  Sm  Sm5  1  0.24827800  0.49664000  0.25311000  1
  Sm  Sm6  1  0.00287200  0.75301000  0.50336000  1
  Sm  Sm7  1  0.50287200  0.24699000  0.49664000  1
  Ag  Ag8  1  0.25059600  0.49840000  0.79851900  1
  Ag  Ag9  1  0.75059600  0.50160000  0.20148100  1
  Ag  Ag10  1  0.75317500  0.99708900  0.68920300  1
  Ag  Ag11  1  0.25317500  0.00291100  0.31079700  1
  Ag  Ag12  1  0.00177800  0.75518100  0.04377100  1
  Ag  Ag13  1  0.50177800  0.24481900  0.95622900  1
  Ag  Ag14  1  0.50078600  0.74141000  0.54149500  1
  Ag  Ag15  1  0.00078600  0.25859000  0.45850500  1
  S  S16  1  0.78358400  0.02993400  0.46266700  1
  S  S17  1  0.28358400  0.97006600  0.53733300  1
  S  S18  1  0.22784700  0.47541300  0.46919800  1
  S  S19  1  0.72784700  0.52458700  0.53080200  1
  S  S20  1  0.52792400  0.72197300  0.21960200  1
  S  S21  1  0.02792400  0.27802700  0.78039800  1
  S  S22  1  0.47255900  0.72192000  0.78876300  1
  S  S23  1  0.97255900  0.27808000  0.21123700  1
  S  S24  1  0.97683400  0.77939800  0.71842600  1
  S  S25  1  0.47683400  0.22060200  0.28157400  1
  S  S26  1  0.53287400  0.22186000  0.71115600  1
  S  S27  1  0.03287400  0.77814000  0.28884400  1
  S  S28  1  0.27894800  0.02343400  0.96851100  1
  S  S29  1  0.77894800  0.97656600  0.03148900  1
  S  S30  1  0.72299300  0.46908300  0.96165500  1
  S  S31  1  0.22299300  0.53091700  0.03834500  1
