# generated using pymatgen
data_Ba3GaSe4Cl
_symmetry_space_group_name_H-M   'P 1'
_cell_length_a   8.89245500
_cell_length_b   10.00763800
_cell_length_c   12.94674500
_cell_angle_alpha   90.00000000
_cell_angle_beta   90.00000000
_cell_angle_gamma   90.00000000
_symmetry_Int_Tables_number   1
_chemical_formula_structural   Ba3GaSe4Cl
_chemical_formula_sum   'Ba12 Ga4 Se16 Cl4'
_cell_volume   1152.16282341
_cell_formula_units_Z   4
loop_
 _symmetry_equiv_pos_site_id
 _symmetry_equiv_pos_as_xyz
  1  'x, y, z'
loop_
 _atom_site_type_symbol
 _atom_site_label
 _atom_site_symmetry_multiplicity
 _atom_site_fract_x
 _atom_site_fract_y
 _atom_site_fract_z
 _atom_site_occupancy
  Ba  Ba0  1  0.58262700  0.75000000  0.00909000  1
  Ba  Ba1  1  0.91737300  0.75000000  0.50909000  1
  Ba  Ba2  1  0.41737300  0.25000000  0.99091000  1
  Ba  Ba3  1  0.08262700  0.25000000  0.49091000  1
  Ba  Ba4  1  0.92281000  0.48029000  0.83010700  1
  Ba  Ba5  1  0.57719000  0.01971000  0.33010700  1
  Ba  Ba6  1  0.07719000  0.98029000  0.16989300  1
  Ba  Ba7  1  0.42281000  0.51971000  0.66989300  1
  Ba  Ba8  1  0.07719000  0.51971000  0.16989300  1
  Ba  Ba9  1  0.42281000  0.98029000  0.66989300  1
  Ba  Ba10  1  0.92281000  0.01971000  0.83010700  1
  Ba  Ba11  1  0.57719000  0.48029000  0.33010700  1
  Ga  Ga12  1  0.18680400  0.75000000  0.89065300  1
  Ga  Ga13  1  0.31319600  0.75000000  0.39065300  1
  Ga  Ga14  1  0.81319600  0.25000000  0.10934700  1
  Ga  Ga15  1  0.68680400  0.25000000  0.60934700  1
  Se  Se16  1  0.68677900  0.45610300  0.07590200  1
  Se  Se17  1  0.81322100  0.04389700  0.57590200  1
  Se  Se18  1  0.31322100  0.95610300  0.92409800  1
  Se  Se19  1  0.18677900  0.54389700  0.42409800  1
  Se  Se20  1  0.31322100  0.54389700  0.92409800  1
  Se  Se21  1  0.18677900  0.95610300  0.42409800  1
  Se  Se22  1  0.68677900  0.04389700  0.07590200  1
  Se  Se23  1  0.81322100  0.45610300  0.57590200  1
  Se  Se24  1  0.36092200  0.75000000  0.20610900  1
  Se  Se25  1  0.13907800  0.75000000  0.70610900  1
  Se  Se26  1  0.63907800  0.25000000  0.79389100  1
  Se  Se27  1  0.86092200  0.25000000  0.29389100  1
  Se  Se28  1  0.95899700  0.75000000  0.99400800  1
  Se  Se29  1  0.54100300  0.75000000  0.49400800  1
  Se  Se30  1  0.04100300  0.25000000  0.00599200  1
  Se  Se31  1  0.45899700  0.25000000  0.50599200  1
  Cl  Cl32  1  0.66133600  0.75000000  0.77120100  1
  Cl  Cl33  1  0.83866400  0.75000000  0.27120100  1
  Cl  Cl34  1  0.33866400  0.25000000  0.22879900  1
  Cl  Cl35  1  0.16133600  0.25000000  0.72879900  1
