# generated using pymatgen
data_VBi2O5
_symmetry_space_group_name_H-M   'P 1'
_cell_length_a   5.45585900
_cell_length_b   15.60310200
_cell_length_c   16.54608700
_cell_angle_alpha   90.00000000
_cell_angle_beta   90.00000000
_cell_angle_gamma   90.00000000
_symmetry_Int_Tables_number   1
_chemical_formula_structural   VBi2O5
_chemical_formula_sum   'V12 Bi24 O60'
_cell_volume   1408.54066292
_cell_formula_units_Z   12
loop_
 _symmetry_equiv_pos_site_id
 _symmetry_equiv_pos_as_xyz
  1  'x, y, z'
loop_
 _atom_site_type_symbol
 _atom_site_label
 _atom_site_symmetry_multiplicity
 _atom_site_fract_x
 _atom_site_fract_y
 _atom_site_fract_z
 _atom_site_occupancy
  V  V0  1  0.24093400  0.01512800  0.75000000  1
  V  V1  1  0.74093400  0.48487200  0.75000000  1
  V  V2  1  0.75906600  0.98487200  0.25000000  1
  V  V3  1  0.25906600  0.51512800  0.25000000  1
  V  V4  1  0.75174400  0.99943800  0.91791300  1
  V  V5  1  0.25174400  0.50056200  0.58208700  1
  V  V6  1  0.24825600  0.00056200  0.41791300  1
  V  V7  1  0.74825600  0.49943800  0.08208700  1
  V  V8  1  0.24825600  0.00056200  0.08208700  1
  V  V9  1  0.74825600  0.49943800  0.41791300  1
  V  V10  1  0.75174400  0.99943800  0.58208700  1
  V  V11  1  0.25174400  0.50056200  0.91791300  1
  Bi  Bi12  1  0.74543100  0.14012700  0.75000000  1
  Bi  Bi13  1  0.24543100  0.35987300  0.75000000  1
  Bi  Bi14  1  0.25456900  0.85987300  0.25000000  1
  Bi  Bi15  1  0.75456900  0.64012700  0.25000000  1
  Bi  Bi16  1  0.74681300  0.83645600  0.75000000  1
  Bi  Bi17  1  0.24681300  0.66354400  0.75000000  1
  Bi  Bi18  1  0.25318700  0.16354400  0.25000000  1
  Bi  Bi19  1  0.75318700  0.33645600  0.25000000  1
  Bi  Bi20  1  0.23641800  0.82742000  0.91048100  1
  Bi  Bi21  1  0.73641800  0.67258000  0.58951900  1
  Bi  Bi22  1  0.76358200  0.17258000  0.41048100  1
  Bi  Bi23  1  0.26358200  0.32742000  0.08951900  1
  Bi  Bi24  1  0.76358200  0.17258000  0.08951900  1
  Bi  Bi25  1  0.26358200  0.32742000  0.41048100  1
  Bi  Bi26  1  0.23641800  0.82742000  0.58951900  1
  Bi  Bi27  1  0.73641800  0.67258000  0.91048100  1
  Bi  Bi28  1  0.26454500  0.16806600  0.91504800  1
  Bi  Bi29  1  0.76454500  0.33193400  0.58495200  1
  Bi  Bi30  1  0.73545500  0.83193400  0.41504800  1
  Bi  Bi31  1  0.23545500  0.66806600  0.08495200  1
  Bi  Bi32  1  0.73545500  0.83193400  0.08495200  1
  Bi  Bi33  1  0.23545500  0.66806600  0.41504800  1
  Bi  Bi34  1  0.26454500  0.16806600  0.58495200  1
  Bi  Bi35  1  0.76454500  0.33193400  0.91504800  1
  O  O36  1  0.21935700  0.90480800  0.75000000  1
  O  O37  1  0.71935700  0.59519200  0.75000000  1
  O  O38  1  0.78064300  0.09519200  0.25000000  1
  O  O39  1  0.28064300  0.40480800  0.25000000  1
  O  O40  1  0.76200500  0.89529500  0.88623300  1
  O  O41  1  0.26200500  0.60470500  0.61376700  1
  O  O42  1  0.23799500  0.10470500  0.38623300  1
  O  O43  1  0.73799500  0.39529500  0.11376700  1
  O  O44  1  0.23799500  0.10470500  0.11376700  1
  O  O45  1  0.73799500  0.39529500  0.38623300  1
  O  O46  1  0.76200500  0.89529500  0.61376700  1
  O  O47  1  0.26200500  0.60470500  0.88623300  1
  O  O48  1  0.49699500  0.05212800  0.83079700  1
  O  O49  1  0.99699500  0.44787200  0.66920300  1
  O  O50  1  0.50300500  0.94787200  0.33079700  1
  O  O51  1  0.00300500  0.55212800  0.16920300  1
  O  O52  1  0.50300500  0.94787200  0.16920300  1
  O  O53  1  0.00300500  0.55212800  0.33079700  1
  O  O54  1  0.49699500  0.05212800  0.66920300  1
  O  O55  1  0.99699500  0.44787200  0.83079700  1
  O  O56  1  0.99986800  0.05497400  0.83452800  1
  O  O57  1  0.49986800  0.44502600  0.66547200  1
  O  O58  1  0.00013200  0.94502600  0.33452800  1
  O  O59  1  0.50013200  0.55497400  0.16547200  1
  O  O60  1  0.00013200  0.94502600  0.16547200  1
  O  O61  1  0.50013200  0.55497400  0.33452800  1
  O  O62  1  0.99986800  0.05497400  0.66547200  1
  O  O63  1  0.49986800  0.44502600  0.83452800  1
  O  O64  1  0.00000000  0.00000000  0.00000000  1
  O  O65  1  0.50000000  0.50000000  0.50000000  1
  O  O66  1  0.00000000  0.00000000  0.50000000  1
  O  O67  1  0.50000000  0.50000000  0.00000000  1
  O  O68  1  0.50000000  0.00000000  0.00000000  1
  O  O69  1  0.00000000  0.50000000  0.50000000  1
  O  O70  1  0.50000000  0.00000000  0.50000000  1
  O  O71  1  0.00000000  0.50000000  0.00000000  1
  O  O72  1  0.00115700  0.74805900  0.98948000  1
  O  O73  1  0.50115700  0.75194100  0.51052000  1
  O  O74  1  0.99884300  0.25194100  0.48948000  1
  O  O75  1  0.49884300  0.24805900  0.01052000  1
  O  O76  1  0.99884300  0.25194100  0.01052000  1
  O  O77  1  0.49884300  0.24805900  0.48948000  1
  O  O78  1  0.00115700  0.74805900  0.51052000  1
  O  O79  1  0.50115700  0.75194100  0.98948000  1
  O  O80  1  0.05654400  0.26573100  0.84778100  1
  O  O81  1  0.55654400  0.23426900  0.65221900  1
  O  O82  1  0.94345600  0.73426900  0.34778100  1
  O  O83  1  0.44345600  0.76573100  0.15221900  1
  O  O84  1  0.94345600  0.73426900  0.15221900  1
  O  O85  1  0.44345600  0.76573100  0.34778100  1
  O  O86  1  0.05654400  0.26573100  0.65221900  1
  O  O87  1  0.55654400  0.23426900  0.84778100  1
  O  O88  1  0.98940900  0.74916200  0.82846500  1
  O  O89  1  0.48940900  0.75083800  0.67153500  1
  O  O90  1  0.01059100  0.25083800  0.32846500  1
  O  O91  1  0.51059100  0.24916200  0.17153500  1
  O  O92  1  0.01059100  0.25083800  0.17153500  1
  O  O93  1  0.51059100  0.24916200  0.32846500  1
  O  O94  1  0.98940900  0.74916200  0.67153500  1
  O  O95  1  0.48940900  0.75083800  0.82846500  1
