# generated using pymatgen
data_Si2Sn2H41C16O3
_symmetry_space_group_name_H-M   'P 1'
_cell_length_a   12.98761293
_cell_length_b   12.98761293
_cell_length_c   18.82271116
_cell_angle_alpha   103.15888506
_cell_angle_beta   103.15888506
_cell_angle_gamma   91.75739374
_symmetry_Int_Tables_number   1
_chemical_formula_structural   Si2Sn2H41C16O3
_chemical_formula_sum   'Si8 Sn8 H164 C64 O12'
_cell_volume   2999.01890542
_cell_formula_units_Z   4
loop_
 _symmetry_equiv_pos_site_id
 _symmetry_equiv_pos_as_xyz
  1  'x, y, z'
loop_
 _atom_site_type_symbol
 _atom_site_label
 _atom_site_symmetry_multiplicity
 _atom_site_fract_x
 _atom_site_fract_y
 _atom_site_fract_z
 _atom_site_occupancy
  Si  Si0  1  0.61170202  0.14538634  0.80831210  1
  Si  Si1  1  0.85461366  0.38829798  0.69168790  1
  Si  Si2  1  0.38829798  0.85461366  0.19168790  1
  Si  Si3  1  0.14538634  0.61170202  0.30831210  1
  Si  Si4  1  0.72092686  0.34275951  0.08877860  1
  Si  Si5  1  0.65724049  0.27907314  0.41122140  1
  Si  Si6  1  0.27907314  0.65724049  0.91122140  1
  Si  Si7  1  0.34275951  0.72092686  0.58877860  1
  Sn  Sn8  1  0.53547935  0.11590784  0.97415613  1
  Sn  Sn9  1  0.88409216  0.46452065  0.52584387  1
  Sn  Sn10  1  0.46452065  0.88409216  0.02584387  1
  Sn  Sn11  1  0.11590784  0.53547935  0.47415613  1
  Sn  Sn12  1  0.30184555  0.14401286  0.99969257  1
  Sn  Sn13  1  0.85598714  0.69815445  0.50030743  1
  Sn  Sn14  1  0.69815445  0.85598714  0.00030743  1
  Sn  Sn15  1  0.14401286  0.30184555  0.49969257  1
  H  H16  1  0.17927682  0.02961473  0.04338435  1
  H  H17  1  0.97038527  0.82072318  0.45661565  1
  H  H18  1  0.82072318  0.97038527  0.95661565  1
  H  H19  1  0.02961473  0.17927682  0.54338435  1
  H  H20  1  0.45697672  0.05169899  0.82734704  1
  H  H21  1  0.94830101  0.54302328  0.67265296  1
  H  H22  1  0.54302328  0.94830101  0.17265296  1
  H  H23  1  0.05169899  0.45697672  0.32734704  1
  H  H24  1  0.57247885  0.98663236  0.85340311  1
  H  H25  1  0.01336764  0.42752115  0.64659689  1
  H  H26  1  0.42752115  0.01336764  0.14659689  1
  H  H27  1  0.98663236  0.57247885  0.35340311  1
  H  H28  1  0.80125332  0.19004819  0.81126241  1
  H  H29  1  0.80995181  0.19874668  0.68873759  1
  H  H30  1  0.19874668  0.80995181  0.18873759  1
  H  H31  1  0.19004819  0.80125332  0.31126241  1
  H  H32  1  0.79238714  0.16608277  0.89908472  1
  H  H33  1  0.83391723  0.20761286  0.60091528  1
  H  H34  1  0.20761286  0.83391723  0.10091528  1
  H  H35  1  0.16608277  0.79238714  0.39908472  1
  H  H36  1  0.78086054  0.05814505  0.81937577  1
  H  H37  1  0.94185495  0.21913946  0.68062423  1
  H  H38  1  0.21913946  0.94185495  0.18062423  1
  H  H39  1  0.05814505  0.78086054  0.31937577  1
  H  H40  1  0.48718252  0.28698856  0.81790340  1
  H  H41  1  0.71301144  0.51281748  0.68209660  1
  H  H42  1  0.51281748  0.71301144  0.18209660  1
  H  H43  1  0.28698856  0.48718252  0.31790340  1
  H  H44  1  0.60941605  0.33220895  0.88387583  1
  H  H45  1  0.66779105  0.39058395  0.61612417  1
  H  H46  1  0.39058395  0.66779105  0.11612417  1
  H  H47  1  0.33220895  0.60941605  0.38387583  1
  H  H48  1  0.59793516  0.32836521  0.78722347  1
  H  H49  1  0.67163479  0.40206484  0.71277653  1
  H  H50  1  0.40206484  0.67163479  0.21277653  1
  H  H51  1  0.32836521  0.59793516  0.28722347  1
  H  H52  1  0.48576481  0.08678517  0.68061892  1
  H  H53  1  0.91321483  0.51423519  0.81938108  1
  H  H54  1  0.51423519  0.91321483  0.31938108  1
  H  H55  1  0.08678517  0.48576481  0.18061892  1
  H  H56  1  0.61345971  0.12928694  0.67324192  1
  H  H57  1  0.87071306  0.38654029  0.82675808  1
  H  H58  1  0.38654029  0.87071306  0.32675808  1
  H  H59  1  0.12928694  0.61345971  0.17324192  1
  H  H60  1  0.59045794  0.00222602  0.69003216  1
  H  H61  1  0.99777398  0.40954206  0.80996784  1
  H  H62  1  0.40954206  0.99777398  0.30996784  1
  H  H63  1  0.00222602  0.59045794  0.19003216  1
  H  H64  1  0.72478800  0.14827048  0.06655864  1
  H  H65  1  0.85172952  0.27521200  0.43344136  1
  H  H66  1  0.27521200  0.85172952  0.93344136  1
  H  H67  1  0.14827048  0.72478800  0.56655864  1
  H  H68  1  0.62949425  0.19456313  0.11735690  1
  H  H69  1  0.80543687  0.37050575  0.38264310  1
  H  H70  1  0.37050575  0.80543687  0.88264310  1
  H  H71  1  0.19456313  0.62949425  0.61735690  1
  H  H72  1  0.77532669  0.35325540  0.96938804  1
  H  H73  1  0.64674460  0.22467331  0.53061196  1
  H  H74  1  0.22467331  0.64674460  0.03061196  1
  H  H75  1  0.35325540  0.77532669  0.46938804  1
  H  H76  1  0.86259826  0.43430341  0.05094324  1
  H  H77  1  0.56569659  0.13740174  0.44905676  1
  H  H78  1  0.13740174  0.56569659  0.94905676  1
  H  H79  1  0.43430341  0.86259826  0.55094324  1
  H  H80  1  0.87193563  0.29515714  0.02802600  1
  H  H81  1  0.70484286  0.12806437  0.47197400  1
  H  H82  1  0.12806437  0.70484286  0.97197400  1
  H  H83  1  0.29515714  0.87193563  0.52802600  1
  H  H84  1  0.55910862  0.43294511  0.11028219  1
  H  H85  1  0.56705489  0.44089138  0.38971781  1
  H  H86  1  0.44089138  0.56705489  0.88971781  1
  H  H87  1  0.43294511  0.55910862  0.61028219  1
  H  H88  1  0.65880353  0.52414138  0.10349153  1
  H  H89  1  0.47585862  0.34119647  0.39650847  1
  H  H90  1  0.34119647  0.47585862  0.89650847  1
  H  H91  1  0.52414138  0.65880353  0.60349153  1
  H  H92  1  0.57883334  0.43735524  0.02083841  1
  H  H93  1  0.56264476  0.42116666  0.47916159  1
  H  H94  1  0.42116666  0.56264476  0.97916159  1
  H  H95  1  0.43735524  0.57883334  0.52083841  1
  H  H96  1  0.85782048  0.31711494  0.20045420  1
  H  H97  1  0.68288506  0.14217952  0.29954580  1
  H  H98  1  0.14217952  0.68288506  0.79954580  1
  H  H99  1  0.31711494  0.85782048  0.70045420  1
  H  H100  1  0.84986034  0.45393094  0.20210149  1
  H  H101  1  0.54606906  0.15013966  0.29789851  1
  H  H102  1  0.15013966  0.54606906  0.79789851  1
  H  H103  1  0.45393094  0.84986034  0.70210149  1
  H  H104  1  0.75173817  0.38414921  0.22970331  1
  H  H105  1  0.61585079  0.24826183  0.27029669  1
  H  H106  1  0.24826183  0.61585079  0.77029669  1
  H  H107  1  0.38414921  0.75173817  0.72970331  1
  H  H108  1  0.17108857  0.30670347  0.16995260  1
  H  H109  1  0.69329653  0.82891143  0.33004740  1
  H  H110  1  0.82891143  0.69329653  0.83004740  1
  H  H111  1  0.30670347  0.17108857  0.66995260  1
  H  H112  1  0.10096704  0.25056047  0.07534081  1
  H  H113  1  0.74943953  0.89903296  0.42465919  1
  H  H114  1  0.89903296  0.74943953  0.92465919  1
  H  H115  1  0.25056047  0.10096704  0.57534081  1
  H  H116  1  0.17019387  0.16894547  0.13107881  1
  H  H117  1  0.83105453  0.82980613  0.36892119  1
  H  H118  1  0.82980613  0.83105453  0.86892119  1
  H  H119  1  0.16894547  0.17019387  0.63107881  1
  H  H120  1  0.37113561  0.33650905  0.20712643  1
  H  H121  1  0.66349095  0.62886439  0.29287357  1
  H  H122  1  0.62886439  0.66349095  0.79287357  1
  H  H123  1  0.33650905  0.37113561  0.70712643  1
  H  H124  1  0.38030971  0.19827610  0.17297297  1
  H  H125  1  0.80172390  0.61969029  0.32702703  1
  H  H126  1  0.61969029  0.80172390  0.82702703  1
  H  H127  1  0.19827610  0.38030971  0.67297297  1
  H  H128  1  0.44620507  0.29232927  0.13922488  1
  H  H129  1  0.70767073  0.55379493  0.36077512  1
  H  H130  1  0.55379493  0.70767073  0.86077512  1
  H  H131  1  0.29232927  0.44620507  0.63922488  1
  H  H132  1  0.33759645  0.39448792  0.04774048  1
  H  H133  1  0.60551208  0.66240355  0.45225952  1
  H  H134  1  0.66240355  0.60551208  0.95225952  1
  H  H135  1  0.39448792  0.33759645  0.54774048  1
  H  H136  1  0.19622454  0.38024411  0.02810219  1
  H  H137  1  0.61975589  0.80377546  0.47189781  1
  H  H138  1  0.80377546  0.61975589  0.97189781  1
  H  H139  1  0.38024411  0.19622454  0.52810219  1
  H  H140  1  0.27070085  0.44311797  0.12002137  1
  H  H141  1  0.55688203  0.72929915  0.37997863  1
  H  H142  1  0.72929915  0.55688203  0.87997863  1
  H  H143  1  0.44311797  0.27070085  0.62002137  1
  H  H144  1  0.15378115  0.02913054  0.76133424  1
  H  H145  1  0.97086946  0.84621885  0.73866576  1
  H  H146  1  0.84621885  0.97086946  0.23866576  1
  H  H147  1  0.02913054  0.15378115  0.26133424  1
  H  H148  1  0.28322978  0.04296827  0.82036557  1
  H  H149  1  0.95703173  0.71677022  0.67963443  1
  H  H150  1  0.71677022  0.95703173  0.17963443  1
  H  H151  1  0.04296827  0.28322978  0.32036557  1
  H  H152  1  0.17745885  0.97037462  0.83969076  1
  H  H153  1  0.02962538  0.82254115  0.66030924  1
  H  H154  1  0.82254115  0.02962538  0.16030924  1
  H  H155  1  0.97037462  0.17745885  0.33969076  1
  H  H156  1  0.15262021  0.24990300  0.79590495  1
  H  H157  1  0.75009700  0.84737979  0.70409505  1
  H  H158  1  0.84737979  0.75009700  0.20409505  1
  H  H159  1  0.24990300  0.15262021  0.29590495  1
  H  H160  1  0.19836707  0.31292608  0.89268205  1
  H  H161  1  0.68707392  0.80163293  0.60731795  1
  H  H162  1  0.80163293  0.68707392  0.10731795  1
  H  H163  1  0.31292608  0.19836707  0.39268205  1
  H  H164  1  0.28777652  0.24360517  0.84398148  1
  H  H165  1  0.75639483  0.71222348  0.65601852  1
  H  H166  1  0.71222348  0.75639483  0.15601852  1
  H  H167  1  0.24360517  0.28777652  0.34398148  1
  H  H168  1  0.04636908  0.06587629  0.90194096  1
  H  H169  1  0.93412371  0.95363092  0.59805904  1
  H  H170  1  0.95363092  0.93412371  0.09805904  1
  H  H171  1  0.06587629  0.04636908  0.40194096  1
  H  H172  1  0.05274000  0.20768386  0.92561691  1
  H  H173  1  0.79231614  0.94726000  0.57438309  1
  H  H174  1  0.94726000  0.79231614  0.07438309  1
  H  H175  1  0.20768386  0.05274000  0.42561691  1
  H  H176  1  0.00211784  0.13741857  0.83120211  1
  H  H177  1  0.86258143  0.99788216  0.66879789  1
  H  H178  1  0.99788216  0.86258143  0.16879789  1
  H  H179  1  0.13741857  0.00211784  0.33120211  1
  C  C180  1  0.17346708  0.24732550  0.11807847  1
  C  C181  1  0.75267450  0.82653292  0.38192153  1
  C  C182  1  0.82653292  0.75267450  0.88192153  1
  C  C183  1  0.24732550  0.17346708  0.61807847  1
  C  C184  1  0.37352821  0.27456773  0.15665247  1
  C  C185  1  0.72543227  0.62647179  0.34334753  1
  C  C186  1  0.62647179  0.72543227  0.84334753  1
  C  C187  1  0.27456773  0.37352821  0.65665247  1
  C  C188  1  0.26961088  0.37796458  0.07051876  1
  C  C189  1  0.62203542  0.73038912  0.42948124  1
  C  C190  1  0.73038912  0.62203542  0.92948124  1
  C  C191  1  0.37796458  0.26961088  0.57051876  1
  C  C192  1  0.19878175  0.04026454  0.82060478  1
  C  C193  1  0.95973546  0.80121825  0.67939522  1
  C  C194  1  0.80121825  0.95973546  0.17939522  1
  C  C195  1  0.04026454  0.19878175  0.32060478  1
  C  C196  1  0.20533825  0.24258849  0.84946461  1
  C  C197  1  0.75741151  0.79466175  0.65053539  1
  C  C198  1  0.79466175  0.75741151  0.15053539  1
  C  C199  1  0.24258849  0.20533825  0.34946461  1
  C  C200  1  0.06276720  0.13768871  0.88321538  1
  C  C201  1  0.86231129  0.93723280  0.61678462  1
  C  C202  1  0.93723280  0.86231129  0.11678462  1
  C  C203  1  0.13768871  0.06276720  0.38321538  1
  C  C204  1  0.54163396  0.06513617  0.85693404  1
  C  C205  1  0.93486383  0.45836604  0.64306596  1
  C  C206  1  0.45836604  0.93486383  0.14306596  1
  C  C207  1  0.06513617  0.54163396  0.35693404  1
  C  C208  1  0.76022534  0.13991844  0.83796249  1
  C  C209  1  0.86008156  0.23977466  0.66203751  1
  C  C210  1  0.23977466  0.86008156  0.16203751  1
  C  C211  1  0.13991844  0.76022534  0.33796249  1
  C  C212  1  0.57375859  0.28635742  0.82614295  1
  C  C213  1  0.71364258  0.42624141  0.67385705  1
  C  C214  1  0.42624141  0.71364258  0.17385705  1
  C  C215  1  0.28635742  0.57375859  0.32614295  1
  C  C216  1  0.57142168  0.08537064  0.70339452  1
  C  C217  1  0.91462936  0.42857832  0.79660548  1
  C  C218  1  0.42857832  0.91462936  0.29660548  1
  C  C219  1  0.08537064  0.57142168  0.20339452  1
  C  C220  1  0.66080409  0.20204067  0.06870266  1
  C  C221  1  0.79795933  0.33919591  0.43129734  1
  C  C222  1  0.33919591  0.79795933  0.93129734  1
  C  C223  1  0.20204067  0.66080409  0.56870266  1
  C  C224  1  0.81578607  0.35683222  0.02805914  1
  C  C225  1  0.64316778  0.18421393  0.47194086  1
  C  C226  1  0.18421393  0.64316778  0.97194086  1
  C  C227  1  0.35683222  0.81578607  0.52805914  1
  C  C228  1  0.61996375  0.44311636  0.07967947  1
  C  C229  1  0.55688364  0.38003625  0.42032053  1
  C  C230  1  0.38003625  0.55688364  0.92032053  1
  C  C231  1  0.44311636  0.61996375  0.57967947  1
  C  C232  1  0.80250148  0.37732669  0.18959831  1
  C  C233  1  0.62267331  0.19749852  0.31040169  1
  C  C234  1  0.19749852  0.62267331  0.81040169  1
  C  C235  1  0.37732669  0.80250148  0.68959831  1
  C  C236  1  0.27415308  0.27244914  0.09389559  1
  C  C237  1  0.72755086  0.72584692  0.40610441  1
  C  C238  1  0.72584692  0.72755086  0.90610441  1
  C  C239  1  0.27244914  0.27415308  0.59389559  1
  C  C240  1  0.16971251  0.14141192  0.86581830  1
  C  C241  1  0.85858808  0.83028749  0.63418170  1
  C  C242  1  0.83028749  0.85858808  0.13418170  1
  C  C243  1  0.14141192  0.16971251  0.36581830  1
  O  O244  1  0.41029816  0.21494431  0.96009313  1
  O  O245  1  0.78505569  0.58970184  0.53990687  1
  O  O246  1  0.58970184  0.78505569  0.03990687  1
  O  O247  1  0.21494431  0.41029816  0.46009313  1
  O  O248  1  0.41920866  0.04376870  0.01323403  1
  O  O249  1  0.95623130  0.58079134  0.48676597  1
  O  O250  1  0.58079134  0.95623130  0.98676597  1
  O  O251  1  0.04376870  0.41920866  0.51323403  1
  O  O252  1  0.19434075  0.01842648  0.99397947  1
  O  O253  1  0.98157352  0.80565925  0.50602053  1
  O  O254  1  0.80565925  0.98157352  0.00602053  1
  O  O255  1  0.01842648  0.19434075  0.49397947  1
