# generated using pymatgen
data_SiO2
_symmetry_space_group_name_H-M   'P 1'
_cell_length_a   14.43627786
_cell_length_b   14.50930019
_cell_length_c   19.18861572
_cell_angle_alpha   90.00000000
_cell_angle_beta   90.00000000
_cell_angle_gamma   90.00000000
_symmetry_Int_Tables_number   1
_chemical_formula_structural   SiO2
_chemical_formula_sum   'Si72 O144'
_cell_volume   4019.25299608
_cell_formula_units_Z   72
loop_
 _symmetry_equiv_pos_site_id
 _symmetry_equiv_pos_as_xyz
  1  'x, y, z'
loop_
 _atom_site_type_symbol
 _atom_site_label
 _atom_site_symmetry_multiplicity
 _atom_site_fract_x
 _atom_site_fract_y
 _atom_site_fract_z
 _atom_site_occupancy
  Si  Si0  1  0.26080637  0.00000000  0.23291960  1
  Si  Si1  1  0.73919363  0.00000000  0.23291960  1
  Si  Si2  1  0.26080637  0.00000000  0.76708040  1
  Si  Si3  1  0.73919363  0.00000000  0.76708040  1
  Si  Si4  1  0.27552979  0.79616442  0.19727261  1
  Si  Si5  1  0.72447021  0.20383558  0.19727261  1
  Si  Si6  1  0.27552979  0.20383558  0.80272739  1
  Si  Si7  1  0.72447021  0.79616442  0.80272739  1
  Si  Si8  1  0.72447021  0.20383558  0.80272739  1
  Si  Si9  1  0.27552979  0.79616442  0.80272739  1
  Si  Si10  1  0.72447021  0.79616442  0.19727261  1
  Si  Si11  1  0.27552979  0.20383558  0.19727261  1
  Si  Si12  1  0.38842318  0.68465475  0.08079099  1
  Si  Si13  1  0.61157682  0.31534525  0.08079099  1
  Si  Si14  1  0.38842318  0.31534525  0.91920901  1
  Si  Si15  1  0.61157682  0.68465475  0.91920901  1
  Si  Si16  1  0.61157682  0.31534525  0.91920901  1
  Si  Si17  1  0.38842318  0.68465475  0.91920901  1
  Si  Si18  1  0.61157682  0.68465475  0.08079099  1
  Si  Si19  1  0.38842318  0.31534525  0.08079099  1
  Si  Si20  1  0.39028729  0.00000000  0.34982875  1
  Si  Si21  1  0.60971271  0.00000000  0.34982875  1
  Si  Si22  1  0.39028729  0.00000000  0.65017125  1
  Si  Si23  1  0.60971271  0.00000000  0.65017125  1
  Si  Si24  1  0.35089923  0.81267165  0.42428751  1
  Si  Si25  1  0.64910077  0.18732835  0.42428751  1
  Si  Si26  1  0.35089923  0.18732835  0.57571249  1
  Si  Si27  1  0.64910077  0.81267165  0.57571249  1
  Si  Si28  1  0.64910077  0.18732835  0.57571249  1
  Si  Si29  1  0.35089923  0.81267165  0.57571249  1
  Si  Si30  1  0.64910077  0.81267165  0.42428751  1
  Si  Si31  1  0.35089923  0.18732835  0.42428751  1
  Si  Si32  1  0.39812410  0.69653291  0.30699209  1
  Si  Si33  1  0.60187590  0.30346709  0.30699209  1
  Si  Si34  1  0.39812410  0.30346709  0.69300791  1
  Si  Si35  1  0.60187590  0.69653291  0.69300791  1
  Si  Si36  1  0.60187590  0.30346709  0.69300791  1
  Si  Si37  1  0.39812410  0.69653291  0.69300791  1
  Si  Si38  1  0.60187590  0.69653291  0.30699209  1
  Si  Si39  1  0.39812410  0.30346709  0.30699209  1
  Si  Si40  1  0.29959905  0.50000000  0.13336906  1
  Si  Si41  1  0.70040095  0.50000000  0.13336906  1
  Si  Si42  1  0.29959905  0.50000000  0.86663094  1
  Si  Si43  1  0.70040095  0.50000000  0.86663094  1
  Si  Si44  1  0.39098333  0.50000000  0.28009330  1
  Si  Si45  1  0.60901667  0.50000000  0.28009330  1
  Si  Si46  1  0.39098333  0.50000000  0.71990670  1
  Si  Si47  1  0.60901667  0.50000000  0.71990670  1
  Si  Si48  1  0.10750834  0.00000000  0.35812969  1
  Si  Si49  1  0.89249166  0.00000000  0.35812969  1
  Si  Si50  1  0.10750834  0.00000000  0.64187031  1
  Si  Si51  1  0.89249166  0.00000000  0.64187031  1
  Si  Si52  1  0.13973271  0.79869683  0.42183550  1
  Si  Si53  1  0.86026729  0.20130317  0.42183550  1
  Si  Si54  1  0.13973271  0.20130317  0.57816450  1
  Si  Si55  1  0.86026729  0.79869683  0.57816450  1
  Si  Si56  1  0.86026729  0.20130317  0.57816450  1
  Si  Si57  1  0.13973271  0.79869683  0.57816450  1
  Si  Si58  1  0.86026729  0.79869683  0.42183550  1
  Si  Si59  1  0.13973271  0.20130317  0.42183550  1
  Si  Si60  1  0.10366363  0.70154039  0.27320769  1
  Si  Si61  1  0.89633637  0.29845961  0.27320769  1
  Si  Si62  1  0.10366363  0.29845961  0.72679231  1
  Si  Si63  1  0.89633637  0.70154039  0.72679231  1
  Si  Si64  1  0.89633637  0.29845961  0.72679231  1
  Si  Si65  1  0.10366363  0.70154039  0.72679231  1
  Si  Si66  1  0.89633637  0.70154039  0.27320769  1
  Si  Si67  1  0.10366363  0.29845961  0.27320769  1
  Si  Si68  1  0.10851458  0.50000000  0.22217479  1
  Si  Si69  1  0.89148542  0.50000000  0.22217479  1
  Si  Si70  1  0.10851458  0.50000000  0.77782521  1
  Si  Si71  1  0.89148542  0.50000000  0.77782521  1
  O  O72  1  0.25588852  0.90610610  0.18621718  1
  O  O73  1  0.74411148  0.09389390  0.18621718  1
  O  O74  1  0.25588852  0.09389390  0.81378282  1
  O  O75  1  0.74411148  0.90610610  0.81378282  1
  O  O76  1  0.74411148  0.09389390  0.81378282  1
  O  O77  1  0.25588852  0.90610610  0.81378282  1
  O  O78  1  0.74411148  0.90610610  0.18621718  1
  O  O79  1  0.25588852  0.09389390  0.18621718  1
  O  O80  1  0.36413248  0.00000000  0.26795067  1
  O  O81  1  0.63586752  0.00000000  0.26795067  1
  O  O82  1  0.36413248  0.00000000  0.73204933  1
  O  O83  1  0.63586752  0.00000000  0.73204933  1
  O  O84  1  0.33143324  0.75917158  0.12874221  1
  O  O85  1  0.66856676  0.24082842  0.12874221  1
  O  O86  1  0.33143324  0.24082842  0.87125779  1
  O  O87  1  0.66856676  0.75917158  0.87125779  1
  O  O88  1  0.66856676  0.24082842  0.87125779  1
  O  O89  1  0.33143324  0.75917158  0.87125779  1
  O  O90  1  0.66856676  0.75917158  0.12874221  1
  O  O91  1  0.33143324  0.24082842  0.12874221  1
  O  O92  1  0.34191378  0.77454591  0.26407554  1
  O  O93  1  0.65808622  0.22545409  0.26407554  1
  O  O94  1  0.34191378  0.22545409  0.73592446  1
  O  O95  1  0.65808622  0.77454591  0.73592446  1
  O  O96  1  0.65808622  0.22545409  0.73592446  1
  O  O97  1  0.34191378  0.77454591  0.73592446  1
  O  O98  1  0.65808622  0.77454591  0.26407554  1
  O  O99  1  0.34191378  0.22545409  0.26407554  1
  O  O100  1  0.38473002  0.71905557  0.00000000  1
  O  O101  1  0.61526998  0.28094443  0.00000000  1
  O  O102  1  0.38473002  0.28094443  0.00000000  1
  O  O103  1  0.61526998  0.71905557  0.00000000  1
  O  O104  1  0.32691516  0.59012118  0.08700017  1
  O  O105  1  0.67308484  0.40987882  0.08700017  1
  O  O106  1  0.32691516  0.40987882  0.91299983  1
  O  O107  1  0.67308484  0.59012118  0.91299983  1
  O  O108  1  0.67308484  0.40987882  0.91299983  1
  O  O109  1  0.32691516  0.59012118  0.91299983  1
  O  O110  1  0.67308484  0.59012118  0.08700017  1
  O  O111  1  0.32691516  0.40987882  0.08700017  1
  O  O112  1  0.50000000  0.00000000  0.36156121  1
  O  O113  1  0.50000000  0.00000000  0.63843879  1
  O  O114  1  0.34500696  0.91012162  0.38491327  1
  O  O115  1  0.65499304  0.08987838  0.38491327  1
  O  O116  1  0.34500696  0.08987838  0.61508673  1
  O  O117  1  0.65499304  0.91012162  0.61508673  1
  O  O118  1  0.65499304  0.08987838  0.61508673  1
  O  O119  1  0.34500696  0.91012162  0.61508673  1
  O  O120  1  0.65499304  0.91012162  0.38491327  1
  O  O121  1  0.34500696  0.08987838  0.38491327  1
  O  O122  1  0.24773865  0.77170683  0.42790273  1
  O  O123  1  0.75226135  0.22829317  0.42790273  1
  O  O124  1  0.24773865  0.22829317  0.57209727  1
  O  O125  1  0.75226135  0.77170683  0.57209727  1
  O  O126  1  0.75226135  0.22829317  0.57209727  1
  O  O127  1  0.24773865  0.77170683  0.57209727  1
  O  O128  1  0.75226135  0.77170683  0.42790273  1
  O  O129  1  0.24773865  0.22829317  0.42790273  1
  O  O130  1  0.41102619  0.73445362  0.38546622  1
  O  O131  1  0.58897381  0.26554638  0.38546622  1
  O  O132  1  0.41102619  0.26554638  0.61453378  1
  O  O133  1  0.58897381  0.73445362  0.61453378  1
  O  O134  1  0.58897381  0.26554638  0.61453378  1
  O  O135  1  0.41102619  0.73445362  0.61453378  1
  O  O136  1  0.58897381  0.73445362  0.38546622  1
  O  O137  1  0.41102619  0.26554638  0.38546622  1
  O  O138  1  0.50000000  0.68597209  0.27120138  1
  O  O139  1  0.50000000  0.31402791  0.27120138  1
  O  O140  1  0.50000000  0.31402791  0.72879862  1
  O  O141  1  0.50000000  0.68597209  0.72879862  1
  O  O142  1  0.50000000  0.50000000  0.30036282  1
  O  O143  1  0.50000000  0.50000000  0.69963718  1
  O  O144  1  0.37385766  0.50000000  0.19710111  1
  O  O145  1  0.62614234  0.50000000  0.19710111  1
  O  O146  1  0.37385766  0.50000000  0.80289889  1
  O  O147  1  0.62614234  0.50000000  0.80289889  1
  O  O148  1  0.34630456  0.59589905  0.30984034  1
  O  O149  1  0.65369544  0.40410095  0.30984034  1
  O  O150  1  0.34630456  0.40410095  0.69015966  1
  O  O151  1  0.65369544  0.59589905  0.69015966  1
  O  O152  1  0.65369544  0.40410095  0.69015966  1
  O  O153  1  0.34630456  0.59589905  0.69015966  1
  O  O154  1  0.65369544  0.59589905  0.30984034  1
  O  O155  1  0.34630456  0.40410095  0.30984034  1
  O  O156  1  0.39609763  0.82976996  0.50000000  1
  O  O157  1  0.60390237  0.17023004  0.50000000  1
  O  O158  1  0.39609763  0.17023004  0.50000000  1
  O  O159  1  0.60390237  0.82976996  0.50000000  1
  O  O160  1  0.50000000  0.67310248  0.10190039  1
  O  O161  1  0.50000000  0.32689752  0.10190039  1
  O  O162  1  0.50000000  0.32689752  0.89809961  1
  O  O163  1  0.50000000  0.67310248  0.89809961  1
  O  O164  1  0.17709411  0.00000000  0.29082061  1
  O  O165  1  0.82290589  0.00000000  0.29082061  1
  O  O166  1  0.17709411  0.00000000  0.70917939  1
  O  O167  1  0.82290589  0.00000000  0.70917939  1
  O  O168  1  0.17636957  0.74843048  0.21796276  1
  O  O169  1  0.82363043  0.25156952  0.21796276  1
  O  O170  1  0.17636957  0.25156952  0.78203724  1
  O  O171  1  0.82363043  0.74843048  0.78203724  1
  O  O172  1  0.82363043  0.25156952  0.78203724  1
  O  O173  1  0.17636957  0.74843048  0.78203724  1
  O  O174  1  0.82363043  0.74843048  0.21796276  1
  O  O175  1  0.17636957  0.25156952  0.21796276  1
  O  O176  1  0.00000000  0.00000000  0.33100242  1
  O  O177  1  0.00000000  0.00000000  0.66899758  1
  O  O178  1  0.12469937  0.90834650  0.40596046  1
  O  O179  1  0.87530063  0.09165350  0.40596046  1
  O  O180  1  0.12469937  0.09165350  0.59403954  1
  O  O181  1  0.87530063  0.90834650  0.59403954  1
  O  O182  1  0.87530063  0.09165350  0.59403954  1
  O  O183  1  0.12469937  0.90834650  0.59403954  1
  O  O184  1  0.87530063  0.90834650  0.40596046  1
  O  O185  1  0.12469937  0.09165350  0.40596046  1
  O  O186  1  0.10460520  0.73907001  0.35416264  1
  O  O187  1  0.89539480  0.26092999  0.35416264  1
  O  O188  1  0.10460520  0.26092999  0.64583736  1
  O  O189  1  0.89539480  0.73907001  0.64583736  1
  O  O190  1  0.89539480  0.26092999  0.64583736  1
  O  O191  1  0.10460520  0.73907001  0.64583736  1
  O  O192  1  0.89539480  0.73907001  0.35416264  1
  O  O193  1  0.10460520  0.26092999  0.35416264  1
  O  O194  1  0.00000000  0.72218233  0.24308226  1
  O  O195  1  0.00000000  0.27781767  0.24308226  1
  O  O196  1  0.00000000  0.27781767  0.75691774  1
  O  O197  1  0.00000000  0.72218233  0.75691774  1
  O  O198  1  0.00000000  0.50000000  0.19234860  1
  O  O199  1  0.00000000  0.50000000  0.80765140  1
  O  O200  1  0.19053836  0.50000000  0.16072365  1
  O  O201  1  0.80946164  0.50000000  0.16072365  1
  O  O202  1  0.19053836  0.50000000  0.83927635  1
  O  O203  1  0.80946164  0.50000000  0.83927635  1
  O  O204  1  0.12281129  0.59040120  0.27197495  1
  O  O205  1  0.87718871  0.40959880  0.27197495  1
  O  O206  1  0.12281129  0.40959880  0.72802505  1
  O  O207  1  0.87718871  0.59040120  0.72802505  1
  O  O208  1  0.87718871  0.40959880  0.72802505  1
  O  O209  1  0.12281129  0.59040120  0.72802505  1
  O  O210  1  0.87718871  0.59040120  0.27197495  1
  O  O211  1  0.12281129  0.40959880  0.27197495  1
  O  O212  1  0.09623741  0.77569746  0.50000000  1
  O  O213  1  0.90376259  0.22430254  0.50000000  1
  O  O214  1  0.09623741  0.22430254  0.50000000  1
  O  O215  1  0.90376259  0.77569746  0.50000000  1
