# generated using pymatgen
data_B2F3
_symmetry_space_group_name_H-M   'P 1'
_cell_length_a   7.50429636
_cell_length_b   25.10894418
_cell_length_c   26.10623810
_cell_angle_alpha   106.73374050
_cell_angle_beta   90.00000000
_cell_angle_gamma   90.00000000
_symmetry_Int_Tables_number   1
_chemical_formula_structural   B2F3
_chemical_formula_sum   'B128 F192'
_cell_volume   4710.75963199
_cell_formula_units_Z   64
loop_
 _symmetry_equiv_pos_site_id
 _symmetry_equiv_pos_as_xyz
  1  'x, y, z'
loop_
 _atom_site_type_symbol
 _atom_site_label
 _atom_site_symmetry_multiplicity
 _atom_site_fract_x
 _atom_site_fract_y
 _atom_site_fract_z
 _atom_site_occupancy
  B  B0  1  0.17621310  0.68574375  0.39314268  1
  B  B1  1  0.17621310  0.31425625  0.10685732  1
  B  B2  1  0.82378690  0.31425625  0.60685732  1
  B  B3  1  0.82378690  0.68574375  0.89314268  1
  B  B4  1  0.39502406  0.66203110  0.36517135  1
  B  B5  1  0.39502406  0.33796890  0.13482865  1
  B  B6  1  0.60497594  0.33796890  0.63482865  1
  B  B7  1  0.60497594  0.66203110  0.86517135  1
  B  B8  1  0.38819273  0.58980843  0.33171192  1
  B  B9  1  0.38819273  0.41019157  0.16828808  1
  B  B10  1  0.61180727  0.41019157  0.66828808  1
  B  B11  1  0.61180727  0.58980843  0.83171192  1
  B  B12  1  0.25620690  0.64538658  0.31416085  1
  B  B13  1  0.25620690  0.35461342  0.18583915  1
  B  B14  1  0.74379310  0.35461342  0.68583915  1
  B  B15  1  0.74379310  0.64538658  0.81416085  1
  B  B16  1  0.49134404  0.63768039  0.41398109  1
  B  B17  1  0.49134404  0.36231961  0.08601891  1
  B  B18  1  0.50865596  0.36231961  0.58601891  1
  B  B19  1  0.50865596  0.63768039  0.91398109  1
  B  B20  1  0.53775611  0.71264386  0.35915723  1
  B  B21  1  0.53775611  0.28735614  0.14084277  1
  B  B22  1  0.46224389  0.28735614  0.64084277  1
  B  B23  1  0.46224389  0.71264386  0.85915723  1
  B  B24  1  0.11702314  0.59133316  0.28187207  1
  B  B25  1  0.11702314  0.40866684  0.21812793  1
  B  B26  1  0.88297686  0.40866684  0.71812793  1
  B  B27  1  0.88297686  0.59133316  0.78187207  1
  B  B28  1  0.23569119  0.69274151  0.27866180  1
  B  B29  1  0.23569119  0.30725849  0.22133820  1
  B  B30  1  0.76430881  0.30725849  0.72133820  1
  B  B31  1  0.76430881  0.69274151  0.77866180  1
  B  B32  1  0.20918448  0.41330903  0.96211459  1
  B  B33  1  0.20918448  0.58669097  0.53788541  1
  B  B34  1  0.79081552  0.58669097  0.03788541  1
  B  B35  1  0.79081552  0.41330903  0.46211459  1
  B  B36  1  0.22794025  0.40699841  0.89165473  1
  B  B37  1  0.22794025  0.59300159  0.60834527  1
  B  B38  1  0.77205975  0.59300159  0.10834527  1
  B  B39  1  0.77205975  0.40699841  0.39165473  1
  B  B40  1  0.41440648  0.44089007  0.87517572  1
  B  B41  1  0.41440648  0.55910993  0.62482428  1
  B  B42  1  0.58559352  0.55910993  0.12482428  1
  B  B43  1  0.58559352  0.44089007  0.37517572  1
  B  B44  1  0.41633704  0.37971661  0.90598103  1
  B  B45  1  0.41633704  0.62028339  0.59401897  1
  B  B46  1  0.58366296  0.62028339  0.09401897  1
  B  B47  1  0.58366296  0.37971661  0.40598103  1
  B  B48  1  0.13068181  0.46975885  0.89137921  1
  B  B49  1  0.13068181  0.53024115  0.60862079  1
  B  B50  1  0.86931819  0.53024115  0.10862079  1
  B  B51  1  0.86931819  0.46975885  0.39137921  1
  B  B52  1  0.09818032  0.35718234  0.85029251  1
  B  B53  1  0.09818032  0.64281766  0.64970749  1
  B  B54  1  0.90181968  0.64281766  0.14970749  1
  B  B55  1  0.90181968  0.35718234  0.35029251  1
  B  B56  1  0.62419126  0.40336814  0.92985474  1
  B  B57  1  0.62419126  0.59663186  0.57014526  1
  B  B58  1  0.37580874  0.59663186  0.07014526  1
  B  B59  1  0.37580874  0.40336814  0.42985474  1
  B  B60  1  0.41234048  0.30873765  0.89279844  1
  B  B61  1  0.41234048  0.69126235  0.60720156  1
  B  B62  1  0.58765952  0.69126235  0.10720156  1
  B  B63  1  0.58765952  0.30873765  0.39279844  1
  B  B64  1  0.09269477  0.86365408  0.04362979  1
  B  B65  1  0.09269477  0.13634592  0.45637021  1
  B  B66  1  0.90730523  0.13634592  0.95637021  1
  B  B67  1  0.90730523  0.86365408  0.54362979  1
  B  B68  1  0.31516807  0.85142907  0.06767545  1
  B  B69  1  0.31516807  0.14857093  0.43232455  1
  B  B70  1  0.68483193  0.14857093  0.93232455  1
  B  B71  1  0.68483193  0.85142907  0.56767545  1
  B  B72  1  0.31847733  0.86784369  0.13883883  1
  B  B73  1  0.31847733  0.13215631  0.36116117  1
  B  B74  1  0.68152267  0.13215631  0.86116117  1
  B  B75  1  0.68152267  0.86784369  0.63883883  1
  B  B76  1  0.17097431  0.81542487  0.09214072  1
  B  B77  1  0.17097431  0.18457513  0.40785928  1
  B  B78  1  0.82902569  0.18457513  0.90785928  1
  B  B79  1  0.82902569  0.81542487  0.59214072  1
  B  B80  1  0.41286700  0.91679678  0.08287758  1
  B  B81  1  0.41286700  0.08320322  0.41712242  1
  B  B82  1  0.58713300  0.08320322  0.91712242  1
  B  B83  1  0.58713300  0.91679678  0.58287758  1
  B  B84  1  0.45095098  0.80994055  0.01979623  1
  B  B85  1  0.45095098  0.19005945  0.48020377  1
  B  B86  1  0.54904902  0.19005945  0.98020377  1
  B  B87  1  0.54904902  0.80994055  0.51979623  1
  B  B88  1  0.02532887  0.82477005  0.14517172  1
  B  B89  1  0.02532887  0.17522995  0.35482828  1
  B  B90  1  0.97467113  0.17522995  0.85482828  1
  B  B91  1  0.97467113  0.82477005  0.64517172  1
  B  B92  1  0.14776941  0.74741330  0.05568342  1
  B  B93  1  0.14776941  0.25258670  0.44431658  1
  B  B94  1  0.85223059  0.25258670  0.94431658  1
  B  B95  1  0.85223059  0.74741330  0.55568342  1
  B  B96  1  0.15046506  0.85817515  0.84761425  1
  B  B97  1  0.15046506  0.14182485  0.65238575  1
  B  B98  1  0.84953494  0.14182485  0.15238575  1
  B  B99  1  0.84953494  0.85817515  0.34761425  1
  B  B100  1  0.36533912  0.89095511  0.84896055  1
  B  B101  1  0.36533912  0.10904489  0.65103945  1
  B  B102  1  0.63466088  0.10904489  0.15103945  1
  B  B103  1  0.63466088  0.89095511  0.34896055  1
  B  B104  1  0.37779470  0.93228716  0.80510484  1
  B  B105  1  0.37779470  0.06771284  0.69489516  1
  B  B106  1  0.62220530  0.06771284  0.19489516  1
  B  B107  1  0.62220530  0.93228716  0.30510484  1
  B  B108  1  0.22419703  0.94403825  0.86737560  1
  B  B109  1  0.22419703  0.05596175  0.63262440  1
  B  B110  1  0.77580297  0.05596175  0.13262440  1
  B  B111  1  0.77580297  0.94403825  0.36737560  1
  B  B112  1  0.45796676  0.84374863  0.79320912  1
  B  B113  1  0.45796676  0.15625137  0.70679088  1
  B  B114  1  0.54203324  0.15625137  0.20679088  1
  B  B115  1  0.54203324  0.84374863  0.29320912  1
  B  B116  1  0.50319586  0.88843282  0.90016628  1
  B  B117  1  0.50319586  0.11156718  0.59983372  1
  B  B118  1  0.49680414  0.11156718  0.09983372  1
  B  B119  1  0.49680414  0.88843282  0.40016628  1
  B  B120  1  0.08435467  0.97966479  0.83614579  1
  B  B121  1  0.08435467  0.02033521  0.66385421  1
  B  B122  1  0.91564533  0.02033521  0.16385421  1
  B  B123  1  0.91564533  0.97966479  0.33614579  1
  B  B124  1  0.19504613  0.96818772  0.93528763  1
  B  B125  1  0.19504613  0.03181228  0.56471237  1
  B  B126  1  0.80495387  0.03181228  0.06471237  1
  B  B127  1  0.80495387  0.96818772  0.43528763  1
  F  F128  1  0.06311510  0.65287079  0.40828522  1
  F  F129  1  0.06311510  0.34712921  0.09171478  1
  F  F130  1  0.93688490  0.34712921  0.59171478  1
  F  F131  1  0.93688490  0.65287079  0.90828522  1
  F  F132  1  0.15145658  0.74026184  0.40915428  1
  F  F133  1  0.15145658  0.25973816  0.09084572  1
  F  F134  1  0.84854342  0.25973816  0.59084572  1
  F  F135  1  0.84854342  0.74026184  0.90915428  1
  F  F136  1  0.29663411  0.55426941  0.35273632  1
  F  F137  1  0.29663411  0.44573059  0.14726368  1
  F  F138  1  0.70336589  0.44573059  0.64726368  1
  F  F139  1  0.70336589  0.55426941  0.85273632  1
  F  F140  1  0.52003871  0.56829814  0.29709803  1
  F  F141  1  0.52003871  0.43170186  0.20290197  1
  F  F142  1  0.47996129  0.43170186  0.70290197  1
  F  F143  1  0.47996129  0.56829814  0.79709803  1
  F  F144  1  0.40730895  0.64542100  0.46076588  1
  F  F145  1  0.40730895  0.35457900  0.03923412  1
  F  F146  1  0.59269105  0.35457900  0.53923412  1
  F  F147  1  0.59269105  0.64542100  0.96076588  1
  F  F148  1  0.65801757  0.61918152  0.41080590  1
  F  F149  1  0.65801757  0.38081848  0.08919410  1
  F  F150  1  0.34198243  0.38081848  0.58919410  1
  F  F151  1  0.34198243  0.61918152  0.91080590  1
  F  F152  1  0.47849032  0.76336954  0.35955902  1
  F  F153  1  0.47849032  0.23663046  0.14044098  1
  F  F154  1  0.52150968  0.23663046  0.64044098  1
  F  F155  1  0.52150968  0.76336954  0.85955902  1
  F  F156  1  0.71196555  0.70372819  0.35123132  1
  F  F157  1  0.71196555  0.29627181  0.14876868  1
  F  F158  1  0.28803445  0.29627181  0.64876868  1
  F  F159  1  0.28803445  0.70372819  0.85123132  1
  F  F160  1  0.95054180  0.58993054  0.29853112  1
  F  F161  1  0.95054180  0.41006946  0.20146888  1
  F  F162  1  0.04945820  0.41006946  0.70146888  1
  F  F163  1  0.04945820  0.58993054  0.79853112  1
  F  F164  1  0.16756890  0.55446981  0.23654079  1
  F  F165  1  0.16756890  0.44553019  0.26345921  1
  F  F166  1  0.83243110  0.44553019  0.76345921  1
  F  F167  1  0.83243110  0.55446981  0.73654079  1
  F  F168  1  0.11594066  0.73347409  0.29130152  1
  F  F169  1  0.11594066  0.26652591  0.20869848  1
  F  F170  1  0.88405934  0.26652591  0.70869848  1
  F  F171  1  0.88405934  0.73347409  0.79130152  1
  F  F172  1  0.34169070  0.68915431  0.23673991  1
  F  F173  1  0.34169070  0.31084569  0.26326009  1
  F  F174  1  0.65830930  0.31084569  0.76326009  1
  F  F175  1  0.65830930  0.68915431  0.73673991  1
  F  F176  1  0.28611593  0.45342829  0.00019044  1
  F  F177  1  0.28611593  0.54657171  0.49980956  1
  F  F178  1  0.71388407  0.54657171  0.99980956  1
  F  F179  1  0.71388407  0.45342829  0.50019044  1
  F  F180  1  0.08314721  0.38290028  0.97510266  1
  F  F181  1  0.08314721  0.61709972  0.52489734  1
  F  F182  1  0.91685279  0.61709972  0.02489734  1
  F  F183  1  0.91685279  0.38290028  0.47510266  1
  F  F184  1  0.47512746  0.49018623  0.90720940  1
  F  F185  1  0.47512746  0.50981377  0.59279060  1
  F  F186  1  0.52487254  0.50981377  0.09279060  1
  F  F187  1  0.52487254  0.49018623  0.40720940  1
  F  F188  1  0.46538577  0.42613274  0.82379895  1
  F  F189  1  0.46538577  0.57386726  0.67620105  1
  F  F190  1  0.53461423  0.57386726  0.17620105  1
  F  F191  1  0.53461423  0.42613274  0.32379895  1
  F  F192  1  0.05524091  0.50103970  0.93628896  1
  F  F193  1  0.05524091  0.49896030  0.56371104  1
  F  F194  1  0.94475909  0.49896030  0.06371104  1
  F  F195  1  0.94475909  0.50103970  0.43628896  1
  F  F196  1  0.10555319  0.48434427  0.84703774  1
  F  F197  1  0.10555319  0.51565573  0.65296226  1
  F  F198  1  0.89444681  0.51565573  0.15296226  1
  F  F199  1  0.89444681  0.48434427  0.34703774  1
  F  F200  1  0.05470156  0.31037191  0.86234391  1
  F  F201  1  0.05470156  0.68962809  0.63765609  1
  F  F202  1  0.94529844  0.68962809  0.13765609  1
  F  F203  1  0.94529844  0.31037191  0.36234391  1
  F  F204  1  0.04200782  0.36065101  0.80269341  1
  F  F205  1  0.04200782  0.63934899  0.69730659  1
  F  F206  1  0.95799218  0.63934899  0.19730659  1
  F  F207  1  0.95799218  0.36065101  0.30269341  1
  F  F208  1  0.65757705  0.42071824  0.98206383  1
  F  F209  1  0.65757705  0.57928176  0.51793617  1
  F  F210  1  0.34242295  0.57928176  0.01793617  1
  F  F211  1  0.34242295  0.42071824  0.48206383  1
  F  F212  1  0.76238074  0.40071146  0.89668547  1
  F  F213  1  0.76238074  0.59928854  0.60331453  1
  F  F214  1  0.23761926  0.59928854  0.10331453  1
  F  F215  1  0.23761926  0.40071146  0.39668547  1
  F  F216  1  0.35435890  0.28321403  0.92794465  1
  F  F217  1  0.35435890  0.71678597  0.57205535  1
  F  F218  1  0.64564110  0.71678597  0.07205535  1
  F  F219  1  0.64564110  0.28321403  0.42794465  1
  F  F220  1  0.99734917  0.90776761  0.06969936  1
  F  F221  1  0.99734917  0.09223239  0.43030064  1
  F  F222  1  0.00265083  0.09223239  0.93030064  1
  F  F223  1  0.00265083  0.90776761  0.56969936  1
  F  F224  1  0.05043209  0.83693596  0.99401592  1
  F  F225  1  0.05043209  0.16306404  0.50598408  1
  F  F226  1  0.94956791  0.16306404  0.00598408  1
  F  F227  1  0.94956791  0.83693596  0.49401592  1
  F  F228  1  0.24129303  0.91464907  0.17049802  1
  F  F229  1  0.24129303  0.08535093  0.32950198  1
  F  F230  1  0.75870697  0.08535093  0.82950198  1
  F  F231  1  0.75870697  0.91464907  0.67049802  1
  F  F232  1  0.44855300  0.84469663  0.16050087  1
  F  F233  1  0.44855300  0.15530337  0.33949913  1
  F  F234  1  0.55144700  0.15530337  0.83949913  1
  F  F235  1  0.55144700  0.84469663  0.66050087  1
  F  F236  1  0.33073309  0.95863193  0.07060775  1
  F  F237  1  0.33073309  0.04136807  0.42939225  1
  F  F238  1  0.66926691  0.04136807  0.92939225  1
  F  F239  1  0.66926691  0.95863193  0.57060775  1
  F  F240  1  0.58066970  0.92452543  0.09943240  1
  F  F241  1  0.58066970  0.07547457  0.40056760  1
  F  F242  1  0.41933030  0.07547457  0.90056760  1
  F  F243  1  0.41933030  0.92452543  0.59943240  1
  F  F244  1  0.38508658  0.76689434  0.98081038  1
  F  F245  1  0.38508658  0.23310566  0.51918962  1
  F  F246  1  0.61491342  0.23310566  0.01918962  1
  F  F247  1  0.61491342  0.76689434  0.48081038  1
  F  F248  1  0.62702546  0.81662434  0.01957144  1
  F  F249  1  0.62702546  0.18337566  0.48042856  1
  F  F250  1  0.37297454  0.18337566  0.98042856  1
  F  F251  1  0.37297454  0.81662434  0.51957144  1
  F  F252  1  0.85840010  0.83940749  0.13865713  1
  F  F253  1  0.85840010  0.16059251  0.36134287  1
  F  F254  1  0.14159990  0.16059251  0.86134287  1
  F  F255  1  0.14159990  0.83940749  0.63865713  1
  F  F256  1  0.06629280  0.81154794  0.18947108  1
  F  F257  1  0.06629280  0.18845206  0.31052892  1
  F  F258  1  0.93370720  0.18845206  0.81052892  1
  F  F259  1  0.93370720  0.81154794  0.68947108  1
  F  F260  1  0.02027945  0.73051031  0.01935834  1
  F  F261  1  0.02027945  0.26948969  0.48064166  1
  F  F262  1  0.97972055  0.26948969  0.98064166  1
  F  F263  1  0.97972055  0.73051031  0.51935834  1
  F  F264  1  0.25555689  0.70806093  0.06420635  1
  F  F265  1  0.25555689  0.29193907  0.43579365  1
  F  F266  1  0.74444311  0.29193907  0.93579365  1
  F  F267  1  0.74444311  0.70806093  0.56420635  1
  F  F268  1  0.03277169  0.85195879  0.80872743  1
  F  F269  1  0.03277169  0.14804121  0.69127257  1
  F  F270  1  0.96722831  0.14804121  0.19127257  1
  F  F271  1  0.96722831  0.85195879  0.30872743  1
  F  F272  1  0.12962314  0.83009227  0.88310907  1
  F  F273  1  0.12962314  0.16990773  0.61689093  1
  F  F274  1  0.87037686  0.16990773  0.11689093  1
  F  F275  1  0.87037686  0.83009227  0.38310907  1
  F  F276  1  0.29377567  0.91849489  0.75705937  1
  F  F277  1  0.29377567  0.08150511  0.74294063  1
  F  F278  1  0.70622433  0.08150511  0.24294063  1
  F  F279  1  0.70622433  0.91849489  0.25705937  1
  F  F280  1  0.51069244  0.96945280  0.81215513  1
  F  F281  1  0.51069244  0.03054720  0.68784487  1
  F  F282  1  0.48930756  0.03054720  0.18784487  1
  F  F283  1  0.48930756  0.96945280  0.31215513  1
  F  F284  1  0.36260256  0.79976388  0.76584400  1
  F  F285  1  0.36260256  0.20023612  0.73415600  1
  F  F286  1  0.63739744  0.20023612  0.23415600  1
  F  F287  1  0.63739744  0.79976388  0.26584400  1
  F  F288  1  0.62946250  0.84480859  0.78140180  1
  F  F289  1  0.62946250  0.15519141  0.71859820  1
  F  F290  1  0.37053750  0.15519141  0.21859820  1
  F  F291  1  0.37053750  0.84480859  0.28140180  1
  F  F292  1  0.43613437  0.88512665  0.94715302  1
  F  F293  1  0.43613437  0.11487335  0.55284698  1
  F  F294  1  0.56386563  0.11487335  0.05284698  1
  F  F295  1  0.56386563  0.88512665  0.44715302  1
  F  F296  1  0.67986658  0.89138223  0.89758643  1
  F  F297  1  0.67986658  0.10861777  0.60241357  1
  F  F298  1  0.32013342  0.10861777  0.10241357  1
  F  F299  1  0.32013342  0.89138223  0.39758643  1
  F  F300  1  0.91415118  0.96449901  0.82983898  1
  F  F301  1  0.91415118  0.03550099  0.67016102  1
  F  F302  1  0.08584882  0.03550099  0.17016102  1
  F  F303  1  0.08584882  0.96449901  0.32983898  1
  F  F304  1  0.13376743  0.02435664  0.82200060  1
  F  F305  1  0.13376743  0.97564336  0.67799940  1
  F  F306  1  0.86623257  0.97564336  0.17799940  1
  F  F307  1  0.86623257  0.02435664  0.32200060  1
  F  F308  1  0.06627297  0.94713744  0.95900144  1
  F  F309  1  0.06627297  0.05286256  0.54099856  1
  F  F310  1  0.93372703  0.05286256  0.04099856  1
  F  F311  1  0.93372703  0.94713744  0.45900144  1
  F  F312  1  0.46857040  0.27692431  0.84543291  1
  F  F313  1  0.46857040  0.72307569  0.65456709  1
  F  F314  1  0.53142960  0.72307569  0.15456709  1
  F  F315  1  0.53142960  0.27692431  0.34543291  1
  F  F316  1  0.29742405  0.00773898  0.96678785  1
  F  F317  1  0.29742405  0.99226102  0.53321215  1
  F  F318  1  0.70257595  0.99226102  0.03321215  1
  F  F319  1  0.70257595  0.00773898  0.46678785  1
