# generated using pymatgen
data_NiH24C4S4N8(ClO4)2
_symmetry_space_group_name_H-M   'P 1'
_cell_length_a   8.54880477
_cell_length_b   8.90262108
_cell_length_c   9.06468447
_cell_angle_alpha   74.71290518
_cell_angle_beta   76.91876041
_cell_angle_gamma   64.81413698
_symmetry_Int_Tables_number   1
_chemical_formula_structural   NiH24C4S4N8(ClO4)2
_chemical_formula_sum   'Ni1 H24 C4 S4 N8 Cl2 O8'
_cell_volume   597.03876445
_cell_formula_units_Z   1
loop_
 _symmetry_equiv_pos_site_id
 _symmetry_equiv_pos_as_xyz
  1  'x, y, z'
loop_
 _atom_site_type_symbol
 _atom_site_label
 _atom_site_symmetry_multiplicity
 _atom_site_fract_x
 _atom_site_fract_y
 _atom_site_fract_z
 _atom_site_occupancy
  Ni  Ni0  1  0.00000000  0.00000000  0.00000000  1
  H  H1  1  0.60382500  0.60573700  0.38735700  1
  H  H2  1  0.39617500  0.39426300  0.61264300  1
  H  H3  1  0.73449700  0.38236900  0.40875800  1
  H  H4  1  0.26550300  0.61763100  0.59124200  1
  H  H5  1  0.82761300  0.53511800  0.30030000  1
  H  H6  1  0.17238700  0.46488200  0.69970000  1
  H  H7  1  0.82797100  0.37420600  0.97456400  1
  H  H8  1  0.17202900  0.62579400  0.02543600  1
  H  H9  1  0.67126900  0.19495000  0.12927400  1
  H  H10  1  0.32873100  0.80505000  0.87072600  1
  H  H11  1  0.81828000  0.13107100  0.24725300  1
  H  H12  1  0.18172000  0.86892900  0.75274700  1
  H  H13  1  0.64719000  0.76281400  0.59063000  1
  H  H14  1  0.35281000  0.23718600  0.40937000  1
  H  H15  1  0.77207000  0.68585600  0.74847300  1
  H  H16  1  0.22793000  0.31414400  0.25152700  1
  H  H17  1  0.86811100  0.75130000  0.55445300  1
  H  H18  1  0.13188900  0.24870000  0.44554700  1
  H  H19  1  0.85017000  0.08758500  0.70992900  1
  H  H20  1  0.14983000  0.91241500  0.29007100  1
  H  H21  1  0.67805100  0.02176200  0.96001300  1
  H  H22  1  0.32194900  0.97823800  0.03998700  1
  H  H23  1  0.82582800  0.82805000  0.96284500  1
  H  H24  1  0.17417200  0.17195000  0.03715500  1
  C  C25  1  0.71070100  0.50616700  0.33283800  1
  C  C26  1  0.28929900  0.49383300  0.66716200  1
  C  C27  1  0.74927800  0.77267200  0.63730600  1
  C  C28  1  0.25072200  0.22732800  0.36269400  1
  S  S29  1  0.64077400  0.50678600  0.16303900  1
  S  S30  1  0.35922600  0.49321400  0.83696100  1
  S  S31  1  0.66811200  0.98152300  0.66970400  1
  S  S32  1  0.33188800  0.01847700  0.33029600  1
  N  N33  1  0.80788000  0.34327600  0.09353500  1
  N  N34  1  0.19212000  0.65672400  0.90646500  1
  N  N35  1  0.79532300  0.18216200  0.13503100  1
  N  N36  1  0.20467700  0.81783800  0.86496900  1
  N  N37  1  0.82632400  0.97868900  0.75442300  1
  N  N38  1  0.17367600  0.02131100  0.24557700  1
  N  N39  1  0.80445600  0.95262500  0.91870800  1
  N  N40  1  0.19554400  0.04737500  0.08129200  1
  Cl  Cl41  1  0.00989600  0.77594400  0.22145500  1
  Cl  Cl42  1  0.99010400  0.22405600  0.77854400  1
  O  O43  1  0.48414600  0.47195300  0.20718700  1
  O  O44  1  0.51585400  0.52804700  0.79281300  1
  O  O45  1  0.64218700  0.65565700  0.04939900  1
  O  O46  1  0.35781300  0.34434300  0.95060100  1
  O  O47  1  0.50844100  0.01107600  0.77611200  1
  O  O48  1  0.49155900  0.98892400  0.22388800  1
  O  O49  1  0.66989200  0.09744600  0.52280600  1
  O  O50  1  0.33010800  0.90255400  0.47719400  1
