# generated using pymatgen
data_RuN6Cl3O2
_symmetry_space_group_name_H-M   'P 1'
_cell_length_a   7.60038200
_cell_length_b   11.41955900
_cell_length_c   13.82796800
_cell_angle_alpha   90.00000000
_cell_angle_beta   90.00000000
_cell_angle_gamma   90.00000000
_symmetry_Int_Tables_number   1
_chemical_formula_structural   RuN6Cl3O2
_chemical_formula_sum   'Ru4 N24 Cl12 O8'
_cell_volume   1200.17097419
_cell_formula_units_Z   4
loop_
 _symmetry_equiv_pos_site_id
 _symmetry_equiv_pos_as_xyz
  1  'x, y, z'
loop_
 _atom_site_type_symbol
 _atom_site_label
 _atom_site_symmetry_multiplicity
 _atom_site_fract_x
 _atom_site_fract_y
 _atom_site_fract_z
 _atom_site_occupancy
  Ru  Ru0  1  0.03051200  0.42976500  0.31958100  1
  Ru  Ru1  1  0.53051200  0.57023500  0.68041900  1
  Ru  Ru2  1  0.53051200  0.92976500  0.18041900  1
  Ru  Ru3  1  0.03051200  0.07023500  0.81958100  1
  N  N4  1  0.55361900  0.32148300  0.40417100  1
  N  N5  1  0.05361900  0.67851700  0.59582900  1
  N  N6  1  0.05361900  0.82148300  0.09582900  1
  N  N7  1  0.55361900  0.17851700  0.90417100  1
  N  N8  1  0.01831000  0.54751200  0.14070200  1
  N  N9  1  0.51831000  0.45248800  0.85929800  1
  N  N10  1  0.51831000  0.04751200  0.35929800  1
  N  N11  1  0.01831000  0.95248800  0.64070200  1
  N  N12  1  0.46855900  0.38345400  0.12738500  1
  N  N13  1  0.96855900  0.61654600  0.87261500  1
  N  N14  1  0.96855900  0.88345400  0.37261500  1
  N  N15  1  0.46855900  0.11654600  0.62738500  1
  N  N16  1  0.01787300  0.31007200  0.41467200  1
  N  N17  1  0.51787300  0.68992800  0.58532800  1
  N  N18  1  0.51787300  0.81007200  0.08532800  1
  N  N19  1  0.01787300  0.18992800  0.91467200  1
  N  N20  1  0.38359900  0.32884700  0.17513400  1
  N  N21  1  0.88359900  0.67115300  0.82486600  1
  N  N22  1  0.88359900  0.82884700  0.32486600  1
  N  N23  1  0.38359900  0.17115300  0.67513400  1
  N  N24  1  0.73432900  0.97800600  0.17699000  1
  N  N25  1  0.23432900  0.02199400  0.82301000  1
  N  N26  1  0.23432900  0.47800600  0.32301000  1
  N  N27  1  0.73432900  0.52199400  0.67699000  1
  Cl  Cl28  1  0.93284200  0.31130500  0.19586500  1
  Cl  Cl29  1  0.43284200  0.68869500  0.80413500  1
  Cl  Cl30  1  0.43284200  0.81130500  0.30413500  1
  Cl  Cl31  1  0.93284200  0.18869500  0.69586500  1
  Cl  Cl32  1  0.33050200  0.05585500  0.11727300  1
  Cl  Cl33  1  0.83050200  0.94414500  0.88272700  1
  Cl  Cl34  1  0.83050200  0.55585500  0.38272700  1
  Cl  Cl35  1  0.33050200  0.44414500  0.61727300  1
  Cl  Cl36  1  0.17728200  0.21050200  0.41579600  1
  Cl  Cl37  1  0.67728200  0.78949800  0.58420400  1
  Cl  Cl38  1  0.67728200  0.71050200  0.08420400  1
  Cl  Cl39  1  0.17728200  0.28949800  0.91579600  1
  O  O40  1  0.63264900  0.30599300  0.47422200  1
  O  O41  1  0.13264900  0.69400700  0.52577800  1
  O  O42  1  0.13264900  0.80599300  0.02577800  1
  O  O43  1  0.63264900  0.19400700  0.97422200  1
  O  O44  1  0.63852400  0.04226900  0.41123100  1
  O  O45  1  0.13852400  0.95773100  0.58876900  1
  O  O46  1  0.13852400  0.54226900  0.08876900  1
  O  O47  1  0.63852400  0.45773100  0.91123100  1
