# generated using pymatgen
data_Ag2(MoO4)3
_symmetry_space_group_name_H-M   'P 1'
_cell_length_a   7.75419200
_cell_length_b   9.27823200
_cell_length_c   13.87202900
_cell_angle_alpha   90.00000000
_cell_angle_beta   90.00000000
_cell_angle_gamma   90.00000000
_symmetry_Int_Tables_number   1
_chemical_formula_structural   Ag2(MoO4)3
_chemical_formula_sum   'Ag8 Mo12 O48'
_cell_volume   998.02579467
_cell_formula_units_Z   4
loop_
 _symmetry_equiv_pos_site_id
 _symmetry_equiv_pos_as_xyz
  1  'x, y, z'
loop_
 _atom_site_type_symbol
 _atom_site_label
 _atom_site_symmetry_multiplicity
 _atom_site_fract_x
 _atom_site_fract_y
 _atom_site_fract_z
 _atom_site_occupancy
  Ag  Ag0  1  0.00000000  0.00000000  0.00000000  1
  Ag  Ag1  1  0.50000000  0.50000000  0.50000000  1
  Ag  Ag2  1  0.50000000  0.00000000  0.00000000  1
  Ag  Ag3  1  0.00000000  0.50000000  0.50000000  1
  Ag  Ag4  1  0.75000000  0.94609100  0.80327000  1
  Ag  Ag5  1  0.75000000  0.55390900  0.30327000  1
  Ag  Ag6  1  0.25000000  0.05390900  0.19673000  1
  Ag  Ag7  1  0.25000000  0.44609100  0.69673000  1
  Mo  Mo8  1  0.00160600  0.62085200  0.89947900  1
  Mo  Mo9  1  0.49839400  0.87914800  0.39947900  1
  Mo  Mo10  1  0.50160600  0.37914800  0.10052100  1
  Mo  Mo11  1  0.99839400  0.12085200  0.60052100  1
  Mo  Mo12  1  0.99839400  0.37914800  0.10052100  1
  Mo  Mo13  1  0.50160600  0.12085200  0.60052100  1
  Mo  Mo14  1  0.49839400  0.62085200  0.89947900  1
  Mo  Mo15  1  0.00160600  0.87914800  0.39947900  1
  Mo  Mo16  1  0.75000000  0.33391400  0.90298600  1
  Mo  Mo17  1  0.75000000  0.16608600  0.40298600  1
  Mo  Mo18  1  0.25000000  0.66608600  0.09701400  1
  Mo  Mo19  1  0.25000000  0.83391400  0.59701400  1
  O  O20  1  0.01477700  0.60968500  0.06001800  1
  O  O21  1  0.48522300  0.89031500  0.56001800  1
  O  O22  1  0.51477700  0.39031500  0.93998200  1
  O  O23  1  0.98522300  0.10968500  0.43998200  1
  O  O24  1  0.98522300  0.39031500  0.93998200  1
  O  O25  1  0.51477700  0.10968500  0.43998200  1
  O  O26  1  0.48522300  0.60968500  0.06001800  1
  O  O27  1  0.01477700  0.89031500  0.56001800  1
  O  O28  1  0.03582700  0.57214000  0.77942500  1
  O  O29  1  0.46417300  0.92786000  0.27942500  1
  O  O30  1  0.53582700  0.42786000  0.22057500  1
  O  O31  1  0.96417300  0.07214000  0.72057500  1
  O  O32  1  0.96417300  0.42786000  0.22057500  1
  O  O33  1  0.53582700  0.07214000  0.72057500  1
  O  O34  1  0.46417300  0.57214000  0.77942500  1
  O  O35  1  0.03582700  0.92786000  0.27942500  1
  O  O36  1  0.95890100  0.81002500  0.89693700  1
  O  O37  1  0.54109900  0.68997500  0.39693700  1
  O  O38  1  0.45890100  0.18997500  0.10306300  1
  O  O39  1  0.04109900  0.31002500  0.60306300  1
  O  O40  1  0.04109900  0.18997500  0.10306300  1
  O  O41  1  0.45890100  0.31002500  0.60306300  1
  O  O42  1  0.54109900  0.81002500  0.89693700  1
  O  O43  1  0.95890100  0.68997500  0.39693700  1
  O  O44  1  0.75000000  0.57557300  0.90896500  1
  O  O45  1  0.75000000  0.92442700  0.40896500  1
  O  O46  1  0.25000000  0.42442700  0.09103500  1
  O  O47  1  0.25000000  0.07557300  0.59103500  1
  O  O48  1  0.75000000  0.34499600  0.77933900  1
  O  O49  1  0.75000000  0.15500400  0.27933900  1
  O  O50  1  0.25000000  0.65500400  0.22066100  1
  O  O51  1  0.25000000  0.84499600  0.72066100  1
  O  O52  1  0.25000000  0.62658000  0.93070500  1
  O  O53  1  0.25000000  0.87342000  0.43070500  1
  O  O54  1  0.75000000  0.37342000  0.06929500  1
  O  O55  1  0.75000000  0.12658000  0.56929500  1
  O  O56  1  0.75000000  0.14365400  0.92942800  1
  O  O57  1  0.75000000  0.35634600  0.42942800  1
  O  O58  1  0.25000000  0.85634600  0.07057200  1
  O  O59  1  0.25000000  0.64365400  0.57057200  1
  O  O60  1  0.25000000  0.21157200  0.85194500  1
  O  O61  1  0.25000000  0.28842800  0.35194500  1
  O  O62  1  0.75000000  0.78842800  0.14805500  1
  O  O63  1  0.75000000  0.71157200  0.64805500  1
  O  O64  1  0.25000000  0.09891200  0.89983900  1
  O  O65  1  0.25000000  0.40108800  0.39983900  1
  O  O66  1  0.75000000  0.90108800  0.10016100  1
  O  O67  1  0.75000000  0.59891200  0.60016100  1
