# generated using pymatgen
data_Na2CuP4H18N4O15
_symmetry_space_group_name_H-M   'P 1'
_cell_length_a   6.44583600
_cell_length_b   14.72362600
_cell_length_c   19.05499400
_cell_angle_alpha   90.00000000
_cell_angle_beta   90.00000000
_cell_angle_gamma   90.00000000
_symmetry_Int_Tables_number   1
_chemical_formula_structural   Na2CuP4H18N4O15
_chemical_formula_sum   'Na8 Cu4 P16 H72 N16 O60'
_cell_volume   1808.43475679
_cell_formula_units_Z   4
loop_
 _symmetry_equiv_pos_site_id
 _symmetry_equiv_pos_as_xyz
  1  'x, y, z'
loop_
 _atom_site_type_symbol
 _atom_site_label
 _atom_site_symmetry_multiplicity
 _atom_site_fract_x
 _atom_site_fract_y
 _atom_site_fract_z
 _atom_site_occupancy
  Na  Na0  1  0.70427900  0.25000000  0.74816000  1
  Na  Na1  1  0.20427900  0.25000000  0.75184000  1
  Na  Na2  1  0.29572100  0.75000000  0.25184000  1
  Na  Na3  1  0.79572100  0.75000000  0.24816000  1
  Na  Na4  1  0.67104600  0.25000000  0.33679600  1
  Na  Na5  1  0.17104600  0.25000000  0.16320400  1
  Na  Na6  1  0.32895400  0.75000000  0.66320400  1
  Na  Na7  1  0.82895400  0.75000000  0.83679600  1
  Cu  Cu8  1  0.49958000  0.25000000  0.02784100  1
  Cu  Cu9  1  0.99958000  0.25000000  0.47215900  1
  Cu  Cu10  1  0.50042000  0.75000000  0.97215900  1
  Cu  Cu11  1  0.00042000  0.75000000  0.52784100  1
  P  P12  1  0.54887400  0.06076900  0.10709800  1
  P  P13  1  0.04887400  0.43923100  0.39290200  1
  P  P14  1  0.45112600  0.56076900  0.89290200  1
  P  P15  1  0.95112600  0.93923100  0.60709800  1
  P  P16  1  0.45112600  0.93923100  0.89290200  1
  P  P17  1  0.95112600  0.56076900  0.60709800  1
  P  P18  1  0.54887400  0.43923100  0.10709800  1
  P  P19  1  0.04887400  0.06076900  0.39290200  1
  P  P20  1  0.72482800  0.08124700  0.96167200  1
  P  P21  1  0.22482800  0.41875300  0.53832800  1
  P  P22  1  0.27517200  0.58124700  0.03832800  1
  P  P23  1  0.77517200  0.91875300  0.46167200  1
  P  P24  1  0.27517200  0.91875300  0.03832800  1
  P  P25  1  0.77517200  0.58124700  0.46167200  1
  P  P26  1  0.72482800  0.41875300  0.96167200  1
  P  P27  1  0.22482800  0.08124700  0.53832800  1
  H  H28  1  0.81722400  0.51566400  0.05230500  1
  H  H29  1  0.31722400  0.98433600  0.44769500  1
  H  H30  1  0.18277600  0.01566400  0.94769500  1
  H  H31  1  0.68277600  0.48433600  0.55230500  1
  H  H32  1  0.18277600  0.48433600  0.94769500  1
  H  H33  1  0.68277600  0.01566400  0.55230500  1
  H  H34  1  0.81722400  0.98433600  0.05230500  1
  H  H35  1  0.31722400  0.51566400  0.44769500  1
  H  H36  1  0.71304700  0.02177400  0.37098400  1
  H  H37  1  0.21304700  0.47822600  0.12901600  1
  H  H38  1  0.28695300  0.52177400  0.62901600  1
  H  H39  1  0.78695300  0.97822600  0.87098400  1
  H  H40  1  0.28695300  0.97822600  0.62901600  1
  H  H41  1  0.78695300  0.52177400  0.87098400  1
  H  H42  1  0.71304700  0.47822600  0.37098400  1
  H  H43  1  0.21304700  0.02177400  0.12901600  1
  H  H44  1  0.57898700  0.58653600  0.19360200  1
  H  H45  1  0.07898700  0.91346400  0.30639800  1
  H  H46  1  0.42101300  0.08653600  0.80639800  1
  H  H47  1  0.92101300  0.41346400  0.69360200  1
  H  H48  1  0.42101300  0.41346400  0.80639800  1
  H  H49  1  0.92101300  0.08653600  0.69360200  1
  H  H50  1  0.57898700  0.91346400  0.19360200  1
  H  H51  1  0.07898700  0.58653600  0.30639800  1
  H  H52  1  0.52409900  0.66328200  0.14169400  1
  H  H53  1  0.02409900  0.83671800  0.35830600  1
  H  H54  1  0.47590100  0.16328200  0.85830600  1
  H  H55  1  0.97590100  0.33671800  0.64169400  1
  H  H56  1  0.47590100  0.33671800  0.85830600  1
  H  H57  1  0.97590100  0.16328200  0.64169400  1
  H  H58  1  0.52409900  0.83671800  0.14169400  1
  H  H59  1  0.02409900  0.66328200  0.35830600  1
  H  H60  1  0.54487400  0.69710400  0.37620400  1
  H  H61  1  0.04487400  0.80289600  0.12379600  1
  H  H62  1  0.45512600  0.19710400  0.62379600  1
  H  H63  1  0.95512600  0.30289600  0.87620400  1
  H  H64  1  0.45512600  0.30289600  0.62379600  1
  H  H65  1  0.95512600  0.19710400  0.87620400  1
  H  H66  1  0.54487400  0.80289600  0.37620400  1
  H  H67  1  0.04487400  0.69710400  0.12379600  1
  H  H68  1  0.57580200  0.19689800  0.49499600  1
  H  H69  1  0.07580200  0.30310200  0.00500400  1
  H  H70  1  0.42419800  0.69689800  0.50500400  1
  H  H71  1  0.92419800  0.80310200  0.99499600  1
  H  H72  1  0.42419800  0.80310200  0.50500400  1
  H  H73  1  0.92419800  0.69689800  0.99499600  1
  H  H74  1  0.57580200  0.30310200  0.49499600  1
  H  H75  1  0.07580200  0.19689800  0.00500400  1
  H  H76  1  0.59306500  0.06687100  0.26155400  1
  H  H77  1  0.09306500  0.43312900  0.23844600  1
  H  H78  1  0.40693500  0.56687100  0.73844600  1
  H  H79  1  0.90693500  0.93312900  0.76155400  1
  H  H80  1  0.40693500  0.93312900  0.73844600  1
  H  H81  1  0.90693500  0.56687100  0.76155400  1
  H  H82  1  0.59306500  0.43312900  0.26155400  1
  H  H83  1  0.09306500  0.06687100  0.23844600  1
  H  H84  1  0.91734100  0.06493400  0.18207200  1
  H  H85  1  0.41734100  0.43506600  0.31792800  1
  H  H86  1  0.08265900  0.56493400  0.81792800  1
  H  H87  1  0.58265900  0.93506600  0.68207200  1
  H  H88  1  0.08265900  0.93506600  0.81792800  1
  H  H89  1  0.58265900  0.56493400  0.68207200  1
  H  H90  1  0.91734100  0.43506600  0.18207200  1
  H  H91  1  0.41734100  0.06493400  0.31792800  1
  H  H92  1  0.71882600  0.19854400  0.18967800  1
  H  H93  1  0.21882600  0.30145600  0.31032200  1
  H  H94  1  0.28117400  0.69854400  0.81032200  1
  H  H95  1  0.78117400  0.80145600  0.68967800  1
  H  H96  1  0.28117400  0.80145600  0.81032200  1
  H  H97  1  0.78117400  0.69854400  0.68967800  1
  H  H98  1  0.71882600  0.30145600  0.18967800  1
  H  H99  1  0.21882600  0.19854400  0.31032200  1
  N  N100  1  0.71152600  0.03540800  0.04248400  1
  N  N101  1  0.21152600  0.46459200  0.45751600  1
  N  N102  1  0.28847400  0.53540800  0.95751600  1
  N  N103  1  0.78847400  0.96459200  0.54248400  1
  N  N104  1  0.28847400  0.96459200  0.95751600  1
  N  N105  1  0.78847400  0.53540800  0.54248400  1
  N  N106  1  0.71152600  0.46459200  0.04248400  1
  N  N107  1  0.21152600  0.03540800  0.45751600  1
  N  N108  1  0.83137000  0.00116800  0.40514400  1
  N  N109  1  0.33137000  0.49883200  0.09485600  1
  N  N110  1  0.16863000  0.50116800  0.59485600  1
  N  N111  1  0.66863000  0.99883200  0.90514400  1
  N  N112  1  0.16863000  0.99883200  0.59485600  1
  N  N113  1  0.66863000  0.50116800  0.90514400  1
  N  N114  1  0.83137000  0.49883200  0.40514400  1
  N  N115  1  0.33137000  0.00116800  0.09485600  1
  O  O116  1  0.65152000  0.03260000  0.17581600  1
  O  O117  1  0.15152000  0.46740000  0.32418400  1
  O  O118  1  0.34848000  0.53260000  0.82418400  1
  O  O119  1  0.84848000  0.96740000  0.67581600  1
  O  O120  1  0.34848000  0.96740000  0.82418400  1
  O  O121  1  0.84848000  0.53260000  0.67581600  1
  O  O122  1  0.65152000  0.46740000  0.17581600  1
  O  O123  1  0.15152000  0.03260000  0.32418400  1
  O  O124  1  0.99282200  0.16168500  0.39382300  1
  O  O125  1  0.49282200  0.33831500  0.10617700  1
  O  O126  1  0.00717800  0.66168500  0.60617700  1
  O  O127  1  0.50717800  0.83831500  0.89382300  1
  O  O128  1  0.00717800  0.83831500  0.60617700  1
  O  O129  1  0.50717800  0.66168500  0.89382300  1
  O  O130  1  0.99282200  0.33831500  0.39382300  1
  O  O131  1  0.49282200  0.16168500  0.10617700  1
  O  O132  1  0.55386800  0.15375600  0.95781800  1
  O  O133  1  0.05386800  0.34624400  0.54218200  1
  O  O134  1  0.44613200  0.65375600  0.04218200  1
  O  O135  1  0.94613200  0.84624400  0.45781800  1
  O  O136  1  0.44613200  0.84624400  0.04218200  1
  O  O137  1  0.94613200  0.65375600  0.45781800  1
  O  O138  1  0.55386800  0.34624400  0.95781800  1
  O  O139  1  0.05386800  0.15375600  0.54218200  1
  O  O140  1  0.55373300  0.60986500  0.44661200  1
  O  O141  1  0.05373300  0.89013500  0.05338800  1
  O  O142  1  0.44626700  0.10986500  0.55338800  1
  O  O143  1  0.94626700  0.39013500  0.94661200  1
  O  O144  1  0.44626700  0.39013500  0.55338800  1
  O  O145  1  0.94626700  0.10986500  0.94661200  1
  O  O146  1  0.55373300  0.89013500  0.44661200  1
  O  O147  1  0.05373300  0.60986500  0.05338800  1
  O  O148  1  0.54749400  0.65216100  0.19198600  1
  O  O149  1  0.04749400  0.84783900  0.30801400  1
  O  O150  1  0.45250600  0.15216100  0.80801400  1
  O  O151  1  0.95250600  0.34783900  0.69198600  1
  O  O152  1  0.45250600  0.34783900  0.80801400  1
  O  O153  1  0.95250600  0.15216100  0.69198600  1
  O  O154  1  0.54749400  0.84783900  0.19198600  1
  O  O155  1  0.04749400  0.65216100  0.30801400  1
  O  O156  1  0.95456000  0.25000000  0.84425200  1
  O  O157  1  0.45456000  0.25000000  0.65574800  1
  O  O158  1  0.04544000  0.75000000  0.15574800  1
  O  O159  1  0.54544000  0.75000000  0.34425200  1
  O  O160  1  0.63270600  0.25000000  0.46956200  1
  O  O161  1  0.13270600  0.25000000  0.03043800  1
  O  O162  1  0.36729400  0.75000000  0.53043800  1
  O  O163  1  0.86729400  0.75000000  0.96956200  1
  O  O164  1  0.56346500  0.08393500  0.31097600  1
  O  O165  1  0.06346500  0.41606500  0.18902400  1
  O  O166  1  0.43653500  0.58393500  0.68902400  1
  O  O167  1  0.93653500  0.91606500  0.81097600  1
  O  O168  1  0.43653500  0.91606500  0.68902400  1
  O  O169  1  0.93653500  0.58393500  0.81097600  1
  O  O170  1  0.56346500  0.41606500  0.31097600  1
  O  O171  1  0.06346500  0.08393500  0.18902400  1
  O  O172  1  0.78887400  0.25000000  0.21195000  1
  O  O173  1  0.28887400  0.25000000  0.28805000  1
  O  O174  1  0.21112600  0.75000000  0.78805000  1
  O  O175  1  0.71112600  0.75000000  0.71195000  1
