# generated using pymatgen
data_Ba2H20Ru2Cl10O11
_symmetry_space_group_name_H-M   'P 1'
_cell_length_a   8.96096200
_cell_length_b   11.56647956
_cell_length_c   14.04610483
_cell_angle_alpha   79.19556086
_cell_angle_beta   71.39851469
_cell_angle_gamma   67.20918891
_symmetry_Int_Tables_number   1
_chemical_formula_structural   Ba2H20Ru2Cl10O11
_chemical_formula_sum   'Ba4 H40 Ru4 Cl20 O22'
_cell_volume   1268.64954304
_cell_formula_units_Z   2
loop_
 _symmetry_equiv_pos_site_id
 _symmetry_equiv_pos_as_xyz
  1  'x, y, z'
loop_
 _atom_site_type_symbol
 _atom_site_label
 _atom_site_symmetry_multiplicity
 _atom_site_fract_x
 _atom_site_fract_y
 _atom_site_fract_z
 _atom_site_occupancy
  Ba  Ba0  1  0.66879900  0.78829600  0.83056100  1
  Ba  Ba1  1  0.28765600  0.71170400  0.66943900  1
  Ba  Ba2  1  0.33120100  0.21170400  0.16943900  1
  Ba  Ba3  1  0.71234400  0.28829600  0.33056100  1
  H  H4  1  0.24811100  0.95747000  0.90178200  1
  H  H5  1  0.10736300  0.54253000  0.59821800  1
  H  H6  1  0.75188900  0.04253000  0.09821800  1
  H  H7  1  0.89263700  0.45747000  0.40178200  1
  H  H8  1  0.29662500  0.90332400  0.00314900  1
  H  H9  1  0.20309800  0.59667600  0.49685100  1
  H  H10  1  0.70337500  0.09667600  0.99685100  1
  H  H11  1  0.79690200  0.40332400  0.50314900  1
  H  H12  1  0.63839100  0.78550600  0.59599200  1
  H  H13  1  0.01988900  0.71449400  0.90400800  1
  H  H14  1  0.36160900  0.21449400  0.40400800  1
  H  H15  1  0.98011100  0.28550600  0.09599200  1
  H  H16  1  0.49671100  0.90615300  0.64521100  1
  H  H17  1  0.04807500  0.59384700  0.85478900  1
  H  H18  1  0.50328900  0.09384700  0.35478900  1
  H  H19  1  0.95192500  0.40615300  0.14521100  1
  H  H20  1  0.72845600  0.06723600  0.79160300  1
  H  H21  1  0.58729500  0.43276400  0.70839700  1
  H  H22  1  0.27154400  0.93276400  0.20839700  1
  H  H23  1  0.41270500  0.56723600  0.29160300  1
  H  H24  1  0.55769100  0.08750000  0.87789300  1
  H  H25  1  0.52308300  0.41250000  0.62210700  1
  H  H26  1  0.44230900  0.91250000  0.12210700  1
  H  H27  1  0.47691700  0.58750000  0.37789300  1
  H  H28  1  0.32193900  0.68022000  0.91094600  1
  H  H29  1  0.91310600  0.81978000  0.58905400  1
  H  H30  1  0.67806000  0.31978000  0.08905400  1
  H  H31  1  0.08689400  0.18022000  0.41094600  1
  H  H32  1  0.47602900  0.56662300  0.86192000  1
  H  H33  1  0.90457100  0.93337700  0.63808000  1
  H  H34  1  0.52397100  0.43337700  0.13808000  1
  H  H35  1  0.09542900  0.06662300  0.36192000  1
  H  H36  1  0.68120900  0.89344600  0.03604600  1
  H  H37  1  0.61070100  0.60655400  0.46395400  1
  H  H38  1  0.31879100  0.10655400  0.96395400  1
  H  H39  1  0.38929900  0.39344600  0.53604600  1
  H  H40  1  0.69649800  0.75394800  0.07549100  1
  H  H41  1  0.52593600  0.74605200  0.42450900  1
  H  H42  1  0.30350200  0.24605200  0.92450900  1
  H  H43  1  0.47406400  0.25394800  0.57549100  1
  Ru  Ru44  1  0.90806400  0.36677800  0.83954600  1
  Ru  Ru45  1  0.11438700  0.13322200  0.66045400  1
  Ru  Ru46  1  0.09193600  0.63322200  0.16045400  1
  Ru  Ru47  1  0.88561300  0.86677800  0.33954600  1
  Cl  Cl48  1  0.94298700  0.21403600  0.97888300  1
  Cl  Cl49  1  0.13590700  0.28596400  0.52111700  1
  Cl  Cl50  1  0.05701300  0.78596400  0.02111700  1
  Cl  Cl51  1  0.86409300  0.71403600  0.47888300  1
  Cl  Cl52  1  0.85890400  0.53341400  0.71072000  1
  Cl  Cl53  1  0.10303700  0.96658600  0.78928000  1
  Cl  Cl54  1  0.14109600  0.46658600  0.28928000  1
  Cl  Cl55  1  0.89696300  0.03341400  0.21072000  1
  Cl  Cl56  1  0.77041300  0.51794500  0.95974000  1
  Cl  Cl57  1  0.24809800  0.98205500  0.54026000  1
  Cl  Cl58  1  0.22958700  0.48205500  0.04026000  1
  Cl  Cl59  1  0.75190200  0.01794500  0.45974000  1
  Cl  Cl60  1  0.63709600  0.35682300  0.86164300  1
  Cl  Cl61  1  0.85556300  0.14317700  0.63835700  1
  Cl  Cl62  1  0.36290400  0.64317700  0.13835700  1
  Cl  Cl63  1  0.14443700  0.85682300  0.36164300  1
  Cl  Cl64  1  0.16592900  0.39462700  0.82664800  1
  Cl  Cl65  1  0.38720500  0.10537300  0.67335200  1
  Cl  Cl66  1  0.83407100  0.60537300  0.17335200  1
  Cl  Cl67  1  0.61279500  0.89462700  0.32664800  1
  O  O68  1  0.01128500  0.25000000  0.75000000  1
  O  O69  1  0.98871500  0.75000000  0.25000000  1
  O  O70  1  0.33606200  0.94071700  0.93564800  1
  O  O71  1  0.21242700  0.55928300  0.56435200  1
  O  O72  1  0.66393800  0.05928300  0.06435200  1
  O  O73  1  0.78757300  0.44071700  0.43564800  1
  O  O74  1  0.54513200  0.81362300  0.65742900  1
  O  O75  1  0.01618300  0.68637700  0.84257100  1
  O  O76  1  0.45486800  0.18637700  0.34257100  1
  O  O77  1  0.98381700  0.31362300  0.15742900  1
  O  O78  1  0.66601100  0.02290100  0.84623900  1
  O  O79  1  0.53515100  0.47709900  0.65376100  1
  O  O80  1  0.33398900  0.97709900  0.15376100  1
  O  O81  1  0.46484900  0.52290100  0.34623900  1
  O  O82  1  0.41557800  0.65744900  0.84956900  1
  O  O83  1  0.92259600  0.84255100  0.65043100  1
  O  O84  1  0.58442200  0.34255100  0.15043100  1
  O  O85  1  0.07740400  0.15744900  0.34956900  1
  O  O86  1  0.63717200  0.82733000  0.03563600  1
  O  O87  1  0.50013800  0.67267000  0.46436400  1
  O  O88  1  0.36282800  0.17267000  0.96436400  1
  O  O89  1  0.49986200  0.32733000  0.53563600  1
