# generated using pymatgen
data_Na2AsO8
_symmetry_space_group_name_H-M   'P 1'
_cell_length_a   7.06470900
_cell_length_b   5.75606600
_cell_length_c   17.76913500
_cell_angle_alpha   90.00000000
_cell_angle_beta   90.00000000
_cell_angle_gamma   90.00000000
_symmetry_Int_Tables_number   1
_chemical_formula_structural   Na2AsO8
_chemical_formula_sum   'Na8 As4 O32'
_cell_volume   722.58065359
_cell_formula_units_Z   4
loop_
 _symmetry_equiv_pos_site_id
 _symmetry_equiv_pos_as_xyz
  1  'x, y, z'
loop_
 _atom_site_type_symbol
 _atom_site_label
 _atom_site_symmetry_multiplicity
 _atom_site_fract_x
 _atom_site_fract_y
 _atom_site_fract_z
 _atom_site_occupancy
  Na  Na0  1  0.61112700  0.90501400  0.78960300  1
  Na  Na1  1  0.38887300  0.90501400  0.21039700  1
  Na  Na2  1  0.11112700  0.09498600  0.71039700  1
  Na  Na3  1  0.88887300  0.09498600  0.28960300  1
  Na  Na4  1  0.80500400  0.79502500  0.53766500  1
  Na  Na5  1  0.19499600  0.79502500  0.46233500  1
  Na  Na6  1  0.30500400  0.20497500  0.96233500  1
  Na  Na7  1  0.69499600  0.20497500  0.03766500  1
  As  As8  1  0.28203000  0.65733200  0.63344700  1
  As  As9  1  0.71797000  0.65733200  0.36655300  1
  As  As10  1  0.78203000  0.34266800  0.86655300  1
  As  As11  1  0.21797000  0.34266800  0.13344700  1
  O  O12  1  0.09481200  0.79527200  0.59232400  1
  O  O13  1  0.90518800  0.79527200  0.40767600  1
  O  O14  1  0.59481200  0.20472800  0.90767600  1
  O  O15  1  0.40518800  0.20472800  0.09232400  1
  O  O16  1  0.15819600  0.30946000  0.49750900  1
  O  O17  1  0.84180400  0.30946000  0.50249100  1
  O  O18  1  0.65819600  0.69054000  0.00249100  1
  O  O19  1  0.34180400  0.69054000  0.99750900  1
  O  O20  1  0.26375300  0.36709700  0.64148400  1
  O  O21  1  0.73624700  0.36709700  0.35851600  1
  O  O22  1  0.76375300  0.63290300  0.85851600  1
  O  O23  1  0.23624700  0.63290300  0.14148400  1
  O  O24  1  0.69181900  0.23661500  0.64620000  1
  O  O25  1  0.30818100  0.23661500  0.35380000  1
  O  O26  1  0.19181900  0.76338500  0.85380000  1
  O  O27  1  0.80818100  0.76338500  0.14620000  1
  O  O28  1  0.86624100  0.18732500  0.79298800  1
  O  O29  1  0.13375900  0.18732500  0.20701200  1
  O  O30  1  0.36624100  0.81267500  0.70701200  1
  O  O31  1  0.63375900  0.81267500  0.29298800  1
  O  O32  1  0.75051300  0.43494900  0.65830300  1
  O  O33  1  0.24948700  0.43494900  0.34169700  1
  O  O34  1  0.25051300  0.56505100  0.84169700  1
  O  O35  1  0.74948700  0.56505100  0.15830300  1
  O  O36  1  0.49268200  0.71463900  0.56632800  1
  O  O37  1  0.50731800  0.71463900  0.43367200  1
  O  O38  1  0.99268200  0.28536100  0.93367200  1
  O  O39  1  0.00731800  0.28536100  0.06632800  1
  O  O40  1  0.00000000  0.19426200  0.50000000  1
  O  O41  1  0.50000000  0.80573800  0.00000000  1
  O  O42  1  0.50000000  0.55950100  0.50000000  1
  O  O43  1  0.00000000  0.44049900  0.00000000  1
