# generated using pymatgen
data_Cd2S2O9
_symmetry_space_group_name_H-M   'P 1'
_cell_length_a   10.56356500
_cell_length_b   11.93233700
_cell_length_c   13.74714739
_cell_angle_alpha   78.61649442
_cell_angle_beta   90.00000000
_cell_angle_gamma   90.00000000
_symmetry_Int_Tables_number   1
_chemical_formula_structural   Cd2S2O9
_chemical_formula_sum   'Cd16 S16 O72'
_cell_volume   1698.71308213
_cell_formula_units_Z   8
loop_
 _symmetry_equiv_pos_site_id
 _symmetry_equiv_pos_as_xyz
  1  'x, y, z'
loop_
 _atom_site_type_symbol
 _atom_site_label
 _atom_site_symmetry_multiplicity
 _atom_site_fract_x
 _atom_site_fract_y
 _atom_site_fract_z
 _atom_site_occupancy
  Cd  Cd0  1  0.39298200  0.87627900  0.98748800  1
  Cd  Cd1  1  0.89298200  0.12372100  0.51251200  1
  Cd  Cd2  1  0.60701800  0.12372100  0.01251200  1
  Cd  Cd3  1  0.10701800  0.87627900  0.48748800  1
  Cd  Cd4  1  0.26595900  0.74032600  0.24607500  1
  Cd  Cd5  1  0.76595900  0.25967400  0.25392500  1
  Cd  Cd6  1  0.73404100  0.25967400  0.75392500  1
  Cd  Cd7  1  0.23404100  0.74032600  0.74607500  1
  Cd  Cd8  1  0.11609500  0.61387600  0.01002800  1
  Cd  Cd9  1  0.61609500  0.38612400  0.48997200  1
  Cd  Cd10  1  0.88390500  0.38612400  0.98997200  1
  Cd  Cd11  1  0.38390500  0.61387600  0.51002800  1
  Cd  Cd12  1  0.70495400  0.66355400  0.98061700  1
  Cd  Cd13  1  0.20495400  0.33644600  0.51938300  1
  Cd  Cd14  1  0.29504600  0.33644600  0.01938300  1
  Cd  Cd15  1  0.79504600  0.66355400  0.48061700  1
  S  S16  1  0.10953100  0.88287900  0.93594000  1
  S  S17  1  0.60953100  0.11712100  0.56406000  1
  S  S18  1  0.89046900  0.11712100  0.06406000  1
  S  S19  1  0.39046900  0.88287900  0.43594000  1
  S  S20  1  0.40389600  0.59992800  0.07097500  1
  S  S21  1  0.90389600  0.40007200  0.42902500  1
  S  S22  1  0.59610400  0.40007200  0.92902500  1
  S  S23  1  0.09610400  0.59992800  0.57097500  1
  S  S24  1  0.42324900  0.00134900  0.16710100  1
  S  S25  1  0.92324900  0.99865100  0.33289900  1
  S  S26  1  0.57675100  0.99865100  0.83289900  1
  S  S27  1  0.07675100  0.00134900  0.66710100  1
  S  S28  1  0.03890000  0.41666000  0.17555800  1
  S  S29  1  0.53890000  0.58334000  0.32444200  1
  S  S30  1  0.96110000  0.58334000  0.82444200  1
  S  S31  1  0.46110000  0.41666000  0.67555800  1
  O  O32  1  0.21698000  0.81921000  0.89407800  1
  O  O33  1  0.71698000  0.18079000  0.60592200  1
  O  O34  1  0.78302000  0.18079000  0.10592200  1
  O  O35  1  0.28302000  0.81921000  0.39407800  1
  O  O36  1  0.16726100  0.96612100  0.98918600  1
  O  O37  1  0.66726100  0.03387900  0.51081400  1
  O  O38  1  0.83273900  0.03387900  0.01081400  1
  O  O39  1  0.33273900  0.96612100  0.48918600  1
  O  O40  1  0.02210900  0.79737900  0.99487500  1
  O  O41  1  0.52210900  0.20262100  0.50512500  1
  O  O42  1  0.97789100  0.20262100  0.00512500  1
  O  O43  1  0.47789100  0.79737900  0.49487500  1
  O  O44  1  0.29239400  0.67699900  0.09653600  1
  O  O45  1  0.79239400  0.32300100  0.40346400  1
  O  O46  1  0.70760600  0.32300100  0.90346400  1
  O  O47  1  0.20760600  0.67699900  0.59653600  1
  O  O48  1  0.33452100  0.52960700  0.00418100  1
  O  O49  1  0.83452100  0.47039300  0.49581900  1
  O  O50  1  0.66547900  0.47039300  0.99581900  1
  O  O51  1  0.16547900  0.52960700  0.50418100  1
  O  O52  1  0.48620100  0.69028100  0.00101300  1
  O  O53  1  0.98620100  0.30971900  0.49898700  1
  O  O54  1  0.51379900  0.30971900  0.99898700  1
  O  O55  1  0.01379900  0.69028100  0.50101300  1
  O  O56  1  0.56475200  0.02399600  0.17534600  1
  O  O57  1  0.06475200  0.97600400  0.32465400  1
  O  O58  1  0.43524800  0.97600400  0.82465400  1
  O  O59  1  0.93524800  0.02399600  0.67534600  1
  O  O60  1  0.39651100  0.06294600  0.05553800  1
  O  O61  1  0.89651100  0.93705400  0.44446200  1
  O  O62  1  0.60348900  0.93705400  0.94446200  1
  O  O63  1  0.10348900  0.06294600  0.55553800  1
  O  O64  1  0.40869000  0.87304000  0.15759700  1
  O  O65  1  0.90869000  0.12696000  0.34240300  1
  O  O66  1  0.59131000  0.12696000  0.84240300  1
  O  O67  1  0.09131000  0.87304000  0.65759700  1
  O  O68  1  0.89624700  0.38566700  0.15733800  1
  O  O69  1  0.39624700  0.61433300  0.34266200  1
  O  O70  1  0.10375300  0.61433300  0.84266200  1
  O  O71  1  0.60375300  0.38566700  0.65733800  1
  O  O72  1  0.09696500  0.40411300  0.07188300  1
  O  O73  1  0.59696500  0.59588700  0.42811700  1
  O  O74  1  0.90303500  0.59588700  0.92811700  1
  O  O75  1  0.40303500  0.40411300  0.57188300  1
  O  O76  1  0.04267000  0.54608600  0.16669800  1
  O  O77  1  0.54267000  0.45391400  0.33330200  1
  O  O78  1  0.95733000  0.45391400  0.83330200  1
  O  O79  1  0.45733000  0.54608600  0.66669800  1
  O  O80  1  0.05521100  0.67282900  0.29511500  1
  O  O81  1  0.55521100  0.32717100  0.20488500  1
  O  O82  1  0.94478900  0.32717100  0.70488500  1
  O  O83  1  0.44478900  0.67282900  0.79511500  1
  O  O84  1  0.08987700  0.83842600  0.20263600  1
  O  O85  1  0.58987700  0.16157400  0.29736400  1
  O  O86  1  0.91012300  0.16157400  0.79736400  1
  O  O87  1  0.41012300  0.83842600  0.70263600  1
  O  O88  1  0.76026800  0.83564800  0.90106900  1
  O  O89  1  0.26026800  0.16435200  0.59893100  1
  O  O90  1  0.23973200  0.16435200  0.09893100  1
  O  O91  1  0.73973200  0.83564800  0.40106900  1
  O  O92  1  0.75396600  0.64481800  0.15016000  1
  O  O93  1  0.25396600  0.35518200  0.34984000  1
  O  O94  1  0.24603400  0.35518200  0.84984000  1
  O  O95  1  0.74603400  0.64481800  0.65016000  1
  O  O96  1  0.65882000  0.72132200  0.76935700  1
  O  O97  1  0.15882000  0.27867800  0.73064300  1
  O  O98  1  0.34118000  0.27867800  0.23064300  1
  O  O99  1  0.84118000  0.72132200  0.26935700  1
  O  O100  1  0.80918100  0.73731500  0.17766100  1
  O  O101  1  0.30918100  0.26268500  0.32233900  1
  O  O102  1  0.19081900  0.26268500  0.82233900  1
  O  O103  1  0.69081900  0.73731500  0.67766100  1
