# generated using pymatgen
data_CdSi3PH27C9I2
_symmetry_space_group_name_H-M   'P 1'
_cell_length_a   15.86757491
_cell_length_b   16.69418728
_cell_length_c   19.04576230
_cell_angle_alpha   90.00000000
_cell_angle_beta   90.00000000
_cell_angle_gamma   90.00000000
_symmetry_Int_Tables_number   1
_chemical_formula_structural   CdSi3PH27C9I2
_chemical_formula_sum   'Cd8 Si24 P8 H216 C72 I16'
_cell_volume   5045.15133976
_cell_formula_units_Z   8
loop_
 _symmetry_equiv_pos_site_id
 _symmetry_equiv_pos_as_xyz
  1  'x, y, z'
loop_
 _atom_site_type_symbol
 _atom_site_label
 _atom_site_symmetry_multiplicity
 _atom_site_fract_x
 _atom_site_fract_y
 _atom_site_fract_z
 _atom_site_occupancy
  Cd  Cd0  1  0.30901144  0.77855164  0.32940627  1
  Cd  Cd1  1  0.19098856  0.22144836  0.82940627  1
  Cd  Cd2  1  0.80901144  0.72144836  0.67059373  1
  Cd  Cd3  1  0.69098856  0.27855164  0.17059373  1
  Cd  Cd4  1  0.13039047  0.74334510  0.17142464  1
  Cd  Cd5  1  0.36960953  0.25665490  0.67142464  1
  Cd  Cd6  1  0.63039047  0.75665490  0.82857536  1
  Cd  Cd7  1  0.86960953  0.24334510  0.32857536  1
  Si  Si8  1  0.54705807  0.78270316  0.39672178  1
  Si  Si9  1  0.95294193  0.21729684  0.89672178  1
  Si  Si10  1  0.04705807  0.71729684  0.60327822  1
  Si  Si11  1  0.45294193  0.28270316  0.10327822  1
  Si  Si12  1  0.50042848  0.66726231  0.23193489  1
  Si  Si13  1  0.99957152  0.33273769  0.73193489  1
  Si  Si14  1  0.00042848  0.83273769  0.76806511  1
  Si  Si15  1  0.49957152  0.16726231  0.26806511  1
  Si  Si16  1  0.42753528  0.58765114  0.40846593  1
  Si  Si17  1  0.07246472  0.41234886  0.90846593  1
  Si  Si18  1  0.92753528  0.91234886  0.59153407  1
  Si  Si19  1  0.57246472  0.08765114  0.09153407  1
  Si  Si20  1  0.99794831  0.91932169  0.09005526  1
  Si  Si21  1  0.50205169  0.08067831  0.59005526  1
  Si  Si22  1  0.49794831  0.58067831  0.90994474  1
  Si  Si23  1  0.00205169  0.41932169  0.40994474  1
  Si  Si24  1  0.92990977  0.83889570  0.26864358  1
  Si  Si25  1  0.57009023  0.16110430  0.76864358  1
  Si  Si26  1  0.42990977  0.66110430  0.73135642  1
  Si  Si27  1  0.07009023  0.33889570  0.23135642  1
  Si  Si28  1  0.89208866  0.71554166  0.10613627  1
  Si  Si29  1  0.60791134  0.28445834  0.60613627  1
  Si  Si30  1  0.39208866  0.78445834  0.89386373  1
  Si  Si31  1  0.10791134  0.21554166  0.39386373  1
  P  P32  1  0.45071004  0.70077409  0.34137597  1
  P  P33  1  0.04928996  0.29922591  0.84137597  1
  P  P34  1  0.95071004  0.79922591  0.65862403  1
  P  P35  1  0.54928996  0.20077409  0.15862403  1
  P  P36  1  0.98167211  0.80695389  0.15921344  1
  P  P37  1  0.51832789  0.19304611  0.65921344  1
  P  P38  1  0.48167211  0.69304611  0.84078656  1
  P  P39  1  0.01832789  0.30695389  0.34078656  1
  H  H40  1  0.45893174  0.80784553  0.50246001  1
  H  H41  1  0.04106826  0.19215447  0.00246001  1
  H  H42  1  0.95893174  0.69215447  0.49753999  1
  H  H43  1  0.54106826  0.30784553  0.99753999  1
  H  H44  1  0.56811836  0.82552205  0.51841754  1
  H  H45  1  0.93188164  0.17447795  0.01841754  1
  H  H46  1  0.06811836  0.67447795  0.48158246  1
  H  H47  1  0.43188164  0.32552205  0.98158246  1
  H  H48  1  0.52980713  0.72607773  0.51811016  1
  H  H49  1  0.97019287  0.27392227  0.01811016  1
  H  H50  1  0.02980713  0.77392227  0.48188984  1
  H  H51  1  0.47019287  0.22607773  0.98188984  1
  H  H52  1  0.67000390  0.68763441  0.40331248  1
  H  H53  1  0.82999610  0.31236559  0.90331248  1
  H  H54  1  0.17000390  0.81236559  0.59668752  1
  H  H55  1  0.32999610  0.18763441  0.09668752  1
  H  H56  1  0.70094494  0.78944973  0.40789229  1
  H  H57  1  0.79905506  0.21055027  0.90789229  1
  H  H58  1  0.20094494  0.71055027  0.59210771  1
  H  H59  1  0.29905506  0.28944973  0.09210771  1
  H  H60  1  0.67415083  0.74718145  0.32533400  1
  H  H61  1  0.82584917  0.25281855  0.82533400  1
  H  H62  1  0.17415083  0.75281855  0.67466600  1
  H  H63  1  0.32584917  0.24718145  0.17466600  1
  H  H64  1  0.47176583  0.91074008  0.37058613  1
  H  H65  1  0.02823417  0.08925992  0.87058613  1
  H  H66  1  0.97176583  0.58925992  0.62941387  1
  H  H67  1  0.52823417  0.41074008  0.12941387  1
  H  H68  1  0.54794232  0.88968563  0.30384012  1
  H  H69  1  0.95205768  0.11031437  0.80384012  1
  H  H70  1  0.04794232  0.61031437  0.69615988  1
  H  H71  1  0.45205768  0.38968563  0.19615988  1
  H  H72  1  0.58123571  0.92529921  0.38729750  1
  H  H73  1  0.91876429  0.07470079  0.88729750  1
  H  H74  1  0.08123571  0.57470079  0.61270250  1
  H  H75  1  0.41876429  0.42529921  0.11270250  1
  H  H76  1  0.59315945  0.78824439  0.21629543  1
  H  H77  1  0.90684055  0.21175561  0.71629543  1
  H  H78  1  0.09315945  0.71175561  0.78370457  1
  H  H79  1  0.40684055  0.28824439  0.28370457  1
  H  H80  1  0.48811117  0.80708620  0.18663211  1
  H  H81  1  0.01188883  0.19291380  0.68663211  1
  H  H82  1  0.98811117  0.69291380  0.81336789  1
  H  H83  1  0.51188883  0.30708620  0.31336789  1
  H  H84  1  0.55801899  0.74798679  0.13528365  1
  H  H85  1  0.94198101  0.25201321  0.63528365  1
  H  H86  1  0.05801899  0.75201321  0.86471635  1
  H  H87  1  0.44198101  0.24798679  0.36471635  1
  H  H88  1  0.38683772  0.56863799  0.20125951  1
  H  H89  1  0.11316228  0.43136201  0.70125951  1
  H  H90  1  0.88683772  0.93136201  0.79874049  1
  H  H91  1  0.61316228  0.06863799  0.29874049  1
  H  H92  1  0.43282989  0.61440182  0.12622836  1
  H  H93  1  0.06717011  0.38559818  0.62622836  1
  H  H94  1  0.93282989  0.88559818  0.87377164  1
  H  H95  1  0.56717011  0.11440182  0.37377164  1
  H  H96  1  0.35732266  0.66764982  0.17675379  1
  H  H97  1  0.14267734  0.33235018  0.67675379  1
  H  H98  1  0.85732266  0.83235018  0.82324621  1
  H  H99  1  0.64267734  0.16764982  0.32324621  1
  H  H100  1  0.64316617  0.61487101  0.26602309  1
  H  H101  1  0.85683383  0.38512899  0.76602309  1
  H  H102  1  0.14316617  0.88512899  0.73397691  1
  H  H103  1  0.35683383  0.11487101  0.23397691  1
  H  H104  1  0.60853772  0.57657758  0.18384970  1
  H  H105  1  0.89146228  0.42342242  0.68384970  1
  H  H106  1  0.10853772  0.92342242  0.81615030  1
  H  H107  1  0.39146228  0.07657758  0.31615030  1
  H  H108  1  0.56773193  0.53615512  0.26287132  1
  H  H109  1  0.93226807  0.46384488  0.76287132  1
  H  H110  1  0.06773193  0.96384488  0.73712868  1
  H  H111  1  0.43226807  0.03615512  0.23712868  1
  H  H112  1  0.31652077  0.52785806  0.33065005  1
  H  H113  1  0.18347923  0.47214194  0.83065005  1
  H  H114  1  0.81652077  0.97214194  0.66934995  1
  H  H115  1  0.68347923  0.02785806  0.16934995  1
  H  H116  1  0.36599311  0.45624948  0.38678323  1
  H  H117  1  0.13400689  0.54375052  0.88678323  1
  H  H118  1  0.86599311  0.04375052  0.61321677  1
  H  H119  1  0.63400689  0.95624948  0.11321677  1
  H  H120  1  0.41822821  0.48895696  0.30931463  1
  H  H121  1  0.08177179  0.51104304  0.80931463  1
  H  H122  1  0.91822821  0.01104304  0.69068537  1
  H  H123  1  0.58177179  0.98895696  0.19068537  1
  H  H124  1  0.37882740  0.66228274  0.51537046  1
  H  H125  1  0.12117260  0.33771726  0.01537046  1
  H  H126  1  0.87882740  0.83771726  0.48462954  1
  H  H127  1  0.62117260  0.16228274  0.98462954  1
  H  H128  1  0.33844488  0.56239090  0.51122926  1
  H  H129  1  0.16155512  0.43760910  0.01122926  1
  H  H130  1  0.83844488  0.93760910  0.48877074  1
  H  H131  1  0.66155512  0.06239090  0.98877074  1
  H  H132  1  0.29293806  0.63950072  0.45861023  1
  H  H133  1  0.20706194  0.36049928  0.95861023  1
  H  H134  1  0.79293806  0.86049928  0.54138977  1
  H  H135  1  0.70706194  0.13950072  0.04138977  1
  H  H136  1  0.56104751  0.58859273  0.48099503  1
  H  H137  1  0.93895249  0.41140727  0.98099503  1
  H  H138  1  0.06104751  0.91140727  0.51900497  1
  H  H139  1  0.43895249  0.08859273  0.01900497  1
  H  H140  1  0.57245386  0.52860485  0.40430488  1
  H  H141  1  0.92754614  0.47139515  0.90430488  1
  H  H142  1  0.07245386  0.97139515  0.59569512  1
  H  H143  1  0.42754614  0.02860485  0.09569512  1
  H  H144  1  0.51205537  0.49309899  0.47645942  1
  H  H145  1  0.98794463  0.50690101  0.97645942  1
  H  H146  1  0.01205537  0.00690101  0.52354058  1
  H  H147  1  0.48794463  0.99309899  0.02354058  1
  H  H148  1  0.13333244  0.87518050  0.03480517  1
  H  H149  1  0.36666756  0.12481950  0.53480517  1
  H  H150  1  0.63333244  0.62481950  0.96519483  1
  H  H151  1  0.86666756  0.37518050  0.46519483  1
  H  H152  1  0.07873984  0.94678243  0.98305499  1
  H  H153  1  0.42126016  0.05321757  0.48305499  1
  H  H154  1  0.57873984  0.55321757  0.01694501  1
  H  H155  1  0.92126016  0.44678243  0.51694501  1
  H  H156  1  0.04581807  0.84434461  0.98285412  1
  H  H157  1  0.45418193  0.15565539  0.48285412  1
  H  H158  1  0.54581807  0.65565539  0.01714588  1
  H  H159  1  0.95418193  0.34434461  0.51714588  1
  H  H160  1  0.85080081  0.97184032  0.09778865  1
  H  H161  1  0.64919919  0.02815968  0.59778865  1
  H  H162  1  0.35080081  0.52815968  0.90221135  1
  H  H163  1  0.14919919  0.47184032  0.40221135  1
  H  H164  1  0.86129247  0.90755617  0.02355622  1
  H  H165  1  0.63870753  0.09244383  0.52355622  1
  H  H166  1  0.36129247  0.59244383  0.97644378  1
  H  H167  1  0.13870753  0.40755617  0.47644378  1
  H  H168  1  0.90368032  0.00593251  0.02131779  1
  H  H169  1  0.59631968  0.99406749  0.52131779  1
  H  H170  1  0.40368032  0.49406749  0.97868221  1
  H  H171  1  0.09631968  0.50593251  0.47868221  1
  H  H172  1  0.00670366  0.02201260  0.18606765  1
  H  H173  1  0.49329634  0.97798740  0.68606765  1
  H  H174  1  0.50670366  0.47798740  0.81393235  1
  H  H175  1  0.99329634  0.52201260  0.31393235  1
  H  H176  1  0.05814408  0.05237178  0.10756544  1
  H  H177  1  0.44185592  0.94762822  0.60756544  1
  H  H178  1  0.55814408  0.44762822  0.89243456  1
  H  H179  1  0.94185592  0.55237178  0.39243456  1
  H  H180  1  0.10886740  0.98345223  0.16492701  1
  H  H181  1  0.39113260  0.01654777  0.66492701  1
  H  H182  1  0.60886740  0.51654777  0.83507299  1
  H  H183  1  0.89113260  0.48345223  0.33507299  1
  H  H184  1  0.78321037  0.88058758  0.23522818  1
  H  H185  1  0.71678963  0.11941242  0.73522818  1
  H  H186  1  0.28321037  0.61941242  0.76477182  1
  H  H187  1  0.21678963  0.38058758  0.26477182  1
  H  H188  1  0.85166404  0.96520231  0.23850824  1
  H  H189  1  0.64833596  0.03479769  0.73850824  1
  H  H190  1  0.35166404  0.53479769  0.76149176  1
  H  H191  1  0.14833596  0.46520231  0.26149176  1
  H  H192  1  0.81575481  0.92094185  0.31743722  1
  H  H193  1  0.68424519  0.07905815  0.81743722  1
  H  H194  1  0.31575481  0.57905815  0.68256278  1
  H  H195  1  0.18424519  0.42094185  0.18256278  1
  H  H196  1  0.84628493  0.71213210  0.28574486  1
  H  H197  1  0.65371507  0.28786790  0.78574486  1
  H  H198  1  0.34628493  0.78786790  0.71425514  1
  H  H199  1  0.15371507  0.21213210  0.21425514  1
  H  H200  1  0.87762165  0.75668352  0.36608751  1
  H  H201  1  0.62237835  0.24331648  0.86608751  1
  H  H202  1  0.37762165  0.74331648  0.63391249  1
  H  H203  1  0.12237835  0.25668352  0.13391249  1
  H  H204  1  0.95197923  0.70085118  0.31635089  1
  H  H205  1  0.54802077  0.29914882  0.81635089  1
  H  H206  1  0.45197923  0.79914882  0.68364911  1
  H  H207  1  0.04802077  0.20085118  0.18364911  1
  H  H208  1  0.03570882  0.94541721  0.29842502  1
  H  H209  1  0.46429118  0.05458279  0.79842502  1
  H  H210  1  0.53570882  0.55458279  0.70157498  1
  H  H211  1  0.96429118  0.44541721  0.20157498  1
  H  H212  1  0.07220039  0.84905057  0.32479652  1
  H  H213  1  0.42779961  0.15094943  0.82479652  1
  H  H214  1  0.57220039  0.65094943  0.67520348  1
  H  H215  1  0.92779961  0.34905057  0.17520348  1
  H  H216  1  0.99217279  0.89845720  0.37369742  1
  H  H217  1  0.50782721  0.10154280  0.87369742  1
  H  H218  1  0.49217279  0.60154280  0.62630258  1
  H  H219  1  0.00782721  0.39845720  0.12630258  1
  H  H220  1  0.76332758  0.74280043  0.17872001  1
  H  H221  1  0.73667242  0.25719957  0.67872001  1
  H  H222  1  0.26332758  0.75719957  0.82127999  1
  H  H223  1  0.23667242  0.24280043  0.32127999  1
  H  H224  1  0.73893884  0.69892922  0.09623018  1
  H  H225  1  0.76106116  0.30107078  0.59623018  1
  H  H226  1  0.23893884  0.80107078  0.90376982  1
  H  H227  1  0.26106116  0.19892922  0.40376982  1
  H  H228  1  0.76303333  0.80247804  0.10069284  1
  H  H229  1  0.73696667  0.19752196  0.60069284  1
  H  H230  1  0.26303333  0.69752196  0.89930716  1
  H  H231  1  0.23696667  0.30247804  0.39930716  1
  H  H232  1  0.97768740  0.69507135  0.99775733  1
  H  H233  1  0.52231260  0.30492865  0.49775733  1
  H  H234  1  0.47768740  0.80492865  0.00224267  1
  H  H235  1  0.02231260  0.19507135  0.50224267  1
  H  H236  1  0.90004796  0.77173740  0.98408065  1
  H  H237  1  0.59995204  0.22826260  0.48408065  1
  H  H238  1  0.40004796  0.72826260  0.01591935  1
  H  H239  1  0.09995204  0.27173740  0.51591935  1
  H  H240  1  0.86947153  0.66986334  0.98579626  1
  H  H241  1  0.63052847  0.33013666  0.48579626  1
  H  H242  1  0.36947153  0.83013666  0.01420374  1
  H  H243  1  0.13052847  0.16986334  0.51420374  1
  H  H244  1  0.90110506  0.61100921  0.20068018  1
  H  H245  1  0.59889494  0.38899079  0.70068018  1
  H  H246  1  0.40110506  0.88899079  0.79931982  1
  H  H247  1  0.09889494  0.11100921  0.29931982  1
  H  H248  1  0.97971121  0.59590344  0.13463300  1
  H  H249  1  0.52028879  0.40409656  0.63463300  1
  H  H250  1  0.47971121  0.90409656  0.86536700  1
  H  H251  1  0.02028879  0.09590344  0.36536700  1
  H  H252  1  0.87262104  0.57055500  0.11765084  1
  H  H253  1  0.62737896  0.42944500  0.61765084  1
  H  H254  1  0.37262104  0.92944500  0.88234916  1
  H  H255  1  0.12737896  0.07055500  0.38234916  1
  C  C256  1  0.52274485  0.78480946  0.49291679  1
  C  C257  1  0.97725515  0.21519054  0.99291679  1
  C  C258  1  0.02274485  0.71519054  0.50708321  1
  C  C259  1  0.47725515  0.28480946  0.00708321  1
  C  C260  1  0.65788376  0.74733393  0.38139444  1
  C  C261  1  0.84211624  0.25266607  0.88139444  1
  C  C262  1  0.15788376  0.75266607  0.61860556  1
  C  C263  1  0.34211624  0.24733393  0.11860556  1
  C  C264  1  0.53512251  0.88661247  0.36033431  1
  C  C265  1  0.96487749  0.11338753  0.86033431  1
  C  C266  1  0.03512251  0.61338753  0.63966569  1
  C  C267  1  0.46487749  0.38661247  0.13966569  1
  C  C268  1  0.53854604  0.76207629  0.18944063  1
  C  C269  1  0.96145396  0.23792371  0.68944063  1
  C  C270  1  0.03854604  0.73792371  0.81055937  1
  C  C271  1  0.46145396  0.26207629  0.31055937  1
  C  C272  1  0.41029905  0.62554105  0.18009673  1
  C  C273  1  0.08970095  0.37445895  0.68009673  1
  C  C274  1  0.91029905  0.87445895  0.81990327  1
  C  C275  1  0.58970095  0.12554105  0.31990327  1
  C  C276  1  0.58809010  0.59199071  0.23748234  1
  C  C277  1  0.91190990  0.40800929  0.73748234  1
  C  C278  1  0.08809010  0.90800929  0.76251766  1
  C  C279  1  0.41190990  0.09199071  0.26251766  1
  C  C280  1  0.37724339  0.50845484  0.35243243  1
  C  C281  1  0.12275661  0.49154516  0.85243243  1
  C  C282  1  0.87724339  0.99154516  0.64756757  1
  C  C283  1  0.62275661  0.00845484  0.14756757  1
  C  C284  1  0.35245904  0.61665031  0.48022097  1
  C  C285  1  0.14754096  0.38334969  0.98022097  1
  C  C286  1  0.85245904  0.88334969  0.51977903  1
  C  C287  1  0.64754096  0.11665031  0.01977903  1
  C  C288  1  0.52831683  0.54695105  0.44570547  1
  C  C289  1  0.97168317  0.45304895  0.94570547  1
  C  C290  1  0.02831683  0.95304895  0.55429453  1
  C  C291  1  0.47168317  0.04695105  0.05429453  1
  C  C292  1  0.07057272  0.89284399  0.01579147  1
  C  C293  1  0.42942728  0.10715601  0.51579147  1
  C  C294  1  0.57057272  0.60715601  0.98420853  1
  C  C295  1  0.92942728  0.39284399  0.48420853  1
  C  C296  1  0.89323981  0.95336981  0.05527318  1
  C  C297  1  0.60676019  0.04663019  0.55527318  1
  C  C298  1  0.39323981  0.54663019  0.94472682  1
  C  C299  1  0.10676019  0.45336981  0.44472682  1
  C  C300  1  0.04751278  0.00128185  0.14325960  1
  C  C301  1  0.45248722  0.99871815  0.64325960  1
  C  C302  1  0.54751278  0.49871815  0.85674040  1
  C  C303  1  0.95248722  0.50128185  0.35674040  1
  C  C304  1  0.83644554  0.90761963  0.26341409  1
  C  C305  1  0.66355446  0.09238037  0.76341409  1
  C  C306  1  0.33644554  0.59238037  0.73658591  1
  C  C307  1  0.16355446  0.40761963  0.23658591  1
  C  C308  1  0.89863168  0.74249640  0.31231906  1
  C  C309  1  0.60136832  0.25750360  0.81231906  1
  C  C310  1  0.39863168  0.75750360  0.68768094  1
  C  C311  1  0.10136832  0.24249640  0.18768094  1
  C  C312  1  0.01631167  0.88748763  0.32027436  1
  C  C313  1  0.48368833  0.11251237  0.82027436  1
  C  C314  1  0.51631167  0.61251237  0.67972564  1
  C  C315  1  0.98368833  0.38748763  0.17972564  1
  C  C316  1  0.77913823  0.74356244  0.12265760  1
  C  C317  1  0.72086177  0.25643756  0.62265760  1
  C  C318  1  0.27913823  0.75643756  0.87734240  1
  C  C319  1  0.22086177  0.24356244  0.37734240  1
  C  C320  1  0.91285375  0.71392513  0.00934688  1
  C  C321  1  0.58714625  0.28607487  0.50934688  1
  C  C322  1  0.41285375  0.78607487  0.99065312  1
  C  C323  1  0.08714625  0.21392513  0.49065312  1
  C  C324  1  0.91406683  0.61411641  0.14419442  1
  C  C325  1  0.58593317  0.38588359  0.64419442  1
  C  C326  1  0.41406683  0.88588359  0.85580558  1
  C  C327  1  0.08593317  0.11411641  0.35580558  1
  I  I328  1  0.16645565  0.66787909  0.30765942  1
  I  I329  1  0.33354435  0.33212091  0.80765942  1
  I  I330  1  0.66645565  0.83212091  0.69234058  1
  I  I331  1  0.83354435  0.16787909  0.19234058  1
  I  I332  1  0.27129997  0.85496904  0.19395523  1
  I  I333  1  0.22870003  0.14503096  0.69395523  1
  I  I334  1  0.77129997  0.64503096  0.80604477  1
  I  I335  1  0.72870003  0.35496904  0.30604477  1
  I  I336  1  0.27425950  0.88779832  0.43543382  1
  I  I337  1  0.22574050  0.11220168  0.93543382  1
  I  I338  1  0.77425950  0.61220168  0.56456618  1
  I  I339  1  0.72574050  0.38779832  0.06456618  1
  I  I340  1  0.17035832  0.63534261  0.06479489  1
  I  I341  1  0.32964168  0.36465739  0.56479489  1
  I  I342  1  0.67035832  0.86465739  0.93520511  1
  I  I343  1  0.82964168  0.13534261  0.43520511  1
