# generated using pymatgen
data_C
_symmetry_space_group_name_H-M   'P 1'
_cell_length_a   9.11809600
_cell_length_b   9.63450600
_cell_length_c   13.32243700
_cell_angle_alpha   90.00000000
_cell_angle_beta   90.00000000
_cell_angle_gamma   90.00000000
_symmetry_Int_Tables_number   1
_chemical_formula_structural   C
_chemical_formula_sum   C120
_cell_volume   1170.35411670
_cell_formula_units_Z   120
loop_
 _symmetry_equiv_pos_site_id
 _symmetry_equiv_pos_as_xyz
  1  'x, y, z'
loop_
 _atom_site_type_symbol
 _atom_site_label
 _atom_site_symmetry_multiplicity
 _atom_site_fract_x
 _atom_site_fract_y
 _atom_site_fract_z
 _atom_site_occupancy
  C  C0  1  0.50000000  0.26765800  0.27179600  1
  C  C1  1  0.50000000  0.73234200  0.72820400  1
  C  C2  1  0.00000000  0.23234200  0.77179600  1
  C  C3  1  0.00000000  0.76765800  0.22820400  1
  C  C4  1  0.41235700  0.75907100  0.30271200  1
  C  C5  1  0.41235700  0.24092900  0.69728800  1
  C  C6  1  0.08764300  0.74092900  0.80271200  1
  C  C7  1  0.08764300  0.25907100  0.19728800  1
  C  C8  1  0.58764300  0.24092900  0.69728800  1
  C  C9  1  0.58764300  0.75907100  0.30271200  1
  C  C10  1  0.91235700  0.25907100  0.19728800  1
  C  C11  1  0.91235700  0.74092900  0.80271200  1
  C  C12  1  0.07741200  0.39229500  0.42994500  1
  C  C13  1  0.07741200  0.60770500  0.57005500  1
  C  C14  1  0.42258800  0.10770500  0.92994500  1
  C  C15  1  0.42258800  0.89229500  0.07005500  1
  C  C16  1  0.92258800  0.60770500  0.57005500  1
  C  C17  1  0.92258800  0.39229500  0.42994500  1
  C  C18  1  0.57741200  0.89229500  0.07005500  1
  C  C19  1  0.57741200  0.10770500  0.92994500  1
  C  C20  1  0.41397600  0.48939300  0.25200700  1
  C  C21  1  0.41397600  0.51060700  0.74799300  1
  C  C22  1  0.08602400  0.01060700  0.75200700  1
  C  C23  1  0.08602400  0.98939300  0.24799300  1
  C  C24  1  0.58602400  0.51060700  0.74799300  1
  C  C25  1  0.58602400  0.48939300  0.25200700  1
  C  C26  1  0.91397600  0.98939300  0.24799300  1
  C  C27  1  0.91397600  0.01060700  0.75200700  1
  C  C28  1  0.22468800  0.60253400  0.36664100  1
  C  C29  1  0.22468800  0.39746600  0.63335900  1
  C  C30  1  0.27531200  0.89746600  0.86664100  1
  C  C31  1  0.27531200  0.10253400  0.13335900  1
  C  C32  1  0.77531200  0.39746600  0.63335900  1
  C  C33  1  0.77531200  0.60253400  0.36664100  1
  C  C34  1  0.72468800  0.10253400  0.13335900  1
  C  C35  1  0.72468800  0.89746600  0.86664100  1
  C  C36  1  0.28117300  0.76061200  0.22211900  1
  C  C37  1  0.28117300  0.23938800  0.77788100  1
  C  C38  1  0.21882700  0.73938800  0.72211900  1
  C  C39  1  0.21882700  0.26061200  0.27788100  1
  C  C40  1  0.71882700  0.23938800  0.77788100  1
  C  C41  1  0.71882700  0.76061200  0.22211900  1
  C  C42  1  0.78117300  0.26061200  0.27788100  1
  C  C43  1  0.78117300  0.73938800  0.72211900  1
  C  C44  1  0.36565000  0.34822800  0.25596300  1
  C  C45  1  0.36565000  0.65177200  0.74403700  1
  C  C46  1  0.13435000  0.15177200  0.75596300  1
  C  C47  1  0.13435000  0.84822800  0.24403700  1
  C  C48  1  0.63435000  0.65177200  0.74403700  1
  C  C49  1  0.63435000  0.34822800  0.25596300  1
  C  C50  1  0.86565000  0.84822800  0.24403700  1
  C  C51  1  0.86565000  0.15177200  0.75596300  1
  C  C52  1  0.32955700  0.62096500  0.28350100  1
  C  C53  1  0.32955700  0.37903500  0.71649900  1
  C  C54  1  0.17044300  0.87903500  0.78350100  1
  C  C55  1  0.17044300  0.12096500  0.21649900  1
  C  C56  1  0.67044300  0.37903500  0.71649900  1
  C  C57  1  0.67044300  0.62096500  0.28350100  1
  C  C58  1  0.82955700  0.12096500  0.21649900  1
  C  C59  1  0.82955700  0.87903500  0.78350100  1
  C  C60  1  0.14976100  0.49137000  0.38532200  1
  C  C61  1  0.14976100  0.50863000  0.61467800  1
  C  C62  1  0.35023900  0.00863000  0.88532200  1
  C  C63  1  0.35023900  0.99137000  0.11467800  1
  C  C64  1  0.85023900  0.50863000  0.61467800  1
  C  C65  1  0.85023900  0.49137000  0.38532200  1
  C  C66  1  0.64976100  0.99137000  0.11467800  1
  C  C67  1  0.64976100  0.00863000  0.88532200  1
  C  C68  1  0.50000000  0.83374700  0.65344800  1
  C  C69  1  0.50000000  0.16625300  0.34655200  1
  C  C70  1  0.00000000  0.66625300  0.15344800  1
  C  C71  1  0.00000000  0.33374700  0.84655200  1
  C  C72  1  0.42076800  0.86151800  0.48812200  1
  C  C73  1  0.42076800  0.13848200  0.51187800  1
  C  C74  1  0.07923200  0.63848200  0.98812200  1
  C  C75  1  0.07923200  0.36151800  0.01187800  1
  C  C76  1  0.57923200  0.13848200  0.51187800  1
  C  C77  1  0.57923200  0.86151800  0.48812200  1
  C  C78  1  0.92076800  0.36151800  0.01187800  1
  C  C79  1  0.92076800  0.63848200  0.98812200  1
  C  C80  1  0.23022000  0.71962700  0.43490100  1
  C  C81  1  0.23022000  0.28037300  0.56509900  1
  C  C82  1  0.26978000  0.78037300  0.93490100  1
  C  C83  1  0.26978000  0.21962700  0.06509900  1
  C  C84  1  0.76978000  0.28037300  0.56509900  1
  C  C85  1  0.76978000  0.71962700  0.43490100  1
  C  C86  1  0.73022000  0.21962700  0.06509900  1
  C  C87  1  0.73022000  0.78037300  0.93490100  1
  C  C88  1  0.23830800  0.78388400  0.61248400  1
  C  C89  1  0.23830800  0.21611600  0.38751600  1
  C  C90  1  0.26169200  0.71611600  0.11248400  1
  C  C91  1  0.26169200  0.28388400  0.88751600  1
  C  C92  1  0.76169200  0.21611600  0.38751600  1
  C  C93  1  0.76169200  0.78388400  0.61248400  1
  C  C94  1  0.73830800  0.28388400  0.88751600  1
  C  C95  1  0.73830800  0.71611600  0.11248400  1
  C  C96  1  0.37141600  0.84938400  0.58941200  1
  C  C97  1  0.37141600  0.15061600  0.41058800  1
  C  C98  1  0.12858400  0.65061600  0.08941200  1
  C  C99  1  0.12858400  0.34938400  0.91058800  1
  C  C100  1  0.62858400  0.15061600  0.41058800  1
  C  C101  1  0.62858400  0.84938400  0.58941200  1
  C  C102  1  0.87141600  0.34938400  0.91058800  1
  C  C103  1  0.87141600  0.65061600  0.08941200  1
  C  C104  1  0.34881400  0.80276800  0.40635900  1
  C  C105  1  0.34881400  0.19723200  0.59364100  1
  C  C106  1  0.15118600  0.69723200  0.90635900  1
  C  C107  1  0.15118600  0.30276800  0.09364100  1
  C  C108  1  0.65118600  0.19723200  0.59364100  1
  C  C109  1  0.65118600  0.80276800  0.40635900  1
  C  C110  1  0.84881400  0.30276800  0.09364100  1
  C  C111  1  0.84881400  0.69723200  0.90635900  1
  C  C112  1  0.16896200  0.71982600  0.53185900  1
  C  C113  1  0.16896200  0.28017400  0.46814100  1
  C  C114  1  0.33103800  0.78017400  0.03185900  1
  C  C115  1  0.33103800  0.21982600  0.96814100  1
  C  C116  1  0.83103800  0.28017400  0.46814100  1
  C  C117  1  0.83103800  0.71982600  0.53185900  1
  C  C118  1  0.66896200  0.21982600  0.96814100  1
  C  C119  1  0.66896200  0.78017400  0.03185900  1
