# generated using pymatgen
data_Sr2NiTeO6
_symmetry_space_group_name_H-M   'P 1'
_cell_length_a   5.61202686
_cell_length_b   5.68674214
_cell_length_c   5.68674214
_cell_angle_alpha   91.44215982
_cell_angle_beta   60.42424080
_cell_angle_gamma   60.42424080
_symmetry_Int_Tables_number   1
_chemical_formula_structural   Sr2NiTeO6
_chemical_formula_sum   'Sr2 Ni1 Te1 O6'
_cell_volume   128.31484465
_cell_formula_units_Z   1
loop_
 _symmetry_equiv_pos_site_id
 _symmetry_equiv_pos_as_xyz
  1  'x, y, z'
loop_
 _atom_site_type_symbol
 _atom_site_label
 _atom_site_symmetry_multiplicity
 _atom_site_fract_x
 _atom_site_fract_y
 _atom_site_fract_z
 _atom_site_occupancy
  Sr  Sr0  1  0.50000000  0.25004300  0.74995700  1
  Sr  Sr1  1  0.50000000  0.74995700  0.25004300  1
  Ni  Ni2  1  0.00000000  0.00000000  0.00000000  1
  Te  Te3  1  0.00000000  0.50000000  0.50000000  1
  O  O4  1  0.00000000  0.25972000  0.74028000  1
  O  O5  1  0.00000000  0.74028000  0.25972000  1
  O  O6  1  0.48296800  0.21282000  0.21282000  1
  O  O7  1  0.51703200  0.78718000  0.78718000  1
  O  O8  1  0.09122500  0.69564800  0.69564800  1
  O  O9  1  0.90877500  0.30435200  0.30435200  1
