# generated using pymatgen
data_Tb2CoGe2
_symmetry_space_group_name_H-M   'P 1'
_cell_length_a   5.68088479
_cell_length_b   5.68088479
_cell_length_c   10.23924184
_cell_angle_alpha   63.78809790
_cell_angle_beta   63.78809790
_cell_angle_gamma   43.55353627
_symmetry_Int_Tables_number   1
_chemical_formula_structural   Tb2CoGe2
_chemical_formula_sum   'Tb4 Co2 Ge4'
_cell_volume   200.28361782
_cell_formula_units_Z   2
loop_
 _symmetry_equiv_pos_site_id
 _symmetry_equiv_pos_as_xyz
  1  'x, y, z'
loop_
 _atom_site_type_symbol
 _atom_site_label
 _atom_site_symmetry_multiplicity
 _atom_site_fract_x
 _atom_site_fract_y
 _atom_site_fract_z
 _atom_site_occupancy
  Tb  Tb0  1  0.81318700  0.81318700  0.11081100  1
  Tb  Tb1  1  0.18681300  0.18681300  0.88918900  1
  Tb  Tb2  1  0.99445400  0.99445400  0.33225500  1
  Tb  Tb3  1  0.00554600  0.00554600  0.66774500  1
  Co  Co4  1  0.27622000  0.27622000  0.36057600  1
  Co  Co5  1  0.72378000  0.72378000  0.63942400  1
  Ge  Ge6  1  0.51277400  0.51277400  0.12494600  1
  Ge  Ge7  1  0.48722600  0.48722600  0.87505400  1
  Ge  Ge8  1  0.65335100  0.65335100  0.43351200  1
  Ge  Ge9  1  0.34664900  0.34664900  0.56648800  1
