# generated using pymatgen
data_SmAgAs2
_symmetry_space_group_name_H-M   'P 1'
_cell_length_a   4.02691400
_cell_length_b   4.02691400
_cell_length_c   10.54624200
_cell_angle_alpha   90.00000000
_cell_angle_beta   90.00000000
_cell_angle_gamma   90.00000000
_symmetry_Int_Tables_number   1
_chemical_formula_structural   SmAgAs2
_chemical_formula_sum   'Sm2 Ag2 As4'
_cell_volume   171.01824377
_cell_formula_units_Z   2
loop_
 _symmetry_equiv_pos_site_id
 _symmetry_equiv_pos_as_xyz
  1  'x, y, z'
loop_
 _atom_site_type_symbol
 _atom_site_label
 _atom_site_symmetry_multiplicity
 _atom_site_fract_x
 _atom_site_fract_y
 _atom_site_fract_z
 _atom_site_occupancy
  Sm  Sm0  1  0.50000000  0.00000000  0.22966700  1
  Sm  Sm1  1  0.00000000  0.50000000  0.77033300  1
  Ag  Ag2  1  0.50000000  0.50000000  0.50000000  1
  Ag  Ag3  1  0.00000000  0.00000000  0.50000000  1
  As  As4  1  0.50000000  0.00000000  0.68250900  1
  As  As5  1  0.00000000  0.50000000  0.31749100  1
  As  As6  1  0.50000000  0.50000000  0.00000000  1
  As  As7  1  0.00000000  0.00000000  0.00000000  1
