# generated using pymatgen
data_U4Ni3(O13F7)2
_symmetry_space_group_name_H-M   'P 1'
_cell_length_a   8.47455000
_cell_length_b   12.18880200
_cell_length_c   17.06895085
_cell_angle_alpha   90.00000000
_cell_angle_beta   115.76925518
_cell_angle_gamma   90.00000000
_symmetry_Int_Tables_number   1
_chemical_formula_structural   U4Ni3(O13F7)2
_chemical_formula_sum   'U8 Ni6 O52 F28'
_cell_volume   1587.79116559
_cell_formula_units_Z   2
loop_
 _symmetry_equiv_pos_site_id
 _symmetry_equiv_pos_as_xyz
  1  'x, y, z'
loop_
 _atom_site_type_symbol
 _atom_site_label
 _atom_site_symmetry_multiplicity
 _atom_site_fract_x
 _atom_site_fract_y
 _atom_site_fract_z
 _atom_site_occupancy
  U  U0  1  0.50115600  0.77548700  0.17860300  1
  U  U1  1  0.49884400  0.27548700  0.32139700  1
  U  U2  1  0.49884400  0.22451300  0.82139700  1
  U  U3  1  0.50115600  0.72451300  0.67860300  1
  U  U4  1  0.50388700  0.75657500  0.94582300  1
  U  U5  1  0.49611300  0.25657500  0.55417700  1
  U  U6  1  0.49611300  0.24342500  0.05417700  1
  U  U7  1  0.50388700  0.74342500  0.44582300  1
  Ni  Ni8  1  0.01034300  0.47959100  0.66627800  1
  Ni  Ni9  1  0.98965700  0.97959100  0.83372200  1
  Ni  Ni10  1  0.98965700  0.52040900  0.33372200  1
  Ni  Ni11  1  0.01034300  0.02040900  0.16627800  1
  Ni  Ni12  1  0.00000000  0.50000000  0.00000000  1
  Ni  Ni13  1  0.00000000  0.00000000  0.50000000  1
  O  O14  1  0.56890300  0.63069900  0.18741900  1
  O  O15  1  0.43109700  0.13069900  0.31258100  1
  O  O16  1  0.43109700  0.36930100  0.81258100  1
  O  O17  1  0.56890300  0.86930100  0.68741900  1
  O  O18  1  0.43593800  0.91945600  0.16841000  1
  O  O19  1  0.56406200  0.41945600  0.33159000  1
  O  O20  1  0.56406200  0.08054400  0.83159000  1
  O  O21  1  0.43593800  0.58054400  0.66841000  1
  O  O22  1  0.43547400  0.90004700  0.92145900  1
  O  O23  1  0.56452600  0.40004700  0.57854100  1
  O  O24  1  0.56452600  0.09995300  0.07854100  1
  O  O25  1  0.43547400  0.59995300  0.42145900  1
  O  O26  1  0.57296400  0.61355700  0.97508300  1
  O  O27  1  0.42703600  0.11355700  0.52491700  1
  O  O28  1  0.42703600  0.38644300  0.02491700  1
  O  O29  1  0.57296400  0.88644300  0.47508300  1
  O  O30  1  0.12931600  0.51455600  0.78066500  1
  O  O31  1  0.87068400  0.01455600  0.71933500  1
  O  O32  1  0.87068400  0.48544400  0.21933500  1
  O  O33  1  0.12931600  0.98544400  0.28066500  1
  O  O34  1  0.03798300  0.33506800  0.69520400  1
  O  O35  1  0.96201700  0.83506800  0.80479600  1
  O  O36  1  0.96201700  0.66493200  0.30479600  1
  O  O37  1  0.03798300  0.16493200  0.19520400  1
  O  O38  1  0.85583200  0.50640200  0.71157800  1
  O  O39  1  0.14416800  0.00640200  0.78842200  1
  O  O40  1  0.14416800  0.49359800  0.28842200  1
  O  O41  1  0.85583200  0.99359800  0.21157800  1
  O  O42  1  0.98672200  0.61151500  0.61379800  1
  O  O43  1  0.01327800  0.11151500  0.88620200  1
  O  O44  1  0.01327800  0.38848500  0.38620200  1
  O  O45  1  0.98672200  0.88848500  0.11379800  1
  O  O46  1  0.87401800  0.46647300  0.55002500  1
  O  O47  1  0.12598200  0.96647300  0.94997500  1
  O  O48  1  0.12598200  0.53352700  0.44997500  1
  O  O49  1  0.87401800  0.03352700  0.05002500  1
  O  O50  1  0.18923200  0.42214700  0.64682500  1
  O  O51  1  0.81076800  0.92214700  0.85317500  1
  O  O52  1  0.81076800  0.57785300  0.35317500  1
  O  O53  1  0.18923200  0.07785300  0.14682500  1
  O  O54  1  0.00350400  0.43905700  0.90273600  1
  O  O55  1  0.99649600  0.93905700  0.59726400  1
  O  O56  1  0.99649600  0.56094300  0.09726400  1
  O  O57  1  0.00350400  0.06094300  0.40273600  1
  O  O58  1  0.79161800  0.47370400  0.00602300  1
  O  O59  1  0.20838200  0.97370400  0.49397700  1
  O  O60  1  0.20838200  0.52629600  0.99397700  1
  O  O61  1  0.79161800  0.02629600  0.50602300  1
  O  O62  1  0.93536200  0.62558100  0.93870200  1
  O  O63  1  0.06463800  0.12558100  0.56129800  1
  O  O64  1  0.06463800  0.37441900  0.06129800  1
  O  O65  1  0.93536200  0.87441900  0.43870200  1
  F  F66  1  0.51613100  0.73504400  0.81580000  1
  F  F67  1  0.48386900  0.23504400  0.68420000  1
  F  F68  1  0.48386900  0.26495600  0.18420000  1
  F  F69  1  0.51613100  0.76495600  0.31580000  1
  F  F70  1  0.24639200  0.73038100  0.15651400  1
  F  F71  1  0.75360800  0.23038100  0.34348600  1
  F  F72  1  0.75360800  0.26961900  0.84348600  1
  F  F73  1  0.24639200  0.76961900  0.65651400  1
  F  F74  1  0.34517800  0.75007100  0.02839900  1
  F  F75  1  0.65482200  0.25007100  0.47160100  1
  F  F76  1  0.65482200  0.24992900  0.97160100  1
  F  F77  1  0.34517800  0.74992900  0.52839900  1
  F  F78  1  0.65356400  0.80517700  0.09359400  1
  F  F79  1  0.34643600  0.30517700  0.40640600  1
  F  F80  1  0.34643600  0.19482300  0.90640600  1
  F  F81  1  0.65356400  0.69482300  0.59359400  1
  F  F82  1  0.75809600  0.83132700  0.26223500  1
  F  F83  1  0.24190400  0.33132700  0.23776500  1
  F  F84  1  0.24190400  0.16867300  0.73776500  1
  F  F85  1  0.75809600  0.66867300  0.76223500  1
  F  F86  1  0.24877400  0.70698400  0.85837300  1
  F  F87  1  0.75122600  0.20698400  0.64162700  1
  F  F88  1  0.75122600  0.29301600  0.14162700  1
  F  F89  1  0.24877400  0.79301600  0.35837300  1
  F  F90  1  0.76373500  0.79314000  0.97085000  1
  F  F91  1  0.23626500  0.29314000  0.52915000  1
  F  F92  1  0.23626500  0.20686000  0.02915000  1
  F  F93  1  0.76373500  0.70686000  0.47085000  1
