# generated using pymatgen
data_HfMg30BO31
_symmetry_space_group_name_H-M   'P 1'
_cell_length_a   8.56668400
_cell_length_b   8.59792200
_cell_length_c   8.60098500
_cell_angle_alpha   90.00000000
_cell_angle_beta   90.00000000
_cell_angle_gamma   90.00000000
_symmetry_Int_Tables_number   1
_chemical_formula_structural   HfMg30BO31
_chemical_formula_sum   'Hf1 Mg30 B1 O31'
_cell_volume   633.51140599
_cell_formula_units_Z   1
loop_
 _symmetry_equiv_pos_site_id
 _symmetry_equiv_pos_as_xyz
  1  'x, y, z'
loop_
 _atom_site_type_symbol
 _atom_site_label
 _atom_site_symmetry_multiplicity
 _atom_site_fract_x
 _atom_site_fract_y
 _atom_site_fract_z
 _atom_site_occupancy
  Hf  Hf0  1  0.01421200  0.00000000  0.50000000  1
  Mg  Mg1  1  0.00005500  0.50000000  0.00000000  1
  Mg  Mg2  1  0.99812000  0.50000000  0.50000000  1
  Mg  Mg3  1  0.50044300  0.00000000  0.00000000  1
  Mg  Mg4  1  0.50006500  0.00000000  0.50000000  1
  Mg  Mg5  1  0.50002100  0.50000000  0.00000000  1
  Mg  Mg6  1  0.50033600  0.50000000  0.50000000  1
  Mg  Mg7  1  0.99997100  0.25425400  0.24253900  1
  Mg  Mg8  1  0.99997100  0.25425400  0.75746100  1
  Mg  Mg9  1  0.99997100  0.74574600  0.24253900  1
  Mg  Mg10  1  0.99997100  0.74574600  0.75746100  1
  Mg  Mg11  1  0.49980700  0.25061900  0.24855700  1
  Mg  Mg12  1  0.49980700  0.25061900  0.75144300  1
  Mg  Mg13  1  0.49980700  0.74938100  0.24855700  1
  Mg  Mg14  1  0.49980700  0.74938100  0.75144300  1
  Mg  Mg15  1  0.25449500  0.00000000  0.24086600  1
  Mg  Mg16  1  0.25449500  0.00000000  0.75913400  1
  Mg  Mg17  1  0.25050800  0.50000000  0.24762100  1
  Mg  Mg18  1  0.25050800  0.50000000  0.75237900  1
  Mg  Mg19  1  0.74727200  0.00000000  0.24388000  1
  Mg  Mg20  1  0.74727200  0.00000000  0.75612000  1
  Mg  Mg21  1  0.74942200  0.50000000  0.24863000  1
  Mg  Mg22  1  0.74942200  0.50000000  0.75137000  1
  Mg  Mg23  1  0.24854400  0.24932600  0.00000000  1
  Mg  Mg24  1  0.25209000  0.25508400  0.50000000  1
  Mg  Mg25  1  0.24854400  0.75067400  0.00000000  1
  Mg  Mg26  1  0.25209000  0.74491600  0.50000000  1
  Mg  Mg27  1  0.75145100  0.24824200  0.00000000  1
  Mg  Mg28  1  0.74713700  0.25250200  0.50000000  1
  Mg  Mg29  1  0.75145100  0.75175800  0.00000000  1
  Mg  Mg30  1  0.74713700  0.74749800  0.50000000  1
  B  B31  1  0.99977300  0.00000000  0.00000000  1
  O  O32  1  0.26502900  0.00000000  0.00000000  1
  O  O33  1  0.25199600  0.50000000  0.00000000  1
  O  O34  1  0.24981100  0.50000000  0.50000000  1
  O  O35  1  0.73586300  0.00000000  0.00000000  1
  O  O36  1  0.74961300  0.00000000  0.50000000  1
  O  O37  1  0.74794800  0.50000000  0.00000000  1
  O  O38  1  0.74781900  0.50000000  0.50000000  1
  O  O39  1  0.24920400  0.25161200  0.24708600  1
  O  O40  1  0.24920400  0.25161200  0.75291400  1
  O  O41  1  0.24920400  0.74838800  0.24708600  1
  O  O42  1  0.24920400  0.74838800  0.75291400  1
  O  O43  1  0.75085300  0.24856900  0.24949900  1
  O  O44  1  0.75085300  0.24856900  0.75050100  1
  O  O45  1  0.75085300  0.75143100  0.24949900  1
  O  O46  1  0.75085300  0.75143100  0.75050100  1
  O  O47  1  0.00009500  0.00000000  0.26393900  1
  O  O48  1  0.00009500  0.00000000  0.73606100  1
  O  O49  1  0.99961300  0.50000000  0.25245600  1
  O  O50  1  0.99961300  0.50000000  0.74754400  1
  O  O51  1  0.50004900  0.00000000  0.25287500  1
  O  O52  1  0.50004900  0.00000000  0.74712500  1
  O  O53  1  0.50034000  0.50000000  0.25115700  1
  O  O54  1  0.50034000  0.50000000  0.74884300  1
  O  O55  1  0.99951700  0.26477300  0.00000000  1
  O  O56  1  0.99350600  0.25583300  0.50000000  1
  O  O57  1  0.99951700  0.73522700  0.00000000  1
  O  O58  1  0.99350600  0.74416700  0.50000000  1
  O  O59  1  0.50034600  0.25170300  0.00000000  1
  O  O60  1  0.50039500  0.25072400  0.50000000  1
  O  O61  1  0.50034600  0.74829700  0.00000000  1
  O  O62  1  0.50039500  0.74927600  0.50000000  1
