# generated using pymatgen
data_RbAg3S2
_symmetry_space_group_name_H-M   'P 1'
_cell_length_a   8.39688428
_cell_length_b   8.39688428
_cell_length_c   8.97511837
_cell_angle_alpha   66.15225315
_cell_angle_beta   66.15225315
_cell_angle_gamma   29.98282636
_symmetry_Int_Tables_number   1
_chemical_formula_structural   RbAg3S2
_chemical_formula_sum   'Rb2 Ag6 S4'
_cell_volume   287.20948222
_cell_formula_units_Z   2
loop_
 _symmetry_equiv_pos_site_id
 _symmetry_equiv_pos_as_xyz
  1  'x, y, z'
loop_
 _atom_site_type_symbol
 _atom_site_label
 _atom_site_symmetry_multiplicity
 _atom_site_fract_x
 _atom_site_fract_y
 _atom_site_fract_z
 _atom_site_occupancy
  Rb  Rb0  1  0.13453600  0.13453600  0.95548700  1
  Rb  Rb1  1  0.86546400  0.86546400  0.04451300  1
  Ag  Ag2  1  0.59838600  0.59838600  0.34637200  1
  Ag  Ag3  1  0.40161400  0.40161400  0.65362800  1
  Ag  Ag4  1  0.68737500  0.68737500  0.58320100  1
  Ag  Ag5  1  0.31262500  0.31262500  0.41679900  1
  Ag  Ag6  1  0.05728900  0.05728900  0.60021500  1
  Ag  Ag7  1  0.94271100  0.94271100  0.39978500  1
  S  S8  1  0.19683300  0.19683300  0.30302500  1
  S  S9  1  0.80316700  0.80316700  0.69697500  1
  S  S10  1  0.51745100  0.51745100  0.77471300  1
  S  S11  1  0.48254900  0.48254900  0.22528700  1
