# generated using pymatgen
data_LaTe2
_symmetry_space_group_name_H-M   'P 1'
_cell_length_a   4.57998400
_cell_length_b   9.26867300
_cell_length_c   9.26924600
_cell_angle_alpha   90.00000000
_cell_angle_beta   90.00000000
_cell_angle_gamma   90.00000000
_symmetry_Int_Tables_number   1
_chemical_formula_structural   LaTe2
_chemical_formula_sum   'La4 Te8'
_cell_volume   393.48295978
_cell_formula_units_Z   4
loop_
 _symmetry_equiv_pos_site_id
 _symmetry_equiv_pos_as_xyz
  1  'x, y, z'
loop_
 _atom_site_type_symbol
 _atom_site_label
 _atom_site_symmetry_multiplicity
 _atom_site_fract_x
 _atom_site_fract_y
 _atom_site_fract_z
 _atom_site_occupancy
  La  La0  1  0.97510900  0.75000000  0.72670800  1
  La  La1  1  0.02489100  0.25000000  0.72670800  1
  La  La2  1  0.50000000  0.00000000  0.27292500  1
  La  La3  1  0.50000000  0.50000000  0.27292500  1
  Te  Te4  1  0.00000000  0.00000000  0.00127200  1
  Te  Te5  1  0.00000000  0.50000000  0.00127200  1
  Te  Te6  1  0.43388500  0.75000000  0.99962600  1
  Te  Te7  1  0.56611500  0.25000000  0.99962600  1
  Te  Te8  1  0.99384900  0.75000000  0.36660900  1
  Te  Te9  1  0.00615100  0.25000000  0.36660900  1
  Te  Te10  1  0.50000000  0.00000000  0.63332400  1
  Te  Te11  1  0.50000000  0.50000000  0.63332400  1
