# generated using pymatgen
data_KNa3Al4(GeO4)4
_symmetry_space_group_name_H-M   'P 1'
_cell_length_a   8.69244200
_cell_length_b   10.20934919
_cell_length_c   10.36372013
_cell_angle_alpha   119.05051575
_cell_angle_beta   90.00000000
_cell_angle_gamma   90.00000000
_symmetry_Int_Tables_number   1
_chemical_formula_structural   KNa3Al4(GeO4)4
_chemical_formula_sum   'K2 Na6 Al8 Ge8 O32'
_cell_volume   804.01162376
_cell_formula_units_Z   2
loop_
 _symmetry_equiv_pos_site_id
 _symmetry_equiv_pos_as_xyz
  1  'x, y, z'
loop_
 _atom_site_type_symbol
 _atom_site_label
 _atom_site_symmetry_multiplicity
 _atom_site_fract_x
 _atom_site_fract_y
 _atom_site_fract_z
 _atom_site_occupancy
  K  K0  1  0.07388500  0.01187100  0.00750800  1
  K  K1  1  0.57388500  0.98812900  0.99249200  1
  Na  Na2  1  0.07124600  0.43609500  0.45332900  1
  Na  Na3  1  0.57124600  0.56390500  0.54667100  1
  Na  Na4  1  0.07100400  0.56199500  0.99958100  1
  Na  Na5  1  0.57100400  0.43800500  0.00041900  1
  Na  Na6  1  0.57074300  0.00771600  0.43789100  1
  Na  Na7  1  0.07074300  0.99228400  0.56210900  1
  Al  Al8  1  0.76287600  0.34736300  0.66417600  1
  Al  Al9  1  0.26287600  0.65263700  0.33582400  1
  Al  Al10  1  0.26151100  0.24412400  0.90209400  1
  Al  Al11  1  0.76151100  0.75587600  0.09790600  1
  Al  Al12  1  0.25860500  0.09160400  0.34237700  1
  Al  Al13  1  0.75860500  0.90839600  0.65762300  1
  Al  Al14  1  0.25306900  0.68006100  0.76341200  1
  Al  Al15  1  0.75306900  0.31993900  0.23658800  1
  Ge  Ge16  1  0.37747600  0.34767000  0.66537200  1
  Ge  Ge17  1  0.87747600  0.65233000  0.33462800  1
  Ge  Ge18  1  0.88002800  0.24236800  0.90035600  1
  Ge  Ge19  1  0.38002800  0.75763200  0.09964400  1
  Ge  Ge20  1  0.88454500  0.09077800  0.34095300  1
  Ge  Ge21  1  0.38454500  0.90922200  0.65904700  1
  Ge  Ge22  1  0.88844400  0.67948200  0.76127900  1
  Ge  Ge23  1  0.38844400  0.32051800  0.23872100  1
  O  O24  1  0.26667200  0.48408000  0.64977500  1
  O  O25  1  0.76667200  0.51592000  0.35022500  1
  O  O26  1  0.07059400  0.73387700  0.72987900  1
  O  O27  1  0.57059400  0.26612300  0.27012100  1
  O  O28  1  0.26075900  0.73803000  0.95393500  1
  O  O29  1  0.76075900  0.26197000  0.04606500  1
  O  O30  1  0.88958400  0.05096600  0.76990700  1
  O  O31  1  0.38958400  0.94903400  0.23009300  1
  O  O32  1  0.39689000  0.77585100  0.72088500  1
  O  O33  1  0.89689000  0.22414900  0.27911500  1
  O  O34  1  0.87065300  0.48476700  0.64604200  1
  O  O35  1  0.37065300  0.51523300  0.35395800  1
  O  O36  1  0.34731700  0.35878200  0.83871900  1
  O  O37  1  0.84731700  0.64121800  0.16128100  1
  O  O38  1  0.88003600  0.73443100  0.95096400  1
  O  O39  1  0.38003600  0.26556900  0.04903600  1
  O  O40  1  0.25384800  0.05149000  0.77109100  1
  O  O41  1  0.75384800  0.94851000  0.22890900  1
  O  O42  1  0.07134300  0.01895600  0.33449200  1
  O  O43  1  0.57134300  0.98104400  0.66550800  1
  O  O44  1  0.06996400  0.30441500  0.96009100  1
  O  O45  1  0.56996400  0.69558500  0.03990900  1
  O  O46  1  0.24450200  0.22490300  0.28025300  1
  O  O47  1  0.74450200  0.77509700  0.71974700  1
  O  O48  1  0.81396900  0.16666800  0.52252400  1
  O  O49  1  0.31396900  0.83333200  0.47747600  1
  O  O50  1  0.56984400  0.39002800  0.64984200  1
  O  O51  1  0.06984400  0.60997200  0.35015800  1
  O  O52  1  0.32983400  0.16681400  0.52418400  1
  O  O53  1  0.82983400  0.83318600  0.47581600  1
  O  O54  1  0.79565500  0.35677700  0.83674000  1
  O  O55  1  0.29565500  0.64322300  0.16326000  1
