# generated using pymatgen
data_K2Fe2P2O7F2
_symmetry_space_group_name_H-M   'P 1'
_cell_length_a   6.94419900
_cell_length_b   10.57902200
_cell_length_c   11.41415900
_cell_angle_alpha   90.00000000
_cell_angle_beta   90.00000000
_cell_angle_gamma   90.00000000
_symmetry_Int_Tables_number   1
_chemical_formula_structural   K2Fe2P2O7F2
_chemical_formula_sum   'K8 Fe8 P8 O28 F8'
_cell_volume   838.51646779
_cell_formula_units_Z   4
loop_
 _symmetry_equiv_pos_site_id
 _symmetry_equiv_pos_as_xyz
  1  'x, y, z'
loop_
 _atom_site_type_symbol
 _atom_site_label
 _atom_site_symmetry_multiplicity
 _atom_site_fract_x
 _atom_site_fract_y
 _atom_site_fract_z
 _atom_site_occupancy
  K  K0  1  0.50092700  0.06568100  0.82664300  1
  K  K1  1  0.99907300  0.56568100  0.67335700  1
  K  K2  1  0.00092700  0.93431900  0.67335700  1
  K  K3  1  0.49907300  0.43431900  0.82664300  1
  K  K4  1  0.49907300  0.93431900  0.17335700  1
  K  K5  1  0.00092700  0.43431900  0.32664300  1
  K  K6  1  0.99907300  0.06568100  0.32664300  1
  K  K7  1  0.50092700  0.56568100  0.17335700  1
  Fe  Fe8  1  0.00000000  0.25000000  0.83560300  1
  Fe  Fe9  1  0.50000000  0.75000000  0.66439700  1
  Fe  Fe10  1  0.00000000  0.75000000  0.16439700  1
  Fe  Fe11  1  0.50000000  0.25000000  0.33560300  1
  Fe  Fe12  1  0.00000000  0.00000000  0.00000000  1
  Fe  Fe13  1  0.50000000  0.50000000  0.50000000  1
  Fe  Fe14  1  0.50000000  0.00000000  0.50000000  1
  Fe  Fe15  1  0.00000000  0.50000000  0.00000000  1
  P  P16  1  0.21830700  0.24858300  0.57931200  1
  P  P17  1  0.28169300  0.74858300  0.92068800  1
  P  P18  1  0.71830700  0.75141700  0.92068800  1
  P  P19  1  0.78169300  0.25141700  0.57931200  1
  P  P20  1  0.78169300  0.75141700  0.42068800  1
  P  P21  1  0.71830700  0.25141700  0.07931200  1
  P  P22  1  0.28169300  0.24858300  0.07931200  1
  P  P23  1  0.21830700  0.74858300  0.42068800  1
  O  O24  1  0.00000000  0.25000000  0.52198500  1
  O  O25  1  0.50000000  0.75000000  0.97801500  1
  O  O26  1  0.00000000  0.75000000  0.47801500  1
  O  O27  1  0.50000000  0.25000000  0.02198500  1
  O  O28  1  0.17414500  0.32886900  0.98724400  1
  O  O29  1  0.32585500  0.82886900  0.51275600  1
  O  O30  1  0.67414500  0.67113100  0.51275600  1
  O  O31  1  0.82585500  0.17113100  0.98724400  1
  O  O32  1  0.82585500  0.67113100  0.01275600  1
  O  O33  1  0.67414500  0.17113100  0.48724400  1
  O  O34  1  0.32585500  0.32886900  0.48724400  1
  O  O35  1  0.17414500  0.82886900  0.01275600  1
  O  O36  1  0.28040900  0.10962200  0.58323100  1
  O  O37  1  0.21959100  0.60962200  0.91676900  1
  O  O38  1  0.78040900  0.89037800  0.91676900  1
  O  O39  1  0.71959100  0.39037800  0.58323100  1
  O  O40  1  0.71959100  0.89037800  0.41676900  1
  O  O41  1  0.78040900  0.39037800  0.08323100  1
  O  O42  1  0.21959100  0.10962200  0.08323100  1
  O  O43  1  0.28040900  0.60962200  0.41676900  1
  O  O44  1  0.20630600  0.30936000  0.70084800  1
  O  O45  1  0.29369400  0.80936000  0.79915200  1
  O  O46  1  0.70630600  0.69064000  0.79915200  1
  O  O47  1  0.79369400  0.19064000  0.70084800  1
  O  O48  1  0.79369400  0.69064000  0.29915200  1
  O  O49  1  0.70630600  0.19064000  0.20084800  1
  O  O50  1  0.29369400  0.30936000  0.20084800  1
  O  O51  1  0.20630600  0.80936000  0.29915200  1
  F  F52  1  0.11576900  0.07585300  0.84433400  1
  F  F53  1  0.38423100  0.57585300  0.65566600  1
  F  F54  1  0.61576900  0.92414700  0.65566600  1
  F  F55  1  0.88423100  0.42414700  0.84433400  1
  F  F56  1  0.88423100  0.92414700  0.15566600  1
  F  F57  1  0.61576900  0.42414700  0.34433400  1
  F  F58  1  0.38423100  0.07585300  0.34433400  1
  F  F59  1  0.11576900  0.57585300  0.15566600  1
