# generated using pymatgen
data_FeH10S2NO11
_symmetry_space_group_name_H-M   'P 1'
_cell_length_a   10.28872900
_cell_length_b   9.68191700
_cell_length_c   10.00612157
_cell_angle_alpha   85.55898766
_cell_angle_beta   90.00000000
_cell_angle_gamma   90.00000000
_symmetry_Int_Tables_number   1
_chemical_formula_structural   FeH10S2NO11
_chemical_formula_sum   'Fe4 H40 S8 N4 O44'
_cell_volume   993.76332080
_cell_formula_units_Z   4
loop_
 _symmetry_equiv_pos_site_id
 _symmetry_equiv_pos_as_xyz
  1  'x, y, z'
loop_
 _atom_site_type_symbol
 _atom_site_label
 _atom_site_symmetry_multiplicity
 _atom_site_fract_x
 _atom_site_fract_y
 _atom_site_fract_z
 _atom_site_occupancy
  Fe  Fe0  1  0.61374700  0.98422200  0.21470700  1
  Fe  Fe1  1  0.11374700  0.51577800  0.78529300  1
  Fe  Fe2  1  0.38625300  0.01577800  0.78529300  1
  Fe  Fe3  1  0.88625300  0.48422200  0.21470700  1
  H  H4  1  0.40458800  0.51010200  0.30011200  1
  H  H5  1  0.90458800  0.98989800  0.69988800  1
  H  H6  1  0.59541200  0.48989800  0.69988800  1
  H  H7  1  0.09541200  0.01010200  0.30011200  1
  H  H8  1  0.46073600  0.35909400  0.36994500  1
  H  H9  1  0.96073600  0.14090600  0.63005500  1
  H  H10  1  0.53926400  0.64090600  0.63005500  1
  H  H11  1  0.03926400  0.85909400  0.36994500  1
  H  H12  1  0.56493600  0.48750200  0.32853900  1
  H  H13  1  0.06493600  0.01249800  0.67146100  1
  H  H14  1  0.43506400  0.51249800  0.67146100  1
  H  H15  1  0.93506400  0.98750200  0.32853900  1
  H  H16  1  0.48819700  0.40347300  0.20378400  1
  H  H17  1  0.98819700  0.09652700  0.79621600  1
  H  H18  1  0.51180300  0.59652700  0.79621600  1
  H  H19  1  0.01180300  0.90347300  0.20378400  1
  H  H20  1  0.38319700  0.04839300  0.32188400  1
  H  H21  1  0.88319700  0.45160700  0.67811600  1
  H  H22  1  0.61680300  0.95160700  0.67811600  1
  H  H23  1  0.11680300  0.54839300  0.32188400  1
  H  H24  1  0.43348400  0.91358400  0.41067800  1
  H  H25  1  0.93348400  0.58641600  0.58932200  1
  H  H26  1  0.56651600  0.08641600  0.58932200  1
  H  H27  1  0.06651600  0.41358400  0.41067800  1
  H  H28  1  0.81674000  0.05996600  0.04464600  1
  H  H29  1  0.31674000  0.44003400  0.95535400  1
  H  H30  1  0.18326000  0.94003400  0.95535400  1
  H  H31  1  0.68326000  0.55996600  0.04464600  1
  H  H32  1  0.79354700  0.89513400  0.04094100  1
  H  H33  1  0.29354700  0.60486600  0.95905900  1
  H  H34  1  0.20645300  0.10486600  0.95905900  1
  H  H35  1  0.70645300  0.39513400  0.04094100  1
  H  H36  1  0.73113000  0.31355300  0.78976700  1
  H  H37  1  0.23113000  0.18644700  0.21023300  1
  H  H38  1  0.26887000  0.68644700  0.21023300  1
  H  H39  1  0.76887000  0.81355300  0.78976700  1
  H  H40  1  0.71807000  0.30837400  0.63074400  1
  H  H41  1  0.21807000  0.19162600  0.36925600  1
  H  H42  1  0.28193000  0.69162600  0.36925600  1
  H  H43  1  0.78193000  0.80837400  0.63074400  1
  S  S44  1  0.51495300  0.22754700  0.99014900  1
  S  S45  1  0.01495300  0.27245300  0.00985100  1
  S  S46  1  0.48504700  0.77245300  0.00985100  1
  S  S47  1  0.98504700  0.72754700  0.99014900  1
  S  S48  1  0.75591100  0.21738700  0.39426700  1
  S  S49  1  0.25591100  0.28261300  0.60573300  1
  S  S50  1  0.24408900  0.78261300  0.60573300  1
  S  S51  1  0.74408900  0.71738700  0.39426700  1
  N  N52  1  0.48093700  0.43944800  0.29923000  1
  N  N53  1  0.98093700  0.06055200  0.70077000  1
  N  N54  1  0.51906300  0.56055200  0.70077000  1
  N  N55  1  0.01906300  0.93944800  0.29923000  1
  O  O56  1  0.44389100  0.34550900  0.04084700  1
  O  O57  1  0.94389100  0.15449100  0.95915300  1
  O  O58  1  0.55610900  0.65449100  0.95915300  1
  O  O59  1  0.05610900  0.84550900  0.04084700  1
  O  O60  1  0.65306200  0.26225400  0.96399400  1
  O  O61  1  0.15306200  0.23774600  0.03600600  1
  O  O62  1  0.34693800  0.73774600  0.03600600  1
  O  O63  1  0.84693800  0.76225400  0.96399400  1
  O  O64  1  0.45284800  0.19032000  0.86190700  1
  O  O65  1  0.95284800  0.30968000  0.13809300  1
  O  O66  1  0.54715200  0.80968000  0.13809300  1
  O  O67  1  0.04715200  0.69032000  0.86190700  1
  O  O68  1  0.50195500  0.10566200  0.09149700  1
  O  O69  1  0.00195500  0.39433800  0.90850300  1
  O  O70  1  0.49804500  0.89433800  0.90850300  1
  O  O71  1  0.99804500  0.60566200  0.09149700  1
  O  O72  1  0.66096700  0.22061200  0.50593500  1
  O  O73  1  0.16096700  0.27938800  0.49406500  1
  O  O74  1  0.33903300  0.77938800  0.49406500  1
  O  O75  1  0.83903300  0.72061200  0.50593500  1
  O  O76  1  0.68985400  0.16366900  0.27501200  1
  O  O77  1  0.18985400  0.33633100  0.72498800  1
  O  O78  1  0.31014600  0.83633100  0.72498800  1
  O  O79  1  0.81014600  0.66366900  0.27501200  1
  O  O80  1  0.79116800  0.36684800  0.35657900  1
  O  O81  1  0.29116800  0.13315200  0.64342100  1
  O  O82  1  0.20883200  0.63315200  0.64342100  1
  O  O83  1  0.70883200  0.86684800  0.35657900  1
  O  O84  1  0.87226500  0.13630800  0.43281000  1
  O  O85  1  0.37226500  0.36369200  0.56719000  1
  O  O86  1  0.12773500  0.86369200  0.56719000  1
  O  O87  1  0.62773500  0.63630800  0.43281000  1
  O  O88  1  0.76685800  0.97985900  0.08598500  1
  O  O89  1  0.26685800  0.52014100  0.91401500  1
  O  O90  1  0.23314200  0.02014100  0.91401500  1
  O  O91  1  0.73314200  0.47985900  0.08598500  1
  O  O92  1  0.46229300  0.99028400  0.34577700  1
  O  O93  1  0.96229300  0.50971600  0.65422300  1
  O  O94  1  0.53770700  0.00971600  0.65422300  1
  O  O95  1  0.03770700  0.49028400  0.34577700  1
  O  O96  1  0.74477200  0.36802000  0.70338700  1
  O  O97  1  0.24477200  0.13198000  0.29661300  1
  O  O98  1  0.25522800  0.63198000  0.29661300  1
  O  O99  1  0.75522800  0.86802000  0.70338700  1
