# generated using pymatgen
data_RbH3(SeO3)2
_symmetry_space_group_name_H-M   'P 1'
_cell_length_a   6.21469100
_cell_length_b   20.86132300
_cell_length_c   6.23774300
_cell_angle_alpha   90.00000000
_cell_angle_beta   90.00000000
_cell_angle_gamma   90.00000000
_symmetry_Int_Tables_number   1
_chemical_formula_structural   RbH3(SeO3)2
_chemical_formula_sum   'Rb4 H12 Se8 O24'
_cell_volume   808.70264754
_cell_formula_units_Z   4
loop_
 _symmetry_equiv_pos_site_id
 _symmetry_equiv_pos_as_xyz
  1  'x, y, z'
loop_
 _atom_site_type_symbol
 _atom_site_label
 _atom_site_symmetry_multiplicity
 _atom_site_fract_x
 _atom_site_fract_y
 _atom_site_fract_z
 _atom_site_occupancy
  Rb  Rb0  1  0.97027800  0.61405000  0.74270200  1
  Rb  Rb1  1  0.02972200  0.38595000  0.74270200  1
  Rb  Rb2  1  0.47027800  0.88595000  0.25729800  1
  Rb  Rb3  1  0.52972200  0.11405000  0.25729800  1
  H  H4  1  0.93889400  0.95376200  0.98067600  1
  H  H5  1  0.06110600  0.04623800  0.98067600  1
  H  H6  1  0.43889400  0.54623800  0.01932400  1
  H  H7  1  0.56110600  0.45376200  0.01932400  1
  H  H8  1  0.28298600  0.73659800  0.52309400  1
  H  H9  1  0.71701400  0.26340200  0.52309400  1
  H  H10  1  0.78298600  0.76340200  0.47690600  1
  H  H11  1  0.21701400  0.23659800  0.47690600  1
  H  H12  1  0.65167400  0.87557100  0.72495100  1
  H  H13  1  0.34832600  0.12442900  0.72495100  1
  H  H14  1  0.15167400  0.62442900  0.27504900  1
  H  H15  1  0.84832600  0.37557100  0.27504900  1
  Se  Se16  1  0.02766700  0.88518700  0.70542300  1
  Se  Se17  1  0.97233300  0.11481300  0.70542300  1
  Se  Se18  1  0.52766700  0.61481300  0.29457700  1
  Se  Se19  1  0.47233300  0.38518700  0.29457700  1
  Se  Se20  1  0.51343200  0.74722800  0.83163600  1
  Se  Se21  1  0.48656800  0.25277200  0.83163600  1
  Se  Se22  1  0.01343200  0.75277200  0.16836400  1
  Se  Se23  1  0.98656800  0.24722800  0.16836400  1
  O  O24  1  0.05919500  0.92349900  0.97504400  1
  O  O25  1  0.94080500  0.07650100  0.97504400  1
  O  O26  1  0.55919500  0.57650100  0.02495600  1
  O  O27  1  0.44080500  0.42349900  0.02495600  1
  O  O28  1  0.74287800  0.73181700  0.69189600  1
  O  O29  1  0.25712200  0.26818300  0.69189600  1
  O  O30  1  0.24287800  0.76818300  0.30810400  1
  O  O31  1  0.75712200  0.23181700  0.30810400  1
  O  O32  1  0.75318500  0.91173700  0.67476100  1
  O  O33  1  0.24681500  0.08826300  0.67476100  1
  O  O34  1  0.25318500  0.58826300  0.32523900  1
  O  O35  1  0.74681500  0.41173700  0.32523900  1
  O  O36  1  0.47139500  0.82784300  0.80318300  1
  O  O37  1  0.52860500  0.17215700  0.80318300  1
  O  O38  1  0.97139500  0.67215700  0.19681700  1
  O  O39  1  0.02860500  0.32784300  0.19681700  1
  O  O40  1  0.15640500  0.93376200  0.54428100  1
  O  O41  1  0.84359500  0.06623800  0.54428100  1
  O  O42  1  0.65640500  0.56623800  0.45571900  1
  O  O43  1  0.34359500  0.43376200  0.45571900  1
  O  O44  1  0.30560200  0.71188500  0.66686200  1
  O  O45  1  0.69439800  0.28811500  0.66686200  1
  O  O46  1  0.80560200  0.78811500  0.33313800  1
  O  O47  1  0.19439800  0.21188500  0.33313800  1
