# generated using pymatgen
data_HfMg30BO31
_symmetry_space_group_name_H-M   'P 1'
_cell_length_a   8.63097400
_cell_length_b   8.63097400
_cell_length_c   8.52765400
_cell_angle_alpha   90.00000000
_cell_angle_beta   90.00000000
_cell_angle_gamma   90.00000000
_symmetry_Int_Tables_number   1
_chemical_formula_structural   HfMg30BO31
_chemical_formula_sum   'Hf1 Mg30 B1 O31'
_cell_volume   635.25660272
_cell_formula_units_Z   1
loop_
 _symmetry_equiv_pos_site_id
 _symmetry_equiv_pos_as_xyz
  1  'x, y, z'
loop_
 _atom_site_type_symbol
 _atom_site_label
 _atom_site_symmetry_multiplicity
 _atom_site_fract_x
 _atom_site_fract_y
 _atom_site_fract_z
 _atom_site_occupancy
  Hf  Hf0  1  0.50000000  0.50000000  0.99598700  1
  Mg  Mg1  1  0.50000000  0.00000000  0.99199400  1
  Mg  Mg2  1  0.00000000  0.50000000  0.99199400  1
  Mg  Mg3  1  0.00000000  0.00000000  0.49279900  1
  Mg  Mg4  1  0.50000000  0.00000000  0.49989200  1
  Mg  Mg5  1  0.00000000  0.50000000  0.49989200  1
  Mg  Mg6  1  0.50000000  0.50000000  0.49881100  1
  Mg  Mg7  1  0.23288800  0.23288800  0.99832400  1
  Mg  Mg8  1  0.76711200  0.23288800  0.99832400  1
  Mg  Mg9  1  0.23288800  0.76711200  0.99832400  1
  Mg  Mg10  1  0.76711200  0.76711200  0.99832400  1
  Mg  Mg11  1  0.24755500  0.24755500  0.49699600  1
  Mg  Mg12  1  0.75244500  0.24755500  0.49699600  1
  Mg  Mg13  1  0.24755500  0.75244500  0.49699600  1
  Mg  Mg14  1  0.75244500  0.75244500  0.49699600  1
  Mg  Mg15  1  0.26035600  0.00000000  0.24415300  1
  Mg  Mg16  1  0.73964400  0.00000000  0.24415300  1
  Mg  Mg17  1  0.24559100  0.50000000  0.25202500  1
  Mg  Mg18  1  0.75440900  0.50000000  0.25202500  1
  Mg  Mg19  1  0.24174800  0.00000000  0.75006500  1
  Mg  Mg20  1  0.75825200  0.00000000  0.75006500  1
  Mg  Mg21  1  0.24079700  0.50000000  0.74302600  1
  Mg  Mg22  1  0.75920300  0.50000000  0.74302600  1
  Mg  Mg23  1  0.00000000  0.26035600  0.24415300  1
  Mg  Mg24  1  0.50000000  0.24559100  0.25202500  1
  Mg  Mg25  1  0.00000000  0.73964400  0.24415300  1
  Mg  Mg26  1  0.50000000  0.75440900  0.25202500  1
  Mg  Mg27  1  0.00000000  0.24174800  0.75006500  1
  Mg  Mg28  1  0.50000000  0.24079700  0.74302600  1
  Mg  Mg29  1  0.00000000  0.75825200  0.75006500  1
  Mg  Mg30  1  0.50000000  0.75920300  0.74302600  1
  B  B31  1  0.00000000  0.00000000  0.21351500  1
  O  O32  1  0.50000000  0.00000000  0.24924300  1
  O  O33  1  0.00000000  0.50000000  0.24924300  1
  O  O34  1  0.50000000  0.50000000  0.24303400  1
  O  O35  1  0.00000000  0.00000000  0.72832200  1
  O  O36  1  0.50000000  0.00000000  0.74373700  1
  O  O37  1  0.00000000  0.50000000  0.74373700  1
  O  O38  1  0.50000000  0.50000000  0.75121900  1
  O  O39  1  0.25585400  0.25585400  0.24662100  1
  O  O40  1  0.74414600  0.25585400  0.24662100  1
  O  O41  1  0.25585400  0.74414600  0.24662100  1
  O  O42  1  0.74414600  0.74414600  0.24662100  1
  O  O43  1  0.25064500  0.25064500  0.74767800  1
  O  O44  1  0.74935500  0.25064500  0.74767800  1
  O  O45  1  0.25064500  0.74935500  0.74767800  1
  O  O46  1  0.74935500  0.74935500  0.74767800  1
  O  O47  1  0.27232100  0.00000000  0.99447600  1
  O  O48  1  0.72767900  0.00000000  0.99447600  1
  O  O49  1  0.25804900  0.50000000  0.99640100  1
  O  O50  1  0.74195100  0.50000000  0.99640100  1
  O  O51  1  0.25528200  0.00000000  0.49640900  1
  O  O52  1  0.74471800  0.00000000  0.49640900  1
  O  O53  1  0.25302500  0.50000000  0.49797100  1
  O  O54  1  0.74697500  0.50000000  0.49797100  1
  O  O55  1  0.00000000  0.27232100  0.99447600  1
  O  O56  1  0.50000000  0.25804900  0.99640100  1
  O  O57  1  0.00000000  0.72767900  0.99447600  1
  O  O58  1  0.50000000  0.74195100  0.99640100  1
  O  O59  1  0.00000000  0.25528200  0.49640900  1
  O  O60  1  0.50000000  0.25302500  0.49797100  1
  O  O61  1  0.00000000  0.74471800  0.49640900  1
  O  O62  1  0.50000000  0.74697500  0.49797100  1
