# generated using pymatgen
data_Y2MgPd2
_symmetry_space_group_name_H-M   'P 1'
_cell_length_a   3.89633000
_cell_length_b   7.61153900
_cell_length_c   7.61153900
_cell_angle_alpha   90.00000000
_cell_angle_beta   90.00000000
_cell_angle_gamma   90.00000000
_symmetry_Int_Tables_number   1
_chemical_formula_structural   Y2MgPd2
_chemical_formula_sum   'Y4 Mg2 Pd4'
_cell_volume   225.73592782
_cell_formula_units_Z   2
loop_
 _symmetry_equiv_pos_site_id
 _symmetry_equiv_pos_as_xyz
  1  'x, y, z'
loop_
 _atom_site_type_symbol
 _atom_site_label
 _atom_site_symmetry_multiplicity
 _atom_site_fract_x
 _atom_site_fract_y
 _atom_site_fract_z
 _atom_site_occupancy
  Y  Y0  1  0.50000000  0.17032200  0.67032200  1
  Y  Y1  1  0.50000000  0.82967800  0.32967800  1
  Y  Y2  1  0.50000000  0.32967800  0.17032200  1
  Y  Y3  1  0.50000000  0.67032200  0.82967800  1
  Mg  Mg4  1  0.00000000  0.00000000  0.00000000  1
  Mg  Mg5  1  0.00000000  0.50000000  0.50000000  1
  Pd  Pd6  1  0.00000000  0.63088400  0.13088400  1
  Pd  Pd7  1  0.00000000  0.36911600  0.86911600  1
  Pd  Pd8  1  0.00000000  0.86911600  0.63088400  1
  Pd  Pd9  1  0.00000000  0.13088400  0.36911600  1
