# generated using pymatgen
data_HfMg30BO31
_symmetry_space_group_name_H-M   'P 1'
_cell_length_a   8.51680800
_cell_length_b   8.60505300
_cell_length_c   8.66475300
_cell_angle_alpha   90.00000000
_cell_angle_beta   90.00000000
_cell_angle_gamma   90.00000000
_symmetry_Int_Tables_number   1
_chemical_formula_structural   HfMg30BO31
_chemical_formula_sum   'Hf1 Mg30 B1 O31'
_cell_volume   635.01881533
_cell_formula_units_Z   1
loop_
 _symmetry_equiv_pos_site_id
 _symmetry_equiv_pos_as_xyz
  1  'x, y, z'
loop_
 _atom_site_type_symbol
 _atom_site_label
 _atom_site_symmetry_multiplicity
 _atom_site_fract_x
 _atom_site_fract_y
 _atom_site_fract_z
 _atom_site_occupancy
  Hf  Hf0  1  0.99143200  0.00000000  0.50000000  1
  Mg  Mg1  1  0.99213200  0.50000000  0.00000000  1
  Mg  Mg2  1  0.99704200  0.50000000  0.50000000  1
  Mg  Mg3  1  0.49195900  0.00000000  0.00000000  1
  Mg  Mg4  1  0.50108700  0.00000000  0.50000000  1
  Mg  Mg5  1  0.49941800  0.50000000  0.00000000  1
  Mg  Mg6  1  0.49886500  0.50000000  0.50000000  1
  Mg  Mg7  1  0.99794100  0.24811400  0.23390100  1
  Mg  Mg8  1  0.99794100  0.24811400  0.76609900  1
  Mg  Mg9  1  0.99794100  0.75188600  0.23390100  1
  Mg  Mg10  1  0.99794100  0.75188600  0.76609900  1
  Mg  Mg11  1  0.49701300  0.25015300  0.24723200  1
  Mg  Mg12  1  0.49701300  0.25015300  0.75276800  1
  Mg  Mg13  1  0.49701300  0.74984700  0.24723200  1
  Mg  Mg14  1  0.49701300  0.74984700  0.75276800  1
  Mg  Mg15  1  0.25045000  0.00000000  0.25546700  1
  Mg  Mg16  1  0.25045000  0.00000000  0.74453300  1
  Mg  Mg17  1  0.24662800  0.50000000  0.25121900  1
  Mg  Mg18  1  0.24662800  0.50000000  0.74878100  1
  Mg  Mg19  1  0.74601800  0.00000000  0.23403700  1
  Mg  Mg20  1  0.74601800  0.00000000  0.76596300  1
  Mg  Mg21  1  0.74834500  0.50000000  0.24667700  1
  Mg  Mg22  1  0.74834500  0.50000000  0.75332300  1
  Mg  Mg23  1  0.24335200  0.26159900  0.00000000  1
  Mg  Mg24  1  0.25210200  0.25862600  0.50000000  1
  Mg  Mg25  1  0.24335200  0.73840100  0.00000000  1
  Mg  Mg26  1  0.25210200  0.74137400  0.50000000  1
  Mg  Mg27  1  0.74989600  0.24495100  0.00000000  1
  Mg  Mg28  1  0.74219800  0.25667500  0.50000000  1
  Mg  Mg29  1  0.74989600  0.75504900  0.00000000  1
  Mg  Mg30  1  0.74219800  0.74332500  0.50000000  1
  B  B31  1  0.21578800  0.00000000  0.00000000  1
  O  O32  1  0.24320800  0.00000000  0.50000000  1
  O  O33  1  0.25004800  0.50000000  0.00000000  1
  O  O34  1  0.24750200  0.50000000  0.50000000  1
  O  O35  1  0.72724500  0.00000000  0.00000000  1
  O  O36  1  0.74860300  0.00000000  0.50000000  1
  O  O37  1  0.74279700  0.50000000  0.00000000  1
  O  O38  1  0.74815600  0.50000000  0.50000000  1
  O  O39  1  0.24654700  0.25313700  0.25642600  1
  O  O40  1  0.24654700  0.25313700  0.74357400  1
  O  O41  1  0.24654700  0.74686300  0.25642600  1
  O  O42  1  0.24654700  0.74686300  0.74357400  1
  O  O43  1  0.74769900  0.24837900  0.25110000  1
  O  O44  1  0.74769900  0.24837900  0.74890000  1
  O  O45  1  0.74769900  0.75162100  0.25110000  1
  O  O46  1  0.74769900  0.75162100  0.74890000  1
  O  O47  1  0.99369500  0.00000000  0.26617900  1
  O  O48  1  0.99369500  0.00000000  0.73382100  1
  O  O49  1  0.99684200  0.50000000  0.25592600  1
  O  O50  1  0.99684200  0.50000000  0.74407400  1
  O  O51  1  0.49713700  0.00000000  0.25733200  1
  O  O52  1  0.49713700  0.00000000  0.74266800  1
  O  O53  1  0.49799300  0.50000000  0.25252900  1
  O  O54  1  0.49799300  0.50000000  0.74747100  1
  O  O55  1  0.99397000  0.27067700  0.00000000  1
  O  O56  1  0.99630200  0.24479700  0.50000000  1
  O  O57  1  0.99397000  0.72932300  0.00000000  1
  O  O58  1  0.99630200  0.75520300  0.50000000  1
  O  O59  1  0.49614200  0.25409500  0.00000000  1
  O  O60  1  0.49788800  0.24952200  0.50000000  1
  O  O61  1  0.49614200  0.74590500  0.00000000  1
  O  O62  1  0.49788800  0.75047800  0.50000000  1
