# generated using pymatgen
data_KCaI3
_symmetry_space_group_name_H-M   'P 1'
_cell_length_a   8.07196155
_cell_length_b   8.07196155
_cell_length_c   11.75006200
_cell_angle_alpha   90.00000000
_cell_angle_beta   90.00000000
_cell_angle_gamma   146.61584470
_symmetry_Int_Tables_number   1
_chemical_formula_structural   KCaI3
_chemical_formula_sum   'K2 Ca2 I6'
_cell_volume   421.26779380
_cell_formula_units_Z   2
loop_
 _symmetry_equiv_pos_site_id
 _symmetry_equiv_pos_as_xyz
  1  'x, y, z'
loop_
 _atom_site_type_symbol
 _atom_site_label
 _atom_site_symmetry_multiplicity
 _atom_site_fract_x
 _atom_site_fract_y
 _atom_site_fract_z
 _atom_site_occupancy
  K  K0  1  0.24745200  0.75254800  0.25000000  1
  K  K1  1  0.75254800  0.24745200  0.75000000  1
  Ca  Ca2  1  0.00000000  0.00000000  0.00000000  1
  Ca  Ca3  1  0.00000000  0.00000000  0.50000000  1
  I  I4  1  0.63390400  0.36609600  0.05585800  1
  I  I5  1  0.36609600  0.63390400  0.94414200  1
  I  I6  1  0.36609600  0.63390400  0.55585800  1
  I  I7  1  0.63390400  0.36609600  0.44414200  1
  I  I8  1  0.92501400  0.07498600  0.25000000  1
  I  I9  1  0.07498600  0.92501400  0.75000000  1
