# generated using pymatgen
data_BaNb3O6
_symmetry_space_group_name_H-M   'P 1'
_cell_length_a   2.91031000
_cell_length_b   7.22068582
_cell_length_c   7.22068580
_cell_angle_alpha   118.22432274
_cell_angle_beta   97.72107417
_cell_angle_gamma   97.72107415
_symmetry_Int_Tables_number   1
_chemical_formula_structural   BaNb3O6
_chemical_formula_sum   'Ba1 Nb3 O6'
_cell_volume   129.03754965
_cell_formula_units_Z   1
loop_
 _symmetry_equiv_pos_site_id
 _symmetry_equiv_pos_as_xyz
  1  'x, y, z'
loop_
 _atom_site_type_symbol
 _atom_site_label
 _atom_site_symmetry_multiplicity
 _atom_site_fract_x
 _atom_site_fract_y
 _atom_site_fract_z
 _atom_site_occupancy
  Ba  Ba0  1  0.98998000  0.00000000  0.00000000  1
  Nb  Nb1  1  0.36746300  0.00000000  0.53455700  1
  Nb  Nb2  1  0.36746300  0.53455700  0.00000000  1
  Nb  Nb3  1  0.83290700  0.46544300  0.46544300  1
  O  O4  1  0.05656500  0.77549400  0.20590700  1
  O  O5  1  0.28107100  0.43041300  0.22450600  1
  O  O6  1  0.28107100  0.22450600  0.43041300  1
  O  O7  1  0.85065800  0.79409300  0.56958700  1
  O  O8  1  0.85065800  0.56958700  0.79409300  1
  O  O9  1  0.05656500  0.20590700  0.77549400  1
