# generated using pymatgen
data_CeLuS3
_symmetry_space_group_name_H-M   'P 1'
_cell_length_a   6.68493277
_cell_length_b   6.68493277
_cell_length_c   9.91860000
_cell_angle_alpha   90.00000000
_cell_angle_beta   90.00000000
_cell_angle_gamma   147.26451271
_symmetry_Int_Tables_number   1
_chemical_formula_structural   CeLuS3
_chemical_formula_sum   'Ce2 Lu2 S6'
_cell_volume   239.69013904
_cell_formula_units_Z   2
loop_
 _symmetry_equiv_pos_site_id
 _symmetry_equiv_pos_as_xyz
  1  'x, y, z'
loop_
 _atom_site_type_symbol
 _atom_site_label
 _atom_site_symmetry_multiplicity
 _atom_site_fract_x
 _atom_site_fract_y
 _atom_site_fract_z
 _atom_site_occupancy
  Ce  Ce0  1  0.00000000  0.00000000  0.00000000  1
  Ce  Ce1  1  0.00000000  0.00000000  0.50000000  1
  Lu  Lu2  1  0.24377400  0.75622600  0.25000000  1
  Lu  Lu3  1  0.75622600  0.24377400  0.75000000  1
  S  S4  1  0.64781500  0.35218500  0.08413600  1
  S  S5  1  0.35218500  0.64781500  0.58413600  1
  S  S6  1  0.64781500  0.35218500  0.41586400  1
  S  S7  1  0.35218500  0.64781500  0.91586400  1
  S  S8  1  0.89433600  0.10566400  0.25000000  1
  S  S9  1  0.10566400  0.89433600  0.75000000  1
