# generated using pymatgen
data_NdTa2O6
_symmetry_space_group_name_H-M   'P 1'
_cell_length_a   3.98866100
_cell_length_b   3.98866100
_cell_length_c   7.97185400
_cell_angle_alpha   90.00000000
_cell_angle_beta   90.00000000
_cell_angle_gamma   90.00000000
_symmetry_Int_Tables_number   1
_chemical_formula_structural   NdTa2O6
_chemical_formula_sum   'Nd1 Ta2 O6'
_cell_volume   126.82754614
_cell_formula_units_Z   1
loop_
 _symmetry_equiv_pos_site_id
 _symmetry_equiv_pos_as_xyz
  1  'x, y, z'
loop_
 _atom_site_type_symbol
 _atom_site_label
 _atom_site_symmetry_multiplicity
 _atom_site_fract_x
 _atom_site_fract_y
 _atom_site_fract_z
 _atom_site_occupancy
  Nd  Nd0  1  0.50000000  0.50000000  0.00000000  1
  Ta  Ta1  1  0.00000000  0.00000000  0.25808900  1
  Ta  Ta2  1  0.00000000  0.00000000  0.74191100  1
  O  O3  1  0.50000000  0.00000000  0.22138300  1
  O  O4  1  0.50000000  0.00000000  0.77861700  1
  O  O5  1  0.00000000  0.50000000  0.22138300  1
  O  O6  1  0.00000000  0.50000000  0.77861700  1
  O  O7  1  0.00000000  0.00000000  0.50000000  1
  O  O8  1  0.00000000  0.00000000  0.00000000  1
