# generated using pymatgen
data_Ba3YbF6
_symmetry_space_group_name_H-M   'P 1'
_cell_length_a   7.73878981
_cell_length_b   8.19225364
_cell_length_c   7.83577969
_cell_angle_alpha   121.45405507
_cell_angle_beta   61.37879559
_cell_angle_gamma   149.26085271
_symmetry_Int_Tables_number   1
_chemical_formula_structural   Ba3YbF6
_chemical_formula_sum   'Ba3 Yb1 F6'
_cell_volume   216.07428905
_cell_formula_units_Z   1
loop_
 _symmetry_equiv_pos_site_id
 _symmetry_equiv_pos_as_xyz
  1  'x, y, z'
loop_
 _atom_site_type_symbol
 _atom_site_label
 _atom_site_symmetry_multiplicity
 _atom_site_fract_x
 _atom_site_fract_y
 _atom_site_fract_z
 _atom_site_occupancy
  Ba  Ba0  1  0.50000000  0.00000000  0.00000000  1
  Ba  Ba1  1  0.00000000  0.50000000  0.50000000  1
  Ba  Ba2  1  0.00000000  0.00000000  0.50000000  1
  Yb  Yb3  1  0.00000000  0.00000000  0.00000000  1
  F  F4  1  0.70083000  0.92248200  0.31276600  1
  F  F5  1  0.29917000  0.07751800  0.68723400  1
  F  F6  1  0.64443300  0.73686200  0.80153600  1
  F  F7  1  0.35556700  0.26313800  0.19846400  1
  F  F8  1  0.93847400  0.64021000  0.90680500  1
  F  F9  1  0.06152600  0.35979000  0.09319500  1
