# generated using pymatgen
data_CaInI3
_symmetry_space_group_name_H-M   'P 1'
_cell_length_a   7.91148753
_cell_length_b   7.91148753
_cell_length_c   11.72547600
_cell_angle_alpha   90.00000000
_cell_angle_beta   90.00000000
_cell_angle_gamma   146.05750644
_symmetry_Int_Tables_number   1
_chemical_formula_structural   CaInI3
_chemical_formula_sum   'Ca2 In2 I6'
_cell_volume   409.79012969
_cell_formula_units_Z   2
loop_
 _symmetry_equiv_pos_site_id
 _symmetry_equiv_pos_as_xyz
  1  'x, y, z'
loop_
 _atom_site_type_symbol
 _atom_site_label
 _atom_site_symmetry_multiplicity
 _atom_site_fract_x
 _atom_site_fract_y
 _atom_site_fract_z
 _atom_site_occupancy
  Ca  Ca0  1  0.00000000  0.00000000  0.00000000  1
  Ca  Ca1  1  0.00000000  0.00000000  0.50000000  1
  In  In2  1  0.24831600  0.75168400  0.25000000  1
  In  In3  1  0.75168400  0.24831600  0.75000000  1
  I  I4  1  0.63722200  0.36277800  0.05535500  1
  I  I5  1  0.36277800  0.63722200  0.94464500  1
  I  I6  1  0.36277800  0.63722200  0.55535500  1
  I  I7  1  0.63722200  0.36277800  0.44464500  1
  I  I8  1  0.91999700  0.08000300  0.25000000  1
  I  I9  1  0.08000300  0.91999700  0.75000000  1
