# generated using pymatgen
data_CsHfMg30O31
_symmetry_space_group_name_H-M   'P 1'
_cell_length_a   8.77762600
_cell_length_b   8.77762600
_cell_length_c   8.64800000
_cell_angle_alpha   90.00000000
_cell_angle_beta   90.00000000
_cell_angle_gamma   90.00000000
_symmetry_Int_Tables_number   1
_chemical_formula_structural   CsHfMg30O31
_chemical_formula_sum   'Cs1 Hf1 Mg30 O31'
_cell_volume   666.30001896
_cell_formula_units_Z   1
loop_
 _symmetry_equiv_pos_site_id
 _symmetry_equiv_pos_as_xyz
  1  'x, y, z'
loop_
 _atom_site_type_symbol
 _atom_site_label
 _atom_site_symmetry_multiplicity
 _atom_site_fract_x
 _atom_site_fract_y
 _atom_site_fract_z
 _atom_site_occupancy
  Cs  Cs0  1  0.00000000  0.00000000  0.04267100  1
  Hf  Hf1  1  0.50000000  0.50000000  0.99796300  1
  Mg  Mg2  1  0.50000000  0.00000000  0.99462700  1
  Mg  Mg3  1  0.00000000  0.50000000  0.99462700  1
  Mg  Mg4  1  0.00000000  0.00000000  0.48830000  1
  Mg  Mg5  1  0.50000000  0.00000000  0.50469300  1
  Mg  Mg6  1  0.00000000  0.50000000  0.50469300  1
  Mg  Mg7  1  0.50000000  0.50000000  0.50121400  1
  Mg  Mg8  1  0.24713200  0.24713200  0.99802700  1
  Mg  Mg9  1  0.75286800  0.24713200  0.99802700  1
  Mg  Mg10  1  0.24713200  0.75286800  0.99802700  1
  Mg  Mg11  1  0.75286800  0.75286800  0.99802700  1
  Mg  Mg12  1  0.24864500  0.24864500  0.50114100  1
  Mg  Mg13  1  0.75135500  0.24864500  0.50114100  1
  Mg  Mg14  1  0.24864500  0.75135500  0.50114100  1
  Mg  Mg15  1  0.75135500  0.75135500  0.50114100  1
  Mg  Mg16  1  0.26412000  0.00000000  0.26068700  1
  Mg  Mg17  1  0.73588000  0.00000000  0.26068700  1
  Mg  Mg18  1  0.24585500  0.50000000  0.25687700  1
  Mg  Mg19  1  0.75414500  0.50000000  0.25687700  1
  Mg  Mg20  1  0.24851600  0.00000000  0.74643600  1
  Mg  Mg21  1  0.75148400  0.00000000  0.74643600  1
  Mg  Mg22  1  0.24195800  0.50000000  0.74241800  1
  Mg  Mg23  1  0.75804200  0.50000000  0.74241800  1
  Mg  Mg24  1  0.00000000  0.26412000  0.26068700  1
  Mg  Mg25  1  0.50000000  0.24585500  0.25687700  1
  Mg  Mg26  1  0.00000000  0.73588000  0.26068700  1
  Mg  Mg27  1  0.50000000  0.75414500  0.25687700  1
  Mg  Mg28  1  0.00000000  0.24851600  0.74643600  1
  Mg  Mg29  1  0.50000000  0.24195800  0.74241800  1
  Mg  Mg30  1  0.00000000  0.75148400  0.74643600  1
  Mg  Mg31  1  0.50000000  0.75804200  0.74241800  1
  O  O32  1  0.50000000  0.00000000  0.25461000  1
  O  O33  1  0.00000000  0.50000000  0.25461000  1
  O  O34  1  0.50000000  0.50000000  0.24360200  1
  O  O35  1  0.00000000  0.00000000  0.72175500  1
  O  O36  1  0.50000000  0.00000000  0.74561200  1
  O  O37  1  0.00000000  0.50000000  0.74561200  1
  O  O38  1  0.50000000  0.50000000  0.75510200  1
  O  O39  1  0.25259300  0.25259300  0.24756400  1
  O  O40  1  0.74740700  0.25259300  0.24756400  1
  O  O41  1  0.25259300  0.74740700  0.24756400  1
  O  O42  1  0.74740700  0.74740700  0.24756400  1
  O  O43  1  0.25140600  0.25140600  0.75046800  1
  O  O44  1  0.74859400  0.25140600  0.75046800  1
  O  O45  1  0.25140600  0.74859400  0.75046800  1
  O  O46  1  0.74859400  0.74859400  0.75046800  1
  O  O47  1  0.28267200  0.00000000  0.99417500  1
  O  O48  1  0.71732800  0.00000000  0.99417500  1
  O  O49  1  0.26113500  0.50000000  0.99932300  1
  O  O50  1  0.73886500  0.50000000  0.99932300  1
  O  O51  1  0.26288500  0.00000000  0.50327600  1
  O  O52  1  0.73711500  0.00000000  0.50327600  1
  O  O53  1  0.25464900  0.50000000  0.49968600  1
  O  O54  1  0.74535100  0.50000000  0.49968600  1
  O  O55  1  0.00000000  0.28267200  0.99417500  1
  O  O56  1  0.50000000  0.26113500  0.99932300  1
  O  O57  1  0.00000000  0.71732800  0.99417500  1
  O  O58  1  0.50000000  0.73886500  0.99932300  1
  O  O59  1  0.00000000  0.26288500  0.50327600  1
  O  O60  1  0.50000000  0.25464900  0.49968600  1
  O  O61  1  0.00000000  0.73711500  0.50327600  1
  O  O62  1  0.50000000  0.74535100  0.49968600  1
