# generated using pymatgen
data_Pr2CdAs2O
_symmetry_space_group_name_H-M   'P 1'
_cell_length_a   3.44210200
_cell_length_b   3.44210200
_cell_length_c   15.50813400
_cell_angle_alpha   90.00000000
_cell_angle_beta   90.00000000
_cell_angle_gamma   90.00000000
_symmetry_Int_Tables_number   1
_chemical_formula_structural   Pr2CdAs2O
_chemical_formula_sum   'Pr2 Cd1 As2 O1'
_cell_volume   183.74139794
_cell_formula_units_Z   1
loop_
 _symmetry_equiv_pos_site_id
 _symmetry_equiv_pos_as_xyz
  1  'x, y, z'
loop_
 _atom_site_type_symbol
 _atom_site_label
 _atom_site_symmetry_multiplicity
 _atom_site_fract_x
 _atom_site_fract_y
 _atom_site_fract_z
 _atom_site_occupancy
  Pr  Pr0  1  0.50000000  0.50000000  0.63709200  1
  Pr  Pr1  1  0.50000000  0.50000000  0.36290800  1
  Cd  Cd2  1  0.50000000  0.50000000  0.00000000  1
  As  As3  1  0.50000000  0.50000000  0.16331200  1
  As  As4  1  0.50000000  0.50000000  0.83668800  1
  O  O5  1  0.50000000  0.50000000  0.50000000  1
