# generated using pymatgen
data_Pr2Sb3Au
_symmetry_space_group_name_H-M   'P 1'
_cell_length_a   9.74700200
_cell_length_b   9.74700200
_cell_length_c   41.16036000
_cell_angle_alpha   90.00000000
_cell_angle_beta   90.00000000
_cell_angle_gamma   90.00000000
_symmetry_Int_Tables_number   1
_chemical_formula_structural   Pr2Sb3Au
_chemical_formula_sum   'Pr2 Sb3 Au1'
_cell_volume   3910.40081664
_cell_formula_units_Z   1
loop_
 _symmetry_equiv_pos_site_id
 _symmetry_equiv_pos_as_xyz
  1  'x, y, z'
loop_
 _atom_site_type_symbol
 _atom_site_label
 _atom_site_symmetry_multiplicity
 _atom_site_fract_x
 _atom_site_fract_y
 _atom_site_fract_z
 _atom_site_occupancy
  Pr  Pr0  1  0.50000000  0.50000000  0.24275900  1
  Pr  Pr1  1  0.50000000  0.50000000  0.75724100  1
  Sb  Sb2  1  0.50000000  0.50000000  0.69075300  1
  Sb  Sb3  1  0.50000000  0.50000000  0.30924700  1
  Sb  Sb4  1  0.50000000  0.50000000  0.00000000  1
  Au  Au5  1  0.50000000  0.50000000  0.50000000  1
