# generated using pymatgen
data_ZnBr6
_symmetry_space_group_name_H-M   'P 1'
_cell_length_a   9.69417062
_cell_length_b   9.69417062
_cell_length_c   47.41031200
_cell_angle_alpha   90.00000000
_cell_angle_beta   90.00000000
_cell_angle_gamma   112.85763893
_symmetry_Int_Tables_number   1
_chemical_formula_structural   ZnBr6
_chemical_formula_sum   'Zn1 Br6'
_cell_volume   4105.60038018
_cell_formula_units_Z   1
loop_
 _symmetry_equiv_pos_site_id
 _symmetry_equiv_pos_as_xyz
  1  'x, y, z'
loop_
 _atom_site_type_symbol
 _atom_site_label
 _atom_site_symmetry_multiplicity
 _atom_site_fract_x
 _atom_site_fract_y
 _atom_site_fract_z
 _atom_site_occupancy
  Zn  Zn0  1  0.00000000  0.00000000  0.00000000  1
  Br  Br1  1  0.00000000  0.00000000  0.24999200  1
  Br  Br2  1  0.00000000  0.00000000  0.75000800  1
  Br  Br3  1  0.25758200  0.01387600  0.00000000  1
  Br  Br4  1  0.74241800  0.98612400  0.00000000  1
  Br  Br5  1  0.01387600  0.25758200  0.00000000  1
  Br  Br6  1  0.98612400  0.74241800  0.00000000  1
