# generated using pymatgen
data_Ba3IrF6
_symmetry_space_group_name_H-M   'P 1'
_cell_length_a   6.55198502
_cell_length_b   8.46284858
_cell_length_c   6.66739979
_cell_angle_alpha   130.89002998
_cell_angle_beta   75.49394337
_cell_angle_gamma   101.86775781
_symmetry_Int_Tables_number   1
_chemical_formula_structural   Ba3IrF6
_chemical_formula_sum   'Ba3 Ir1 F6'
_cell_volume   270.13019544
_cell_formula_units_Z   1
loop_
 _symmetry_equiv_pos_site_id
 _symmetry_equiv_pos_as_xyz
  1  'x, y, z'
loop_
 _atom_site_type_symbol
 _atom_site_label
 _atom_site_symmetry_multiplicity
 _atom_site_fract_x
 _atom_site_fract_y
 _atom_site_fract_z
 _atom_site_occupancy
  Ba  Ba0  1  0.50000000  0.00000000  0.00000000  1
  Ba  Ba1  1  0.00000000  0.50000000  0.50000000  1
  Ba  Ba2  1  0.00000000  0.00000000  0.50000000  1
  Ir  Ir3  1  0.00000000  0.00000000  0.00000000  1
  F  F4  1  0.77378300  0.13907500  0.35424900  1
  F  F5  1  0.22621700  0.86092500  0.64575100  1
  F  F6  1  0.73307600  0.72818300  0.52120500  1
  F  F7  1  0.26692400  0.27181700  0.47879500  1
  F  F8  1  0.18382400  0.74208500  0.99264500  1
  F  F9  1  0.81617600  0.25791500  0.00735500  1
