# generated using pymatgen
data_MoO4
_symmetry_space_group_name_H-M   'P 1'
_cell_length_a   3.72842000
_cell_length_b   3.75172401
_cell_length_c   10.23705389
_cell_angle_alpha   89.49738087
_cell_angle_beta   100.49234466
_cell_angle_gamma   90.00000000
_symmetry_Int_Tables_number   1
_chemical_formula_structural   MoO4
_chemical_formula_sum   'Mo2 O8'
_cell_volume   140.79599162
_cell_formula_units_Z   2
loop_
 _symmetry_equiv_pos_site_id
 _symmetry_equiv_pos_as_xyz
  1  'x, y, z'
loop_
 _atom_site_type_symbol
 _atom_site_label
 _atom_site_symmetry_multiplicity
 _atom_site_fract_x
 _atom_site_fract_y
 _atom_site_fract_z
 _atom_site_occupancy
  Mo  Mo0  1  0.60094900  0.24012700  0.20189800  1
  Mo  Mo1  1  0.39905100  0.75987300  0.79810200  1
  O  O2  1  0.49468600  0.23410600  0.37859000  1
  O  O3  1  0.50531400  0.76589400  0.62141000  1
  O  O4  1  0.11609600  0.76589400  0.62141000  1
  O  O5  1  0.88390400  0.23410600  0.37859000  1
  O  O6  1  0.06981500  0.23771400  0.13963100  1
  O  O7  1  0.93018500  0.76228600  0.86036900  1
  O  O8  1  0.41877100  0.26165100  0.83754100  1
  O  O9  1  0.58122900  0.73834900  0.16245900  1
