# generated using pymatgen
data_Mg2Bi
_symmetry_space_group_name_H-M   'P 1'
_cell_length_a   8.07568346
_cell_length_b   8.07568346
_cell_length_c   5.59516400
_cell_angle_alpha   90.00000000
_cell_angle_beta   90.00000000
_cell_angle_gamma   154.31702940
_symmetry_Int_Tables_number   1
_chemical_formula_structural   Mg2Bi
_chemical_formula_sum   'Mg4 Bi2'
_cell_volume   158.14356798
_cell_formula_units_Z   2
loop_
 _symmetry_equiv_pos_site_id
 _symmetry_equiv_pos_as_xyz
  1  'x, y, z'
loop_
 _atom_site_type_symbol
 _atom_site_label
 _atom_site_symmetry_multiplicity
 _atom_site_fract_x
 _atom_site_fract_y
 _atom_site_fract_z
 _atom_site_occupancy
  Mg  Mg0  1  0.60911200  0.39088800  0.25000000  1
  Mg  Mg1  1  0.94729400  0.05270600  0.25000000  1
  Mg  Mg2  1  0.05270600  0.94729400  0.75000000  1
  Mg  Mg3  1  0.39088800  0.60911200  0.75000000  1
  Bi  Bi4  1  0.28290800  0.71709200  0.25000000  1
  Bi  Bi5  1  0.71709200  0.28290800  0.75000000  1
