# generated using pymatgen
data_Hf2Sb3
_symmetry_space_group_name_H-M   'P 1'
_cell_length_a   8.82673200
_cell_length_b   8.82673200
_cell_length_c   34.71805500
_cell_angle_alpha   90.00000000
_cell_angle_beta   90.00000000
_cell_angle_gamma   90.00000000
_symmetry_Int_Tables_number   1
_chemical_formula_structural   Hf2Sb3
_chemical_formula_sum   'Hf2 Sb3'
_cell_volume   2704.92525033
_cell_formula_units_Z   1
loop_
 _symmetry_equiv_pos_site_id
 _symmetry_equiv_pos_as_xyz
  1  'x, y, z'
loop_
 _atom_site_type_symbol
 _atom_site_label
 _atom_site_symmetry_multiplicity
 _atom_site_fract_x
 _atom_site_fract_y
 _atom_site_fract_z
 _atom_site_occupancy
  Hf  Hf0  1  0.50000000  0.50000000  0.28476500  1
  Hf  Hf1  1  0.50000000  0.50000000  0.71523500  1
  Sb  Sb2  1  0.50000000  0.50000000  0.64274100  1
  Sb  Sb3  1  0.50000000  0.50000000  0.35725900  1
  Sb  Sb4  1  0.50000000  0.50000000  0.00000000  1
