# generated using pymatgen
data_YO2
_symmetry_space_group_name_H-M   'P 1'
_cell_length_a   3.66651200
_cell_length_b   4.22542400
_cell_length_c   6.22085029
_cell_angle_alpha   72.67254900
_cell_angle_beta   90.00000000
_cell_angle_gamma   90.00000000
_symmetry_Int_Tables_number   1
_chemical_formula_structural   YO2
_chemical_formula_sum   'Y2 O4'
_cell_volume   92.00318711
_cell_formula_units_Z   2
loop_
 _symmetry_equiv_pos_site_id
 _symmetry_equiv_pos_as_xyz
  1  'x, y, z'
loop_
 _atom_site_type_symbol
 _atom_site_label
 _atom_site_symmetry_multiplicity
 _atom_site_fract_x
 _atom_site_fract_y
 _atom_site_fract_z
 _atom_site_occupancy
  Y  Y0  1  0.25000000  0.17135000  0.18538500  1
  Y  Y1  1  0.75000000  0.82865000  0.81461500  1
  O  O2  1  0.25000000  0.81857500  0.55282600  1
  O  O3  1  0.75000000  0.18142500  0.44717400  1
  O  O4  1  0.25000000  0.73349200  0.04614700  1
  O  O5  1  0.75000000  0.26650800  0.95385300  1
