# generated using pymatgen
data_Ce2Mg
_symmetry_space_group_name_H-M   'P 1'
_cell_length_a   6.55429271
_cell_length_b   6.55429271
_cell_length_c   8.06143506
_cell_angle_alpha   73.06853327
_cell_angle_beta   73.06853327
_cell_angle_gamma   28.32789652
_symmetry_Int_Tables_number   1
_chemical_formula_structural   Ce2Mg
_chemical_formula_sum   'Ce4 Mg2'
_cell_volume   156.74184868
_cell_formula_units_Z   2
loop_
 _symmetry_equiv_pos_site_id
 _symmetry_equiv_pos_as_xyz
  1  'x, y, z'
loop_
 _atom_site_type_symbol
 _atom_site_label
 _atom_site_symmetry_multiplicity
 _atom_site_fract_x
 _atom_site_fract_y
 _atom_site_fract_z
 _atom_site_occupancy
  Ce  Ce0  1  0.97979400  0.97979400  0.02157200  1
  Ce  Ce1  1  0.31763800  0.31763800  0.34818300  1
  Ce  Ce2  1  0.68458900  0.68458900  0.67221200  1
  Ce  Ce3  1  0.28427200  0.28427200  0.92084700  1
  Mg  Mg4  1  0.60300100  0.60300100  0.27822900  1
  Mg  Mg5  1  0.96403800  0.96403800  0.59229000  1
