# generated using pymatgen
data_HfCd
_symmetry_space_group_name_H-M   'P 1'
_cell_length_a   2.91480600
_cell_length_b   2.91480600
_cell_length_c   11.85874500
_cell_angle_alpha   90.00000000
_cell_angle_beta   90.00000000
_cell_angle_gamma   90.00000000
_symmetry_Int_Tables_number   1
_chemical_formula_structural   HfCd
_chemical_formula_sum   'Hf2 Cd2'
_cell_volume   100.75301245
_cell_formula_units_Z   2
loop_
 _symmetry_equiv_pos_site_id
 _symmetry_equiv_pos_as_xyz
  1  'x, y, z'
loop_
 _atom_site_type_symbol
 _atom_site_label
 _atom_site_symmetry_multiplicity
 _atom_site_fract_x
 _atom_site_fract_y
 _atom_site_fract_z
 _atom_site_occupancy
  Hf  Hf0  1  0.50000000  0.50000000  0.62313000  1
  Hf  Hf1  1  0.50000000  0.50000000  0.37687000  1
  Cd  Cd2  1  0.50000000  0.50000000  0.12429200  1
  Cd  Cd3  1  0.50000000  0.50000000  0.87570800  1
