# generated using pymatgen
data_K3AuF6
_symmetry_space_group_name_H-M   'P 1'
_cell_length_a   6.98100443
_cell_length_b   8.31863474
_cell_length_c   7.00696936
_cell_angle_alpha   126.91821043
_cell_angle_beta   74.76018993
_cell_angle_gamma   98.19393982
_symmetry_Int_Tables_number   1
_chemical_formula_structural   K3AuF6
_chemical_formula_sum   'K3 Au1 F6'
_cell_volume   313.82078463
_cell_formula_units_Z   1
loop_
 _symmetry_equiv_pos_site_id
 _symmetry_equiv_pos_as_xyz
  1  'x, y, z'
loop_
 _atom_site_type_symbol
 _atom_site_label
 _atom_site_symmetry_multiplicity
 _atom_site_fract_x
 _atom_site_fract_y
 _atom_site_fract_z
 _atom_site_occupancy
  K  K0  1  0.50000000  0.00000000  0.00000000  1
  K  K1  1  0.00000000  0.50000000  0.50000000  1
  K  K2  1  0.00000000  0.00000000  0.50000000  1
  Au  Au3  1  0.00000000  0.00000000  0.00000000  1
  F  F4  1  0.77983200  0.10678600  0.29426300  1
  F  F5  1  0.22016800  0.89321400  0.70573700  1
  F  F6  1  0.78795400  0.79572600  0.64411800  1
  F  F7  1  0.21204600  0.20427400  0.35588200  1
  F  F8  1  0.04617300  0.76971900  0.99968200  1
  F  F9  1  0.95382700  0.23028100  0.00031800  1
