# generated using pymatgen
data_DyI6
_symmetry_space_group_name_H-M   'P 1'
_cell_length_a   14.23791963
_cell_length_b   11.29967431
_cell_length_c   54.68497997
_cell_angle_alpha   90.00000000
_cell_angle_beta   90.00000000
_cell_angle_gamma   129.05120366
_symmetry_Int_Tables_number   1
_chemical_formula_structural   DyI6
_chemical_formula_sum   'Dy1 I6'
_cell_volume   6832.32531073
_cell_formula_units_Z   1
loop_
 _symmetry_equiv_pos_site_id
 _symmetry_equiv_pos_as_xyz
  1  'x, y, z'
loop_
 _atom_site_type_symbol
 _atom_site_label
 _atom_site_symmetry_multiplicity
 _atom_site_fract_x
 _atom_site_fract_y
 _atom_site_fract_z
 _atom_site_occupancy
  Dy  Dy0  1  -0.00000000  0.00000000  -0.00000000  1
  I  I1  1  0.00000000  -0.00000000  0.75002058  1
  I  I2  1  -0.00000000  0.00000000  0.24997942  1
  I  I3  1  0.74014578  0.76150611  -0.00000000  1
  I  I4  1  0.25985422  0.23849389  0.00000000  1
  I  I5  1  0.97863967  0.23849389  -0.00000000  1
  I  I6  1  0.02136033  0.76150611  0.00000000  1
