# generated using pymatgen
data_MgCd
_symmetry_space_group_name_H-M   'P 1'
_cell_length_a   5.07985605
_cell_length_b   5.07985605
_cell_length_c   5.07985642
_cell_angle_alpha   38.32345304
_cell_angle_beta   38.32345304
_cell_angle_gamma   38.32344662
_symmetry_Int_Tables_number   1
_chemical_formula_structural   MgCd
_chemical_formula_sum   'Mg1 Cd1'
_cell_volume   45.27326228
_cell_formula_units_Z   1
loop_
 _symmetry_equiv_pos_site_id
 _symmetry_equiv_pos_as_xyz
  1  'x, y, z'
loop_
 _atom_site_type_symbol
 _atom_site_label
 _atom_site_symmetry_multiplicity
 _atom_site_fract_x
 _atom_site_fract_y
 _atom_site_fract_z
 _atom_site_occupancy
  Mg  Mg0  1  0.50000000  0.50000000  0.50000000  1
  Cd  Cd1  1  0.00000000  0.00000000  0.00000000  1
