# generated using pymatgen
data_Th2(SiIr)3
_symmetry_space_group_name_H-M   'P 1'
_cell_length_a   2.90489700
_cell_length_b   2.90489700
_cell_length_c   20.39639200
_cell_angle_alpha   90.00000000
_cell_angle_beta   90.00000000
_cell_angle_gamma   90.00000000
_symmetry_Int_Tables_number   1
_chemical_formula_structural   Th2(SiIr)3
_chemical_formula_sum   'Th2 Si3 Ir3'
_cell_volume   172.11345640
_cell_formula_units_Z   1
loop_
 _symmetry_equiv_pos_site_id
 _symmetry_equiv_pos_as_xyz
  1  'x, y, z'
loop_
 _atom_site_type_symbol
 _atom_site_label
 _atom_site_symmetry_multiplicity
 _atom_site_fract_x
 _atom_site_fract_y
 _atom_site_fract_z
 _atom_site_occupancy
  Th  Th0  1  0.50000000  0.50000000  0.75921900  1
  Th  Th1  1  0.50000000  0.50000000  0.24078100  1
  Si  Si2  1  0.50000000  0.50000000  0.38842300  1
  Si  Si3  1  0.50000000  0.50000000  0.61157700  1
  Si  Si4  1  0.50000000  0.50000000  0.00000000  1
  Ir  Ir5  1  0.50000000  0.50000000  0.11363400  1
  Ir  Ir6  1  0.50000000  0.50000000  0.88636600  1
  Ir  Ir7  1  0.50000000  0.50000000  0.50000000  1
