# generated using pymatgen
data_Tl2CoS2
_symmetry_space_group_name_H-M   'P 1'
_cell_length_a   6.21982200
_cell_length_b   6.21982200
_cell_length_c   6.03593295
_cell_angle_alpha   121.01302095
_cell_angle_beta   121.01302095
_cell_angle_gamma   90.00000000
_symmetry_Int_Tables_number   1
_chemical_formula_structural   Tl2CoS2
_chemical_formula_sum   'Tl2 Co1 S2'
_cell_volume   159.92606107
_cell_formula_units_Z   1
loop_
 _symmetry_equiv_pos_site_id
 _symmetry_equiv_pos_as_xyz
  1  'x, y, z'
loop_
 _atom_site_type_symbol
 _atom_site_label
 _atom_site_symmetry_multiplicity
 _atom_site_fract_x
 _atom_site_fract_y
 _atom_site_fract_z
 _atom_site_occupancy
  Tl  Tl0  1  0.25000000  0.75000000  0.50000000  1
  Tl  Tl1  1  0.75000000  0.25000000  0.50000000  1
  Co  Co2  1  0.00000000  0.00000000  0.00000000  1
  S  S3  1  0.25451800  0.25451800  0.50903500  1
  S  S4  1  0.74548200  0.74548200  0.49096500  1
