# generated using pymatgen
data_Rb4C
_symmetry_space_group_name_H-M   'P 1'
_cell_length_a   8.31846893
_cell_length_b   8.31846893
_cell_length_c   8.31846893
_cell_angle_alpha   93.90610901
_cell_angle_beta   93.90610901
_cell_angle_gamma   149.74103486
_symmetry_Int_Tables_number   1
_chemical_formula_structural   Rb4C
_chemical_formula_sum   'Rb4 C1'
_cell_volume   280.00258223
_cell_formula_units_Z   1
loop_
 _symmetry_equiv_pos_site_id
 _symmetry_equiv_pos_as_xyz
  1  'x, y, z'
loop_
 _atom_site_type_symbol
 _atom_site_label
 _atom_site_symmetry_multiplicity
 _atom_site_fract_x
 _atom_site_fract_y
 _atom_site_fract_z
 _atom_site_occupancy
  Rb  Rb0  1  0.26743000  0.50000000  0.76743000  1
  Rb  Rb1  1  0.73257000  0.50000000  0.23257000  1
  Rb  Rb2  1  0.50000000  0.26743000  0.76743000  1
  Rb  Rb3  1  0.50000000  0.73257000  0.23257000  1
  C  C4  1  0.00000000  0.00000000  0.00000000  1
