# generated using pymatgen
data_LaClO2
_symmetry_space_group_name_H-M   'P 1'
_cell_length_a   4.39602900
_cell_length_b   5.14525700
_cell_length_c   6.84023486
_cell_angle_alpha   70.98227800
_cell_angle_beta   90.00000000
_cell_angle_gamma   90.00000000
_symmetry_Int_Tables_number   1
_chemical_formula_structural   LaClO2
_chemical_formula_sum   'La2 Cl2 O4'
_cell_volume   146.27241209
_cell_formula_units_Z   2
loop_
 _symmetry_equiv_pos_site_id
 _symmetry_equiv_pos_as_xyz
  1  'x, y, z'
loop_
 _atom_site_type_symbol
 _atom_site_label
 _atom_site_symmetry_multiplicity
 _atom_site_fract_x
 _atom_site_fract_y
 _atom_site_fract_z
 _atom_site_occupancy
  La  La0  1  0.25000000  0.16588400  0.67219600  1
  La  La1  1  0.75000000  0.83411600  0.32780400  1
  Cl  Cl2  1  0.25000000  0.22179800  0.07909300  1
  Cl  Cl3  1  0.75000000  0.77820200  0.92090700  1
  O  O4  1  0.25000000  0.76874000  0.52953600  1
  O  O5  1  0.75000000  0.23126000  0.47046400  1
  O  O6  1  0.25000000  0.61659200  0.37818900  1
  O  O7  1  0.75000000  0.38340800  0.62181100  1
