# generated using pymatgen
data_MgBr6
_symmetry_space_group_name_H-M   'P 1'
_cell_length_a   10.09119401
_cell_length_b   10.09119401
_cell_length_c   52.55547500
_cell_angle_alpha   90.00000000
_cell_angle_beta   90.00000000
_cell_angle_gamma   113.49764213
_symmetry_Int_Tables_number   1
_chemical_formula_structural   MgBr6
_chemical_formula_sum   'Mg1 Br6'
_cell_volume   4908.04611334
_cell_formula_units_Z   1
loop_
 _symmetry_equiv_pos_site_id
 _symmetry_equiv_pos_as_xyz
  1  'x, y, z'
loop_
 _atom_site_type_symbol
 _atom_site_label
 _atom_site_symmetry_multiplicity
 _atom_site_fract_x
 _atom_site_fract_y
 _atom_site_fract_z
 _atom_site_occupancy
  Mg  Mg0  1  0.00000000  0.00000000  0.00000000  1
  Br  Br1  1  0.00000000  0.00000000  0.24999800  1
  Br  Br2  1  0.00000000  0.00000000  0.75000200  1
  Br  Br3  1  0.25314300  0.01035000  0.00000000  1
  Br  Br4  1  0.74685700  0.98965000  0.00000000  1
  Br  Br5  1  0.01035000  0.25314300  0.00000000  1
  Br  Br6  1  0.98965000  0.74685700  0.00000000  1
