# generated using pymatgen
data_Na(SmS2)3
_symmetry_space_group_name_H-M   'P 1'
_cell_length_a   10.50291738
_cell_length_b   10.50291738
_cell_length_c   44.77601900
_cell_angle_alpha   90.00000000
_cell_angle_beta   90.00000000
_cell_angle_gamma   101.89740803
_symmetry_Int_Tables_number   1
_chemical_formula_structural   Na(SmS2)3
_chemical_formula_sum   'Na1 Sm3 S6'
_cell_volume   4833.19518845
_cell_formula_units_Z   1
loop_
 _symmetry_equiv_pos_site_id
 _symmetry_equiv_pos_as_xyz
  1  'x, y, z'
loop_
 _atom_site_type_symbol
 _atom_site_label
 _atom_site_symmetry_multiplicity
 _atom_site_fract_x
 _atom_site_fract_y
 _atom_site_fract_z
 _atom_site_occupancy
  Na  Na0  1  0.00000000  0.00000000  0.00000000  1
  Sm  Sm1  1  0.00000000  0.00000000  0.50000000  1
  Sm  Sm2  1  0.50000000  0.00000000  0.00000000  1
  Sm  Sm3  1  0.00000000  0.50000000  0.00000000  1
  S  S4  1  0.00000000  0.00000000  0.23120100  1
  S  S5  1  0.00000000  0.00000000  0.76879900  1
  S  S6  1  0.25919300  0.97294900  0.00000000  1
  S  S7  1  0.74080700  0.02705100  0.00000000  1
  S  S8  1  0.97294900  0.25919300  0.00000000  1
  S  S9  1  0.02705100  0.74080700  0.00000000  1
