# generated using pymatgen
data_Sm2Sb3Pd
_symmetry_space_group_name_H-M   'P 1'
_cell_length_a   15.09356772
_cell_length_b   15.09356772
_cell_length_c   35.47137161
_cell_angle_alpha   90.00000000
_cell_angle_beta   90.00000000
_cell_angle_gamma   90.00000000
_symmetry_Int_Tables_number   1
_chemical_formula_structural   Sm2Sb3Pd
_chemical_formula_sum   'Sm2 Sb3 Pd1'
_cell_volume   8080.93842221
_cell_formula_units_Z   1
loop_
 _symmetry_equiv_pos_site_id
 _symmetry_equiv_pos_as_xyz
  1  'x, y, z'
loop_
 _atom_site_type_symbol
 _atom_site_label
 _atom_site_symmetry_multiplicity
 _atom_site_fract_x
 _atom_site_fract_y
 _atom_site_fract_z
 _atom_site_occupancy
  Sm  Sm0  1  0.50000000  0.50000000  0.23686398  1
  Sm  Sm1  1  0.50000000  0.50000000  0.76313602  1
  Sb  Sb2  1  0.50000000  0.50000000  0.68733917  1
  Sb  Sb3  1  0.50000000  0.50000000  0.31266083  1
  Sb  Sb4  1  0.50000000  0.50000000  -0.00000000  1
  Pd  Pd5  1  0.50000000  0.50000000  0.50000000  1
