# generated using pymatgen
data_La2AgAs3
_symmetry_space_group_name_H-M   'P 1'
_cell_length_a   10.60906800
_cell_length_b   10.60906800
_cell_length_c   43.93298300
_cell_angle_alpha   90.00000000
_cell_angle_beta   90.00000000
_cell_angle_gamma   90.00000000
_symmetry_Int_Tables_number   1
_chemical_formula_structural   La2AgAs3
_chemical_formula_sum   'La2 Ag1 As3'
_cell_volume   4944.75932937
_cell_formula_units_Z   1
loop_
 _symmetry_equiv_pos_site_id
 _symmetry_equiv_pos_as_xyz
  1  'x, y, z'
loop_
 _atom_site_type_symbol
 _atom_site_label
 _atom_site_symmetry_multiplicity
 _atom_site_fract_x
 _atom_site_fract_y
 _atom_site_fract_z
 _atom_site_occupancy
  La  La0  1  0.50000000  0.50000000  0.24771900  1
  La  La1  1  0.50000000  0.50000000  0.75228100  1
  Ag  Ag2  1  0.50000000  0.50000000  0.50000000  1
  As  As3  1  0.50000000  0.50000000  0.69608900  1
  As  As4  1  0.50000000  0.50000000  0.30391100  1
  As  As5  1  0.50000000  0.50000000  0.00000000  1
