# generated using pymatgen
data_ZrP2HO7
_symmetry_space_group_name_H-M   'P 1'
_cell_length_a   5.50562155
_cell_length_b   5.50562155
_cell_length_c   12.07107200
_cell_angle_alpha   90.00000000
_cell_angle_beta   90.00000000
_cell_angle_gamma   119.99999463
_symmetry_Int_Tables_number   1
_chemical_formula_structural   ZrP2HO7
_chemical_formula_sum   'Zr2 P4 H2 O14'
_cell_volume   316.87589728
_cell_formula_units_Z   2
loop_
 _symmetry_equiv_pos_site_id
 _symmetry_equiv_pos_as_xyz
  1  'x, y, z'
loop_
 _atom_site_type_symbol
 _atom_site_label
 _atom_site_symmetry_multiplicity
 _atom_site_fract_x
 _atom_site_fract_y
 _atom_site_fract_z
 _atom_site_occupancy
  Zr  Zr0  1  0.00000000  0.00000000  0.75879100  1
  Zr  Zr1  1  0.00000000  0.00000000  0.24120900  1
  P  P2  1  0.66666700  0.33333300  0.38019500  1
  P  P3  1  0.33333300  0.66666700  0.61980500  1
  P  P4  1  0.66666700  0.33333300  0.89661600  1
  P  P5  1  0.33333300  0.66666700  0.10338400  1
  H  H6  1  0.66666700  0.33333300  0.01284700  1
  H  H7  1  0.33333300  0.66666700  0.98715300  1
  O  O8  1  0.83691800  0.19592600  0.86010400  1
  O  O9  1  0.16308200  0.80407400  0.13989600  1
  O  O10  1  0.35900800  0.16308200  0.86010400  1
  O  O11  1  0.64099200  0.83691800  0.13989600  1
  O  O12  1  0.80407400  0.64099200  0.86010400  1
  O  O13  1  0.19592600  0.35900800  0.13989600  1
  O  O14  1  0.66666700  0.33333300  0.50778900  1
  O  O15  1  0.33333300  0.66666700  0.49221100  1
  O  O16  1  0.63733500  0.83275900  0.66273800  1
  O  O17  1  0.36266500  0.16724100  0.33726200  1
  O  O18  1  0.19542400  0.36266500  0.66273800  1
  O  O19  1  0.80457600  0.63733500  0.33726200  1
  O  O20  1  0.16724100  0.80457600  0.66273800  1
  O  O21  1  0.83275900  0.19542400  0.33726200  1
