# generated using pymatgen
data_Zr5Bi3
_symmetry_space_group_name_H-M   'P 1'
_cell_length_a   5.89637500
_cell_length_b   8.73227303
_cell_length_c   8.73227303
_cell_angle_alpha   119.99999267
_cell_angle_beta   90.00000000
_cell_angle_gamma   90.00000000
_symmetry_Int_Tables_number   1
_chemical_formula_structural   Zr5Bi3
_chemical_formula_sum   'Zr10 Bi6'
_cell_volume   389.37706989
_cell_formula_units_Z   2
loop_
 _symmetry_equiv_pos_site_id
 _symmetry_equiv_pos_as_xyz
  1  'x, y, z'
loop_
 _atom_site_type_symbol
 _atom_site_label
 _atom_site_symmetry_multiplicity
 _atom_site_fract_x
 _atom_site_fract_y
 _atom_site_fract_z
 _atom_site_occupancy
  Zr  Zr0  1  0.00000000  0.66666700  0.33333300  1
  Zr  Zr1  1  0.00000000  0.33333300  0.66666700  1
  Zr  Zr2  1  0.50000000  0.33333300  0.66666700  1
  Zr  Zr3  1  0.50000000  0.66666700  0.33333300  1
  Zr  Zr4  1  0.75000000  0.74533200  0.74533200  1
  Zr  Zr5  1  0.25000000  0.25466800  0.25466800  1
  Zr  Zr6  1  0.75000000  0.00000000  0.25466800  1
  Zr  Zr7  1  0.25000000  0.00000000  0.74533200  1
  Zr  Zr8  1  0.75000000  0.25466800  0.00000000  1
  Zr  Zr9  1  0.25000000  0.74533200  0.00000000  1
  Bi  Bi10  1  0.75000000  0.38560600  0.38560600  1
  Bi  Bi11  1  0.25000000  0.61439400  0.61439400  1
  Bi  Bi12  1  0.75000000  0.00000000  0.61439400  1
  Bi  Bi13  1  0.25000000  0.00000000  0.38560600  1
  Bi  Bi14  1  0.75000000  0.61439400  0.00000000  1
  Bi  Bi15  1  0.25000000  0.38560600  0.00000000  1
