# generated using pymatgen
data_Zr2S2O
_symmetry_space_group_name_H-M   'P 1'
_cell_length_a   3.33508200
_cell_length_b   3.33508200
_cell_length_c   10.69810700
_cell_angle_alpha   90.00000000
_cell_angle_beta   90.00000000
_cell_angle_gamma   90.00000000
_symmetry_Int_Tables_number   1
_chemical_formula_structural   Zr2S2O
_chemical_formula_sum   'Zr2 S2 O1'
_cell_volume   118.99260442
_cell_formula_units_Z   1
loop_
 _symmetry_equiv_pos_site_id
 _symmetry_equiv_pos_as_xyz
  1  'x, y, z'
loop_
 _atom_site_type_symbol
 _atom_site_label
 _atom_site_symmetry_multiplicity
 _atom_site_fract_x
 _atom_site_fract_y
 _atom_site_fract_z
 _atom_site_occupancy
  Zr  Zr0  1  0.50000000  0.50000000  0.18196700  1
  Zr  Zr1  1  0.50000000  0.50000000  0.81803300  1
  S  S2  1  0.50000000  0.50000000  0.59072900  1
  S  S3  1  0.50000000  0.50000000  0.40927100  1
  O  O4  1  0.50000000  0.50000000  0.00000000  1
