# generated using pymatgen
data_Zr4Co
_symmetry_space_group_name_H-M   'P 1'
_cell_length_a   6.87779432
_cell_length_b   6.87779432
_cell_length_c   6.87779432
_cell_angle_alpha   60.00000000
_cell_angle_beta   60.00000000
_cell_angle_gamma   60.00000000
_symmetry_Int_Tables_number   1
_chemical_formula_structural   Zr4Co
_chemical_formula_sum   'Zr8 Co2'
_cell_volume   230.05546459
_cell_formula_units_Z   2
loop_
 _symmetry_equiv_pos_site_id
 _symmetry_equiv_pos_as_xyz
  1  'x, y, z'
loop_
 _atom_site_type_symbol
 _atom_site_label
 _atom_site_symmetry_multiplicity
 _atom_site_fract_x
 _atom_site_fract_y
 _atom_site_fract_z
 _atom_site_occupancy
  Zr  Zr0  1  0.61110600  0.61110600  0.61110600  1
  Zr  Zr1  1  0.16668200  0.61110600  0.61110600  1
  Zr  Zr2  1  0.61110600  0.16668200  0.61110600  1
  Zr  Zr3  1  0.58331800  0.13889400  0.13889400  1
  Zr  Zr4  1  0.13889400  0.13889400  0.13889400  1
  Zr  Zr5  1  0.61110600  0.61110600  0.16668200  1
  Zr  Zr6  1  0.13889400  0.58331800  0.13889400  1
  Zr  Zr7  1  0.13889400  0.13889400  0.58331800  1
  Co  Co8  1  0.00000000  0.00000000  0.00000000  1
  Co  Co9  1  0.75000000  0.75000000  0.75000000  1
