# generated using pymatgen
data_Zn7P10
_symmetry_space_group_name_H-M   'P 1'
_cell_length_a   17.00805074
_cell_length_b   13.27054903
_cell_length_c   11.08825632
_cell_angle_alpha   88.09498920
_cell_angle_beta   51.24407855
_cell_angle_gamma   40.66093226
_symmetry_Int_Tables_number   1
_chemical_formula_structural   Zn7P10
_chemical_formula_sum   'Zn14 P20'
_cell_volume   628.88756831
_cell_formula_units_Z   2
loop_
 _symmetry_equiv_pos_site_id
 _symmetry_equiv_pos_as_xyz
  1  'x, y, z'
loop_
 _atom_site_type_symbol
 _atom_site_label
 _atom_site_symmetry_multiplicity
 _atom_site_fract_x
 _atom_site_fract_y
 _atom_site_fract_z
 _atom_site_occupancy
  Zn  Zn0  1  0.97400800  0.18606500  0.26434900  1
  Zn  Zn1  1  0.57557800  0.26434900  0.18606500  1
  Zn  Zn2  1  0.06393500  0.27599200  0.67442200  1
  Zn  Zn3  1  0.98565100  0.67442200  0.27599200  1
  Zn  Zn4  1  0.26690300  0.32714600  0.73518600  1
  Zn  Zn5  1  0.67076500  0.73518600  0.32714600  1
  Zn  Zn6  1  0.92285400  0.98309700  0.57923500  1
  Zn  Zn7  1  0.51481400  0.57923500  0.98309700  1
  Zn  Zn8  1  0.99894300  0.00105700  0.00105700  1
  Zn  Zn9  1  0.24894300  0.25105700  0.25105700  1
  Zn  Zn10  1  0.30506300  0.77103100  0.42363900  1
  Zn  Zn11  1  0.50026700  0.42363900  0.77103100  1
  Zn  Zn12  1  0.47896900  0.94493700  0.74973300  1
  Zn  Zn13  1  0.82636100  0.74973300  0.94493700  1
  P  P14  1  0.12423800  0.88076500  0.21295400  1
  P  P15  1  0.78204300  0.21295400  0.88076500  1
  P  P16  1  0.36923500  0.12576200  0.46795700  1
  P  P17  1  0.03704600  0.46795700  0.12576200  1
  P  P18  1  0.46335700  0.65794100  0.62580500  1
  P  P19  1  0.25289800  0.62580500  0.65794100  1
  P  P20  1  0.59205900  0.78664300  0.99710200  1
  P  P21  1  0.62419500  0.99710200  0.78664300  1
  P  P22  1  0.78126600  0.59648300  0.63736500  1
  P  P23  1  0.98488700  0.63736500  0.59648300  1
  P  P24  1  0.65351700  0.46873400  0.26511300  1
  P  P25  1  0.61263500  0.26511300  0.46873400  1
  P  P26  1  0.26420700  0.97210400  0.33201200  1
  P  P27  1  0.43167700  0.33201200  0.97210400  1
  P  P28  1  0.27789600  0.98579300  0.81832300  1
  P  P29  1  0.91798800  0.81832300  0.98579300  1
  P  P30  1  0.89394900  0.33019300  0.53310800  1
  P  P31  1  0.24275000  0.53310800  0.33019300  1
  P  P32  1  0.91980700  0.35605100  0.00725000  1
  P  P33  1  0.71689200  0.00725000  0.35605100  1
