# generated using pymatgen
data_ZnH6
_symmetry_space_group_name_H-M   'P 1'
_cell_length_a   5.25561400
_cell_length_b   8.80858500
_cell_length_c   10.71163100
_cell_angle_alpha   90.00000000
_cell_angle_beta   90.00000000
_cell_angle_gamma   90.00000000
_symmetry_Int_Tables_number   1
_chemical_formula_structural   ZnH6
_chemical_formula_sum   'Zn4 H24'
_cell_volume   495.88984391
_cell_formula_units_Z   4
loop_
 _symmetry_equiv_pos_site_id
 _symmetry_equiv_pos_as_xyz
  1  'x, y, z'
loop_
 _atom_site_type_symbol
 _atom_site_label
 _atom_site_symmetry_multiplicity
 _atom_site_fract_x
 _atom_site_fract_y
 _atom_site_fract_z
 _atom_site_occupancy
  Zn  Zn0  1  0.78856800  0.35989600  0.00406000  1
  Zn  Zn1  1  0.21143200  0.85989600  0.99594000  1
  Zn  Zn2  1  0.71143200  0.35989600  0.50406000  1
  Zn  Zn3  1  0.28856800  0.85989600  0.49594000  1
  H  H4  1  0.90671800  0.40301300  0.40453000  1
  H  H5  1  0.09328200  0.90301300  0.59547000  1
  H  H6  1  0.59328200  0.40301300  0.90453000  1
  H  H7  1  0.40671800  0.90301300  0.09547000  1
  H  H8  1  0.48519300  0.35463300  0.16570800  1
  H  H9  1  0.51480700  0.85463300  0.83429200  1
  H  H10  1  0.01480700  0.35463300  0.66570800  1
  H  H11  1  0.98519300  0.85463300  0.33429200  1
  H  H12  1  0.10492900  0.02075200  0.98499500  1
  H  H13  1  0.89507100  0.52075200  0.01500500  1
  H  H14  1  0.39507100  0.02075200  0.48499500  1
  H  H15  1  0.60492900  0.52075200  0.51500500  1
  H  H16  1  0.00825100  0.32939900  0.09361000  1
  H  H17  1  0.99174900  0.82939900  0.90639000  1
  H  H18  1  0.49174900  0.32939900  0.59361000  1
  H  H19  1  0.50825100  0.82939900  0.40639000  1
  H  H20  1  0.26461800  0.68955600  0.00033200  1
  H  H21  1  0.73538200  0.18955600  0.99966800  1
  H  H22  1  0.23538200  0.68955600  0.50033200  1
  H  H23  1  0.76461800  0.18955600  0.49966800  1
  H  H24  1  0.02523100  0.93675100  0.32739800  1
  H  H25  1  0.97476900  0.43675100  0.67260200  1
  H  H26  1  0.47476900  0.93675100  0.82739800  1
  H  H27  1  0.52523100  0.43675100  0.17260200  1
