# generated using pymatgen
data_Zn3SbAs2Pb3O14
_symmetry_space_group_name_H-M   'P 1'
_cell_length_a   8.67683789
_cell_length_b   8.67683789
_cell_length_c   5.38009000
_cell_angle_alpha   90.00000000
_cell_angle_beta   90.00000000
_cell_angle_gamma   119.99999912
_symmetry_Int_Tables_number   1
_chemical_formula_structural   Zn3SbAs2Pb3O14
_chemical_formula_sum   'Zn3 Sb1 As2 Pb3 O14'
_cell_volume   350.78671948
_cell_formula_units_Z   1
loop_
 _symmetry_equiv_pos_site_id
 _symmetry_equiv_pos_as_xyz
  1  'x, y, z'
loop_
 _atom_site_type_symbol
 _atom_site_label
 _atom_site_symmetry_multiplicity
 _atom_site_fract_x
 _atom_site_fract_y
 _atom_site_fract_z
 _atom_site_occupancy
  Zn  Zn0  1  0.23719200  0.00000000  0.50000000  1
  Zn  Zn1  1  0.00000000  0.23719200  0.50000000  1
  Zn  Zn2  1  0.76280800  0.76280800  0.50000000  1
  Sb  Sb3  1  0.00000000  0.00000000  0.00000000  1
  As  As4  1  0.33333300  0.66666700  0.53777000  1
  As  As5  1  0.66666700  0.33333300  0.46223000  1
  Pb  Pb6  1  0.60467500  0.00000000  0.00000000  1
  Pb  Pb7  1  0.00000000  0.60467500  0.00000000  1
  Pb  Pb8  1  0.39532500  0.39532500  0.00000000  1
  O  O9  1  0.12504600  0.21745600  0.21433400  1
  O  O10  1  0.78254400  0.90759000  0.21433400  1
  O  O11  1  0.21745600  0.12504600  0.78566600  1
  O  O12  1  0.09241000  0.87495400  0.21433400  1
  O  O13  1  0.90759000  0.78254400  0.78566600  1
  O  O14  1  0.87495400  0.09241000  0.78566600  1
  O  O15  1  0.45861000  0.19617900  0.33289500  1
  O  O16  1  0.80382100  0.26243100  0.33289500  1
  O  O17  1  0.19617900  0.45861000  0.66710500  1
  O  O18  1  0.73756900  0.54139000  0.33289500  1
  O  O19  1  0.26243100  0.80382100  0.66710500  1
  O  O20  1  0.54139000  0.73756900  0.66710500  1
  O  O21  1  0.33333300  0.66666700  0.21920100  1
  O  O22  1  0.66666700  0.33333300  0.78079900  1
