# generated using pymatgen
data_Zn5H2(NO7)2
_symmetry_space_group_name_H-M   'P 1'
_cell_length_a   9.93577319
_cell_length_b   9.93577319
_cell_length_c   5.32777238
_cell_angle_alpha   86.32911279
_cell_angle_beta   86.32911279
_cell_angle_gamma   36.41867385
_symmetry_Int_Tables_number   1
_chemical_formula_structural   Zn5H2(NO7)2
_chemical_formula_sum   'Zn5 H2 N2 O14'
_cell_volume   311.53982661
_cell_formula_units_Z   1
loop_
 _symmetry_equiv_pos_site_id
 _symmetry_equiv_pos_as_xyz
  1  'x, y, z'
loop_
 _atom_site_type_symbol
 _atom_site_label
 _atom_site_symmetry_multiplicity
 _atom_site_fract_x
 _atom_site_fract_y
 _atom_site_fract_z
 _atom_site_occupancy
  Zn  Zn0  1  0.75695000  0.24305000  0.00000000  1
  Zn  Zn1  1  0.24305000  0.75695000  0.00000000  1
  Zn  Zn2  1  0.90787600  0.90787600  0.51408600  1
  Zn  Zn3  1  0.09212400  0.09212400  0.48591400  1
  Zn  Zn4  1  0.50000000  0.50000000  0.50000000  1
  H  H5  1  0.82010300  0.82010300  0.49143200  1
  H  H6  1  0.17989700  0.17989700  0.50856800  1
  N  N7  1  0.72132500  0.72132500  0.99808600  1
  N  N8  1  0.27867500  0.27867500  0.00191400  1
  O  O9  1  0.30915900  0.80276200  0.32158100  1
  O  O10  1  0.69084100  0.19723800  0.67841900  1
  O  O11  1  0.19723800  0.69084100  0.67841900  1
  O  O12  1  0.80276200  0.30915900  0.32158100  1
  O  O13  1  0.30663300  0.30663300  0.20830300  1
  O  O14  1  0.69336700  0.69336700  0.79169700  1
  O  O15  1  0.94392100  0.94392100  0.16499000  1
  O  O16  1  0.05607900  0.05607900  0.83501000  1
  O  O17  1  0.68490400  0.68490400  0.20282300  1
  O  O18  1  0.31509600  0.31509600  0.79717700  1
  O  O19  1  0.45057600  0.45057600  0.17649000  1
  O  O20  1  0.54942400  0.54942400  0.82351000  1
  O  O21  1  0.78818900  0.78818900  0.00178900  1
  O  O22  1  0.21181100  0.21181100  0.99821100  1
