# generated using pymatgen
data_YbNi5P3
_symmetry_space_group_name_H-M   'P 1'
_cell_length_a   6.07129522
_cell_length_b   6.07129522
_cell_length_c   11.44002000
_cell_angle_alpha   90.00000000
_cell_angle_beta   90.00000000
_cell_angle_gamma   146.03962792
_symmetry_Int_Tables_number   1
_chemical_formula_structural   YbNi5P3
_chemical_formula_sum   'Yb2 Ni10 P6'
_cell_volume   235.56213478
_cell_formula_units_Z   2
loop_
 _symmetry_equiv_pos_site_id
 _symmetry_equiv_pos_as_xyz
  1  'x, y, z'
loop_
 _atom_site_type_symbol
 _atom_site_label
 _atom_site_symmetry_multiplicity
 _atom_site_fract_x
 _atom_site_fract_y
 _atom_site_fract_z
 _atom_site_occupancy
  Yb  Yb0  1  0.16108400  0.83891600  0.25000000  1
  Yb  Yb1  1  0.83891600  0.16108400  0.75000000  1
  Ni  Ni2  1  0.80025200  0.19974800  0.07136000  1
  Ni  Ni3  1  0.19974800  0.80025200  0.92864000  1
  Ni  Ni4  1  0.19974800  0.80025200  0.57136000  1
  Ni  Ni5  1  0.80025200  0.19974800  0.42864000  1
  Ni  Ni6  1  0.45086600  0.54913400  0.14530200  1
  Ni  Ni7  1  0.54913400  0.45086600  0.85469800  1
  Ni  Ni8  1  0.54913400  0.45086600  0.64530200  1
  Ni  Ni9  1  0.45086600  0.54913400  0.35469800  1
  Ni  Ni10  1  0.00000000  0.00000000  0.00000000  1
  Ni  Ni11  1  0.00000000  0.00000000  0.50000000  1
  P  P12  1  0.88251400  0.11748600  0.25000000  1
  P  P13  1  0.11748600  0.88251400  0.75000000  1
  P  P14  1  0.61812900  0.38187100  0.04227300  1
  P  P15  1  0.38187100  0.61812900  0.95772700  1
  P  P16  1  0.38187100  0.61812900  0.54227300  1
  P  P17  1  0.61812900  0.38187100  0.45772700  1
