# generated using pymatgen
data_YbPO2
_symmetry_space_group_name_H-M   'P 1'
_cell_length_a   6.04188200
_cell_length_b   6.04188200
_cell_length_c   7.20077523
_cell_angle_alpha   114.80491594
_cell_angle_beta   114.80491594
_cell_angle_gamma   90.00000000
_symmetry_Int_Tables_number   1
_chemical_formula_structural   YbPO2
_chemical_formula_sum   'Yb4 P4 O8'
_cell_volume   211.59608165
_cell_formula_units_Z   4
loop_
 _symmetry_equiv_pos_site_id
 _symmetry_equiv_pos_as_xyz
  1  'x, y, z'
loop_
 _atom_site_type_symbol
 _atom_site_label
 _atom_site_symmetry_multiplicity
 _atom_site_fract_x
 _atom_site_fract_y
 _atom_site_fract_z
 _atom_site_occupancy
  Yb  Yb0  1  0.62500000  0.87500000  0.25000000  1
  Yb  Yb1  1  0.62500000  0.37500000  0.25000000  1
  Yb  Yb2  1  0.62500000  0.37500000  0.75000000  1
  Yb  Yb3  1  0.12500000  0.37500000  0.75000000  1
  P  P4  1  0.12500000  0.37500000  0.25000000  1
  P  P5  1  0.12500000  0.87500000  0.25000000  1
  P  P6  1  0.12500000  0.87500000  0.75000000  1
  P  P7  1  0.62500000  0.87500000  0.75000000  1
  O  O8  1  0.39529700  0.17347100  0.34696500  1
  O  O9  1  0.95166800  0.17349400  0.34696500  1
  O  O10  1  0.42349400  0.14529700  0.84696500  1
  O  O11  1  0.85470300  0.57652900  0.15303500  1
  O  O12  1  0.42347100  0.70166800  0.84696500  1
  O  O13  1  0.29833200  0.57650600  0.15303500  1
  O  O14  1  0.82650600  0.60470300  0.65303500  1
  O  O15  1  0.82652900  0.04833200  0.65303500  1
