# generated using pymatgen
data_YbMnFeO5
_symmetry_space_group_name_H-M   'P 1'
_cell_length_a   5.72480400
_cell_length_b   7.24444500
_cell_length_c   8.39248200
_cell_angle_alpha   90.00000000
_cell_angle_beta   90.00000000
_cell_angle_gamma   90.00000000
_symmetry_Int_Tables_number   1
_chemical_formula_structural   YbMnFeO5
_chemical_formula_sum   'Yb4 Mn4 Fe4 O20'
_cell_volume   348.06163857
_cell_formula_units_Z   4
loop_
 _symmetry_equiv_pos_site_id
 _symmetry_equiv_pos_as_xyz
  1  'x, y, z'
loop_
 _atom_site_type_symbol
 _atom_site_label
 _atom_site_symmetry_multiplicity
 _atom_site_fract_x
 _atom_site_fract_y
 _atom_site_fract_z
 _atom_site_occupancy
  Yb  Yb0  1  0.50000000  0.36786700  0.33081700  1
  Yb  Yb1  1  0.50000000  0.63213300  0.66918300  1
  Yb  Yb2  1  0.50000000  0.13213300  0.83081700  1
  Yb  Yb3  1  0.50000000  0.86786700  0.16918300  1
  Mn  Mn4  1  0.25103300  0.00000000  0.50000000  1
  Mn  Mn5  1  0.74896700  0.00000000  0.50000000  1
  Mn  Mn6  1  0.74896700  0.50000000  0.00000000  1
  Mn  Mn7  1  0.25103300  0.50000000  0.00000000  1
  Fe  Fe8  1  0.00000000  0.10038700  0.14819000  1
  Fe  Fe9  1  0.00000000  0.89961300  0.85181000  1
  Fe  Fe10  1  0.00000000  0.39961300  0.64819000  1
  Fe  Fe11  1  0.00000000  0.60038700  0.35181000  1
  O  O12  1  0.24849100  0.10925300  0.28981800  1
  O  O13  1  0.75150900  0.89074700  0.71018200  1
  O  O14  1  0.24849100  0.89074700  0.71018200  1
  O  O15  1  0.75150900  0.39074700  0.78981800  1
  O  O16  1  0.75150900  0.10925300  0.28981800  1
  O  O17  1  0.24849100  0.60925300  0.21018200  1
  O  O18  1  0.75150900  0.60925300  0.21018200  1
  O  O19  1  0.24849100  0.39074700  0.78981800  1
  O  O20  1  0.20982300  0.00000000  0.00000000  1
  O  O21  1  0.79017700  0.00000000  0.00000000  1
  O  O22  1  0.79017700  0.50000000  0.50000000  1
  O  O23  1  0.20982300  0.50000000  0.50000000  1
  O  O24  1  0.50000000  0.33928800  0.05566900  1
  O  O25  1  0.50000000  0.66071200  0.94433100  1
  O  O26  1  0.50000000  0.16071200  0.55566900  1
  O  O27  1  0.50000000  0.83928800  0.44433100  1
  O  O28  1  0.00000000  0.34309700  0.07585400  1
  O  O29  1  0.00000000  0.65690300  0.92414600  1
  O  O30  1  0.00000000  0.15690300  0.57585400  1
  O  O31  1  0.00000000  0.84309700  0.42414600  1
