# generated using pymatgen
data_YbTl(MoO4)2
_symmetry_space_group_name_H-M   'P 1'
_cell_length_a   6.24163000
_cell_length_b   15.22521100
_cell_length_c   9.05711600
_cell_angle_alpha   90.00000000
_cell_angle_beta   90.00000000
_cell_angle_gamma   90.00000000
_symmetry_Int_Tables_number   1
_chemical_formula_structural   YbTl(MoO4)2
_chemical_formula_sum   'Yb4 Tl4 Mo8 O32'
_cell_volume   860.69894472
_cell_formula_units_Z   4
loop_
 _symmetry_equiv_pos_site_id
 _symmetry_equiv_pos_as_xyz
  1  'x, y, z'
loop_
 _atom_site_type_symbol
 _atom_site_label
 _atom_site_symmetry_multiplicity
 _atom_site_fract_x
 _atom_site_fract_y
 _atom_site_fract_z
 _atom_site_occupancy
  Yb  Yb0  1  0.75000000  0.89866200  0.69439600  1
  Yb  Yb1  1  0.25000000  0.10133800  0.30560400  1
  Yb  Yb2  1  0.25000000  0.60133800  0.19439600  1
  Yb  Yb3  1  0.75000000  0.39866200  0.80560400  1
  Tl  Tl4  1  0.75000000  0.62360100  0.57133500  1
  Tl  Tl5  1  0.25000000  0.37639900  0.42866500  1
  Tl  Tl6  1  0.25000000  0.87639900  0.07133500  1
  Tl  Tl7  1  0.75000000  0.12360100  0.92866500  1
  Mo  Mo8  1  0.75000000  0.95917100  0.27095000  1
  Mo  Mo9  1  0.25000000  0.04082900  0.72905000  1
  Mo  Mo10  1  0.25000000  0.54082900  0.77095000  1
  Mo  Mo11  1  0.75000000  0.45917100  0.22905000  1
  Mo  Mo12  1  0.75000000  0.71708600  0.00117200  1
  Mo  Mo13  1  0.25000000  0.28291400  0.99882800  1
  Mo  Mo14  1  0.25000000  0.78291400  0.50117200  1
  Mo  Mo15  1  0.75000000  0.21708600  0.49882800  1
  O  O16  1  0.75000000  0.84746800  0.21318300  1
  O  O17  1  0.25000000  0.15253200  0.78681700  1
  O  O18  1  0.25000000  0.65253200  0.71318300  1
  O  O19  1  0.75000000  0.34746800  0.28681700  1
  O  O20  1  0.75000000  0.96562200  0.46734500  1
  O  O21  1  0.25000000  0.03437800  0.53265500  1
  O  O22  1  0.25000000  0.53437800  0.96734500  1
  O  O23  1  0.75000000  0.46562200  0.03265500  1
  O  O24  1  0.75000000  0.64046300  0.84928800  1
  O  O25  1  0.25000000  0.35953700  0.15071200  1
  O  O26  1  0.25000000  0.85953700  0.34928800  1
  O  O27  1  0.75000000  0.14046300  0.65071200  1
  O  O28  1  0.75000000  0.82409400  0.91474500  1
  O  O29  1  0.25000000  0.17590600  0.08525500  1
  O  O30  1  0.25000000  0.67590600  0.41474500  1
  O  O31  1  0.75000000  0.32409400  0.58525500  1
  O  O32  1  0.00790600  0.80450800  0.60324100  1
  O  O33  1  0.99209400  0.19549200  0.39675900  1
  O  O34  1  0.99209400  0.69549200  0.10324100  1
  O  O35  1  0.50790600  0.19549200  0.39675900  1
  O  O36  1  0.00790600  0.30450800  0.89675900  1
  O  O37  1  0.49209400  0.80450800  0.60324100  1
  O  O38  1  0.49209400  0.30450800  0.89675900  1
  O  O39  1  0.50790600  0.69549200  0.10324100  1
  O  O40  1  0.48780500  0.98759300  0.80374300  1
  O  O41  1  0.51219500  0.01240700  0.19625700  1
  O  O42  1  0.51219500  0.51240700  0.30374300  1
  O  O43  1  0.98780500  0.01240700  0.19625700  1
  O  O44  1  0.48780500  0.48759300  0.69625700  1
  O  O45  1  0.01219500  0.98759300  0.80374300  1
  O  O46  1  0.01219500  0.48759300  0.69625700  1
  O  O47  1  0.98780500  0.51240700  0.30374300  1
