# generated using pymatgen
data_ZnP2H13C2(N3O4)2
_symmetry_space_group_name_H-M   'P 1'
_cell_length_a   10.24644500
_cell_length_b   10.63436400
_cell_length_c   12.61929800
_cell_angle_alpha   90.00000000
_cell_angle_beta   90.00000000
_cell_angle_gamma   90.00000000
_symmetry_Int_Tables_number   1
_chemical_formula_structural   ZnP2H13C2(N3O4)2
_chemical_formula_sum   'Zn4 P8 H52 C8 N24 O32'
_cell_volume   1375.05456102
_cell_formula_units_Z   4
loop_
 _symmetry_equiv_pos_site_id
 _symmetry_equiv_pos_as_xyz
  1  'x, y, z'
loop_
 _atom_site_type_symbol
 _atom_site_label
 _atom_site_symmetry_multiplicity
 _atom_site_fract_x
 _atom_site_fract_y
 _atom_site_fract_z
 _atom_site_occupancy
  Zn  Zn0  1  0.01320800  0.02094500  0.13277600  1
  Zn  Zn1  1  0.51320800  0.97905500  0.86722400  1
  Zn  Zn2  1  0.01320800  0.52094500  0.36722400  1
  Zn  Zn3  1  0.51320800  0.47905500  0.63277600  1
  P  P4  1  0.10514900  0.26671300  0.25604000  1
  P  P5  1  0.60514900  0.73328700  0.74396000  1
  P  P6  1  0.10514900  0.76671300  0.24396000  1
  P  P7  1  0.60514900  0.23328700  0.75604000  1
  P  P8  1  0.27183100  0.49531900  0.48285500  1
  P  P9  1  0.77183100  0.50468100  0.51714500  1
  P  P10  1  0.27183100  0.99531900  0.01714500  1
  P  P11  1  0.77183100  0.00468100  0.98285500  1
  H  H12  1  0.26844300  0.16724400  0.83088200  1
  H  H13  1  0.76844300  0.83275600  0.16911800  1
  H  H14  1  0.26844300  0.66724400  0.66911800  1
  H  H15  1  0.76844300  0.33275600  0.33088200  1
  H  H16  1  0.31284200  0.27924100  0.73691000  1
  H  H17  1  0.81284200  0.72075900  0.26309000  1
  H  H18  1  0.31284200  0.77924100  0.76309000  1
  H  H19  1  0.81284200  0.22075900  0.23691000  1
  H  H20  1  0.20797100  0.29995100  0.42984400  1
  H  H21  1  0.70797100  0.70004900  0.57015600  1
  H  H22  1  0.20797100  0.79995100  0.07015600  1
  H  H23  1  0.70797100  0.20004900  0.92984400  1
  H  H24  1  0.98721600  0.15558400  0.44915200  1
  H  H25  1  0.48721600  0.84441600  0.55084800  1
  H  H26  1  0.98721600  0.65558400  0.05084800  1
  H  H27  1  0.48721600  0.34441600  0.94915200  1
  H  H28  1  0.54989100  0.36096400  0.37824400  1
  H  H29  1  0.04989100  0.63903600  0.62175600  1
  H  H30  1  0.54989100  0.86096400  0.12175600  1
  H  H31  1  0.04989100  0.13903600  0.87824400  1
  H  H32  1  0.48248000  0.12396700  0.17999500  1
  H  H33  1  0.98248000  0.87603300  0.82000500  1
  H  H34  1  0.48248000  0.62396700  0.32000500  1
  H  H35  1  0.98248000  0.37603300  0.67999500  1
  H  H36  1  0.38084500  0.16825500  0.53712700  1
  H  H37  1  0.88084500  0.83174500  0.46287300  1
  H  H38  1  0.38084500  0.66825500  0.96287300  1
  H  H39  1  0.88084500  0.33174500  0.03712700  1
  H  H40  1  0.26418300  0.44009000  0.14590700  1
  H  H41  1  0.76418300  0.55991000  0.85409300  1
  H  H42  1  0.26418300  0.94009000  0.35409300  1
  H  H43  1  0.76418300  0.05991000  0.64590700  1
  H  H44  1  0.38567100  0.30114100  0.05509300  1
  H  H45  1  0.88567100  0.69885900  0.94490700  1
  H  H46  1  0.38567100  0.80114100  0.44490700  1
  H  H47  1  0.88567100  0.19885900  0.55509300  1
  H  H48  1  0.42737100  0.27954900  0.30993900  1
  H  H49  1  0.92737100  0.72045100  0.69006100  1
  H  H50  1  0.42737100  0.77954900  0.19006100  1
  H  H51  1  0.92737100  0.22045100  0.80993900  1
  H  H52  1  0.47309400  0.06314700  0.61117600  1
  H  H53  1  0.97309400  0.93685300  0.38882400  1
  H  H54  1  0.47309400  0.56314700  0.88882400  1
  H  H55  1  0.97309400  0.43685300  0.11117600  1
  H  H56  1  0.64636900  0.10325600  0.15125800  1
  H  H57  1  0.14636900  0.89674400  0.84874200  1
  H  H58  1  0.64636900  0.60325600  0.34874200  1
  H  H59  1  0.14636900  0.39674400  0.65125800  1
  H  H60  1  0.24857000  0.09705100  0.39307500  1
  H  H61  1  0.74857000  0.90294900  0.60692500  1
  H  H62  1  0.24857000  0.59705100  0.10692500  1
  H  H63  1  0.74857000  0.40294900  0.89307500  1
  C  C64  1  0.61414800  0.23505100  0.26574200  1
  C  C65  1  0.11414800  0.76494900  0.73425800  1
  C  C66  1  0.61414800  0.73505100  0.23425800  1
  C  C67  1  0.11414800  0.26494900  0.76574200  1
  C  C68  1  0.37577200  0.48694400  0.01861500  1
  C  C69  1  0.87577200  0.51305600  0.98138500  1
  C  C70  1  0.37577200  0.98694400  0.48138500  1
  C  C71  1  0.87577200  0.01305600  0.51861500  1
  N  N72  1  0.41295600  0.07884200  0.54785200  1
  N  N73  1  0.91295600  0.92115800  0.45214800  1
  N  N74  1  0.41295600  0.57884200  0.95214800  1
  N  N75  1  0.91295600  0.42115800  0.04785200  1
  N  N76  1  0.29583800  0.01284000  0.40058900  1
  N  N77  1  0.79583800  0.98716000  0.59941100  1
  N  N78  1  0.29583800  0.51284000  0.09941100  1
  N  N79  1  0.79583800  0.48716000  0.90058900  1
  N  N80  1  0.52365300  0.29584500  0.32266900  1
  N  N81  1  0.02365300  0.70415500  0.67733100  1
  N  N82  1  0.52365300  0.79584500  0.17733100  1
  N  N83  1  0.02365300  0.20415500  0.82266900  1
  N  N84  1  0.57800200  0.14559800  0.19713000  1
  N  N85  1  0.07800200  0.85440200  0.80287000  1
  N  N86  1  0.57800200  0.64559800  0.30287000  1
  N  N87  1  0.07800200  0.35440200  0.69713000  1
  N  N88  1  0.74034100  0.26374100  0.27876300  1
  N  N89  1  0.24034100  0.73625900  0.72123700  1
  N  N90  1  0.74034100  0.76374100  0.22123700  1
  N  N91  1  0.24034100  0.23625900  0.77876300  1
  N  N92  1  0.41915700  0.36934800  0.00554200  1
  N  N93  1  0.91915700  0.63065200  0.99445800  1
  N  N94  1  0.41915700  0.86934800  0.49445800  1
  N  N95  1  0.91915700  0.13065200  0.50554200  1
  O  O96  1  0.12600900  0.03350300  0.00799300  1
  O  O97  1  0.62600900  0.96649700  0.99200700  1
  O  O98  1  0.12600900  0.53350300  0.49200700  1
  O  O99  1  0.62600900  0.46649700  0.50799300  1
  O  O100  1  0.00116500  0.18531400  0.19998200  1
  O  O101  1  0.50116500  0.81468600  0.80001800  1
  O  O102  1  0.00116500  0.68531400  0.30001800  1
  O  O103  1  0.50116500  0.31468600  0.69998200  1
  O  O104  1  0.28172600  0.34604700  0.47572500  1
  O  O105  1  0.78172600  0.65395300  0.52427500  1
  O  O106  1  0.28172600  0.84604700  0.02427500  1
  O  O107  1  0.78172600  0.15395300  0.97572500  1
  O  O108  1  0.33539100  0.05214900  0.11598400  1
  O  O109  1  0.83539100  0.94785100  0.88401600  1
  O  O110  1  0.33539100  0.55214900  0.38401600  1
  O  O111  1  0.83539100  0.44785100  0.61598400  1
  O  O112  1  0.11857400  0.22450700  0.37341400  1
  O  O113  1  0.61857400  0.77549300  0.62658600  1
  O  O114  1  0.11857400  0.72450700  0.12658600  1
  O  O115  1  0.61857400  0.27549300  0.87341400  1
  O  O116  1  0.23968000  0.26911000  0.19977700  1
  O  O117  1  0.73968000  0.73089000  0.80022300  1
  O  O118  1  0.23968000  0.76911000  0.30022300  1
  O  O119  1  0.73968000  0.23089000  0.69977700  1
  O  O120  1  0.05736900  0.40625100  0.24986700  1
  O  O121  1  0.55736900  0.59374900  0.75013300  1
  O  O122  1  0.05736900  0.90625100  0.25013300  1
  O  O123  1  0.55736900  0.09374900  0.74986700  1
  O  O124  1  0.33638900  0.52914500  0.59013700  1
  O  O125  1  0.83638900  0.47085500  0.40986300  1
  O  O126  1  0.33638900  0.02914500  0.90986300  1
  O  O127  1  0.83638900  0.97085500  0.09013700  1
