# generated using pymatgen
data_Yb2Be2GeO7
_symmetry_space_group_name_H-M   'P 1'
_cell_length_a   7.41620300
_cell_length_b   7.41620300
_cell_length_c   4.96191300
_cell_angle_alpha   90.00000000
_cell_angle_beta   90.00000000
_cell_angle_gamma   90.00000000
_symmetry_Int_Tables_number   1
_chemical_formula_structural   Yb2Be2GeO7
_chemical_formula_sum   'Yb4 Be4 Ge2 O14'
_cell_volume   272.90554714
_cell_formula_units_Z   2
loop_
 _symmetry_equiv_pos_site_id
 _symmetry_equiv_pos_as_xyz
  1  'x, y, z'
loop_
 _atom_site_type_symbol
 _atom_site_label
 _atom_site_symmetry_multiplicity
 _atom_site_fract_x
 _atom_site_fract_y
 _atom_site_fract_z
 _atom_site_occupancy
  Yb  Yb0  1  0.16255600  0.33744400  0.50844900  1
  Yb  Yb1  1  0.83744400  0.66255600  0.50844900  1
  Yb  Yb2  1  0.66255600  0.16255600  0.49155100  1
  Yb  Yb3  1  0.33744400  0.83744400  0.49155100  1
  Be  Be4  1  0.63577400  0.86422600  0.93916300  1
  Be  Be5  1  0.36422600  0.13577400  0.93916300  1
  Be  Be6  1  0.13577400  0.63577400  0.06083700  1
  Be  Be7  1  0.86422600  0.36422600  0.06083700  1
  Ge  Ge8  1  0.00000000  0.00000000  0.00000000  1
  Ge  Ge9  1  0.50000000  0.50000000  0.00000000  1
  O  O10  1  0.00000000  0.50000000  0.19391400  1
  O  O11  1  0.50000000  0.00000000  0.80608600  1
  O  O12  1  0.62720100  0.87279900  0.26415400  1
  O  O13  1  0.37279900  0.12720100  0.26415400  1
  O  O14  1  0.12720100  0.62720100  0.73584600  1
  O  O15  1  0.87279900  0.37279900  0.73584600  1
  O  O16  1  0.07794200  0.82573300  0.21270400  1
  O  O17  1  0.92205800  0.17426700  0.21270400  1
  O  O18  1  0.17426700  0.07794200  0.78729600  1
  O  O19  1  0.42205800  0.32573300  0.78729600  1
  O  O20  1  0.82573300  0.92205800  0.78729600  1
  O  O21  1  0.57794200  0.67426700  0.78729600  1
  O  O22  1  0.32573300  0.57794200  0.21270400  1
  O  O23  1  0.67426700  0.42205800  0.21270400  1
