# generated using pymatgen
data_Zr2In3
_symmetry_space_group_name_H-M   'P 1'
_cell_length_a   6.86791900
_cell_length_b   6.86791900
_cell_length_c   11.44791571
_cell_angle_alpha   107.45542208
_cell_angle_beta   107.45542208
_cell_angle_gamma   90.00000000
_symmetry_Int_Tables_number   1
_chemical_formula_structural   Zr2In3
_chemical_formula_sum   'Zr8 In12'
_cell_volume   488.98463920
_cell_formula_units_Z   4
loop_
 _symmetry_equiv_pos_site_id
 _symmetry_equiv_pos_as_xyz
  1  'x, y, z'
loop_
 _atom_site_type_symbol
 _atom_site_label
 _atom_site_symmetry_multiplicity
 _atom_site_fract_x
 _atom_site_fract_y
 _atom_site_fract_z
 _atom_site_occupancy
  Zr  Zr0  1  0.28845300  0.52026100  0.57690600  1
  Zr  Zr1  1  0.28845300  0.05664500  0.57690600  1
  Zr  Zr2  1  0.30664500  0.03845300  0.07690600  1
  Zr  Zr3  1  0.96154700  0.69335500  0.92309400  1
  Zr  Zr4  1  0.96154700  0.22973900  0.92309400  1
  Zr  Zr5  1  0.77026100  0.03845300  0.07690600  1
  Zr  Zr6  1  0.94335500  0.71154700  0.42309400  1
  Zr  Zr7  1  0.47973900  0.71154700  0.42309400  1
  In  In8  1  0.80401900  0.08614200  0.60803900  1
  In  In9  1  0.80401900  0.52189600  0.60803900  1
  In  In10  1  0.77189600  0.55401900  0.10803900  1
  In  In11  1  0.44598100  0.22810400  0.89196100  1
  In  In12  1  0.44598100  0.66385800  0.89196100  1
  In  In13  1  0.33614200  0.55401900  0.10803900  1
  In  In14  1  0.47810400  0.19598100  0.39196100  1
  In  In15  1  0.91385800  0.19598100  0.39196100  1
  In  In16  1  0.12500000  0.37500000  0.25000000  1
  In  In17  1  0.12500000  0.87500000  0.25000000  1
  In  In18  1  0.12500000  0.87500000  0.75000000  1
  In  In19  1  0.62500000  0.87500000  0.75000000  1
