# generated using pymatgen
data_YSi2Ag3O7
_symmetry_space_group_name_H-M   'P 1'
_cell_length_a   9.57036953
_cell_length_b   9.57036953
_cell_length_c   14.11141200
_cell_angle_alpha   90.00000000
_cell_angle_beta   90.00000000
_cell_angle_gamma   119.99999675
_symmetry_Int_Tables_number   1
_chemical_formula_structural   YSi2Ag3O7
_chemical_formula_sum   'Y6 Si12 Ag18 O42'
_cell_volume   1119.33099992
_cell_formula_units_Z   6
loop_
 _symmetry_equiv_pos_site_id
 _symmetry_equiv_pos_as_xyz
  1  'x, y, z'
loop_
 _atom_site_type_symbol
 _atom_site_label
 _atom_site_symmetry_multiplicity
 _atom_site_fract_x
 _atom_site_fract_y
 _atom_site_fract_z
 _atom_site_occupancy
  Y  Y0  1  0.66666700  0.33333300  0.98186700  1
  Y  Y1  1  0.33333300  0.66666700  0.01813300  1
  Y  Y2  1  0.33333300  0.66666700  0.48186700  1
  Y  Y3  1  0.66666700  0.33333300  0.51813300  1
  Y  Y4  1  0.00000000  0.00000000  0.75000000  1
  Y  Y5  1  0.00000000  0.00000000  0.25000000  1
  Si  Si6  1  0.65231800  0.67128700  0.85875400  1
  Si  Si7  1  0.34768200  0.32871300  0.14124600  1
  Si  Si8  1  0.01896800  0.34768200  0.85875400  1
  Si  Si9  1  0.34768200  0.32871300  0.35875400  1
  Si  Si10  1  0.98103200  0.65231800  0.14124600  1
  Si  Si11  1  0.65231800  0.67128700  0.64124600  1
  Si  Si12  1  0.32871300  0.98103200  0.85875400  1
  Si  Si13  1  0.98103200  0.65231800  0.35875400  1
  Si  Si14  1  0.67128700  0.01896800  0.14124600  1
  Si  Si15  1  0.01896800  0.34768200  0.64124600  1
  Si  Si16  1  0.67128700  0.01896800  0.35875400  1
  Si  Si17  1  0.32871300  0.98103200  0.64124600  1
  Ag  Ag18  1  0.68420500  0.00807300  0.90711800  1
  Ag  Ag19  1  0.31579500  0.99192700  0.09288200  1
  Ag  Ag20  1  0.32386800  0.31579500  0.90711800  1
  Ag  Ag21  1  0.31579500  0.99192700  0.40711800  1
  Ag  Ag22  1  0.67613200  0.68420500  0.09288200  1
  Ag  Ag23  1  0.68420500  0.00807300  0.59288200  1
  Ag  Ag24  1  0.99192700  0.67613200  0.90711800  1
  Ag  Ag25  1  0.67613200  0.68420500  0.40711800  1
  Ag  Ag26  1  0.00807300  0.32386800  0.09288200  1
  Ag  Ag27  1  0.32386800  0.31579500  0.59288200  1
  Ag  Ag28  1  0.00807300  0.32386800  0.40711800  1
  Ag  Ag29  1  0.99192700  0.67613200  0.59288200  1
  Ag  Ag30  1  0.33333300  0.66666700  0.75000000  1
  Ag  Ag31  1  0.66666700  0.33333300  0.25000000  1
  Ag  Ag32  1  0.66666700  0.33333300  0.75000000  1
  Ag  Ag33  1  0.33333300  0.66666700  0.25000000  1
  Ag  Ag34  1  0.00000000  0.00000000  0.00000000  1
  Ag  Ag35  1  0.00000000  0.00000000  0.50000000  1
  O  O36  1  0.95049900  0.15195000  0.85620800  1
  O  O37  1  0.04950100  0.84805000  0.14379200  1
  O  O38  1  0.20145100  0.04950100  0.85620800  1
  O  O39  1  0.04950100  0.84805000  0.35620800  1
  O  O40  1  0.79854900  0.95049900  0.14379200  1
  O  O41  1  0.95049900  0.15195000  0.64379200  1
  O  O42  1  0.84805000  0.79854900  0.85620800  1
  O  O43  1  0.79854900  0.95049900  0.35620800  1
  O  O44  1  0.15195000  0.20145100  0.14379200  1
  O  O45  1  0.20145100  0.04950100  0.64379200  1
  O  O46  1  0.15195000  0.20145100  0.35620800  1
  O  O47  1  0.84805000  0.79854900  0.64379200  1
  O  O48  1  0.87715200  0.39078600  0.88232800  1
  O  O49  1  0.12284800  0.60921400  0.11767200  1
  O  O50  1  0.51363400  0.12284800  0.88232800  1
  O  O51  1  0.12284800  0.60921400  0.38232800  1
  O  O52  1  0.48636600  0.87715200  0.11767200  1
  O  O53  1  0.87715200  0.39078600  0.61767200  1
  O  O54  1  0.60921400  0.48636600  0.88232800  1
  O  O55  1  0.48636600  0.87715200  0.38232800  1
  O  O56  1  0.39078600  0.51363400  0.11767200  1
  O  O57  1  0.51363400  0.12284800  0.61767200  1
  O  O58  1  0.39078600  0.51363400  0.38232800  1
  O  O59  1  0.60921400  0.48636600  0.61767200  1
  O  O60  1  0.55741400  0.73115200  0.93050700  1
  O  O61  1  0.44258600  0.26884800  0.06949300  1
  O  O62  1  0.17373800  0.44258600  0.93050700  1
  O  O63  1  0.44258600  0.26884800  0.43050700  1
  O  O64  1  0.82626200  0.55741400  0.06949300  1
  O  O65  1  0.55741400  0.73115200  0.56949300  1
  O  O66  1  0.26884800  0.82626200  0.93050700  1
  O  O67  1  0.82626200  0.55741400  0.43050700  1
  O  O68  1  0.73115200  0.17373800  0.06949300  1
  O  O69  1  0.17373800  0.44258600  0.56949300  1
  O  O70  1  0.73115200  0.17373800  0.43050700  1
  O  O71  1  0.26884800  0.82626200  0.56949300  1
  O  O72  1  0.58284200  0.67634200  0.75000000  1
  O  O73  1  0.41715800  0.32365800  0.25000000  1
  O  O74  1  0.09350000  0.41715800  0.75000000  1
  O  O75  1  0.90650000  0.58284200  0.25000000  1
  O  O76  1  0.32365800  0.90650000  0.75000000  1
  O  O77  1  0.67634200  0.09350000  0.25000000  1
