# generated using pymatgen
data_YBiO12
_symmetry_space_group_name_H-M   'P 1'
_cell_length_a   7.75702079
_cell_length_b   7.75702079
_cell_length_c   7.75702079
_cell_angle_alpha   60.00000000
_cell_angle_beta   60.00000000
_cell_angle_gamma   60.00000000
_symmetry_Int_Tables_number   1
_chemical_formula_structural   YBiO12
_chemical_formula_sum   'Y2 Bi2 O24'
_cell_volume   330.04249978
_cell_formula_units_Z   2
loop_
 _symmetry_equiv_pos_site_id
 _symmetry_equiv_pos_as_xyz
  1  'x, y, z'
loop_
 _atom_site_type_symbol
 _atom_site_label
 _atom_site_symmetry_multiplicity
 _atom_site_fract_x
 _atom_site_fract_y
 _atom_site_fract_z
 _atom_site_occupancy
  Y  Y0  1  0.00000000  0.00000000  0.00000000  1
  Y  Y1  1  0.25000000  0.25000000  0.25000000  1
  Bi  Bi2  1  0.50000000  0.50000000  0.50000000  1
  Bi  Bi3  1  0.75000000  0.75000000  0.75000000  1
  O  O4  1  0.91360900  0.25824200  0.25824200  1
  O  O5  1  0.25824200  0.91360900  0.56990700  1
  O  O6  1  0.25824200  0.56990700  0.91360900  1
  O  O7  1  0.25824200  0.91360900  0.25824200  1
  O  O8  1  0.33639100  0.99175800  0.68009300  1
  O  O9  1  0.33639100  0.99175800  0.99175800  1
  O  O10  1  0.56990700  0.25824200  0.25824200  1
  O  O11  1  0.56990700  0.25824200  0.91360900  1
  O  O12  1  0.99175800  0.33639100  0.99175800  1
  O  O13  1  0.99175800  0.33639100  0.68009300  1
  O  O14  1  0.91360900  0.25824200  0.56990700  1
  O  O15  1  0.99175800  0.68009300  0.99175800  1
  O  O16  1  0.99175800  0.68009300  0.33639100  1
  O  O17  1  0.25824200  0.56990700  0.25824200  1
  O  O18  1  0.68009300  0.99175800  0.33639100  1
  O  O19  1  0.68009300  0.99175800  0.99175800  1
  O  O20  1  0.25824200  0.25824200  0.91360900  1
  O  O21  1  0.56990700  0.91360900  0.25824200  1
  O  O22  1  0.25824200  0.25824200  0.56990700  1
  O  O23  1  0.91360900  0.56990700  0.25824200  1
  O  O24  1  0.68009300  0.33639100  0.99175800  1
  O  O25  1  0.99175800  0.99175800  0.33639100  1
  O  O26  1  0.33639100  0.68009300  0.99175800  1
  O  O27  1  0.99175800  0.99175800  0.68009300  1
