# generated using pymatgen
data_Zn4(MoO4)3
_symmetry_space_group_name_H-M   'P 1'
_cell_length_a   5.25305400
_cell_length_b   10.88097200
_cell_length_c   17.47194500
_cell_angle_alpha   90.00000000
_cell_angle_beta   90.00000000
_cell_angle_gamma   90.00000000
_symmetry_Int_Tables_number   1
_chemical_formula_structural   Zn4(MoO4)3
_chemical_formula_sum   'Zn16 Mo12 O48'
_cell_volume   998.66725900
_cell_formula_units_Z   4
loop_
 _symmetry_equiv_pos_site_id
 _symmetry_equiv_pos_as_xyz
  1  'x, y, z'
loop_
 _atom_site_type_symbol
 _atom_site_label
 _atom_site_symmetry_multiplicity
 _atom_site_fract_x
 _atom_site_fract_y
 _atom_site_fract_z
 _atom_site_occupancy
  Zn  Zn0  1  0.24453500  0.25000000  0.69874200  1
  Zn  Zn1  1  0.75546500  0.75000000  0.30125800  1
  Zn  Zn2  1  0.25546500  0.75000000  0.19874200  1
  Zn  Zn3  1  0.74453500  0.25000000  0.80125800  1
  Zn  Zn4  1  0.22864100  0.07499300  0.52801200  1
  Zn  Zn5  1  0.77135900  0.92500700  0.47198800  1
  Zn  Zn6  1  0.27135900  0.92500700  0.02801200  1
  Zn  Zn7  1  0.77135900  0.57499300  0.47198800  1
  Zn  Zn8  1  0.72864100  0.07499300  0.97198800  1
  Zn  Zn9  1  0.22864100  0.42500700  0.52801200  1
  Zn  Zn10  1  0.72864100  0.42500700  0.97198800  1
  Zn  Zn11  1  0.27135900  0.57499300  0.02801200  1
  Zn  Zn12  1  0.09449500  0.25000000  0.25049100  1
  Zn  Zn13  1  0.90550500  0.75000000  0.74950900  1
  Zn  Zn14  1  0.40550500  0.75000000  0.75049100  1
  Zn  Zn15  1  0.59449500  0.25000000  0.24950900  1
  Mo  Mo16  1  0.27210600  0.25000000  0.05529900  1
  Mo  Mo17  1  0.72789400  0.75000000  0.94470100  1
  Mo  Mo18  1  0.22789400  0.75000000  0.55529900  1
  Mo  Mo19  1  0.77210600  0.25000000  0.44470100  1
  Mo  Mo20  1  0.30216800  0.53136000  0.33753900  1
  Mo  Mo21  1  0.69783200  0.46864000  0.66246100  1
  Mo  Mo22  1  0.19783200  0.46864000  0.83753900  1
  Mo  Mo23  1  0.69783200  0.03136000  0.66246100  1
  Mo  Mo24  1  0.80216800  0.53136000  0.16246100  1
  Mo  Mo25  1  0.30216800  0.96864000  0.33753900  1
  Mo  Mo26  1  0.80216800  0.96864000  0.16246100  1
  Mo  Mo27  1  0.19783200  0.03136000  0.83753900  1
  O  O28  1  0.09742300  0.00377300  0.42554000  1
  O  O29  1  0.90257700  0.99622700  0.57446000  1
  O  O30  1  0.40257700  0.99622700  0.92554000  1
  O  O31  1  0.90257700  0.50377300  0.57446000  1
  O  O32  1  0.59742300  0.00377300  0.07446000  1
  O  O33  1  0.09742300  0.49622700  0.42554000  1
  O  O34  1  0.59742300  0.49622700  0.07446000  1
  O  O35  1  0.40257700  0.50377300  0.92554000  1
  O  O36  1  0.06330600  0.62630100  0.27917000  1
  O  O37  1  0.93669400  0.37369900  0.72083000  1
  O  O38  1  0.43669400  0.37369900  0.77917000  1
  O  O39  1  0.93669400  0.12630100  0.72083000  1
  O  O40  1  0.56330600  0.62630100  0.22083000  1
  O  O41  1  0.06330600  0.87369900  0.27917000  1
  O  O42  1  0.56330600  0.87369900  0.22083000  1
  O  O43  1  0.43669400  0.12630100  0.77917000  1
  O  O44  1  0.07968300  0.11676800  0.03804500  1
  O  O45  1  0.92031700  0.88323200  0.96195500  1
  O  O46  1  0.42031700  0.88323200  0.53804500  1
  O  O47  1  0.92031700  0.61676800  0.96195500  1
  O  O48  1  0.57968300  0.11676800  0.46195500  1
  O  O49  1  0.07968300  0.38323200  0.03804500  1
  O  O50  1  0.57968300  0.38323200  0.46195500  1
  O  O51  1  0.42031700  0.61676800  0.53804500  1
  O  O52  1  0.34990500  0.25000000  0.15530000  1
  O  O53  1  0.65009500  0.75000000  0.84470000  1
  O  O54  1  0.15009500  0.75000000  0.65530000  1
  O  O55  1  0.84990500  0.25000000  0.34470000  1
  O  O56  1  0.34148600  0.12048100  0.29209000  1
  O  O57  1  0.65851400  0.87951900  0.70791000  1
  O  O58  1  0.15851400  0.87951900  0.79209000  1
  O  O59  1  0.65851400  0.62048100  0.70791000  1
  O  O60  1  0.84148600  0.12048100  0.20791000  1
  O  O61  1  0.34148600  0.37951900  0.29209000  1
  O  O62  1  0.84148600  0.37951900  0.20791000  1
  O  O63  1  0.15851400  0.62048100  0.79209000  1
  O  O64  1  0.05502500  0.25000000  0.50552100  1
  O  O65  1  0.94497500  0.75000000  0.49447900  1
  O  O66  1  0.44497500  0.75000000  0.00552100  1
  O  O67  1  0.55502500  0.25000000  0.99447900  1
  O  O68  1  0.06862700  0.62334000  0.12092500  1
  O  O69  1  0.93137300  0.37666000  0.87907500  1
  O  O70  1  0.43137300  0.37666000  0.62092500  1
  O  O71  1  0.93137300  0.12334000  0.87907500  1
  O  O72  1  0.56862700  0.62334000  0.37907500  1
  O  O73  1  0.06862700  0.87666000  0.12092500  1
  O  O74  1  0.56862700  0.87666000  0.37907500  1
  O  O75  1  0.43137300  0.12334000  0.62092500  1
