# generated using pymatgen
data_ZnH12(NO3)2
_symmetry_space_group_name_H-M   'P 1'
_cell_length_a   31.06218700
_cell_length_b   5.76086700
_cell_length_c   6.81866524
_cell_angle_alpha   62.82216875
_cell_angle_beta   90.00000000
_cell_angle_gamma   90.00000000
_symmetry_Int_Tables_number   1
_chemical_formula_structural   ZnH12(NO3)2
_chemical_formula_sum   'Zn4 H48 N8 O24'
_cell_volume   1085.45215756
_cell_formula_units_Z   4
loop_
 _symmetry_equiv_pos_site_id
 _symmetry_equiv_pos_as_xyz
  1  'x, y, z'
loop_
 _atom_site_type_symbol
 _atom_site_label
 _atom_site_symmetry_multiplicity
 _atom_site_fract_x
 _atom_site_fract_y
 _atom_site_fract_z
 _atom_site_occupancy
  Zn  Zn0  1  0.36137700  0.76175100  0.23538400  1
  Zn  Zn1  1  0.63862300  0.23824900  0.76461600  1
  Zn  Zn2  1  0.86137700  0.23824900  0.26461600  1
  Zn  Zn3  1  0.13862300  0.76175100  0.73538400  1
  H  H4  1  0.67290600  0.37472100  0.32862100  1
  H  H5  1  0.32709400  0.62527900  0.67137900  1
  H  H6  1  0.17290600  0.62527900  0.17137900  1
  H  H7  1  0.82709400  0.37472100  0.82862100  1
  H  H8  1  0.81162500  0.61204700  0.18679500  1
  H  H9  1  0.18837500  0.38795300  0.81320500  1
  H  H10  1  0.31162500  0.38795300  0.31320500  1
  H  H11  1  0.68837500  0.61204700  0.68679500  1
  H  H12  1  0.61233100  0.47489900  0.61660400  1
  H  H13  1  0.38766900  0.52510100  0.38339600  1
  H  H14  1  0.11233100  0.52510100  0.88339600  1
  H  H15  1  0.88766900  0.47489900  0.11660400  1
  H  H16  1  0.58543200  0.78326900  0.23274500  1
  H  H17  1  0.41456800  0.21673100  0.76725500  1
  H  H18  1  0.08543200  0.21673100  0.26725500  1
  H  H19  1  0.91456800  0.78326900  0.73274500  1
  H  H20  1  0.92652200  0.71246400  0.32665000  1
  H  H21  1  0.07347800  0.28753600  0.67335000  1
  H  H22  1  0.42652200  0.28753600  0.17335000  1
  H  H23  1  0.57347800  0.71246400  0.82665000  1
  H  H24  1  0.56146900  0.78208500  0.24893700  1
  H  H25  1  0.43853100  0.21791500  0.75106300  1
  H  H26  1  0.06146900  0.21791500  0.25106300  1
  H  H27  1  0.93853100  0.78208500  0.74893700  1
  H  H28  1  0.58703500  0.32209000  0.11744000  1
  H  H29  1  0.41296500  0.67791000  0.88256000  1
  H  H30  1  0.08703500  0.67791000  0.38256000  1
  H  H31  1  0.91296500  0.32209000  0.61744000  1
  H  H32  1  0.11405300  0.77504100  0.16057100  1
  H  H33  1  0.88594700  0.22495900  0.83942900  1
  H  H34  1  0.61405300  0.22495900  0.33942900  1
  H  H35  1  0.38594700  0.77504100  0.66057100  1
  H  H36  1  0.14972500  0.69572000  0.16307200  1
  H  H37  1  0.85027500  0.30428000  0.83692800  1
  H  H38  1  0.64972500  0.30428000  0.33692800  1
  H  H39  1  0.35027500  0.69572000  0.66307200  1
  H  H40  1  0.83670100  0.90816100  0.05696700  1
  H  H41  1  0.16329900  0.09183900  0.94303300  1
  H  H42  1  0.33670100  0.09183900  0.44303300  1
  H  H43  1  0.66329900  0.90816100  0.55696700  1
  H  H44  1  0.79198300  0.52229700  0.22478800  1
  H  H45  1  0.20801700  0.47770300  0.77521200  1
  H  H46  1  0.29198300  0.47770300  0.27521200  1
  H  H47  1  0.70801700  0.52229700  0.72478800  1
  H  H48  1  0.57781700  0.34232900  0.00541600  1
  H  H49  1  0.42218300  0.65767100  0.99458400  1
  H  H50  1  0.07781700  0.65767100  0.49458400  1
  H  H51  1  0.92218300  0.34232900  0.50541600  1
  N  N52  1  0.70284700  0.89103300  0.00365100  1
  N  N53  1  0.29715300  0.10896700  0.99634900  1
  N  N54  1  0.20284700  0.10896700  0.49634900  1
  N  N55  1  0.79715300  0.89103300  0.50365100  1
  N  N56  1  0.97198400  0.96855200  0.25591400  1
  N  N57  1  0.02801600  0.03144800  0.74408600  1
  N  N58  1  0.47198400  0.03144800  0.24408600  1
  N  N59  1  0.52801600  0.96855200  0.75591400  1
  O  O60  1  0.27601500  0.95109400  0.15554400  1
  O  O61  1  0.72398500  0.04890600  0.84445600  1
  O  O62  1  0.77601500  0.04890600  0.34445600  1
  O  O63  1  0.22398500  0.95109400  0.65554400  1
  O  O64  1  0.47918800  0.81306800  0.26837200  1
  O  O65  1  0.52081200  0.18693200  0.73162800  1
  O  O66  1  0.97918800  0.18693200  0.23162800  1
  O  O67  1  0.02081200  0.81306800  0.76837200  1
  O  O68  1  0.99638800  0.80001900  0.26037500  1
  O  O69  1  0.00361200  0.19998100  0.73962500  1
  O  O70  1  0.49638800  0.19998100  0.23962500  1
  O  O71  1  0.50361200  0.80001900  0.76037500  1
  O  O72  1  0.65936900  0.93084200  0.00232000  1
  O  O73  1  0.34063100  0.06915800  0.99768000  1
  O  O74  1  0.15936900  0.06915800  0.49768000  1
  O  O75  1  0.84063100  0.93084200  0.50232000  1
  O  O76  1  0.71680100  0.69852500  0.16455400  1
  O  O77  1  0.28319900  0.30147500  0.83544600  1
  O  O78  1  0.21680100  0.30147500  0.33544600  1
  O  O79  1  0.78319900  0.69852500  0.66455400  1
  O  O80  1  0.92689700  0.90118600  0.28259800  1
  O  O81  1  0.07310300  0.09881400  0.71740200  1
  O  O82  1  0.42689700  0.09881400  0.21740200  1
  O  O83  1  0.57310300  0.90118600  0.78259800  1
