# generated using pymatgen
data_Y4Pt
_symmetry_space_group_name_H-M   'P 1'
_cell_length_a   7.82852342
_cell_length_b   7.82852342
_cell_length_c   7.82852342
_cell_angle_alpha   60.00000000
_cell_angle_beta   60.00000000
_cell_angle_gamma   60.00000000
_symmetry_Int_Tables_number   1
_chemical_formula_structural   Y4Pt
_chemical_formula_sum   'Y8 Pt2'
_cell_volume   339.25368083
_cell_formula_units_Z   2
loop_
 _symmetry_equiv_pos_site_id
 _symmetry_equiv_pos_as_xyz
  1  'x, y, z'
loop_
 _atom_site_type_symbol
 _atom_site_label
 _atom_site_symmetry_multiplicity
 _atom_site_fract_x
 _atom_site_fract_y
 _atom_site_fract_z
 _atom_site_occupancy
  Y  Y0  1  0.61099800  0.61099800  0.61099800  1
  Y  Y1  1  0.16700700  0.61099800  0.61099800  1
  Y  Y2  1  0.61099800  0.16700700  0.61099800  1
  Y  Y3  1  0.58299300  0.13900200  0.13900200  1
  Y  Y4  1  0.13900200  0.13900200  0.13900200  1
  Y  Y5  1  0.61099800  0.61099800  0.16700700  1
  Y  Y6  1  0.13900200  0.58299300  0.13900200  1
  Y  Y7  1  0.13900200  0.13900200  0.58299300  1
  Pt  Pt8  1  0.00000000  0.00000000  0.00000000  1
  Pt  Pt9  1  0.75000000  0.75000000  0.75000000  1
