# generated using pymatgen
data_Y5Sb3
_symmetry_space_group_name_H-M   'P 1'
_cell_length_a   8.14823800
_cell_length_b   9.32157900
_cell_length_c   11.96460000
_cell_angle_alpha   90.00000000
_cell_angle_beta   90.00000000
_cell_angle_gamma   90.00000000
_symmetry_Int_Tables_number   1
_chemical_formula_structural   Y5Sb3
_chemical_formula_sum   'Y20 Sb12'
_cell_volume   908.76454341
_cell_formula_units_Z   4
loop_
 _symmetry_equiv_pos_site_id
 _symmetry_equiv_pos_as_xyz
  1  'x, y, z'
loop_
 _atom_site_type_symbol
 _atom_site_label
 _atom_site_symmetry_multiplicity
 _atom_site_fract_x
 _atom_site_fract_y
 _atom_site_fract_z
 _atom_site_occupancy
  Y  Y0  1  0.17084800  0.75000000  0.77176900  1
  Y  Y1  1  0.82915200  0.25000000  0.22823100  1
  Y  Y2  1  0.67084800  0.25000000  0.72823100  1
  Y  Y3  1  0.32915200  0.75000000  0.27176900  1
  Y  Y4  1  0.80851300  0.94254600  0.93273100  1
  Y  Y5  1  0.19148700  0.05745400  0.06726900  1
  Y  Y6  1  0.30851300  0.05745400  0.56726900  1
  Y  Y7  1  0.19148700  0.44254600  0.06726900  1
  Y  Y8  1  0.69148700  0.94254600  0.43273100  1
  Y  Y9  1  0.80851300  0.55745400  0.93273100  1
  Y  Y10  1  0.69148700  0.55745400  0.43273100  1
  Y  Y11  1  0.30851300  0.44254600  0.56726900  1
  Y  Y12  1  0.65757800  0.75000000  0.70847700  1
  Y  Y13  1  0.34242200  0.25000000  0.29152300  1
  Y  Y14  1  0.15757800  0.25000000  0.79152300  1
  Y  Y15  1  0.84242200  0.75000000  0.20847700  1
  Y  Y16  1  0.47185300  0.75000000  0.99509800  1
  Y  Y17  1  0.52814700  0.25000000  0.00490200  1
  Y  Y18  1  0.97185300  0.25000000  0.50490200  1
  Y  Y19  1  0.02814700  0.75000000  0.49509800  1
  Sb  Sb20  1  0.93560500  0.99127900  0.67362400  1
  Sb  Sb21  1  0.06439500  0.00872100  0.32637600  1
  Sb  Sb22  1  0.43560500  0.00872100  0.82637600  1
  Sb  Sb23  1  0.06439500  0.49127900  0.32637600  1
  Sb  Sb24  1  0.56439500  0.99127900  0.17362400  1
  Sb  Sb25  1  0.93560500  0.50872100  0.67362400  1
  Sb  Sb26  1  0.56439500  0.50872100  0.17362400  1
  Sb  Sb27  1  0.43560500  0.49127900  0.82637600  1
  Sb  Sb28  1  0.40626500  0.75000000  0.52423600  1
  Sb  Sb29  1  0.59373500  0.25000000  0.47576400  1
  Sb  Sb30  1  0.90626500  0.25000000  0.97576400  1
  Sb  Sb31  1  0.09373500  0.75000000  0.02423600  1
