# generated using pymatgen
data_VPN2O5
_symmetry_space_group_name_H-M   'P 1'
_cell_length_a   5.21043900
_cell_length_b   7.12733200
_cell_length_c   8.81174359
_cell_angle_alpha   88.90587868
_cell_angle_beta   90.00000000
_cell_angle_gamma   90.00000000
_symmetry_Int_Tables_number   1
_chemical_formula_structural   VPN2O5
_chemical_formula_sum   'V2 P2 N4 O10'
_cell_volume   327.17790484
_cell_formula_units_Z   2
loop_
 _symmetry_equiv_pos_site_id
 _symmetry_equiv_pos_as_xyz
  1  'x, y, z'
loop_
 _atom_site_type_symbol
 _atom_site_label
 _atom_site_symmetry_multiplicity
 _atom_site_fract_x
 _atom_site_fract_y
 _atom_site_fract_z
 _atom_site_occupancy
  V  V0  1  0.34406400  0.88002600  0.82492800  1
  V  V1  1  0.84406400  0.11997400  0.17507200  1
  P  P2  1  0.36084100  0.86264800  0.20850900  1
  P  P3  1  0.86084100  0.13735200  0.79149100  1
  N  N4  1  0.48820700  0.34137700  0.06710500  1
  N  N5  1  0.98820700  0.65862300  0.93289500  1
  N  N6  1  0.36998300  0.32911500  0.50964200  1
  N  N7  1  0.86998300  0.67088500  0.49035800  1
  O  O8  1  0.04219500  0.96950400  0.74049000  1
  O  O9  1  0.54219500  0.03049600  0.25951000  1
  O  O10  1  0.40613200  0.68122300  0.28615900  1
  O  O11  1  0.90613200  0.31877700  0.71384100  1
  O  O12  1  0.40450000  0.86263400  0.02895400  1
  O  O13  1  0.90450000  0.13736600  0.97104600  1
  O  O14  1  0.07783100  0.93938400  0.22582000  1
  O  O15  1  0.57783100  0.06061600  0.77418000  1
  O  O16  1  0.43312500  0.69146900  0.74505700  1
  O  O17  1  0.93312500  0.30853100  0.25494300  1
