# generated using pymatgen
data_Y2Hf2(MoO4)7
_symmetry_space_group_name_H-M   'P 1'
_cell_length_a   11.64740544
_cell_length_b   11.64740544
_cell_length_c   14.00408109
_cell_angle_alpha   69.06956862
_cell_angle_beta   69.06956862
_cell_angle_gamma   50.59555683
_symmetry_Int_Tables_number   1
_chemical_formula_structural   Y2Hf2(MoO4)7
_chemical_formula_sum   'Y4 Hf4 Mo14 O56'
_cell_volume   1348.50963817
_cell_formula_units_Z   2
loop_
 _symmetry_equiv_pos_site_id
 _symmetry_equiv_pos_as_xyz
  1  'x, y, z'
loop_
 _atom_site_type_symbol
 _atom_site_label
 _atom_site_symmetry_multiplicity
 _atom_site_fract_x
 _atom_site_fract_y
 _atom_site_fract_z
 _atom_site_occupancy
  Y  Y0  1  0.14922000  0.12437000  0.06310600  1
  Y  Y1  1  0.85078000  0.87563000  0.93689400  1
  Y  Y2  1  0.87563000  0.85078000  0.43689400  1
  Y  Y3  1  0.12437000  0.14922000  0.56310600  1
  Hf  Hf4  1  0.42039200  0.34858800  0.18726800  1
  Hf  Hf5  1  0.57960800  0.65141200  0.81273200  1
  Hf  Hf6  1  0.65141200  0.57960800  0.31273200  1
  Hf  Hf7  1  0.34858800  0.42039200  0.68726800  1
  Mo  Mo8  1  0.49910900  0.98799400  0.17334200  1
  Mo  Mo9  1  0.50089100  0.01200600  0.82665800  1
  Mo  Mo10  1  0.01200600  0.50089100  0.32665800  1
  Mo  Mo11  1  0.98799400  0.49910900  0.67334200  1
  Mo  Mo12  1  0.45642800  0.22720800  0.47721400  1
  Mo  Mo13  1  0.54357200  0.77279200  0.52278600  1
  Mo  Mo14  1  0.77279200  0.54357200  0.02278600  1
  Mo  Mo15  1  0.22720800  0.45642800  0.97721400  1
  Mo  Mo16  1  0.81193800  0.06626000  0.14706700  1
  Mo  Mo17  1  0.18806200  0.93374000  0.85293300  1
  Mo  Mo18  1  0.93374000  0.18806200  0.35293300  1
  Mo  Mo19  1  0.06626000  0.81193800  0.64706700  1
  Mo  Mo20  1  0.29637600  0.70362400  0.25000000  1
  Mo  Mo21  1  0.70362400  0.29637600  0.75000000  1
  O  O22  1  0.48732100  0.12601800  0.21804500  1
  O  O23  1  0.51267900  0.87398200  0.78195500  1
  O  O24  1  0.87398200  0.51267900  0.28195500  1
  O  O25  1  0.12601800  0.48732100  0.71804500  1
  O  O26  1  0.64265000  0.07051800  0.49565500  1
  O  O27  1  0.35735000  0.92948200  0.50434500  1
  O  O28  1  0.92948200  0.35735000  0.00434500  1
  O  O29  1  0.07051800  0.64265000  0.99565500  1
  O  O30  1  0.31633000  0.06013700  0.16573600  1
  O  O31  1  0.68367000  0.93986300  0.83426400  1
  O  O32  1  0.93986300  0.68367000  0.33426400  1
  O  O33  1  0.06013700  0.31633000  0.66573600  1
  O  O34  1  0.93480300  0.02503000  0.39829400  1
  O  O35  1  0.06519700  0.97497000  0.60170600  1
  O  O36  1  0.97497000  0.06519700  0.10170600  1
  O  O37  1  0.02503000  0.93480300  0.89829400  1
  O  O38  1  0.79711600  0.99644500  0.28314900  1
  O  O39  1  0.20288400  0.00355500  0.71685100  1
  O  O40  1  0.00355500  0.20288400  0.21685100  1
  O  O41  1  0.99644500  0.79711600  0.78314900  1
  O  O42  1  0.57622200  0.80545000  0.26124700  1
  O  O43  1  0.42377800  0.19455000  0.73875300  1
  O  O44  1  0.19455000  0.42377800  0.23875300  1
  O  O45  1  0.80545000  0.57622200  0.76124700  1
  O  O46  1  0.66608600  0.82965400  0.47052800  1
  O  O47  1  0.33391400  0.17034600  0.52947200  1
  O  O48  1  0.17034600  0.33391400  0.02947200  1
  O  O49  1  0.82965400  0.66608600  0.97052800  1
  O  O50  1  0.82948400  0.94659600  0.08326100  1
  O  O51  1  0.17051600  0.05340400  0.91673900  1
  O  O52  1  0.05340400  0.17051600  0.41673900  1
  O  O53  1  0.94659600  0.82948400  0.58326100  1
  O  O54  1  0.61167600  0.96037800  0.04811400  1
  O  O55  1  0.38832400  0.03962200  0.95188600  1
  O  O56  1  0.03962200  0.38832400  0.45188600  1
  O  O57  1  0.96037800  0.61167600  0.54811400  1
  O  O58  1  0.37581700  0.39006600  0.04315800  1
  O  O59  1  0.62418300  0.60993400  0.95684200  1
  O  O60  1  0.60993400  0.62418300  0.45684200  1
  O  O61  1  0.39006600  0.37581700  0.54315800  1
  O  O62  1  0.25969700  0.86810500  0.15722300  1
  O  O63  1  0.74030300  0.13189500  0.84277700  1
  O  O64  1  0.13189500  0.74030300  0.34277700  1
  O  O65  1  0.86810500  0.25969700  0.65722300  1
  O  O66  1  0.43974100  0.63884000  0.31970300  1
  O  O67  1  0.56025900  0.36116000  0.68029700  1
  O  O68  1  0.36116000  0.56025900  0.18029700  1
  O  O69  1  0.63884000  0.43974100  0.81970300  1
  O  O70  1  0.64301600  0.26384000  0.12465600  1
  O  O71  1  0.35698400  0.73616000  0.87534400  1
  O  O72  1  0.73616000  0.35698400  0.37534400  1
  O  O73  1  0.26384000  0.64301600  0.62465600  1
  O  O74  1  0.44859100  0.30343300  0.33928400  1
  O  O75  1  0.55140900  0.69656700  0.66071600  1
  O  O76  1  0.69656700  0.55140900  0.16071600  1
  O  O77  1  0.30343300  0.44859100  0.83928400  1
