# generated using pymatgen
data_UGeI6
_symmetry_space_group_name_H-M   'P 1'
_cell_length_a   7.51306958
_cell_length_b   7.51306958
_cell_length_c   13.75476900
_cell_angle_alpha   90.00000000
_cell_angle_beta   90.00000000
_cell_angle_gamma   119.99999634
_symmetry_Int_Tables_number   1
_chemical_formula_structural   UGeI6
_chemical_formula_sum   'U2 Ge2 I12'
_cell_volume   672.38616874
_cell_formula_units_Z   2
loop_
 _symmetry_equiv_pos_site_id
 _symmetry_equiv_pos_as_xyz
  1  'x, y, z'
loop_
 _atom_site_type_symbol
 _atom_site_label
 _atom_site_symmetry_multiplicity
 _atom_site_fract_x
 _atom_site_fract_y
 _atom_site_fract_z
 _atom_site_occupancy
  U  U0  1  0.00000000  0.00000000  0.50000000  1
  U  U1  1  0.00000000  0.00000000  0.00000000  1
  Ge  Ge2  1  0.66666700  0.33333300  0.75000000  1
  Ge  Ge3  1  0.33333300  0.66666700  0.25000000  1
  I  I4  1  0.66920700  0.99676300  0.62585600  1
  I  I5  1  0.33079300  0.00323700  0.37414400  1
  I  I6  1  0.00323700  0.67244400  0.62585600  1
  I  I7  1  0.66920700  0.67244400  0.87414400  1
  I  I8  1  0.99676300  0.32755600  0.37414400  1
  I  I9  1  0.33079300  0.32755600  0.12585600  1
  I  I10  1  0.32755600  0.33079300  0.62585600  1
  I  I11  1  0.00323700  0.33079300  0.87414400  1
  I  I12  1  0.67244400  0.66920700  0.37414400  1
  I  I13  1  0.99676300  0.66920700  0.12585600  1
  I  I14  1  0.32755600  0.99676300  0.87414400  1
  I  I15  1  0.67244400  0.00323700  0.12585600  1
