# generated using pymatgen
data_V4CuO11
_symmetry_space_group_name_H-M   'P 1'
_cell_length_a   3.60292500
_cell_length_b   7.37867368
_cell_length_c   7.80042615
_cell_angle_alpha   105.23407505
_cell_angle_beta   103.35266578
_cell_angle_gamma   90.00000000
_symmetry_Int_Tables_number   1
_chemical_formula_structural   V4CuO11
_chemical_formula_sum   'V4 Cu1 O11'
_cell_volume   194.26975946
_cell_formula_units_Z   1
loop_
 _symmetry_equiv_pos_site_id
 _symmetry_equiv_pos_as_xyz
  1  'x, y, z'
loop_
 _atom_site_type_symbol
 _atom_site_label
 _atom_site_symmetry_multiplicity
 _atom_site_fract_x
 _atom_site_fract_y
 _atom_site_fract_z
 _atom_site_occupancy
  V  V0  1  0.08892700  0.13724700  0.17785300  1
  V  V1  1  0.53198700  0.45409600  0.06397400  1
  V  V2  1  0.75129400  0.46533400  0.50258800  1
  V  V3  1  0.30154100  0.13482100  0.60308100  1
  Cu  Cu4  1  0.41776000  0.79108800  0.83551900  1
  O  O5  1  0.50871000  0.66464300  0.01742000  1
  O  O6  1  0.42054600  0.30146100  0.84109200  1
  O  O7  1  0.05196200  0.39249000  0.10392300  1
  O  O8  1  0.17219500  0.01434100  0.34439000  1
  O  O9  1  0.67018100  0.58472600  0.34036100  1
  O  O10  1  0.60233700  0.21621900  0.20467300  1
  O  O11  1  0.24205800  0.38363100  0.48411600  1
  O  O12  1  0.85333600  0.63412100  0.70667200  1
  O  O13  1  0.79129100  0.20311000  0.58258200  1
  O  O14  1  0.98927500  0.96906000  0.97854900  1
  O  O15  1  0.33350400  0.93531100  0.66700700  1
