# generated using pymatgen
data_URuC2
_symmetry_space_group_name_H-M   'P 1'
_cell_length_a   3.31352400
_cell_length_b   5.48548500
_cell_length_c   10.83712400
_cell_angle_alpha   90.00000000
_cell_angle_beta   90.00000000
_cell_angle_gamma   90.00000000
_symmetry_Int_Tables_number   1
_chemical_formula_structural   URuC2
_chemical_formula_sum   'U4 Ru4 C8'
_cell_volume   196.97866740
_cell_formula_units_Z   4
loop_
 _symmetry_equiv_pos_site_id
 _symmetry_equiv_pos_as_xyz
  1  'x, y, z'
loop_
 _atom_site_type_symbol
 _atom_site_label
 _atom_site_symmetry_multiplicity
 _atom_site_fract_x
 _atom_site_fract_y
 _atom_site_fract_z
 _atom_site_occupancy
  U  U0  1  0.25000000  0.58533100  0.85727600  1
  U  U1  1  0.75000000  0.41466900  0.14272400  1
  U  U2  1  0.75000000  0.91466900  0.35727600  1
  U  U3  1  0.25000000  0.08533100  0.64272400  1
  Ru  Ru4  1  0.25000000  0.90662800  0.09840000  1
  Ru  Ru5  1  0.75000000  0.09337200  0.90160000  1
  Ru  Ru6  1  0.75000000  0.59337200  0.59840000  1
  Ru  Ru7  1  0.25000000  0.40662800  0.40160000  1
  C  C8  1  0.25000000  0.65092700  0.24520800  1
  C  C9  1  0.75000000  0.34907300  0.75479200  1
  C  C10  1  0.75000000  0.84907300  0.74520800  1
  C  C11  1  0.25000000  0.15092700  0.25479200  1
  C  C12  1  0.25000000  0.73749500  0.50919200  1
  C  C13  1  0.75000000  0.26250500  0.49080800  1
  C  C14  1  0.75000000  0.76250500  0.00919200  1
  C  C15  1  0.25000000  0.23749500  0.99080800  1
