# generated using pymatgen
data_Tm2MgTiO6
_symmetry_space_group_name_H-M   'P 1'
_cell_length_a   5.58375900
_cell_length_b   5.26002700
_cell_length_c   9.23821068
_cell_angle_alpha   56.00872130
_cell_angle_beta   90.00000000
_cell_angle_gamma   90.00000000
_symmetry_Int_Tables_number   1
_chemical_formula_structural   Tm2MgTiO6
_chemical_formula_sum   'Tm4 Mg2 Ti2 O12'
_cell_volume   224.96828438
_cell_formula_units_Z   2
loop_
 _symmetry_equiv_pos_site_id
 _symmetry_equiv_pos_as_xyz
  1  'x, y, z'
loop_
 _atom_site_type_symbol
 _atom_site_label
 _atom_site_symmetry_multiplicity
 _atom_site_fract_x
 _atom_site_fract_y
 _atom_site_fract_z
 _atom_site_occupancy
  Tm  Tm0  1  0.06778500  0.72419300  0.75546200  1
  Tm  Tm1  1  0.93221500  0.27580700  0.24453800  1
  Tm  Tm2  1  0.56778500  0.27580700  0.74453800  1
  Tm  Tm3  1  0.43221500  0.72419300  0.25546200  1
  Mg  Mg4  1  0.50000000  0.50000000  0.00000000  1
  Mg  Mg5  1  0.00000000  0.50000000  0.50000000  1
  Ti  Ti6  1  0.50000000  0.00000000  0.50000000  1
  Ti  Ti7  1  0.00000000  0.00000000  0.00000000  1
  O  O8  1  0.44848800  0.88087300  0.74229100  1
  O  O9  1  0.55151200  0.11912700  0.25770900  1
  O  O10  1  0.94848800  0.11912700  0.75770900  1
  O  O11  1  0.05151200  0.88087300  0.24229100  1
  O  O12  1  0.79662500  0.74621400  0.56903700  1
  O  O13  1  0.20337500  0.25378600  0.43096300  1
  O  O14  1  0.29662500  0.25378600  0.93096300  1
  O  O15  1  0.70337500  0.74621400  0.06903700  1
  O  O16  1  0.31357400  0.64038100  0.55642000  1
  O  O17  1  0.68642600  0.35961900  0.44358000  1
  O  O18  1  0.81357400  0.35961900  0.94358000  1
  O  O19  1  0.18642600  0.64038100  0.05642000  1
