# generated using pymatgen
data_U5CrSb3
_symmetry_space_group_name_H-M   'P 1'
_cell_length_a   5.86736400
_cell_length_b   9.13138355
_cell_length_c   9.13138355
_cell_angle_alpha   119.99999676
_cell_angle_beta   90.00000000
_cell_angle_gamma   90.00000000
_symmetry_Int_Tables_number   1
_chemical_formula_structural   U5CrSb3
_chemical_formula_sum   'U10 Cr2 Sb6'
_cell_volume   423.68866764
_cell_formula_units_Z   2
loop_
 _symmetry_equiv_pos_site_id
 _symmetry_equiv_pos_as_xyz
  1  'x, y, z'
loop_
 _atom_site_type_symbol
 _atom_site_label
 _atom_site_symmetry_multiplicity
 _atom_site_fract_x
 _atom_site_fract_y
 _atom_site_fract_z
 _atom_site_occupancy
  U  U0  1  0.75000000  0.75507600  0.75507600  1
  U  U1  1  0.25000000  0.24492400  0.24492400  1
  U  U2  1  0.75000000  0.00000000  0.24492400  1
  U  U3  1  0.25000000  0.00000000  0.75507600  1
  U  U4  1  0.75000000  0.24492400  0.00000000  1
  U  U5  1  0.25000000  0.75507600  0.00000000  1
  U  U6  1  0.00000000  0.66666700  0.33333300  1
  U  U7  1  0.00000000  0.33333300  0.66666700  1
  U  U8  1  0.50000000  0.33333300  0.66666700  1
  U  U9  1  0.50000000  0.66666700  0.33333300  1
  Cr  Cr10  1  0.00000000  0.00000000  0.00000000  1
  Cr  Cr11  1  0.50000000  0.00000000  0.00000000  1
  Sb  Sb12  1  0.75000000  0.38949300  0.38949300  1
  Sb  Sb13  1  0.25000000  0.61050700  0.61050700  1
  Sb  Sb14  1  0.75000000  0.00000000  0.61050700  1
  Sb  Sb15  1  0.25000000  0.00000000  0.38949300  1
  Sb  Sb16  1  0.75000000  0.61050700  0.00000000  1
  Sb  Sb17  1  0.25000000  0.38949300  0.00000000  1
