# generated using pymatgen
data_CeMg2
_symmetry_space_group_name_H-M   'P 1'
_cell_length_a   5.95816971
_cell_length_b   5.95816971
_cell_length_c   8.34032732
_cell_angle_alpha   76.79379926
_cell_angle_beta   76.79379926
_cell_angle_gamma   31.25423877
_symmetry_Int_Tables_number   1
_chemical_formula_structural   CeMg2
_chemical_formula_sum   'Ce2 Mg4'
_cell_volume   149.23198038
_cell_formula_units_Z   2
loop_
 _symmetry_equiv_pos_site_id
 _symmetry_equiv_pos_as_xyz
  1  'x, y, z'
loop_
 _atom_site_type_symbol
 _atom_site_label
 _atom_site_symmetry_multiplicity
 _atom_site_fract_x
 _atom_site_fract_y
 _atom_site_fract_z
 _atom_site_occupancy
  Ce  Ce0  1  0.64456100  0.64456100  0.47253200  1
  Ce  Ce1  1  0.35543900  0.35543900  0.52746800  1
  Mg  Mg2  1  0.30871000  0.30871000  0.12746700  1
  Mg  Mg3  1  0.02817900  0.02817900  0.18325400  1
  Mg  Mg4  1  0.97182100  0.97182100  0.81674600  1
  Mg  Mg5  1  0.69129000  0.69129000  0.87253300  1
