# generated using pymatgen
data_TlTcO2
_symmetry_space_group_name_H-M   'P 1'
_cell_length_a   7.95130845
_cell_length_b   7.95130845
_cell_length_c   7.95130845
_cell_angle_alpha   130.75380770
_cell_angle_beta   130.75380770
_cell_angle_gamma   72.20451992
_symmetry_Int_Tables_number   1
_chemical_formula_structural   TlTcO2
_chemical_formula_sum   'Tl4 Tc4 O8'
_cell_volume   282.03715039
_cell_formula_units_Z   4
loop_
 _symmetry_equiv_pos_site_id
 _symmetry_equiv_pos_as_xyz
  1  'x, y, z'
loop_
 _atom_site_type_symbol
 _atom_site_label
 _atom_site_symmetry_multiplicity
 _atom_site_fract_x
 _atom_site_fract_y
 _atom_site_fract_z
 _atom_site_occupancy
  Tl  Tl0  1  0.87500000  0.62500000  0.25000000  1
  Tl  Tl1  1  0.37500000  0.62500000  0.75000000  1
  Tl  Tl2  1  0.37500000  0.62500000  0.25000000  1
  Tl  Tl3  1  0.37500000  0.12500000  0.75000000  1
  Tc  Tc4  1  0.37500000  0.12500000  0.25000000  1
  Tc  Tc5  1  0.87500000  0.12500000  0.75000000  1
  Tc  Tc6  1  0.87500000  0.12500000  0.25000000  1
  Tc  Tc7  1  0.87500000  0.62500000  0.75000000  1
  O  O8  1  0.14157300  0.32558700  0.18401400  1
  O  O9  1  0.14157300  0.95755800  0.81598600  1
  O  O10  1  0.07558700  0.39157300  0.68401400  1
  O  O11  1  0.60842700  0.92441300  0.31598600  1
  O  O12  1  0.70755800  0.39157300  0.31598600  1
  O  O13  1  0.60842700  0.29244200  0.68401400  1
  O  O14  1  0.67441300  0.85842700  0.81598600  1
  O  O15  1  0.04244200  0.85842700  0.18401400  1
