# generated using pymatgen
data_ZnSO11
_symmetry_space_group_name_H-M   'P 1'
_cell_length_a   7.17841700
_cell_length_b   11.19051700
_cell_length_c   13.08750500
_cell_angle_alpha   90.00000000
_cell_angle_beta   90.00000000
_cell_angle_gamma   90.00000000
_symmetry_Int_Tables_number   1
_chemical_formula_structural   ZnSO11
_chemical_formula_sum   'Zn4 S4 O44'
_cell_volume   1051.32186106
_cell_formula_units_Z   4
loop_
 _symmetry_equiv_pos_site_id
 _symmetry_equiv_pos_as_xyz
  1  'x, y, z'
loop_
 _atom_site_type_symbol
 _atom_site_label
 _atom_site_symmetry_multiplicity
 _atom_site_fract_x
 _atom_site_fract_y
 _atom_site_fract_z
 _atom_site_occupancy
  Zn  Zn0  1  0.08642900  0.05852100  0.12756900  1
  Zn  Zn1  1  0.41357100  0.94147900  0.62756900  1
  Zn  Zn2  1  0.91357100  0.55852100  0.37243100  1
  Zn  Zn3  1  0.58642900  0.44147900  0.87243100  1
  S  S4  1  0.57654900  0.26554200  0.32624900  1
  S  S5  1  0.92345100  0.73445800  0.82624900  1
  S  S6  1  0.42345100  0.76554200  0.17375100  1
  S  S7  1  0.07654900  0.23445800  0.67375100  1
  O  O8  1  0.07399700  0.43601500  0.02913400  1
  O  O9  1  0.42600300  0.56398500  0.52913400  1
  O  O10  1  0.92600300  0.93601500  0.47086600  1
  O  O11  1  0.57399700  0.06398500  0.97086600  1
  O  O12  1  0.24095800  0.46424900  0.29906600  1
  O  O13  1  0.25904200  0.53575100  0.79906600  1
  O  O14  1  0.75904200  0.96424900  0.20093400  1
  O  O15  1  0.74095800  0.03575100  0.70093400  1
  O  O16  1  0.46251900  0.14844200  0.99788000  1
  O  O17  1  0.03748100  0.85155800  0.49788000  1
  O  O18  1  0.53748100  0.64844200  0.50212000  1
  O  O19  1  0.96251900  0.35155800  0.00212000  1
  O  O20  1  0.42894700  0.06934600  0.54392600  1
  O  O21  1  0.07105300  0.93065400  0.04392600  1
  O  O22  1  0.57105300  0.56934600  0.95607400  1
  O  O23  1  0.92894700  0.43065400  0.45607400  1
  O  O24  1  0.50285400  0.14627700  0.32875800  1
  O  O25  1  0.99714600  0.85372300  0.82875800  1
  O  O26  1  0.49714600  0.64627700  0.17124200  1
  O  O27  1  0.00285400  0.35372300  0.67124200  1
  O  O28  1  0.64797300  0.31372600  0.23225700  1
  O  O29  1  0.85202700  0.68627400  0.73225700  1
  O  O30  1  0.35202700  0.81372600  0.26774300  1
  O  O31  1  0.14797300  0.18627400  0.76774300  1
  O  O32  1  0.24385100  0.40758000  0.04934900  1
  O  O33  1  0.25614900  0.59242000  0.54934900  1
  O  O34  1  0.75614900  0.90758000  0.45065100  1
  O  O35  1  0.74385100  0.09242000  0.95065100  1
  O  O36  1  0.02516600  0.21587200  0.14068300  1
  O  O37  1  0.47483400  0.78412800  0.64068300  1
  O  O38  1  0.97483400  0.71587200  0.35931700  1
  O  O39  1  0.52516600  0.28412800  0.85931700  1
  O  O40  1  0.08574000  0.16427500  0.58179100  1
  O  O41  1  0.41426000  0.83572500  0.08179100  1
  O  O42  1  0.91426000  0.66427500  0.91820900  1
  O  O43  1  0.58574000  0.33572500  0.41820900  1
  O  O44  1  0.14861500  0.02483500  0.26391200  1
  O  O45  1  0.35138500  0.97516500  0.76391200  1
  O  O46  1  0.85138500  0.52483500  0.23608800  1
  O  O47  1  0.64861500  0.47516500  0.73608800  1
  O  O48  1  0.24120200  0.35423600  0.29195900  1
  O  O49  1  0.25879800  0.64576400  0.79195900  1
  O  O50  1  0.75879800  0.85423600  0.20804100  1
  O  O51  1  0.74120200  0.14576400  0.70804100  1
