# generated using pymatgen
data_VAs2Pb2O9
_symmetry_space_group_name_H-M   'P 1'
_cell_length_a   16.70474400
_cell_length_b   7.09437800
_cell_length_c   7.35247013
_cell_angle_alpha   64.19801490
_cell_angle_beta   90.00000000
_cell_angle_gamma   90.00000000
_symmetry_Int_Tables_number   1
_chemical_formula_structural   VAs2Pb2O9
_chemical_formula_sum   'V4 As8 Pb8 O36'
_cell_volume   784.47019703
_cell_formula_units_Z   4
loop_
 _symmetry_equiv_pos_site_id
 _symmetry_equiv_pos_as_xyz
  1  'x, y, z'
loop_
 _atom_site_type_symbol
 _atom_site_label
 _atom_site_symmetry_multiplicity
 _atom_site_fract_x
 _atom_site_fract_y
 _atom_site_fract_z
 _atom_site_occupancy
  V  V0  1  0.25520700  0.74997400  0.77671500  1
  V  V1  1  0.74479300  0.25002600  0.22328500  1
  V  V2  1  0.75520700  0.25002600  0.72328500  1
  V  V3  1  0.24479300  0.74997400  0.27671500  1
  As  As4  1  0.42012900  0.74675300  0.50244800  1
  As  As5  1  0.57987100  0.25324700  0.49755200  1
  As  As6  1  0.92012900  0.25324700  0.99755200  1
  As  As7  1  0.07987100  0.74675300  0.00244800  1
  As  As8  1  0.16323200  0.24992500  0.50563600  1
  As  As9  1  0.83676800  0.75007500  0.49436400  1
  As  As10  1  0.66323200  0.75007500  0.99436400  1
  As  As11  1  0.33676800  0.24992500  0.00563600  1
  Pb  Pb12  1  0.03630600  0.74446000  0.51417300  1
  Pb  Pb13  1  0.96369400  0.25554000  0.48582700  1
  Pb  Pb14  1  0.53630600  0.25554000  0.98582700  1
  Pb  Pb15  1  0.46369400  0.74446000  0.01417300  1
  Pb  Pb16  1  0.37965600  0.24736600  0.51217300  1
  Pb  Pb17  1  0.62034400  0.75263400  0.48782700  1
  Pb  Pb18  1  0.87965600  0.75263400  0.98782700  1
  Pb  Pb19  1  0.12034400  0.24736600  0.01217300  1
  O  O20  1  0.27688600  0.44667600  0.83412300  1
  O  O21  1  0.72311400  0.55332400  0.16587700  1
  O  O22  1  0.77688600  0.55332400  0.66587700  1
  O  O23  1  0.22311400  0.44667600  0.33412300  1
  O  O24  1  0.89861800  0.86269500  0.60828600  1
  O  O25  1  0.10138200  0.13730500  0.39171400  1
  O  O26  1  0.39861800  0.13730500  0.89171400  1
  O  O27  1  0.60138200  0.86269500  0.10828600  1
  O  O28  1  0.01782700  0.93039400  0.83273800  1
  O  O29  1  0.98217300  0.06960600  0.16726200  1
  O  O30  1  0.51782700  0.06960600  0.66726200  1
  O  O31  1  0.48217300  0.93039400  0.33273800  1
  O  O32  1  0.09924500  0.35103000  0.62507700  1
  O  O33  1  0.90075500  0.64897000  0.37492300  1
  O  O34  1  0.59924500  0.64897000  0.87492300  1
  O  O35  1  0.40075500  0.35103000  0.12507700  1
  O  O36  1  0.47682500  0.54838700  0.67164300  1
  O  O37  1  0.52317500  0.45161300  0.32835700  1
  O  O38  1  0.97682500  0.45161300  0.82835700  1
  O  O39  1  0.02317500  0.54838700  0.17164300  1
  O  O40  1  0.73049300  0.93511900  0.83693900  1
  O  O41  1  0.26950700  0.06488100  0.16306100  1
  O  O42  1  0.23049300  0.06488100  0.66306100  1
  O  O43  1  0.76950700  0.93511900  0.33693900  1
  O  O44  1  0.28428400  0.74468200  0.00131300  1
  O  O45  1  0.71571600  0.25531800  0.99868700  1
  O  O46  1  0.78428400  0.25531800  0.49868700  1
  O  O47  1  0.21571600  0.74468200  0.50131300  1
  O  O48  1  0.36117400  0.85099000  0.63228700  1
  O  O49  1  0.63882600  0.14901000  0.36771300  1
  O  O50  1  0.86117400  0.14901000  0.86771300  1
  O  O51  1  0.13882600  0.85099000  0.13228700  1
  O  O52  1  0.14137600  0.65756600  0.86355800  1
  O  O53  1  0.85862400  0.34243400  0.13644200  1
  O  O54  1  0.64137600  0.34243400  0.63644200  1
  O  O55  1  0.35862400  0.65756600  0.36355800  1
