# generated using pymatgen
data_Tm2NiRuO6
_symmetry_space_group_name_H-M   'P 1'
_cell_length_a   5.67565000
_cell_length_b   5.23522200
_cell_length_c   9.21999587
_cell_angle_alpha   55.88323457
_cell_angle_beta   90.00000000
_cell_angle_gamma   90.00000000
_symmetry_Int_Tables_number   1
_chemical_formula_structural   Tm2NiRuO6
_chemical_formula_sum   'Tm4 Ni2 Ru2 O12'
_cell_volume   226.80746801
_cell_formula_units_Z   2
loop_
 _symmetry_equiv_pos_site_id
 _symmetry_equiv_pos_as_xyz
  1  'x, y, z'
loop_
 _atom_site_type_symbol
 _atom_site_label
 _atom_site_symmetry_multiplicity
 _atom_site_fract_x
 _atom_site_fract_y
 _atom_site_fract_z
 _atom_site_occupancy
  Tm  Tm0  1  0.07921800  0.72060900  0.75260600  1
  Tm  Tm1  1  0.92078200  0.27939100  0.24739400  1
  Tm  Tm2  1  0.57921800  0.27939100  0.74739400  1
  Tm  Tm3  1  0.42078200  0.72060900  0.25260600  1
  Ni  Ni4  1  0.50000000  0.50000000  0.00000000  1
  Ni  Ni5  1  0.00000000  0.50000000  0.50000000  1
  Ru  Ru6  1  0.50000000  0.00000000  0.50000000  1
  Ru  Ru7  1  0.00000000  0.00000000  0.00000000  1
  O  O8  1  0.44807200  0.88531700  0.74675200  1
  O  O9  1  0.55192800  0.11468300  0.25324800  1
  O  O10  1  0.94807200  0.11468300  0.75324800  1
  O  O11  1  0.05192800  0.88531700  0.24675200  1
  O  O12  1  0.80324000  0.74984900  0.57006000  1
  O  O13  1  0.19676000  0.25015100  0.42994000  1
  O  O14  1  0.30324000  0.25015100  0.92994000  1
  O  O15  1  0.69676000  0.74984900  0.07006000  1
  O  O16  1  0.31280700  0.62671900  0.55983100  1
  O  O17  1  0.68719300  0.37328100  0.44016900  1
  O  O18  1  0.81280700  0.37328100  0.94016900  1
  O  O19  1  0.18719300  0.62671900  0.05983100  1
