# generated using pymatgen
data_V3Co10AsO20
_symmetry_space_group_name_H-M   'P 1'
_cell_length_a   10.18852588
_cell_length_b   10.18852588
_cell_length_c   14.75524914
_cell_angle_alpha   62.14801793
_cell_angle_beta   62.14801793
_cell_angle_gamma   35.15287070
_symmetry_Int_Tables_number   1
_chemical_formula_structural   V3Co10AsO20
_chemical_formula_sum   'V6 Co20 As2 O40'
_cell_volume   768.72311941
_cell_formula_units_Z   2
loop_
 _symmetry_equiv_pos_site_id
 _symmetry_equiv_pos_as_xyz
  1  'x, y, z'
loop_
 _atom_site_type_symbol
 _atom_site_label
 _atom_site_symmetry_multiplicity
 _atom_site_fract_x
 _atom_site_fract_y
 _atom_site_fract_z
 _atom_site_occupancy
  V  V0  1  0.99212500  0.99212500  0.37348400  1
  V  V1  1  0.00787500  0.00787500  0.62651600  1
  V  V2  1  0.60412200  0.60412200  0.22435300  1
  V  V3  1  0.39587800  0.39587800  0.77564700  1
  V  V4  1  0.89970600  0.89970600  0.02690400  1
  V  V5  1  0.10029400  0.10029400  0.97309600  1
  Co  Co6  1  0.80617100  0.80617100  0.79938200  1
  Co  Co7  1  0.19382900  0.19382900  0.20061800  1
  Co  Co8  1  0.38839300  0.89213300  0.40296900  1
  Co  Co9  1  0.61160700  0.10786700  0.59703100  1
  Co  Co10  1  0.10786700  0.61160700  0.59703100  1
  Co  Co11  1  0.89213300  0.38839300  0.40296900  1
  Co  Co12  1  0.40557600  0.40557600  0.39514400  1
  Co  Co13  1  0.59442400  0.59442400  0.60485600  1
  Co  Co14  1  0.79525600  0.79525600  0.29339700  1
  Co  Co15  1  0.20474400  0.20474400  0.70660300  1
  Co  Co16  1  0.38796300  0.38796300  0.03604300  1
  Co  Co17  1  0.61203700  0.61203700  0.96395700  1
  Co  Co18  1  0.70644400  0.20661900  0.19224000  1
  Co  Co19  1  0.29355600  0.79338100  0.80776000  1
  Co  Co20  1  0.79338100  0.29355600  0.80776000  1
  Co  Co21  1  0.20661900  0.70644400  0.19224000  1
  Co  Co22  1  0.50000000  0.00000000  0.50000000  1
  Co  Co23  1  0.00000000  0.50000000  0.50000000  1
  Co  Co24  1  0.50000000  0.00000000  0.00000000  1
  Co  Co25  1  0.00000000  0.50000000  0.00000000  1
  As  As26  1  0.70208300  0.70208300  0.70193100  1
  As  As27  1  0.29791700  0.29791700  0.29806900  1
  O  O28  1  0.69722800  0.69722800  0.45216600  1
  O  O29  1  0.30277200  0.30277200  0.54783400  1
  O  O30  1  0.98931400  0.98931400  0.25730900  1
  O  O31  1  0.01068600  0.01068600  0.74269100  1
  O  O32  1  0.42136400  0.88076200  0.15505200  1
  O  O33  1  0.57863600  0.11923800  0.84494800  1
  O  O34  1  0.11923800  0.57863600  0.84494800  1
  O  O35  1  0.88076200  0.42136400  0.15505200  1
  O  O36  1  0.89893300  0.89893300  0.15102200  1
  O  O37  1  0.10106700  0.10106700  0.84897800  1
  O  O38  1  0.50240900  0.50240900  0.24571800  1
  O  O39  1  0.49759100  0.49759100  0.75428200  1
  O  O40  1  0.56259300  0.12723400  0.34035000  1
  O  O41  1  0.43740700  0.87276600  0.65965000  1
  O  O42  1  0.87276600  0.43740700  0.65965000  1
  O  O43  1  0.12723400  0.56259300  0.34035000  1
  O  O44  1  0.39242800  0.39242800  0.16768700  1
  O  O45  1  0.60757200  0.60757200  0.83231300  1
  O  O46  1  0.71232100  0.17721700  0.44407700  1
  O  O47  1  0.28767900  0.82278300  0.55592300  1
  O  O48  1  0.82278300  0.28767900  0.55592300  1
  O  O49  1  0.17721700  0.71232100  0.44407700  1
  O  O50  1  0.90760200  0.90760200  0.64858800  1
  O  O51  1  0.09239800  0.09239800  0.35141200  1
  O  O52  1  0.78948900  0.78948900  0.56384700  1
  O  O53  1  0.21051100  0.21051100  0.43615300  1
  O  O54  1  0.60508000  0.60508000  0.34308900  1
  O  O55  1  0.39492000  0.39492000  0.65691100  1
  O  O56  1  0.46285600  0.03307800  0.26422100  1
  O  O57  1  0.53714400  0.96692200  0.73577900  1
  O  O58  1  0.96692200  0.53714400  0.73577900  1
  O  O59  1  0.03307800  0.46285600  0.26422100  1
  O  O60  1  0.28420700  0.28420700  0.05331000  1
  O  O61  1  0.71579300  0.71579300  0.94669000  1
  O  O62  1  0.28862500  0.81681000  0.04338200  1
  O  O63  1  0.71137500  0.18319000  0.95661900  1
  O  O64  1  0.18319000  0.71137500  0.95661900  1
  O  O65  1  0.81681000  0.28862500  0.04338200  1
  O  O66  1  0.80623200  0.80623200  0.04574700  1
  O  O67  1  0.19376800  0.19376800  0.95425300  1
