# generated using pymatgen
data_VH3(C2O3)2
_symmetry_space_group_name_H-M   'P 1'
_cell_length_a   8.53839655
_cell_length_b   8.50357800
_cell_length_c   9.81529652
_cell_angle_alpha   90.00000000
_cell_angle_beta   104.79782816
_cell_angle_gamma   90.00000000
_symmetry_Int_Tables_number   1
_chemical_formula_structural   VH3(C2O3)2
_chemical_formula_sum   'V4 H12 C16 O24'
_cell_volume   689.02176720
_cell_formula_units_Z   4
loop_
 _symmetry_equiv_pos_site_id
 _symmetry_equiv_pos_as_xyz
  1  'x, y, z'
loop_
 _atom_site_type_symbol
 _atom_site_label
 _atom_site_symmetry_multiplicity
 _atom_site_fract_x
 _atom_site_fract_y
 _atom_site_fract_z
 _atom_site_occupancy
  V  V0  1  0.14070800  0.44297400  0.12480000  1
  V  V1  1  0.85929300  0.55702600  0.87520000  1
  V  V2  1  0.85929300  0.94297400  0.37520000  1
  V  V3  1  0.14070800  0.05702600  0.62480000  1
  H  H4  1  0.38787400  0.23246100  0.12912600  1
  H  H5  1  0.61212600  0.76753900  0.87087400  1
  H  H6  1  0.61212600  0.73246100  0.37087400  1
  H  H7  1  0.38787400  0.26753900  0.62912600  1
  H  H8  1  0.11579300  0.11079200  0.35069300  1
  H  H9  1  0.88420700  0.88920800  0.64930700  1
  H  H10  1  0.88420700  0.61079200  0.14930700  1
  H  H11  1  0.11579300  0.38920800  0.85069300  1
  H  H12  1  0.46208700  0.39915100  0.19561100  1
  H  H13  1  0.53791300  0.60084900  0.80438900  1
  H  H14  1  0.53791300  0.89915100  0.30438900  1
  H  H15  1  0.46208700  0.10084900  0.69561100  1
  C  C16  1  0.18950100  0.53771800  0.43070500  1
  C  C17  1  0.81049900  0.46228200  0.56929500  1
  C  C18  1  0.81049900  0.03771800  0.06929500  1
  C  C19  1  0.18950100  0.96228200  0.93070500  1
  C  C20  1  0.21661100  0.77788700  0.07151000  1
  C  C21  1  0.78338900  0.22211300  0.92849000  1
  C  C22  1  0.78338900  0.27788700  0.42849000  1
  C  C23  1  0.21661100  0.72211300  0.57151000  1
  C  C24  1  0.29743300  0.56749700  0.57151800  1
  C  C25  1  0.70256700  0.43250300  0.42848200  1
  C  C26  1  0.70256700  0.06749700  0.92848200  1
  C  C27  1  0.29743300  0.93250300  0.07151800  1
  C  C28  1  0.09573100  0.67774700  0.44149500  1
  C  C29  1  0.90426900  0.32225300  0.55850500  1
  C  C30  1  0.90426900  0.17774700  0.05850500  1
  C  C31  1  0.09573100  0.82225300  0.94149500  1
  O  O32  1  0.18513500  0.43168900  0.33894800  1
  O  O33  1  0.81486500  0.56831100  0.66105200  1
  O  O34  1  0.81486500  0.93168900  0.16105200  1
  O  O35  1  0.18513500  0.06831100  0.83894800  1
  O  O36  1  0.04005300  0.22660600  0.13344300  1
  O  O37  1  0.95994700  0.77339400  0.86655700  1
  O  O38  1  0.95994700  0.72660600  0.36655700  1
  O  O39  1  0.04005300  0.27339400  0.63344300  1
  O  O40  1  0.08486000  0.03701300  0.41537200  1
  O  O41  1  0.91514000  0.96298700  0.58462800  1
  O  O42  1  0.91514000  0.53701300  0.08462800  1
  O  O43  1  0.08486000  0.46298700  0.91537200  1
  O  O44  1  0.25076000  0.66014700  0.15244000  1
  O  O45  1  0.74924000  0.33985300  0.84756000  1
  O  O46  1  0.74924000  0.16014700  0.34756000  1
  O  O47  1  0.25076000  0.83985300  0.65244000  1
  O  O48  1  0.36882200  0.34775800  0.12812400  1
  O  O49  1  0.63117800  0.65224200  0.87187600  1
  O  O50  1  0.63117800  0.84775800  0.37187600  1
  O  O51  1  0.36882200  0.15224200  0.62812400  1
  O  O52  1  0.40564700  0.00752200  0.15585400  1
  O  O53  1  0.59435300  0.99247800  0.84414600  1
  O  O54  1  0.59435300  0.50752200  0.34414600  1
  O  O55  1  0.40564700  0.49247800  0.65585400  1
