# generated using pymatgen
data_ThH6(NO5)2
_symmetry_space_group_name_H-M   'P 1'
_cell_length_a   8.39896973
_cell_length_b   8.39896973
_cell_length_c   6.09731994
_cell_angle_alpha   81.78129423
_cell_angle_beta   81.78129423
_cell_angle_gamma   65.86615231
_symmetry_Int_Tables_number   1
_chemical_formula_structural   ThH6(NO5)2
_chemical_formula_sum   'Th2 H12 N4 O20'
_cell_volume   386.79027358
_cell_formula_units_Z   2
loop_
 _symmetry_equiv_pos_site_id
 _symmetry_equiv_pos_as_xyz
  1  'x, y, z'
loop_
 _atom_site_type_symbol
 _atom_site_label
 _atom_site_symmetry_multiplicity
 _atom_site_fract_x
 _atom_site_fract_y
 _atom_site_fract_z
 _atom_site_occupancy
  Th  Th0  1  0.64220400  0.35779600  0.25000000  1
  Th  Th1  1  0.35779600  0.64220400  0.75000000  1
  H  H2  1  0.81622500  0.03988500  0.61624700  1
  H  H3  1  0.18377500  0.96011500  0.38375300  1
  H  H4  1  0.96011500  0.18377500  0.88375300  1
  H  H5  1  0.03988500  0.81622500  0.11624700  1
  H  H6  1  0.37869000  0.93917300  0.35978300  1
  H  H7  1  0.62131000  0.06082700  0.64021700  1
  H  H8  1  0.06082700  0.62131000  0.14021700  1
  H  H9  1  0.93917300  0.37869000  0.85978300  1
  H  H10  1  0.58691200  0.71326900  0.03045100  1
  H  H11  1  0.41308800  0.28673100  0.96954900  1
  H  H12  1  0.28673100  0.41308800  0.46954900  1
  H  H13  1  0.71326900  0.58691200  0.53045100  1
  N  N14  1  0.69433400  0.96879200  0.16315500  1
  N  N15  1  0.30566600  0.03120800  0.83684500  1
  N  N16  1  0.03120800  0.30566600  0.33684500  1
  N  N17  1  0.96879200  0.69433400  0.66315500  1
  O  O18  1  0.81320900  0.03228200  0.13341800  1
  O  O19  1  0.18679100  0.96771800  0.86658200  1
  O  O20  1  0.96771800  0.18679100  0.36658200  1
  O  O21  1  0.03228200  0.81320900  0.63341800  1
  O  O22  1  0.72821500  0.82211300  0.10394900  1
  O  O23  1  0.27178500  0.17788700  0.89605100  1
  O  O24  1  0.17788700  0.27178500  0.39605100  1
  O  O25  1  0.82211300  0.72821500  0.60394900  1
  O  O26  1  0.54558600  0.06312400  0.25377800  1
  O  O27  1  0.45441400  0.93687600  0.74622200  1
  O  O28  1  0.93687600  0.45441400  0.24622200  1
  O  O29  1  0.06312400  0.54558600  0.75377800  1
  O  O30  1  0.30447700  0.87220700  0.39402900  1
  O  O31  1  0.69552300  0.12779300  0.60597100  1
  O  O32  1  0.12779300  0.69552300  0.10597100  1
  O  O33  1  0.87220700  0.30447700  0.89402900  1
  O  O34  1  0.55458700  0.61676700  0.01003000  1
  O  O35  1  0.44541300  0.38323300  0.98997000  1
  O  O36  1  0.38323300  0.44541300  0.48997000  1
  O  O37  1  0.61676700  0.55458700  0.51003000  1
