# generated using pymatgen
data_YbGa6
_symmetry_space_group_name_H-M   'P 1'
_cell_length_a   14.32048000
_cell_length_b   14.32048000
_cell_length_c   20.97076600
_cell_angle_alpha   90.00000000
_cell_angle_beta   90.00000000
_cell_angle_gamma   90.00000000
_symmetry_Int_Tables_number   1
_chemical_formula_structural   YbGa6
_chemical_formula_sum   'Yb2 Ga12'
_cell_volume   4300.60389994
_cell_formula_units_Z   2
loop_
 _symmetry_equiv_pos_site_id
 _symmetry_equiv_pos_as_xyz
  1  'x, y, z'
loop_
 _atom_site_type_symbol
 _atom_site_label
 _atom_site_symmetry_multiplicity
 _atom_site_fract_x
 _atom_site_fract_y
 _atom_site_fract_z
 _atom_site_occupancy
  Yb  Yb0  1  0.50000000  0.00000000  0.00000000  1
  Yb  Yb1  1  0.00000000  0.50000000  0.00000000  1
  Ga  Ga2  1  0.87277900  0.00000000  0.34992900  1
  Ga  Ga3  1  0.12722100  0.00000000  0.34992900  1
  Ga  Ga4  1  0.00000000  0.87277900  0.34992900  1
  Ga  Ga5  1  0.00000000  0.12722100  0.65007100  1
  Ga  Ga6  1  0.12722100  0.00000000  0.65007100  1
  Ga  Ga7  1  0.00000000  0.12722100  0.34992900  1
  Ga  Ga8  1  0.00000000  0.87277900  0.65007100  1
  Ga  Ga9  1  0.87277900  0.00000000  0.65007100  1
  Ga  Ga10  1  0.00000000  0.50000000  0.16143900  1
  Ga  Ga11  1  0.50000000  0.00000000  0.16143900  1
  Ga  Ga12  1  0.50000000  0.00000000  0.83856100  1
  Ga  Ga13  1  0.00000000  0.50000000  0.83856100  1
