# generated using pymatgen
data_Tl4GeI6
_symmetry_space_group_name_H-M   'P 1'
_cell_length_a   9.28207400
_cell_length_b   9.28207400
_cell_length_c   10.30934000
_cell_angle_alpha   90.00000000
_cell_angle_beta   90.00000000
_cell_angle_gamma   90.00000000
_symmetry_Int_Tables_number   1
_chemical_formula_structural   Tl4GeI6
_chemical_formula_sum   'Tl8 Ge2 I12'
_cell_volume   888.22075216
_cell_formula_units_Z   2
loop_
 _symmetry_equiv_pos_site_id
 _symmetry_equiv_pos_as_xyz
  1  'x, y, z'
loop_
 _atom_site_type_symbol
 _atom_site_label
 _atom_site_symmetry_multiplicity
 _atom_site_fract_x
 _atom_site_fract_y
 _atom_site_fract_z
 _atom_site_occupancy
  Tl  Tl0  1  0.15161000  0.65161000  0.25000000  1
  Tl  Tl1  1  0.84839000  0.34839000  0.75000000  1
  Tl  Tl2  1  0.84839000  0.34839000  0.25000000  1
  Tl  Tl3  1  0.34839000  0.15161000  0.25000000  1
  Tl  Tl4  1  0.15161000  0.65161000  0.75000000  1
  Tl  Tl5  1  0.65161000  0.84839000  0.75000000  1
  Tl  Tl6  1  0.65161000  0.84839000  0.25000000  1
  Tl  Tl7  1  0.34839000  0.15161000  0.75000000  1
  Ge  Ge8  1  0.00000000  0.00000000  0.00000000  1
  Ge  Ge9  1  0.50000000  0.50000000  0.50000000  1
  I  I10  1  0.00000000  0.00000000  0.29047700  1
  I  I11  1  0.00000000  0.00000000  0.70952300  1
  I  I12  1  0.50000000  0.50000000  0.20952300  1
  I  I13  1  0.50000000  0.50000000  0.79047700  1
  I  I14  1  0.13577600  0.30111200  0.00000000  1
  I  I15  1  0.86422400  0.69888800  0.00000000  1
  I  I16  1  0.69888800  0.13577600  0.00000000  1
  I  I17  1  0.36422400  0.80111200  0.50000000  1
  I  I18  1  0.30111200  0.86422400  0.00000000  1
  I  I19  1  0.63577600  0.19888800  0.50000000  1
  I  I20  1  0.80111200  0.63577600  0.50000000  1
  I  I21  1  0.19888800  0.36422400  0.50000000  1
