# generated using pymatgen
data_TiH6(OF3)2
_symmetry_space_group_name_H-M   'P 1'
_cell_length_a   5.62744583
_cell_length_b   5.62744583
_cell_length_c   5.54399900
_cell_angle_alpha   90.00000000
_cell_angle_beta   90.00000000
_cell_angle_gamma   119.99999802
_symmetry_Int_Tables_number   1
_chemical_formula_structural   TiH6(OF3)2
_chemical_formula_sum   'Ti1 H6 O2 F6'
_cell_volume   152.04650096
_cell_formula_units_Z   1
loop_
 _symmetry_equiv_pos_site_id
 _symmetry_equiv_pos_as_xyz
  1  'x, y, z'
loop_
 _atom_site_type_symbol
 _atom_site_label
 _atom_site_symmetry_multiplicity
 _atom_site_fract_x
 _atom_site_fract_y
 _atom_site_fract_z
 _atom_site_occupancy
  Ti  Ti0  1  0.00000000  0.00000000  0.00000000  1
  H  H1  1  0.16025800  0.49156000  0.27745900  1
  H  H2  1  0.50844000  0.66869800  0.27745900  1
  H  H3  1  0.49156000  0.16025800  0.72254100  1
  H  H4  1  0.33130200  0.83974200  0.27745900  1
  H  H5  1  0.66869800  0.50844000  0.72254100  1
  H  H6  1  0.83974200  0.33130200  0.72254100  1
  O  O7  1  0.33333300  0.66666700  0.32657700  1
  O  O8  1  0.66666700  0.33333300  0.67342300  1
  F  F9  1  0.30046200  0.08639300  0.20871500  1
  F  F10  1  0.91360700  0.21406900  0.20871500  1
  F  F11  1  0.08639300  0.30046200  0.79128500  1
  F  F12  1  0.78593100  0.69953800  0.20871500  1
  F  F13  1  0.21406900  0.91360700  0.79128500  1
  F  F14  1  0.69953800  0.78593100  0.79128500  1
