# generated using pymatgen
data_TiCr2O5
_symmetry_space_group_name_H-M   'P 1'
_cell_length_a   5.08375900
_cell_length_b   5.61490221
_cell_length_c   7.24362120
_cell_angle_alpha   109.56061677
_cell_angle_beta   90.00009266
_cell_angle_gamma   63.08374105
_symmetry_Int_Tables_number   1
_chemical_formula_structural   TiCr2O5
_chemical_formula_sum   'Ti2 Cr4 O10'
_cell_volume   170.87835945
_cell_formula_units_Z   2
loop_
 _symmetry_equiv_pos_site_id
 _symmetry_equiv_pos_as_xyz
  1  'x, y, z'
loop_
 _atom_site_type_symbol
 _atom_site_label
 _atom_site_symmetry_multiplicity
 _atom_site_fract_x
 _atom_site_fract_y
 _atom_site_fract_z
 _atom_site_occupancy
  Ti  Ti0  1  0.99999800  0.00000900  0.00001100  1
  Ti  Ti1  1  0.99999200  0.00000500  0.50001100  1
  Cr  Cr2  1  0.61690200  0.75293100  0.28560200  1
  Cr  Cr3  1  0.63016900  0.75293400  0.78560300  1
  Cr  Cr4  1  0.38308300  0.24705100  0.71438300  1
  Cr  Cr5  1  0.36986300  0.24705000  0.21438300  1
  O  O6  1  0.19205400  0.00002800  0.75001400  1
  O  O7  1  0.80794100  0.99998500  0.24999600  1
  O  O8  1  0.03776800  0.62833400  0.84831800  1
  O  O9  1  0.96224300  0.37166500  0.15169400  1
  O  O10  1  0.66608600  0.37165900  0.65168100  1
  O  O11  1  0.33390200  0.62834000  0.34832600  1
  O  O12  1  0.74599600  0.83811400  0.55451700  1
  O  O13  1  0.25399100  0.16189100  0.44547300  1
  O  O14  1  0.58410500  0.16187700  0.94547400  1
  O  O15  1  0.41590700  0.83812500  0.05451500  1
