# generated using pymatgen
data_Ti4Co
_symmetry_space_group_name_H-M   'P 1'
_cell_length_a   6.31529653
_cell_length_b   6.31529653
_cell_length_c   6.31529653
_cell_angle_alpha   60.00000000
_cell_angle_beta   60.00000000
_cell_angle_gamma   60.00000000
_symmetry_Int_Tables_number   1
_chemical_formula_structural   Ti4Co
_chemical_formula_sum   'Ti8 Co2'
_cell_volume   178.10095316
_cell_formula_units_Z   2
loop_
 _symmetry_equiv_pos_site_id
 _symmetry_equiv_pos_as_xyz
  1  'x, y, z'
loop_
 _atom_site_type_symbol
 _atom_site_label
 _atom_site_symmetry_multiplicity
 _atom_site_fract_x
 _atom_site_fract_y
 _atom_site_fract_z
 _atom_site_occupancy
  Ti  Ti0  1  0.60856700  0.60856700  0.60856700  1
  Ti  Ti1  1  0.17429800  0.60856700  0.60856700  1
  Ti  Ti2  1  0.60856700  0.17429800  0.60856700  1
  Ti  Ti3  1  0.57570200  0.14143300  0.14143300  1
  Ti  Ti4  1  0.14143300  0.14143300  0.14143300  1
  Ti  Ti5  1  0.60856700  0.60856700  0.17429800  1
  Ti  Ti6  1  0.14143300  0.57570200  0.14143300  1
  Ti  Ti7  1  0.14143300  0.14143300  0.57570200  1
  Co  Co8  1  0.00000000  0.00000000  0.00000000  1
  Co  Co9  1  0.75000000  0.75000000  0.75000000  1
