# generated using pymatgen
data_UC3S(NO4)2
_symmetry_space_group_name_H-M   'P 1'
_cell_length_a   8.29602359
_cell_length_b   8.29602359
_cell_length_c   12.61331408
_cell_angle_alpha   105.52213912
_cell_angle_beta   105.52213912
_cell_angle_gamma   106.99899038
_symmetry_Int_Tables_number   1
_chemical_formula_structural   UC3S(NO4)2
_chemical_formula_sum   'U2 C6 S2 N4 O16'
_cell_volume   741.41097366
_cell_formula_units_Z   2
loop_
 _symmetry_equiv_pos_site_id
 _symmetry_equiv_pos_as_xyz
  1  'x, y, z'
loop_
 _atom_site_type_symbol
 _atom_site_label
 _atom_site_symmetry_multiplicity
 _atom_site_fract_x
 _atom_site_fract_y
 _atom_site_fract_z
 _atom_site_occupancy
  U  U0  1  0.17581400  0.82418600  0.75000000  1
  U  U1  1  0.82418600  0.17581400  0.25000000  1
  C  C2  1  0.53080200  0.92103400  0.98166300  1
  C  C3  1  0.46919800  0.07896600  0.01833700  1
  C  C4  1  0.07896600  0.46919800  0.51833700  1
  C  C5  1  0.92103400  0.53080200  0.48166300  1
  C  C6  1  0.89688000  0.10312000  0.75000000  1
  C  C7  1  0.10312000  0.89688000  0.25000000  1
  S  S8  1  0.77700300  0.22299700  0.75000000  1
  S  S9  1  0.22299700  0.77700300  0.25000000  1
  N  N10  1  0.98644500  0.01355500  0.75000000  1
  N  N11  1  0.01355500  0.98644500  0.25000000  1
  N  N12  1  0.52781300  0.47218700  0.75000000  1
  N  N13  1  0.47218700  0.52781300  0.25000000  1
  O  O14  1  0.29695600  0.94579000  0.67807800  1
  O  O15  1  0.70304400  0.05421000  0.32192200  1
  O  O16  1  0.05421000  0.70304400  0.82192200  1
  O  O17  1  0.94579000  0.29695600  0.17807800  1
  O  O18  1  0.93530200  0.98580000  0.95687400  1
  O  O19  1  0.06469800  0.01420000  0.04312600  1
  O  O20  1  0.01420000  0.06469800  0.54312600  1
  O  O21  1  0.98580000  0.93530200  0.45687400  1
  O  O22  1  0.44505700  0.80893100  0.87590500  1
  O  O23  1  0.55494300  0.19106900  0.12409500  1
  O  O24  1  0.19106900  0.55494300  0.62409500  1
  O  O25  1  0.80893100  0.44505700  0.37590500  1
  O  O26  1  0.33895900  0.07861900  0.93846800  1
  O  O27  1  0.66104100  0.92138100  0.06153200  1
  O  O28  1  0.92138100  0.66104100  0.56153200  1
  O  O29  1  0.07861900  0.33895900  0.43846800  1
