# generated using pymatgen
data_Th3(Si3Ru)4
_symmetry_space_group_name_H-M   'P 1'
_cell_length_a   10.16917235
_cell_length_b   10.16917235
_cell_length_c   8.33798100
_cell_angle_alpha   90.00000000
_cell_angle_beta   90.00000000
_cell_angle_gamma   131.76589995
_symmetry_Int_Tables_number   1
_chemical_formula_structural   Th3(Si3Ru)4
_chemical_formula_sum   'Th6 Si24 Ru8'
_cell_volume   643.12700623
_cell_formula_units_Z   2
loop_
 _symmetry_equiv_pos_site_id
 _symmetry_equiv_pos_as_xyz
  1  'x, y, z'
loop_
 _atom_site_type_symbol
 _atom_site_label
 _atom_site_symmetry_multiplicity
 _atom_site_fract_x
 _atom_site_fract_y
 _atom_site_fract_z
 _atom_site_occupancy
  Th  Th0  1  0.00000000  0.00000000  0.00000000  1
  Th  Th1  1  0.50000000  0.50000000  0.50000000  1
  Th  Th2  1  0.00476000  0.50476000  0.25000000  1
  Th  Th3  1  0.99524000  0.49524000  0.75000000  1
  Th  Th4  1  0.49524000  0.99524000  0.75000000  1
  Th  Th5  1  0.50476000  0.00476000  0.25000000  1
  Si  Si6  1  0.70646700  0.29353300  0.00000000  1
  Si  Si7  1  0.29353300  0.70646700  0.00000000  1
  Si  Si8  1  0.79353300  0.20646700  0.50000000  1
  Si  Si9  1  0.20646700  0.79353300  0.50000000  1
  Si  Si10  1  0.33535300  0.33535300  0.16584000  1
  Si  Si11  1  0.66464700  0.66464700  0.83416000  1
  Si  Si12  1  0.16464700  0.16464700  0.66584000  1
  Si  Si13  1  0.83535300  0.83535300  0.33416000  1
  Si  Si14  1  0.84303400  0.60645700  0.00227500  1
  Si  Si15  1  0.15696600  0.39354300  0.99772500  1
  Si  Si16  1  0.65696600  0.89354300  0.50227500  1
  Si  Si17  1  0.10645700  0.34303400  0.49772500  1
  Si  Si18  1  0.34303400  0.10645700  0.49772500  1
  Si  Si19  1  0.89354300  0.65696600  0.50227500  1
  Si  Si20  1  0.39354300  0.15696600  0.99772500  1
  Si  Si21  1  0.60645700  0.84303400  0.00227500  1
  Si  Si22  1  0.88721500  0.12292600  0.27410700  1
  Si  Si23  1  0.11278500  0.87707400  0.72589300  1
  Si  Si24  1  0.61278500  0.37707400  0.77410700  1
  Si  Si25  1  0.62292600  0.38721500  0.22589300  1
  Si  Si26  1  0.38721500  0.62292600  0.22589300  1
  Si  Si27  1  0.37707400  0.61278500  0.77410700  1
  Si  Si28  1  0.87707400  0.11278500  0.72589300  1
  Si  Si29  1  0.12292600  0.88721500  0.27410700  1
  Ru  Ru30  1  0.83500500  0.16499500  0.00000000  1
  Ru  Ru31  1  0.16499500  0.83500500  0.00000000  1
  Ru  Ru32  1  0.66499500  0.33500500  0.50000000  1
  Ru  Ru33  1  0.33500500  0.66499500  0.50000000  1
  Ru  Ru34  1  0.12799500  0.12799500  0.37418600  1
  Ru  Ru35  1  0.87200500  0.87200500  0.62581400  1
  Ru  Ru36  1  0.37200500  0.37200500  0.87418600  1
  Ru  Ru37  1  0.62799500  0.62799500  0.12581400  1
