# generated using pymatgen
data_Ti2CrSe4
_symmetry_space_group_name_H-M   'P 1'
_cell_length_a   6.99979427
_cell_length_b   6.99979427
_cell_length_c   6.31812086
_cell_angle_alpha   64.34352170
_cell_angle_beta   64.34352170
_cell_angle_gamma   29.53891613
_symmetry_Int_Tables_number   1
_chemical_formula_structural   Ti2CrSe4
_chemical_formula_sum   'Ti2 Cr1 Se4'
_cell_volume   136.46719997
_cell_formula_units_Z   1
loop_
 _symmetry_equiv_pos_site_id
 _symmetry_equiv_pos_as_xyz
  1  'x, y, z'
loop_
 _atom_site_type_symbol
 _atom_site_label
 _atom_site_symmetry_multiplicity
 _atom_site_fract_x
 _atom_site_fract_y
 _atom_site_fract_z
 _atom_site_occupancy
  Ti  Ti0  1  0.74683500  0.74683500  0.28480000  1
  Ti  Ti1  1  0.25316500  0.25316500  0.71520000  1
  Cr  Cr2  1  0.00000000  0.00000000  0.00000000  1
  Se  Se3  1  0.88626200  0.88626200  0.45059100  1
  Se  Se4  1  0.11373800  0.11373800  0.54940900  1
  Se  Se5  1  0.62941700  0.62941700  0.03410700  1
  Se  Se6  1  0.37058300  0.37058300  0.96589300  1
