# generated using pymatgen
data_TlPC4S4(N2O)4
_symmetry_space_group_name_H-M   'P 1'
_cell_length_a   10.40133283
_cell_length_b   10.40133283
_cell_length_c   8.01336100
_cell_angle_alpha   90.00000000
_cell_angle_beta   90.00000000
_cell_angle_gamma   92.03258548
_symmetry_Int_Tables_number   1
_chemical_formula_structural   TlPC4S4(N2O)4
_chemical_formula_sum   'Tl2 P2 C8 S8 N16 O8'
_cell_volume   866.40182506
_cell_formula_units_Z   2
loop_
 _symmetry_equiv_pos_site_id
 _symmetry_equiv_pos_as_xyz
  1  'x, y, z'
loop_
 _atom_site_type_symbol
 _atom_site_label
 _atom_site_symmetry_multiplicity
 _atom_site_fract_x
 _atom_site_fract_y
 _atom_site_fract_z
 _atom_site_occupancy
  Tl  Tl0  1  0.50000000  0.50000000  0.25000000  1
  Tl  Tl1  1  0.50000000  0.50000000  0.75000000  1
  P  P2  1  0.00000000  0.00000000  0.00000000  1
  P  P3  1  0.00000000  0.00000000  0.50000000  1
  C  C4  1  0.61435800  0.82405400  0.00000000  1
  C  C5  1  0.38564200  0.17594600  0.00000000  1
  C  C6  1  0.17594600  0.38564200  0.50000000  1
  C  C7  1  0.82405400  0.61435800  0.50000000  1
  C  C8  1  0.82245800  0.40061000  0.00000000  1
  C  C9  1  0.17754200  0.59939000  0.00000000  1
  C  C10  1  0.59939000  0.17754200  0.50000000  1
  C  C11  1  0.40061000  0.82245800  0.50000000  1
  S  S12  1  0.28342400  0.46157700  0.00000000  1
  S  S13  1  0.71657600  0.53842300  0.00000000  1
  S  S14  1  0.53842300  0.71657600  0.50000000  1
  S  S15  1  0.46157700  0.28342400  0.50000000  1
  S  S16  1  0.47012300  0.71813200  0.00000000  1
  S  S17  1  0.52987700  0.28186800  0.00000000  1
  S  S18  1  0.28186800  0.52987700  0.50000000  1
  S  S19  1  0.71813200  0.47012300  0.50000000  1
  N  N20  1  0.85383700  0.36267100  0.14952500  1
  N  N21  1  0.14616300  0.63732900  0.85047500  1
  N  N22  1  0.14616300  0.63732900  0.14952500  1
  N  N23  1  0.63732900  0.14616300  0.35047500  1
  N  N24  1  0.85383700  0.36267100  0.85047500  1
  N  N25  1  0.36267100  0.85383700  0.64952500  1
  N  N26  1  0.36267100  0.85383700  0.35047500  1
  N  N27  1  0.63732900  0.14616300  0.64952500  1
  N  N28  1  0.14435700  0.34429700  0.35094100  1
  N  N29  1  0.85564300  0.65570300  0.64905900  1
  N  N30  1  0.85564300  0.65570300  0.35094100  1
  N  N31  1  0.65570300  0.85564300  0.14905900  1
  N  N32  1  0.14435700  0.34429700  0.64905900  1
  N  N33  1  0.34429700  0.14435700  0.85094100  1
  N  N34  1  0.34429700  0.14435700  0.14905900  1
  N  N35  1  0.65570300  0.85564300  0.85094100  1
  O  O36  1  0.99328400  0.11458300  0.12556900  1
  O  O37  1  0.00671600  0.88541700  0.87443100  1
  O  O38  1  0.00671600  0.88541700  0.12556900  1
  O  O39  1  0.88541700  0.00671600  0.37443100  1
  O  O40  1  0.99328400  0.11458300  0.87443100  1
  O  O41  1  0.11458300  0.99328400  0.62556900  1
  O  O42  1  0.11458300  0.99328400  0.37443100  1
  O  O43  1  0.88541700  0.00671600  0.62556900  1
