# generated using pymatgen
data_Tl5V3O10
_symmetry_space_group_name_H-M   'P 1'
_cell_length_a   8.45936700
_cell_length_b   8.45936700
_cell_length_c   19.58281300
_cell_angle_alpha   90.00000000
_cell_angle_beta   90.00000000
_cell_angle_gamma   90.00000000
_symmetry_Int_Tables_number   1
_chemical_formula_structural   Tl5V3O10
_chemical_formula_sum   'Tl20 V12 O40'
_cell_volume   1401.36352778
_cell_formula_units_Z   4
loop_
 _symmetry_equiv_pos_site_id
 _symmetry_equiv_pos_as_xyz
  1  'x, y, z'
loop_
 _atom_site_type_symbol
 _atom_site_label
 _atom_site_symmetry_multiplicity
 _atom_site_fract_x
 _atom_site_fract_y
 _atom_site_fract_z
 _atom_site_occupancy
  Tl  Tl0  1  0.47791300  0.00714900  0.13052200  1
  Tl  Tl1  1  0.52208700  0.99285100  0.63052200  1
  Tl  Tl2  1  0.49285100  0.97791300  0.38052200  1
  Tl  Tl3  1  0.02208700  0.50714900  0.11947800  1
  Tl  Tl4  1  0.50714900  0.02208700  0.88052200  1
  Tl  Tl5  1  0.97791300  0.49285100  0.61947800  1
  Tl  Tl6  1  0.00714900  0.47791300  0.86947800  1
  Tl  Tl7  1  0.99285100  0.52208700  0.36947800  1
  Tl  Tl8  1  0.99959500  0.02866200  0.10628700  1
  Tl  Tl9  1  0.00040500  0.97133800  0.60628700  1
  Tl  Tl10  1  0.47133800  0.49959500  0.35628700  1
  Tl  Tl11  1  0.50040500  0.52866200  0.14371300  1
  Tl  Tl12  1  0.52866200  0.50040500  0.85628700  1
  Tl  Tl13  1  0.49959500  0.47133800  0.64371300  1
  Tl  Tl14  1  0.02866200  0.99959500  0.89371300  1
  Tl  Tl15  1  0.97133800  0.00040500  0.39371300  1
  Tl  Tl16  1  0.75902800  0.75902800  0.00000000  1
  Tl  Tl17  1  0.24097200  0.24097200  0.50000000  1
  Tl  Tl18  1  0.74097200  0.25902800  0.25000000  1
  Tl  Tl19  1  0.25902800  0.74097200  0.75000000  1
  V  V20  1  0.23007000  0.23211600  0.26714700  1
  V  V21  1  0.76993000  0.76788400  0.76714700  1
  V  V22  1  0.26788400  0.73007000  0.51714700  1
  V  V23  1  0.26993000  0.73211600  0.98285300  1
  V  V24  1  0.73211600  0.26993000  0.01714700  1
  V  V25  1  0.73007000  0.26788400  0.48285300  1
  V  V26  1  0.23211600  0.23007000  0.73285300  1
  V  V27  1  0.76788400  0.76993000  0.23285300  1
  V  V28  1  0.30977000  0.30977000  0.00000000  1
  V  V29  1  0.69023000  0.69023000  0.50000000  1
  V  V30  1  0.19023000  0.80977000  0.25000000  1
  V  V31  1  0.80977000  0.19023000  0.75000000  1
  O  O32  1  0.06597300  0.32690600  0.23654800  1
  O  O33  1  0.93402700  0.67309400  0.73654800  1
  O  O34  1  0.17309400  0.56597300  0.48654800  1
  O  O35  1  0.43402700  0.82690600  0.01345200  1
  O  O36  1  0.82690600  0.43402700  0.98654800  1
  O  O37  1  0.56597300  0.17309400  0.51345200  1
  O  O38  1  0.32690600  0.06597300  0.76345200  1
  O  O39  1  0.67309400  0.93402700  0.26345200  1
  O  O40  1  0.23967400  0.21864500  0.07064900  1
  O  O41  1  0.76032600  0.78135500  0.57064900  1
  O  O42  1  0.28135500  0.73967400  0.32064900  1
  O  O43  1  0.26032600  0.71864500  0.17935100  1
  O  O44  1  0.71864500  0.26032600  0.82064900  1
  O  O45  1  0.73967400  0.28135500  0.67935100  1
  O  O46  1  0.21864500  0.23967400  0.92935100  1
  O  O47  1  0.78135500  0.76032600  0.42935100  1
  O  O48  1  0.23050300  0.24469200  0.35468400  1
  O  O49  1  0.76949700  0.75530800  0.85468400  1
  O  O50  1  0.25530800  0.73050300  0.60468400  1
  O  O51  1  0.26949700  0.74469200  0.89531600  1
  O  O52  1  0.74469200  0.26949700  0.10468400  1
  O  O53  1  0.73050300  0.25530800  0.39531600  1
  O  O54  1  0.24469200  0.23050300  0.64531600  1
  O  O55  1  0.75530800  0.76949700  0.14531600  1
  O  O56  1  0.22718100  0.01938200  0.24076600  1
  O  O57  1  0.77281900  0.98061800  0.74076600  1
  O  O58  1  0.48061800  0.72718100  0.49076600  1
  O  O59  1  0.27281900  0.51938200  0.00923400  1
  O  O60  1  0.51938200  0.27281900  0.99076600  1
  O  O61  1  0.72718100  0.48061800  0.50923400  1
  O  O62  1  0.01938200  0.22718100  0.75923400  1
  O  O63  1  0.98061800  0.77281900  0.25923400  1
  O  O64  1  0.40080900  0.32092300  0.23827300  1
  O  O65  1  0.59919100  0.67907700  0.73827300  1
  O  O66  1  0.17907700  0.90080900  0.48827300  1
  O  O67  1  0.09919100  0.82092300  0.01172700  1
  O  O68  1  0.82092300  0.09919100  0.98827300  1
  O  O69  1  0.90080900  0.17907700  0.51172700  1
  O  O70  1  0.32092300  0.40080900  0.76172700  1
  O  O71  1  0.67907700  0.59919100  0.26172700  1
