# generated using pymatgen
data_ThBr2
_symmetry_space_group_name_H-M   'P 1'
_cell_length_a   9.11360989
_cell_length_b   9.11360989
_cell_length_c   9.11360989
_cell_angle_alpha   130.81165392
_cell_angle_beta   130.81165392
_cell_angle_gamma   72.11249273
_symmetry_Int_Tables_number   1
_chemical_formula_structural   ThBr2
_chemical_formula_sum   'Th4 Br8'
_cell_volume   423.99295840
_cell_formula_units_Z   4
loop_
 _symmetry_equiv_pos_site_id
 _symmetry_equiv_pos_as_xyz
  1  'x, y, z'
loop_
 _atom_site_type_symbol
 _atom_site_label
 _atom_site_symmetry_multiplicity
 _atom_site_fract_x
 _atom_site_fract_y
 _atom_site_fract_z
 _atom_site_occupancy
  Th  Th0  1  0.37500000  0.12500000  0.25000000  1
  Th  Th1  1  0.87500000  0.12500000  0.75000000  1
  Th  Th2  1  0.87500000  0.12500000  0.25000000  1
  Th  Th3  1  0.87500000  0.62500000  0.75000000  1
  Br  Br4  1  0.44713500  0.49867200  0.37486500  1
  Br  Br5  1  0.12380800  0.07227000  0.62513500  1
  Br  Br6  1  0.24867200  0.37380800  0.55153800  1
  Br  Br7  1  0.30286500  0.75132800  0.12513500  1
  Br  Br8  1  0.82227000  0.69713500  0.44846200  1
  Br  Br9  1  0.62619200  0.17773000  0.87486500  1
  Br  Br10  1  0.50132800  0.87619200  0.94846200  1
  Br  Br11  1  0.92773000  0.55286500  0.05153800  1
