# generated using pymatgen
data_UCl2
_symmetry_space_group_name_H-M   'P 1'
_cell_length_a   14.00782266
_cell_length_b   14.00782266
_cell_length_c   14.00782266
_cell_angle_alpha   104.54038649
_cell_angle_beta   104.54038649
_cell_angle_gamma   119.85952801
_symmetry_Int_Tables_number   1
_chemical_formula_structural   UCl2
_chemical_formula_sum   'U4 Cl8'
_cell_volume   2062.90089037
_cell_formula_units_Z   4
loop_
 _symmetry_equiv_pos_site_id
 _symmetry_equiv_pos_as_xyz
  1  'x, y, z'
loop_
 _atom_site_type_symbol
 _atom_site_label
 _atom_site_symmetry_multiplicity
 _atom_site_fract_x
 _atom_site_fract_y
 _atom_site_fract_z
 _atom_site_occupancy
  U  U0  1  0.12500000  0.87500000  0.75000000  1
  U  U1  1  0.12500000  0.37500000  0.25000000  1
  U  U2  1  0.62500000  0.87500000  0.75000000  1
  U  U3  1  0.12500000  0.87500000  0.25000000  1
  Cl  Cl4  1  0.19841200  0.31231900  0.11390700  1
  Cl  Cl5  1  0.19841200  0.08450500  0.88609300  1
  Cl  Cl6  1  0.33450500  0.94841200  0.38609300  1
  Cl  Cl7  1  0.05158800  0.66549500  0.61390700  1
  Cl  Cl8  1  0.05158800  0.43768100  0.38609300  1
  Cl  Cl9  1  0.56231900  0.94841200  0.61390700  1
  Cl  Cl10  1  0.91549500  0.80158800  0.11390700  1
  Cl  Cl11  1  0.68768100  0.80158800  0.88609300  1
