# generated using pymatgen
data_MgCd
_symmetry_space_group_name_H-M   'P 1'
_cell_length_a   5.86589094
_cell_length_b   5.86589094
_cell_length_c   7.42581310
_cell_angle_alpha   76.58145329
_cell_angle_beta   76.58145329
_cell_angle_gamma   32.07746327
_symmetry_Int_Tables_number   1
_chemical_formula_structural   MgCd
_chemical_formula_sum   'Mg3 Cd3'
_cell_volume   131.67864857
_cell_formula_units_Z   3
loop_
 _symmetry_equiv_pos_site_id
 _symmetry_equiv_pos_as_xyz
  1  'x, y, z'
loop_
 _atom_site_type_symbol
 _atom_site_label
 _atom_site_symmetry_multiplicity
 _atom_site_fract_x
 _atom_site_fract_y
 _atom_site_fract_z
 _atom_site_occupancy
  Mg  Mg0  1  0.00594500  0.00594500  0.99630900  1
  Mg  Mg1  1  0.38645500  0.38645500  0.72352000  1
  Mg  Mg2  1  0.33028300  0.33028300  0.33545500  1
  Cd  Cd3  1  0.66542200  0.66542200  0.66874500  1
  Cd  Cd4  1  0.05113500  0.05113500  0.38627100  1
  Cd  Cd5  1  0.72742700  0.72742700  0.05636800  1
