# generated using pymatgen
data_Tm2S3O20
_symmetry_space_group_name_H-M   'P 1'
_cell_length_a   7.46356266
_cell_length_b   7.46356266
_cell_length_c   18.18227568
_cell_angle_alpha   81.69490217
_cell_angle_beta   81.69490217
_cell_angle_gamma   52.22076403
_symmetry_Int_Tables_number   1
_chemical_formula_structural   Tm2S3O20
_chemical_formula_sum   'Tm4 S6 O40'
_cell_volume   790.09997670
_cell_formula_units_Z   2
loop_
 _symmetry_equiv_pos_site_id
 _symmetry_equiv_pos_as_xyz
  1  'x, y, z'
loop_
 _atom_site_type_symbol
 _atom_site_label
 _atom_site_symmetry_multiplicity
 _atom_site_fract_x
 _atom_site_fract_y
 _atom_site_fract_z
 _atom_site_occupancy
  Tm  Tm0  1  0.81163800  0.84887500  0.89486000  1
  Tm  Tm1  1  0.18836200  0.15112500  0.10514000  1
  Tm  Tm2  1  0.15112500  0.18836200  0.60514000  1
  Tm  Tm3  1  0.84887500  0.81163800  0.39486000  1
  S  S4  1  0.75531800  0.81193700  0.59066000  1
  S  S5  1  0.24468200  0.18806300  0.40934000  1
  S  S6  1  0.18806300  0.24468200  0.90934000  1
  S  S7  1  0.81193700  0.75531800  0.09066000  1
  S  S8  1  0.71311500  0.28688500  0.75000000  1
  S  S9  1  0.28688500  0.71311500  0.25000000  1
  O  O10  1  0.34096100  0.26565000  0.68410100  1
  O  O11  1  0.65903900  0.73435000  0.31589900  1
  O  O12  1  0.73435000  0.65903900  0.81589900  1
  O  O13  1  0.26565000  0.34096100  0.18410100  1
  O  O14  1  0.30804300  0.37852700  0.57012700  1
  O  O15  1  0.69195700  0.62147300  0.42987300  1
  O  O16  1  0.62147300  0.69195700  0.92987300  1
  O  O17  1  0.37852700  0.30804300  0.07012700  1
  O  O18  1  0.52032500  0.88630300  0.61437000  1
  O  O19  1  0.47967500  0.11369700  0.38563000  1
  O  O20  1  0.11369700  0.47967500  0.88563000  1
  O  O21  1  0.88630300  0.52032500  0.11437000  1
  O  O22  1  0.76362400  0.90783900  0.51411800  1
  O  O23  1  0.23637600  0.09216100  0.48588200  1
  O  O24  1  0.09216100  0.23637600  0.98588200  1
  O  O25  1  0.90783900  0.76362400  0.01411800  1
  O  O26  1  0.53648600  0.38306700  0.69551000  1
  O  O27  1  0.46351400  0.61693300  0.30449000  1
  O  O28  1  0.61693300  0.46351400  0.80449000  1
  O  O29  1  0.38306700  0.53648600  0.19551000  1
  O  O30  1  0.81628900  0.88826700  0.64712300  1
  O  O31  1  0.18371100  0.11173300  0.35287700  1
  O  O32  1  0.11173300  0.18371100  0.85287700  1
  O  O33  1  0.88826700  0.81628900  0.14712300  1
  O  O34  1  0.44022700  0.09367000  0.90940600  1
  O  O35  1  0.55977300  0.90633000  0.09059400  1
  O  O36  1  0.90633000  0.55977300  0.59059400  1
  O  O37  1  0.09367000  0.44022700  0.40940600  1
  O  O38  1  0.10946300  0.88433100  0.62791300  1
  O  O39  1  0.89053700  0.11566900  0.37208700  1
  O  O40  1  0.11566900  0.89053700  0.87208700  1
  O  O41  1  0.88433100  0.10946300  0.12791300  1
  O  O42  1  0.80236100  0.12627000  0.93724100  1
  O  O43  1  0.19763900  0.87373000  0.06275900  1
  O  O44  1  0.87373000  0.19763900  0.56275900  1
  O  O45  1  0.12627000  0.80236100  0.43724100  1
  O  O46  1  0.76406000  0.07267600  0.78947700  1
  O  O47  1  0.23594000  0.92732400  0.21052300  1
  O  O48  1  0.92732400  0.23594000  0.71052300  1
  O  O49  1  0.07267600  0.76406000  0.28947700  1
