# generated using pymatgen
data_Ti3NbZnBi3O14
_symmetry_space_group_name_H-M   'P 1'
_cell_length_a   10.44510100
_cell_length_b   10.44510100
_cell_length_c   10.44510100
_cell_angle_alpha   90.00000000
_cell_angle_beta   90.00000000
_cell_angle_gamma   90.00000000
_symmetry_Int_Tables_number   1
_chemical_formula_structural   Ti3NbZnBi3O14
_chemical_formula_sum   'Ti12 Nb4 Zn4 Bi12 O56'
_cell_volume   1139.56192815
_cell_formula_units_Z   4
loop_
 _symmetry_equiv_pos_site_id
 _symmetry_equiv_pos_as_xyz
  1  'x, y, z'
loop_
 _atom_site_type_symbol
 _atom_site_label
 _atom_site_symmetry_multiplicity
 _atom_site_fract_x
 _atom_site_fract_y
 _atom_site_fract_z
 _atom_site_occupancy
  Ti  Ti0  1  0.12500000  0.88632200  0.13632200  1
  Ti  Ti1  1  0.37500000  0.11367800  0.63632200  1
  Ti  Ti2  1  0.87500000  0.38632200  0.36367800  1
  Ti  Ti3  1  0.13632200  0.12500000  0.88632200  1
  Ti  Ti4  1  0.63632200  0.37500000  0.11367800  1
  Ti  Ti5  1  0.62500000  0.61367800  0.86367800  1
  Ti  Ti6  1  0.86367800  0.62500000  0.61367800  1
  Ti  Ti7  1  0.36367800  0.87500000  0.38632200  1
  Ti  Ti8  1  0.88632200  0.13632200  0.12500000  1
  Ti  Ti9  1  0.38632200  0.36367800  0.87500000  1
  Ti  Ti10  1  0.61367800  0.86367800  0.62500000  1
  Ti  Ti11  1  0.11367800  0.63632200  0.37500000  1
  Nb  Nb12  1  0.87500000  0.87500000  0.87500000  1
  Nb  Nb13  1  0.62500000  0.12500000  0.37500000  1
  Nb  Nb14  1  0.12500000  0.37500000  0.62500000  1
  Nb  Nb15  1  0.37500000  0.62500000  0.12500000  1
  Zn  Zn16  1  0.37500000  0.37500000  0.37500000  1
  Zn  Zn17  1  0.12500000  0.62500000  0.87500000  1
  Zn  Zn18  1  0.62500000  0.87500000  0.12500000  1
  Zn  Zn19  1  0.87500000  0.12500000  0.62500000  1
  Bi  Bi20  1  0.12500000  0.14628400  0.39628400  1
  Bi  Bi21  1  0.37500000  0.85371600  0.89628400  1
  Bi  Bi22  1  0.87500000  0.64628400  0.10371600  1
  Bi  Bi23  1  0.39628400  0.12500000  0.14628400  1
  Bi  Bi24  1  0.89628400  0.37500000  0.85371600  1
  Bi  Bi25  1  0.62500000  0.35371600  0.60371600  1
  Bi  Bi26  1  0.60371600  0.62500000  0.35371600  1
  Bi  Bi27  1  0.10371600  0.87500000  0.64628400  1
  Bi  Bi28  1  0.14628400  0.39628400  0.12500000  1
  Bi  Bi29  1  0.64628400  0.10371600  0.87500000  1
  Bi  Bi30  1  0.35371600  0.60371600  0.62500000  1
  Bi  Bi31  1  0.85371600  0.89628400  0.37500000  1
  O  O32  1  0.00516000  0.30328700  0.49203900  1
  O  O33  1  0.49484000  0.69671300  0.99203900  1
  O  O34  1  0.99484000  0.80328700  0.00796100  1
  O  O35  1  0.49203900  0.00516000  0.30328700  1
  O  O36  1  0.05328700  0.25516000  0.75796100  1
  O  O37  1  0.50516000  0.19671300  0.50796100  1
  O  O38  1  0.99203900  0.49484000  0.69671300  1
  O  O39  1  0.44671300  0.74484000  0.25796100  1
  O  O40  1  0.00796100  0.99484000  0.80328700  1
  O  O41  1  0.55328700  0.24484000  0.24203900  1
  O  O42  1  0.50796100  0.50516000  0.19671300  1
  O  O43  1  0.94671300  0.75516000  0.74203900  1
  O  O44  1  0.30328700  0.49203900  0.00516000  1
  O  O45  1  0.75516000  0.74203900  0.94671300  1
  O  O46  1  0.80328700  0.00796100  0.99484000  1
  O  O47  1  0.74484000  0.25796100  0.44671300  1
  O  O48  1  0.19671300  0.50796100  0.50516000  1
  O  O49  1  0.25516000  0.75796100  0.05328700  1
  O  O50  1  0.69671300  0.99203900  0.49484000  1
  O  O51  1  0.24484000  0.24203900  0.55328700  1
  O  O52  1  0.75796100  0.05328700  0.25516000  1
  O  O53  1  0.25796100  0.44671300  0.74484000  1
  O  O54  1  0.74203900  0.94671300  0.75516000  1
  O  O55  1  0.24203900  0.55328700  0.24484000  1
  O  O56  1  0.27013300  0.27013300  0.27013300  1
  O  O57  1  0.22986700  0.72986700  0.77013300  1
  O  O58  1  0.72986700  0.77013300  0.22986700  1
  O  O59  1  0.02013300  0.52013300  0.97986700  1
  O  O60  1  0.77013300  0.22986700  0.72986700  1
  O  O61  1  0.47986700  0.47986700  0.47986700  1
  O  O62  1  0.52013300  0.97986700  0.02013300  1
  O  O63  1  0.97986700  0.02013300  0.52013300  1
  O  O64  1  0.99757700  0.00034900  0.19471400  1
  O  O65  1  0.50242300  0.99965100  0.69471400  1
  O  O66  1  0.00242300  0.50034900  0.30528600  1
  O  O67  1  0.19471400  0.99757700  0.00034900  1
  O  O68  1  0.75034900  0.24757700  0.05528600  1
  O  O69  1  0.49757700  0.49965100  0.80528600  1
  O  O70  1  0.69471400  0.50242300  0.99965100  1
  O  O71  1  0.74965100  0.75242300  0.55528600  1
  O  O72  1  0.30528600  0.00242300  0.50034900  1
  O  O73  1  0.25034900  0.25242300  0.94471400  1
  O  O74  1  0.80528600  0.49757700  0.49965100  1
  O  O75  1  0.24965100  0.74757700  0.44471400  1
  O  O76  1  0.00034900  0.19471400  0.99757700  1
  O  O77  1  0.74757700  0.44471400  0.24965100  1
  O  O78  1  0.50034900  0.30528600  0.00242300  1
  O  O79  1  0.75242300  0.55528600  0.74965100  1
  O  O80  1  0.49965100  0.80528600  0.49757700  1
  O  O81  1  0.24757700  0.05528600  0.75034900  1
  O  O82  1  0.99965100  0.69471400  0.50242300  1
  O  O83  1  0.25242300  0.94471400  0.25034900  1
  O  O84  1  0.05528600  0.75034900  0.24757700  1
  O  O85  1  0.55528600  0.74965100  0.75242300  1
  O  O86  1  0.44471400  0.24965100  0.74757700  1
  O  O87  1  0.94471400  0.25034900  0.25242300  1
