# generated using pymatgen
data_TlMo2P3O13
_symmetry_space_group_name_H-M   'P 1'
_cell_length_a   19.71814600
_cell_length_b   6.49308300
_cell_length_c   9.95432705
_cell_angle_alpha   72.73880652
_cell_angle_beta   90.00000000
_cell_angle_gamma   90.00000000
_symmetry_Int_Tables_number   1
_chemical_formula_structural   TlMo2P3O13
_chemical_formula_sum   'Tl4 Mo8 P12 O52'
_cell_volume   1217.06850803
_cell_formula_units_Z   4
loop_
 _symmetry_equiv_pos_site_id
 _symmetry_equiv_pos_as_xyz
  1  'x, y, z'
loop_
 _atom_site_type_symbol
 _atom_site_label
 _atom_site_symmetry_multiplicity
 _atom_site_fract_x
 _atom_site_fract_y
 _atom_site_fract_z
 _atom_site_occupancy
  Tl  Tl0  1  0.09236400  0.26550100  0.50570700  1
  Tl  Tl1  1  0.59236400  0.73449900  0.49429300  1
  Tl  Tl2  1  0.41695900  0.71227000  0.86709300  1
  Tl  Tl3  1  0.91695900  0.28773000  0.13290700  1
  Mo  Mo4  1  0.92338100  0.64504600  0.42823900  1
  Mo  Mo5  1  0.42338100  0.35495400  0.57176100  1
  Mo  Mo6  1  0.46739600  0.06105800  0.12806700  1
  Mo  Mo7  1  0.96739600  0.93894200  0.87193300  1
  Mo  Mo8  1  0.25076600  0.85748300  0.55475000  1
  Mo  Mo9  1  0.75076600  0.14251700  0.44525000  1
  Mo  Mo10  1  0.21257300  0.56365000  0.10842300  1
  Mo  Mo11  1  0.71257300  0.43635000  0.89157700  1
  P  P12  1  0.17750200  0.01666900  0.20106500  1
  P  P13  1  0.67750200  0.98333100  0.79893500  1
  P  P14  1  0.05525800  0.76050600  0.19350800  1
  P  P15  1  0.55525800  0.23949400  0.80649200  1
  P  P16  1  0.41141600  0.90044600  0.47015900  1
  P  P17  1  0.91141600  0.09955400  0.52984100  1
  P  P18  1  0.12250700  0.74255700  0.79172900  1
  P  P19  1  0.62250700  0.25744300  0.20827100  1
  P  P20  1  0.50095400  0.51238300  0.21905700  1
  P  P21  1  0.00095400  0.48761700  0.78094300  1
  P  P22  1  0.26507000  0.40191200  0.45819400  1
  P  P23  1  0.76507000  0.59808800  0.54180600  1
  O  O24  1  0.43274100  0.67317900  0.56435900  1
  O  O25  1  0.93274100  0.32682100  0.43564100  1
  O  O26  1  0.29772200  0.78303400  0.70675400  1
  O  O27  1  0.79772200  0.21696600  0.29324600  1
  O  O28  1  0.22811100  0.45205500  0.31649900  1
  O  O29  1  0.72811100  0.54794500  0.68350100  1
  O  O30  1  0.00247200  0.83738300  0.07734800  1
  O  O31  1  0.50247200  0.16261700  0.92265200  1
  O  O32  1  0.18459000  0.25520200  0.11770500  1
  O  O33  1  0.68459000  0.74479800  0.88229500  1
  O  O34  1  0.38477400  0.05857700  0.07812600  1
  O  O35  1  0.88477400  0.94142300  0.92187400  1
  O  O36  1  0.19516900  0.96220500  0.35660200  1
  O  O37  1  0.69516900  0.03779500  0.64339800  1
  O  O38  1  0.10456700  0.59098100  0.17428100  1
  O  O39  1  0.60456700  0.40901900  0.82571900  1
  O  O40  1  0.29466700  0.56993000  0.05237800  1
  O  O41  1  0.79466700  0.43007000  0.94762200  1
  O  O42  1  0.21219000  0.87597600  0.12229900  1
  O  O43  1  0.71219000  0.12402400  0.87770100  1
  O  O44  1  0.07242100  0.90806400  0.81334000  1
  O  O45  1  0.57242100  0.09193600  0.18666000  1
  O  O46  1  0.74205100  0.82522400  0.45222400  1
  O  O47  1  0.24205100  0.17477600  0.54777600  1
  O  O48  1  0.49302400  0.75092300  0.13431200  1
  O  O49  1  0.99302400  0.24907700  0.86568800  1
  O  O50  1  0.48295700  0.45564300  0.37386900  1
  O  O51  1  0.98295700  0.54435700  0.62613100  1
  O  O52  1  0.45675400  0.95693400  0.33896900  1
  O  O53  1  0.95675400  0.04306600  0.66103100  1
  O  O54  1  0.01987600  0.68062600  0.33758800  1
  O  O55  1  0.51987600  0.31937400  0.66241200  1
  O  O56  1  0.93088800  0.95264100  0.43859200  1
  O  O57  1  0.43088800  0.04735900  0.56140800  1
  O  O58  1  0.17455100  0.66518900  0.90753200  1
  O  O59  1  0.67455100  0.33481100  0.09246800  1
  O  O60  1  0.08148900  0.52758600  0.78838400  1
  O  O61  1  0.58148900  0.47241400  0.21161600  1
  O  O62  1  0.09612200  0.97563800  0.19496000  1
  O  O63  1  0.59612200  0.02436200  0.80504000  1
  O  O64  1  0.34248500  0.41813500  0.43510400  1
  O  O65  1  0.84248500  0.58186500  0.56489600  1
  O  O66  1  0.15548600  0.82740600  0.64609400  1
  O  O67  1  0.65548600  0.17259400  0.35390600  1
  O  O68  1  0.87829800  0.71141800  0.27520300  1
  O  O69  1  0.37829800  0.28858200  0.72479700  1
  O  O70  1  0.46486700  0.37925900  0.13543100  1
  O  O71  1  0.96486700  0.62074100  0.86456900  1
  O  O72  1  0.23807300  0.55533800  0.53832900  1
  O  O73  1  0.73807300  0.44466200  0.46167100  1
  O  O74  1  0.33620900  0.91533000  0.42728200  1
  O  O75  1  0.83620900  0.08467000  0.57271800  1
