# generated using pymatgen
data_Ce2Mg
_symmetry_space_group_name_H-M   'P 1'
_cell_length_a   6.19594800
_cell_length_b   6.19594800
_cell_length_c   5.63942000
_cell_angle_alpha   90.00000000
_cell_angle_beta   90.00000000
_cell_angle_gamma   90.00000000
_symmetry_Int_Tables_number   1
_chemical_formula_structural   Ce2Mg
_chemical_formula_sum   'Ce4 Mg2'
_cell_volume   216.49604586
_cell_formula_units_Z   2
loop_
 _symmetry_equiv_pos_site_id
 _symmetry_equiv_pos_as_xyz
  1  'x, y, z'
loop_
 _atom_site_type_symbol
 _atom_site_label
 _atom_site_symmetry_multiplicity
 _atom_site_fract_x
 _atom_site_fract_y
 _atom_site_fract_z
 _atom_site_occupancy
  Ce  Ce0  1  0.34962800  0.34962800  0.00000000  1
  Ce  Ce1  1  0.65037200  0.65037200  0.00000000  1
  Ce  Ce2  1  0.15037200  0.84962800  0.50000000  1
  Ce  Ce3  1  0.84962800  0.15037200  0.50000000  1
  Mg  Mg4  1  0.00000000  0.00000000  0.00000000  1
  Mg  Mg5  1  0.50000000  0.50000000  0.50000000  1
