# generated using pymatgen
data_TbCrGeO5
_symmetry_space_group_name_H-M   'P 1'
_cell_length_a   5.81362400
_cell_length_b   7.44662800
_cell_length_c   8.51386600
_cell_angle_alpha   90.00000000
_cell_angle_beta   90.00000000
_cell_angle_gamma   90.00000000
_symmetry_Int_Tables_number   1
_chemical_formula_structural   TbCrGeO5
_chemical_formula_sum   'Tb4 Cr4 Ge4 O20'
_cell_volume   368.58139513
_cell_formula_units_Z   4
loop_
 _symmetry_equiv_pos_site_id
 _symmetry_equiv_pos_as_xyz
  1  'x, y, z'
loop_
 _atom_site_type_symbol
 _atom_site_label
 _atom_site_symmetry_multiplicity
 _atom_site_fract_x
 _atom_site_fract_y
 _atom_site_fract_z
 _atom_site_occupancy
  Tb  Tb0  1  0.50000000  0.35781200  0.32617500  1
  Tb  Tb1  1  0.50000000  0.64218800  0.67382500  1
  Tb  Tb2  1  0.50000000  0.14218800  0.82617500  1
  Tb  Tb3  1  0.50000000  0.85781200  0.17382500  1
  Cr  Cr4  1  0.24929000  0.00000000  0.50000000  1
  Cr  Cr5  1  0.75071000  0.00000000  0.50000000  1
  Cr  Cr6  1  0.75071000  0.50000000  0.00000000  1
  Cr  Cr7  1  0.24929000  0.50000000  0.00000000  1
  Ge  Ge8  1  0.00000000  0.11626100  0.14451200  1
  Ge  Ge9  1  0.00000000  0.88373900  0.85548800  1
  Ge  Ge10  1  0.00000000  0.38373900  0.64451200  1
  Ge  Ge11  1  0.00000000  0.61626100  0.35548800  1
  O  O12  1  0.24940100  0.10979600  0.28235400  1
  O  O13  1  0.75059900  0.89020400  0.71764600  1
  O  O14  1  0.24940100  0.89020400  0.71764600  1
  O  O15  1  0.75059900  0.39020400  0.78235400  1
  O  O16  1  0.75059900  0.10979600  0.28235400  1
  O  O17  1  0.24940100  0.60979600  0.21764600  1
  O  O18  1  0.75059900  0.60979600  0.21764600  1
  O  O19  1  0.24940100  0.39020400  0.78235400  1
  O  O20  1  0.00000000  0.34213300  0.08033600  1
  O  O21  1  0.00000000  0.65786700  0.91966400  1
  O  O22  1  0.00000000  0.15786700  0.58033600  1
  O  O23  1  0.00000000  0.84213300  0.41966400  1
  O  O24  1  0.50000000  0.33114300  0.05638800  1
  O  O25  1  0.50000000  0.66885700  0.94361200  1
  O  O26  1  0.50000000  0.16885700  0.55638800  1
  O  O27  1  0.50000000  0.83114300  0.44361200  1
  O  O28  1  0.21138500  0.00000000  0.00000000  1
  O  O29  1  0.78861500  0.00000000  0.00000000  1
  O  O30  1  0.78861500  0.50000000  0.50000000  1
  O  O31  1  0.21138500  0.50000000  0.50000000  1
