# generated using pymatgen
data_TbTlS2O9
_symmetry_space_group_name_H-M   'P 1'
_cell_length_a   8.55220900
_cell_length_b   10.51411287
_cell_length_c   10.21988148
_cell_angle_alpha   119.89159530
_cell_angle_beta   90.00000000
_cell_angle_gamma   90.00000000
_symmetry_Int_Tables_number   1
_chemical_formula_structural   TbTlS2O9
_chemical_formula_sum   'Tb4 Tl4 S8 O36'
_cell_volume   796.71097657
_cell_formula_units_Z   4
loop_
 _symmetry_equiv_pos_site_id
 _symmetry_equiv_pos_as_xyz
  1  'x, y, z'
loop_
 _atom_site_type_symbol
 _atom_site_label
 _atom_site_symmetry_multiplicity
 _atom_site_fract_x
 _atom_site_fract_y
 _atom_site_fract_z
 _atom_site_occupancy
  Tb  Tb0  1  0.36238200  0.96309700  0.71692900  1
  Tb  Tb1  1  0.63761800  0.03690300  0.28307100  1
  Tb  Tb2  1  0.86238200  0.53690300  0.78307100  1
  Tb  Tb3  1  0.13761800  0.46309700  0.21692900  1
  Tl  Tl4  1  0.33234700  0.68758500  0.96525300  1
  Tl  Tl5  1  0.66765300  0.31241500  0.03474700  1
  Tl  Tl6  1  0.83234700  0.81241500  0.53474700  1
  Tl  Tl7  1  0.16765300  0.18758500  0.46525300  1
  S  S8  1  0.12994000  0.31621900  0.87345000  1
  S  S9  1  0.87006000  0.68378100  0.12655000  1
  S  S10  1  0.62994000  0.18378100  0.62655000  1
  S  S11  1  0.37006000  0.81621900  0.37345000  1
  S  S12  1  0.19944100  0.60314800  0.59859300  1
  S  S13  1  0.80055900  0.39685200  0.40140700  1
  S  S14  1  0.69944100  0.89685200  0.90140700  1
  S  S15  1  0.30055900  0.10314800  0.09859300  1
  O  O16  1  0.78366700  0.03799600  0.96893300  1
  O  O17  1  0.21633300  0.96200400  0.03106700  1
  O  O18  1  0.28366700  0.46200400  0.53106700  1
  O  O19  1  0.71633300  0.53799600  0.46893300  1
  O  O20  1  0.20368000  0.17521200  0.76283600  1
  O  O21  1  0.79632000  0.82478800  0.23716400  1
  O  O22  1  0.70368000  0.32478800  0.73716400  1
  O  O23  1  0.29632000  0.67521200  0.26283600  1
  O  O24  1  0.30989300  0.72905900  0.67587400  1
  O  O25  1  0.69010700  0.27094100  0.32412600  1
  O  O26  1  0.80989300  0.77094100  0.82412600  1
  O  O27  1  0.19010700  0.22905900  0.17587400  1
  O  O28  1  0.38545800  0.11712100  0.97823100  1
  O  O29  1  0.61454200  0.88287900  0.02176900  1
  O  O30  1  0.88545800  0.38287900  0.52176900  1
  O  O31  1  0.11454200  0.61712100  0.47823100  1
  O  O32  1  0.09357200  0.94397200  0.76864100  1
  O  O33  1  0.90642800  0.05602800  0.23135900  1
  O  O34  1  0.59357200  0.55602800  0.73135900  1
  O  O35  1  0.40642800  0.44397200  0.26864100  1
  O  O36  1  0.25033300  0.42012600  0.98118000  1
  O  O37  1  0.74966700  0.57987400  0.01882000  1
  O  O38  1  0.75033300  0.07987400  0.51882000  1
  O  O39  1  0.24966700  0.92012600  0.48118000  1
  O  O40  1  0.01207700  0.29900500  0.97047900  1
  O  O41  1  0.98792300  0.70099500  0.02952100  1
  O  O42  1  0.51207700  0.20099500  0.52952100  1
  O  O43  1  0.48792300  0.79900500  0.47047900  1
  O  O44  1  0.05753300  0.38023100  0.78630600  1
  O  O45  1  0.94246700  0.61976900  0.21369400  1
  O  O46  1  0.55753300  0.11976900  0.71369400  1
  O  O47  1  0.44246700  0.88023100  0.28630600  1
  O  O48  1  0.58812200  0.88545100  0.78422400  1
  O  O49  1  0.41187800  0.11454900  0.21577600  1
  O  O50  1  0.08812200  0.61454900  0.71577600  1
  O  O51  1  0.91187800  0.38545100  0.28422400  1
