# generated using pymatgen
data_WN6
_symmetry_space_group_name_H-M   'P 1'
_cell_length_a   9.39548182
_cell_length_b   11.98936167
_cell_length_c   63.41983355
_cell_angle_alpha   90.00000000
_cell_angle_beta   90.00000000
_cell_angle_gamma   113.06815393
_symmetry_Int_Tables_number   1
_chemical_formula_structural   WN6
_chemical_formula_sum   'W1 N6'
_cell_volume   6572.74302321
_cell_formula_units_Z   1
loop_
 _symmetry_equiv_pos_site_id
 _symmetry_equiv_pos_as_xyz
  1  'x, y, z'
loop_
 _atom_site_type_symbol
 _atom_site_label
 _atom_site_symmetry_multiplicity
 _atom_site_fract_x
 _atom_site_fract_y
 _atom_site_fract_z
 _atom_site_occupancy
  W  W0  1  0.00000000  0.00000000  0.00000000  1
  N  N1  1  0.00000000  0.00000000  0.82300059  1
  N  N2  1  0.00000000  0.00000000  0.17699941  1
  N  N3  1  0.84234509  0.80906458  0.00000000  1
  N  N4  1  0.15765491  0.19093542  0.00000000  1
  N  N5  1  0.03328051  0.19093542  0.00000000  1
  N  N6  1  0.96671949  0.80906458  0.00000000  1
