# generated using pymatgen
data_Sr2YbCu2(BiO4)2
_symmetry_space_group_name_H-M   'P 1'
_cell_length_a   15.91360655
_cell_length_b   15.91360655
_cell_length_c   15.91360655
_cell_angle_alpha   166.54391827
_cell_angle_beta   166.54391827
_cell_angle_gamma   19.07402662
_symmetry_Int_Tables_number   1
_chemical_formula_structural   Sr2YbCu2(BiO4)2
_chemical_formula_sum   'Sr2 Yb1 Cu2 Bi2 O8'
_cell_volume   218.20082612
_cell_formula_units_Z   1
loop_
 _symmetry_equiv_pos_site_id
 _symmetry_equiv_pos_as_xyz
  1  'x, y, z'
loop_
 _atom_site_type_symbol
 _atom_site_label
 _atom_site_symmetry_multiplicity
 _atom_site_fract_x
 _atom_site_fract_y
 _atom_site_fract_z
 _atom_site_occupancy
  Sr  Sr0  1  0.10831500  0.10831500  0.00000000  1
  Sr  Sr1  1  0.89168500  0.89168500  0.00000000  1
  Yb  Yb2  1  0.00000000  0.00000000  0.00000000  1
  Cu  Cu3  1  0.45480900  0.45480900  0.00000000  1
  Cu  Cu4  1  0.54519100  0.54519100  0.00000000  1
  Bi  Bi5  1  0.30023800  0.30023800  0.00000000  1
  Bi  Bi6  1  0.69976200  0.69976200  0.00000000  1
  O  O7  1  0.54948100  0.04948100  0.50000000  1
  O  O8  1  0.45051900  0.95051900  0.50000000  1
  O  O9  1  0.04948100  0.54948100  0.50000000  1
  O  O10  1  0.95051900  0.45051900  0.50000000  1
  O  O11  1  0.19916800  0.19916800  0.00000000  1
  O  O12  1  0.80083200  0.80083200  0.00000000  1
  O  O13  1  0.36594300  0.36594300  0.00000000  1
  O  O14  1  0.63405700  0.63405700  0.00000000  1
