# generated using pymatgen
data_UMo2H2O9
_symmetry_space_group_name_H-M   'P 1'
_cell_length_a   18.51218654
_cell_length_b   18.51218654
_cell_length_c   11.57181104
_cell_angle_alpha   89.47012127
_cell_angle_beta   89.47012127
_cell_angle_gamma   21.11565853
_symmetry_Int_Tables_number   1
_chemical_formula_structural   UMo2H2O9
_chemical_formula_sum   'U6 Mo12 H12 O54'
_cell_volume   1428.57704565
_cell_formula_units_Z   6
loop_
 _symmetry_equiv_pos_site_id
 _symmetry_equiv_pos_as_xyz
  1  'x, y, z'
loop_
 _atom_site_type_symbol
 _atom_site_label
 _atom_site_symmetry_multiplicity
 _atom_site_fract_x
 _atom_site_fract_y
 _atom_site_fract_z
 _atom_site_occupancy
  U  U0  1  0.52744600  0.14063300  0.41849700  1
  U  U1  1  0.47255400  0.85936700  0.58150300  1
  U  U2  1  0.85936700  0.47255400  0.08150300  1
  U  U3  1  0.14063300  0.52744600  0.91849700  1
  U  U4  1  0.80379400  0.19620600  0.25000000  1
  U  U5  1  0.19620600  0.80379400  0.75000000  1
  Mo  Mo6  1  0.65635700  0.98593400  0.07443900  1
  Mo  Mo7  1  0.34364300  0.01406600  0.92556100  1
  Mo  Mo8  1  0.01406600  0.34364300  0.42556100  1
  Mo  Mo9  1  0.98593400  0.65635700  0.57443900  1
  Mo  Mo10  1  0.31840900  0.98879500  0.23923800  1
  Mo  Mo11  1  0.68159100  0.01120500  0.76076200  1
  Mo  Mo12  1  0.01120500  0.68159100  0.26076200  1
  Mo  Mo13  1  0.98879500  0.31840900  0.73923800  1
  Mo  Mo14  1  0.34613300  0.67908300  0.09249800  1
  Mo  Mo15  1  0.65386700  0.32091700  0.90750200  1
  Mo  Mo16  1  0.32091700  0.65386700  0.40750200  1
  Mo  Mo17  1  0.67908300  0.34613300  0.59249800  1
  H  H18  1  0.39153700  0.05679700  0.23375900  1
  H  H19  1  0.60846300  0.94320300  0.76624100  1
  H  H20  1  0.94320300  0.60846300  0.26624100  1
  H  H21  1  0.05679700  0.39153700  0.73375900  1
  H  H22  1  0.76262300  0.02154300  0.06641700  1
  H  H23  1  0.23737700  0.97845700  0.93358300  1
  H  H24  1  0.97845700  0.23737700  0.43358300  1
  H  H25  1  0.02154300  0.76262300  0.56641700  1
  H  H26  1  0.31155200  0.57002100  0.10274100  1
  H  H27  1  0.68844800  0.42997900  0.89725900  1
  H  H28  1  0.42997900  0.68844800  0.39725900  1
  H  H29  1  0.57002100  0.31155200  0.60274100  1
  O  O30  1  0.48082100  0.08883200  0.41212900  1
  O  O31  1  0.51917900  0.91116800  0.58787100  1
  O  O32  1  0.91116800  0.51917900  0.08787100  1
  O  O33  1  0.08883200  0.48082100  0.91212900  1
  O  O34  1  0.31615300  0.02261300  0.39686600  1
  O  O35  1  0.68384700  0.97738700  0.60313400  1
  O  O36  1  0.97738700  0.68384700  0.10313400  1
  O  O37  1  0.02261300  0.31615300  0.89686600  1
  O  O38  1  0.60495900  0.94361800  0.07905000  1
  O  O39  1  0.39504100  0.05638200  0.92095000  1
  O  O40  1  0.05638200  0.39504100  0.42095000  1
  O  O41  1  0.94361800  0.60495900  0.57905000  1
  O  O42  1  0.08534900  0.91538200  0.12639100  1
  O  O43  1  0.91465100  0.08461800  0.87360900  1
  O  O44  1  0.08461800  0.91465100  0.37360900  1
  O  O45  1  0.91538200  0.08534900  0.62639100  1
  O  O46  1  0.22951600  0.10232700  0.08216000  1
  O  O47  1  0.77048400  0.89767300  0.91784000  1
  O  O48  1  0.89767300  0.77048400  0.41784000  1
  O  O49  1  0.10232700  0.22951600  0.58216000  1
  O  O50  1  0.43456900  0.56543100  0.25000000  1
  O  O51  1  0.56543100  0.43456900  0.75000000  1
  O  O52  1  0.42190200  0.24704200  0.04230300  1
  O  O53  1  0.57809800  0.75295800  0.95769700  1
  O  O54  1  0.75295800  0.57809800  0.45769700  1
  O  O55  1  0.24704200  0.42190200  0.54230300  1
  O  O56  1  0.58684300  0.17964000  0.42574000  1
  O  O57  1  0.41315700  0.82036000  0.57426000  1
  O  O58  1  0.82036000  0.41315700  0.07426000  1
  O  O59  1  0.17964000  0.58684300  0.92574000  1
  O  O60  1  0.57973700  0.75133900  0.20566900  1
  O  O61  1  0.42026300  0.24866100  0.79433100  1
  O  O62  1  0.24866100  0.42026300  0.29433100  1
  O  O63  1  0.75133900  0.57973700  0.70566900  1
  O  O64  1  0.39050900  0.72832200  0.08301700  1
  O  O65  1  0.60949100  0.27167800  0.91698300  1
  O  O66  1  0.27167800  0.60949100  0.41698300  1
  O  O67  1  0.72832200  0.39050900  0.58301700  1
  O  O68  1  0.64327400  0.34920000  0.43565000  1
  O  O69  1  0.35672600  0.65080000  0.56435000  1
  O  O70  1  0.65080000  0.35672600  0.06435000  1
  O  O71  1  0.34920000  0.64327400  0.93565000  1
  O  O72  1  0.74712900  0.15455400  0.23875400  1
  O  O73  1  0.25287100  0.84544600  0.76124600  1
  O  O74  1  0.84544600  0.25287100  0.26124600  1
  O  O75  1  0.15455400  0.74712900  0.73875400  1
  O  O76  1  0.69054300  0.98085100  0.23321700  1
  O  O77  1  0.30945700  0.01914900  0.76678300  1
  O  O78  1  0.01914900  0.30945700  0.26678300  1
  O  O79  1  0.98085100  0.69054300  0.73321700  1
  O  O80  1  0.27148300  0.94205900  0.24822800  1
  O  O81  1  0.72851700  0.05794100  0.75177200  1
  O  O82  1  0.05794100  0.72851700  0.25177200  1
  O  O83  1  0.94205900  0.27148300  0.74822800  1
