# generated using pymatgen
data_Sr2YbGaCu2O7
_symmetry_space_group_name_H-M   'P 1'
_cell_length_a   12.21647703
_cell_length_b   12.21647703
_cell_length_c   12.21647703
_cell_angle_alpha   154.76898158
_cell_angle_beta   154.27567800
_cell_angle_gamma   36.34246707
_symmetry_Int_Tables_number   1
_chemical_formula_structural   Sr2YbGaCu2O7
_chemical_formula_sum   'Sr4 Yb2 Ga2 Cu4 O14'
_cell_volume   336.88776572
_cell_formula_units_Z   2
loop_
 _symmetry_equiv_pos_site_id
 _symmetry_equiv_pos_as_xyz
  1  'x, y, z'
loop_
 _atom_site_type_symbol
 _atom_site_label
 _atom_site_symmetry_multiplicity
 _atom_site_fract_x
 _atom_site_fract_y
 _atom_site_fract_z
 _atom_site_occupancy
  Sr  Sr0  1  0.63807200  0.65612500  0.99473500  1
  Sr  Sr1  1  0.36192800  0.35666300  0.01805300  1
  Sr  Sr2  1  0.16139000  0.15612500  0.01805300  1
  Sr  Sr3  1  0.83861000  0.85666300  0.99473500  1
  Yb  Yb4  1  0.00000000  0.00766200  0.00766200  1
  Yb  Yb5  1  0.50000000  0.50766200  0.00766200  1
  Ga  Ga6  1  0.18198400  0.80119400  0.48317800  1
  Ga  Ga7  1  0.81801600  0.30119400  0.61921100  1
  Cu  Cu8  1  0.57155000  0.07737300  0.50601600  1
  Cu  Cu9  1  0.42845000  0.93446600  0.50582300  1
  Cu  Cu10  1  0.07135700  0.57737300  0.50582300  1
  Cu  Cu11  1  0.92864300  0.43446600  0.50601600  1
  O  O12  1  0.13766900  0.15675000  0.79441900  1
  O  O13  1  0.86233100  0.65675000  0.01908100  1
  O  O14  1  0.63382100  0.16463900  0.44710200  1
  O  O15  1  0.36617900  0.81328100  0.53081800  1
  O  O16  1  0.21753700  0.66463900  0.53081800  1
  O  O17  1  0.78246300  0.31328100  0.44710200  1
  O  O18  1  0.31518900  0.32089800  0.50939100  1
  O  O19  1  0.68481100  0.19420200  0.00570800  1
  O  O20  1  0.31150700  0.82089800  0.00570800  1
  O  O21  1  0.68849300  0.69420200  0.50939100  1
  O  O22  1  0.81686300  0.82298600  0.50662500  1
  O  O23  1  0.18313700  0.68976200  0.00612200  1
  O  O24  1  0.81636100  0.32298600  0.00612200  1
  O  O25  1  0.18363900  0.18976200  0.50662500  1
