# generated using pymatgen
data_TbVO2
_symmetry_space_group_name_H-M   'P 1'
_cell_length_a   7.01053914
_cell_length_b   7.01053914
_cell_length_c   7.01053914
_cell_angle_alpha   107.67195528
_cell_angle_beta   107.67195528
_cell_angle_gamma   113.13298279
_symmetry_Int_Tables_number   1
_chemical_formula_structural   TbVO2
_chemical_formula_sum   'Tb4 V4 O8'
_cell_volume   264.41789660
_cell_formula_units_Z   4
loop_
 _symmetry_equiv_pos_site_id
 _symmetry_equiv_pos_as_xyz
  1  'x, y, z'
loop_
 _atom_site_type_symbol
 _atom_site_label
 _atom_site_symmetry_multiplicity
 _atom_site_fract_x
 _atom_site_fract_y
 _atom_site_fract_z
 _atom_site_occupancy
  Tb  Tb0  1  0.62500000  0.87500000  0.25000000  1
  Tb  Tb1  1  0.12500000  0.37500000  0.75000000  1
  Tb  Tb2  1  0.62500000  0.37500000  0.25000000  1
  Tb  Tb3  1  0.62500000  0.37500000  0.75000000  1
  V  V4  1  0.12500000  0.37500000  0.25000000  1
  V  V5  1  0.62500000  0.87500000  0.75000000  1
  V  V6  1  0.12500000  0.87500000  0.25000000  1
  V  V7  1  0.12500000  0.87500000  0.75000000  1
  O  O8  1  0.34799500  0.50646900  0.15847400  1
  O  O9  1  0.49353100  0.65200500  0.84152600  1
  O  O10  1  0.81047900  0.65200500  0.15847400  1
  O  O11  1  0.90200500  0.24353100  0.34152600  1
  O  O12  1  0.34799500  0.18952100  0.84152600  1
  O  O13  1  0.75646900  0.09799500  0.65847400  1
  O  O14  1  0.43952100  0.09799500  0.34152600  1
  O  O15  1  0.90200500  0.56047900  0.65847400  1
