# generated using pymatgen
data_TaS2N
_symmetry_space_group_name_H-M   'P 1'
_cell_length_a   3.35112442
_cell_length_b   3.35112442
_cell_length_c   17.64020700
_cell_angle_alpha   90.00000000
_cell_angle_beta   90.00000000
_cell_angle_gamma   120.00000829
_symmetry_Int_Tables_number   1
_chemical_formula_structural   TaS2N
_chemical_formula_sum   'Ta2 S4 N2'
_cell_volume   171.55973927
_cell_formula_units_Z   2
loop_
 _symmetry_equiv_pos_site_id
 _symmetry_equiv_pos_as_xyz
  1  'x, y, z'
loop_
 _atom_site_type_symbol
 _atom_site_label
 _atom_site_symmetry_multiplicity
 _atom_site_fract_x
 _atom_site_fract_y
 _atom_site_fract_z
 _atom_site_occupancy
  Ta  Ta0  1  0.66666700  0.33333300  0.91299900  1
  Ta  Ta1  1  0.33333300  0.66666700  0.41299900  1
  S  S2  1  0.00000000  0.00000000  0.00140800  1
  S  S3  1  0.00000000  0.00000000  0.50140800  1
  S  S4  1  0.00000000  0.00000000  0.82457000  1
  S  S5  1  0.00000000  0.00000000  0.32457000  1
  N  N6  1  0.66666700  0.33333300  0.66302300  1
  N  N7  1  0.33333300  0.66666700  0.16302300  1
