# generated using pymatgen
data_Ce2Mg
_symmetry_space_group_name_H-M   'P 1'
_cell_length_a   6.54344150
_cell_length_b   6.54344150
_cell_length_c   6.54344131
_cell_angle_alpha   52.44697078
_cell_angle_beta   52.44697078
_cell_angle_gamma   52.44696985
_symmetry_Int_Tables_number   1
_chemical_formula_structural   Ce2Mg
_chemical_formula_sum   'Ce4 Mg2'
_cell_volume   162.97557425
_cell_formula_units_Z   2
loop_
 _symmetry_equiv_pos_site_id
 _symmetry_equiv_pos_as_xyz
  1  'x, y, z'
loop_
 _atom_site_type_symbol
 _atom_site_label
 _atom_site_symmetry_multiplicity
 _atom_site_fract_x
 _atom_site_fract_y
 _atom_site_fract_z
 _atom_site_occupancy
  Ce  Ce0  1  0.00000000  0.69695600  0.30304400  1
  Ce  Ce1  1  0.69695600  0.30304400  0.00000000  1
  Ce  Ce2  1  0.50000000  0.50000000  0.50000000  1
  Ce  Ce3  1  0.30304400  0.00000000  0.69695600  1
  Mg  Mg4  1  0.82948900  0.82948900  0.82948900  1
  Mg  Mg5  1  0.17051100  0.17051100  0.17051100  1
