# generated using pymatgen
data_Te2As(SeF2)3
_symmetry_space_group_name_H-M   'P 1'
_cell_length_a   11.01415900
_cell_length_b   13.78104000
_cell_length_c   15.25456700
_cell_angle_alpha   90.00000000
_cell_angle_beta   90.00000000
_cell_angle_gamma   90.00000000
_symmetry_Int_Tables_number   1
_chemical_formula_structural   Te2As(SeF2)3
_chemical_formula_sum   'Te16 As8 Se24 F48'
_cell_volume   2315.43833686
_cell_formula_units_Z   8
loop_
 _symmetry_equiv_pos_site_id
 _symmetry_equiv_pos_as_xyz
  1  'x, y, z'
loop_
 _atom_site_type_symbol
 _atom_site_label
 _atom_site_symmetry_multiplicity
 _atom_site_fract_x
 _atom_site_fract_y
 _atom_site_fract_z
 _atom_site_occupancy
  Te  Te0  1  0.09996700  0.22836200  0.16838000  1
  Te  Te1  1  0.90003300  0.77163800  0.83162000  1
  Te  Te2  1  0.40003300  0.72836200  0.33162000  1
  Te  Te3  1  0.09996700  0.27163800  0.83162000  1
  Te  Te4  1  0.59996700  0.27163800  0.66838000  1
  Te  Te5  1  0.90003300  0.72836200  0.16838000  1
  Te  Te6  1  0.40003300  0.77163800  0.66838000  1
  Te  Te7  1  0.59996700  0.22836200  0.33162000  1
  Te  Te8  1  0.22919000  0.36349700  0.06668800  1
  Te  Te9  1  0.77081000  0.63650300  0.93331200  1
  Te  Te10  1  0.27081000  0.86349700  0.43331200  1
  Te  Te11  1  0.22919000  0.13650300  0.93331200  1
  Te  Te12  1  0.72919000  0.13650300  0.56668800  1
  Te  Te13  1  0.77081000  0.86349700  0.06668800  1
  Te  Te14  1  0.27081000  0.63650300  0.56668800  1
  Te  Te15  1  0.72919000  0.36349700  0.43331200  1
  As  As16  1  0.41200100  0.01860700  0.16992700  1
  As  As17  1  0.58799900  0.98139300  0.83007300  1
  As  As18  1  0.08799900  0.51860700  0.33007300  1
  As  As19  1  0.41200100  0.48139300  0.83007300  1
  As  As20  1  0.91200100  0.48139300  0.66992700  1
  As  As21  1  0.58799900  0.51860700  0.16992700  1
  As  As22  1  0.08799900  0.98139300  0.66992700  1
  As  As23  1  0.91200100  0.01860700  0.33007300  1
  Se  Se24  1  0.27340000  0.21019500  0.43058300  1
  Se  Se25  1  0.72660000  0.78980500  0.56941700  1
  Se  Se26  1  0.22660000  0.71019500  0.06941700  1
  Se  Se27  1  0.27340000  0.28980500  0.56941700  1
  Se  Se28  1  0.77340000  0.28980500  0.93058300  1
  Se  Se29  1  0.72660000  0.71019500  0.43058300  1
  Se  Se30  1  0.22660000  0.78980500  0.93058300  1
  Se  Se31  1  0.77340000  0.21019500  0.06941700  1
  Se  Se32  1  0.38570200  0.31300800  0.34206000  1
  Se  Se33  1  0.61429800  0.68699200  0.65794000  1
  Se  Se34  1  0.11429800  0.81300800  0.15794000  1
  Se  Se35  1  0.38570200  0.18699200  0.65794000  1
  Se  Se36  1  0.88570200  0.18699200  0.84206000  1
  Se  Se37  1  0.61429800  0.81300800  0.34206000  1
  Se  Se38  1  0.11429800  0.68699200  0.84206000  1
  Se  Se39  1  0.88570200  0.31300800  0.15794000  1
  Se  Se40  1  0.06352700  0.10242100  0.04004800  1
  Se  Se41  1  0.93647300  0.89757900  0.95995200  1
  Se  Se42  1  0.43647300  0.60242100  0.45995200  1
  Se  Se43  1  0.06352700  0.39757900  0.95995200  1
  Se  Se44  1  0.56352700  0.39757900  0.54004800  1
  Se  Se45  1  0.93647300  0.60242100  0.04004800  1
  Se  Se46  1  0.43647300  0.89757900  0.54004800  1
  Se  Se47  1  0.56352700  0.10242100  0.45995200  1
  F  F48  1  0.26190600  0.02043600  0.21249700  1
  F  F49  1  0.73809400  0.97956400  0.78750300  1
  F  F50  1  0.23809400  0.52043600  0.28750300  1
  F  F51  1  0.26190600  0.47956400  0.78750300  1
  F  F52  1  0.76190600  0.47956400  0.71249700  1
  F  F53  1  0.73809400  0.52043600  0.21249700  1
  F  F54  1  0.23809400  0.97956400  0.71249700  1
  F  F55  1  0.76190600  0.02043600  0.28750300  1
  F  F56  1  0.06229900  0.01579200  0.36955500  1
  F  F57  1  0.93770100  0.98420800  0.63044500  1
  F  F58  1  0.43770100  0.51579200  0.13044500  1
  F  F59  1  0.06229900  0.48420800  0.63044500  1
  F  F60  1  0.56229900  0.48420800  0.86955500  1
  F  F61  1  0.93770100  0.51579200  0.36955500  1
  F  F62  1  0.43770100  0.98420800  0.86955500  1
  F  F63  1  0.56229900  0.01579200  0.13044500  1
  F  F64  1  0.39923000  0.14365200  0.14258200  1
  F  F65  1  0.60077000  0.85634800  0.85741800  1
  F  F66  1  0.10077000  0.64365200  0.35741800  1
  F  F67  1  0.39923000  0.35634800  0.85741800  1
  F  F68  1  0.89923000  0.35634800  0.64258200  1
  F  F69  1  0.60077000  0.64365200  0.14258200  1
  F  F70  1  0.10077000  0.85634800  0.64258200  1
  F  F71  1  0.89923000  0.14365200  0.35741800  1
  F  F72  1  0.07556200  0.39321100  0.30040900  1
  F  F73  1  0.92443800  0.60678900  0.69959100  1
  F  F74  1  0.42443800  0.89321100  0.19959100  1
  F  F75  1  0.07556200  0.10678900  0.69959100  1
  F  F76  1  0.57556200  0.10678900  0.80040900  1
  F  F77  1  0.92443800  0.89321100  0.30040900  1
  F  F78  1  0.42443800  0.60678900  0.80040900  1
  F  F79  1  0.57556200  0.39321100  0.19959100  1
  F  F80  1  0.46686000  0.05138300  0.27660200  1
  F  F81  1  0.53314000  0.94861700  0.72339800  1
  F  F82  1  0.03314000  0.55138300  0.22339800  1
  F  F83  1  0.46686000  0.44861700  0.72339800  1
  F  F84  1  0.96686000  0.44861700  0.77660200  1
  F  F85  1  0.53314000  0.55138300  0.27660200  1
  F  F86  1  0.03314000  0.94861700  0.77660200  1
  F  F87  1  0.96686000  0.05138300  0.22339800  1
  F  F88  1  0.14465800  0.01458300  0.56517000  1
  F  F89  1  0.85534200  0.98541700  0.43483000  1
  F  F90  1  0.35534200  0.51458300  0.93483000  1
  F  F91  1  0.14465800  0.48541700  0.43483000  1
  F  F92  1  0.64465800  0.48541700  0.06517000  1
  F  F93  1  0.85534200  0.51458300  0.56517000  1
  F  F94  1  0.35534200  0.98541700  0.06517000  1
  F  F95  1  0.64465800  0.01458300  0.93483000  1
