# generated using pymatgen
data_RbHfMg30O31
_symmetry_space_group_name_H-M   'P 1'
_cell_length_a   8.73324000
_cell_length_b   8.73324000
_cell_length_c   8.60869100
_cell_angle_alpha   90.00000000
_cell_angle_beta   90.00000000
_cell_angle_gamma   90.00000000
_symmetry_Int_Tables_number   1
_chemical_formula_structural   RbHfMg30O31
_chemical_formula_sum   'Rb1 Hf1 Mg30 O31'
_cell_volume   656.58039378
_cell_formula_units_Z   1
loop_
 _symmetry_equiv_pos_site_id
 _symmetry_equiv_pos_as_xyz
  1  'x, y, z'
loop_
 _atom_site_type_symbol
 _atom_site_label
 _atom_site_symmetry_multiplicity
 _atom_site_fract_x
 _atom_site_fract_y
 _atom_site_fract_z
 _atom_site_occupancy
  Rb  Rb0  1  0.00000000  0.00000000  0.01923900  1
  Hf  Hf1  1  0.50000000  0.50000000  0.99949200  1
  Mg  Mg2  1  0.50000000  0.00000000  0.99819300  1
  Mg  Mg3  1  0.00000000  0.50000000  0.99819300  1
  Mg  Mg4  1  0.00000000  0.00000000  0.49007900  1
  Mg  Mg5  1  0.50000000  0.00000000  0.50225100  1
  Mg  Mg6  1  0.00000000  0.50000000  0.50225100  1
  Mg  Mg7  1  0.50000000  0.50000000  0.50026600  1
  Mg  Mg8  1  0.24540200  0.24540200  0.99964900  1
  Mg  Mg9  1  0.75459800  0.24540200  0.99964900  1
  Mg  Mg10  1  0.24540200  0.75459800  0.99964900  1
  Mg  Mg11  1  0.75459800  0.75459800  0.99964900  1
  Mg  Mg12  1  0.24819800  0.24819800  0.50042600  1
  Mg  Mg13  1  0.75180200  0.24819800  0.50042600  1
  Mg  Mg14  1  0.24819800  0.75180200  0.50042600  1
  Mg  Mg15  1  0.75180200  0.75180200  0.50042600  1
  Mg  Mg16  1  0.25836300  0.00000000  0.25609600  1
  Mg  Mg17  1  0.74163700  0.00000000  0.25609600  1
  Mg  Mg18  1  0.24462200  0.50000000  0.25640200  1
  Mg  Mg19  1  0.75537800  0.50000000  0.25640200  1
  Mg  Mg20  1  0.24944300  0.00000000  0.74712300  1
  Mg  Mg21  1  0.75055700  0.00000000  0.74712300  1
  Mg  Mg22  1  0.24260200  0.50000000  0.74355000  1
  Mg  Mg23  1  0.75739800  0.50000000  0.74355000  1
  Mg  Mg24  1  0.00000000  0.25836300  0.25609600  1
  Mg  Mg25  1  0.50000000  0.24462200  0.25640200  1
  Mg  Mg26  1  0.00000000  0.74163700  0.25609600  1
  Mg  Mg27  1  0.50000000  0.75537800  0.25640200  1
  Mg  Mg28  1  0.00000000  0.24944300  0.74712300  1
  Mg  Mg29  1  0.50000000  0.24260200  0.74355000  1
  Mg  Mg30  1  0.00000000  0.75055700  0.74712300  1
  Mg  Mg31  1  0.50000000  0.75739800  0.74355000  1
  O  O32  1  0.50000000  0.00000000  0.25445700  1
  O  O33  1  0.00000000  0.50000000  0.25445700  1
  O  O34  1  0.50000000  0.50000000  0.24657500  1
  O  O35  1  0.00000000  0.00000000  0.72392200  1
  O  O36  1  0.50000000  0.00000000  0.74645200  1
  O  O37  1  0.00000000  0.50000000  0.74645200  1
  O  O38  1  0.50000000  0.50000000  0.75328300  1
  O  O39  1  0.25274100  0.25274100  0.24820400  1
  O  O40  1  0.74725900  0.25274100  0.24820400  1
  O  O41  1  0.25274100  0.74725900  0.24820400  1
  O  O42  1  0.74725900  0.74725900  0.24820400  1
  O  O43  1  0.25087100  0.25087100  0.75158200  1
  O  O44  1  0.74912900  0.25087100  0.75158200  1
  O  O45  1  0.25087100  0.74912900  0.75158200  1
  O  O46  1  0.74912900  0.74912900  0.75158200  1
  O  O47  1  0.27931500  0.00000000  0.99908200  1
  O  O48  1  0.72068500  0.00000000  0.99908200  1
  O  O49  1  0.25905700  0.50000000  0.99996000  1
  O  O50  1  0.74094300  0.50000000  0.99996000  1
  O  O51  1  0.25848600  0.00000000  0.50158500  1
  O  O52  1  0.74151400  0.00000000  0.50158500  1
  O  O53  1  0.25292100  0.50000000  0.49995200  1
  O  O54  1  0.74707900  0.50000000  0.49995200  1
  O  O55  1  0.00000000  0.27931500  0.99908200  1
  O  O56  1  0.50000000  0.25905700  0.99996000  1
  O  O57  1  0.00000000  0.72068500  0.99908200  1
  O  O58  1  0.50000000  0.74094300  0.99996000  1
  O  O59  1  0.00000000  0.25848600  0.50158500  1
  O  O60  1  0.50000000  0.25292100  0.49995200  1
  O  O61  1  0.00000000  0.74151400  0.50158500  1
  O  O62  1  0.50000000  0.74707900  0.49995200  1
