# generated using pymatgen
data_TaN3O8
_symmetry_space_group_name_H-M   'P 1'
_cell_length_a   6.44099644
_cell_length_b   6.44099644
_cell_length_c   6.44099644
_cell_angle_alpha   114.06195494
_cell_angle_beta   114.06195494
_cell_angle_gamma   100.63498641
_symmetry_Int_Tables_number   1
_chemical_formula_structural   TaN3O8
_chemical_formula_sum   'Ta1 N3 O8'
_cell_volume   202.11400004
_cell_formula_units_Z   1
loop_
 _symmetry_equiv_pos_site_id
 _symmetry_equiv_pos_as_xyz
  1  'x, y, z'
loop_
 _atom_site_type_symbol
 _atom_site_label
 _atom_site_symmetry_multiplicity
 _atom_site_fract_x
 _atom_site_fract_y
 _atom_site_fract_z
 _atom_site_occupancy
  Ta  Ta0  1  0.00000000  0.00000000  0.00000000  1
  N  N1  1  0.75000000  0.25000000  0.50000000  1
  N  N2  1  0.25000000  0.75000000  0.50000000  1
  N  N3  1  0.50000000  0.50000000  0.00000000  1
  O  O4  1  0.21322600  0.21322600  0.41454700  1
  O  O5  1  0.79867900  0.79867900  0.58545300  1
  O  O6  1  0.78677400  0.20132100  0.00000000  1
  O  O7  1  0.20132100  0.78677400  0.00000000  1
  O  O8  1  0.32086800  0.32086800  0.31354700  1
  O  O9  1  0.00732100  0.00732100  0.68645300  1
  O  O10  1  0.67913200  0.99267900  0.00000000  1
  O  O11  1  0.99267900  0.67913200  0.00000000  1
