# generated using pymatgen
data_Tb2Fe17H3
_symmetry_space_group_name_H-M   'P 1'
_cell_length_a   8.21656000
_cell_length_b   8.54646319
_cell_length_c   8.54646319
_cell_angle_alpha   119.99999372
_cell_angle_beta   90.00000000
_cell_angle_gamma   90.00000000
_symmetry_Int_Tables_number   1
_chemical_formula_structural   Tb2Fe17H3
_chemical_formula_sum   'Tb4 Fe34 H6'
_cell_volume   519.74885697
_cell_formula_units_Z   2
loop_
 _symmetry_equiv_pos_site_id
 _symmetry_equiv_pos_as_xyz
  1  'x, y, z'
loop_
 _atom_site_type_symbol
 _atom_site_label
 _atom_site_symmetry_multiplicity
 _atom_site_fract_x
 _atom_site_fract_y
 _atom_site_fract_z
 _atom_site_occupancy
  Tb  Tb0  1  0.75000000  0.66666700  0.33333300  1
  Tb  Tb1  1  0.25000000  0.33333300  0.66666700  1
  Tb  Tb2  1  0.75000000  0.00000000  0.00000000  1
  Tb  Tb3  1  0.25000000  0.00000000  0.00000000  1
  Fe  Fe4  1  0.75000000  0.62279400  0.67112400  1
  Fe  Fe5  1  0.25000000  0.37720600  0.32887600  1
  Fe  Fe6  1  0.75000000  0.04832900  0.37720600  1
  Fe  Fe7  1  0.25000000  0.95167100  0.32887600  1
  Fe  Fe8  1  0.25000000  0.95167100  0.62279400  1
  Fe  Fe9  1  0.75000000  0.04832900  0.67112400  1
  Fe  Fe10  1  0.75000000  0.32887600  0.95167100  1
  Fe  Fe11  1  0.25000000  0.67112400  0.62279400  1
  Fe  Fe12  1  0.25000000  0.67112400  0.04832900  1
  Fe  Fe13  1  0.75000000  0.32887600  0.37720600  1
  Fe  Fe14  1  0.25000000  0.37720600  0.04832900  1
  Fe  Fe15  1  0.75000000  0.62279400  0.95167100  1
  Fe  Fe16  1  0.39478800  0.66666700  0.33333300  1
  Fe  Fe17  1  0.60521200  0.33333300  0.66666700  1
  Fe  Fe18  1  0.89478800  0.33333300  0.66666700  1
  Fe  Fe19  1  0.10521200  0.66666700  0.33333300  1
  Fe  Fe20  1  0.98453800  0.83337100  0.16662900  1
  Fe  Fe21  1  0.01546200  0.16662900  0.83337100  1
  Fe  Fe22  1  0.98453800  0.33325800  0.16662900  1
  Fe  Fe23  1  0.48453800  0.16662900  0.83337100  1
  Fe  Fe24  1  0.01546200  0.66674200  0.83337100  1
  Fe  Fe25  1  0.51546200  0.83337100  0.16662900  1
  Fe  Fe26  1  0.98453800  0.83337100  0.66674200  1
  Fe  Fe27  1  0.48453800  0.66674200  0.83337100  1
  Fe  Fe28  1  0.01546200  0.16662900  0.33325800  1
  Fe  Fe29  1  0.51546200  0.33325800  0.16662900  1
  Fe  Fe30  1  0.48453800  0.16662900  0.33325800  1
  Fe  Fe31  1  0.51546200  0.83337100  0.66674200  1
  Fe  Fe32  1  0.00000000  0.50000000  0.50000000  1
  Fe  Fe33  1  0.00000000  0.00000000  0.50000000  1
  Fe  Fe34  1  0.50000000  0.50000000  0.50000000  1
  Fe  Fe35  1  0.00000000  0.50000000  0.00000000  1
  Fe  Fe36  1  0.50000000  0.00000000  0.50000000  1
  Fe  Fe37  1  0.50000000  0.50000000  0.00000000  1
  H  H38  1  0.75000000  0.83512000  0.16488000  1
  H  H39  1  0.25000000  0.16488000  0.83512000  1
  H  H40  1  0.75000000  0.32976000  0.16488000  1
  H  H41  1  0.25000000  0.67024000  0.83512000  1
  H  H42  1  0.75000000  0.83512000  0.67024000  1
  H  H43  1  0.25000000  0.16488000  0.32976000  1
