# generated using pymatgen
data_ZnSeO10
_symmetry_space_group_name_H-M   'P 1'
_cell_length_a   7.95318800
_cell_length_b   7.95318800
_cell_length_c   13.88258600
_cell_angle_alpha   90.00000000
_cell_angle_beta   90.00000000
_cell_angle_gamma   90.00000000
_symmetry_Int_Tables_number   1
_chemical_formula_structural   ZnSeO10
_chemical_formula_sum   'Zn4 Se4 O40'
_cell_volume   878.11797994
_cell_formula_units_Z   4
loop_
 _symmetry_equiv_pos_site_id
 _symmetry_equiv_pos_as_xyz
  1  'x, y, z'
loop_
 _atom_site_type_symbol
 _atom_site_label
 _atom_site_symmetry_multiplicity
 _atom_site_fract_x
 _atom_site_fract_y
 _atom_site_fract_z
 _atom_site_occupancy
  Zn  Zn0  1  0.61828900  0.61828900  0.00000000  1
  Zn  Zn1  1  0.38171100  0.38171100  0.50000000  1
  Zn  Zn2  1  0.88171100  0.11828900  0.25000000  1
  Zn  Zn3  1  0.11828900  0.88171100  0.75000000  1
  Se  Se4  1  0.20920400  0.20920400  0.00000000  1
  Se  Se5  1  0.79079600  0.79079600  0.50000000  1
  Se  Se6  1  0.29079600  0.70920400  0.25000000  1
  Se  Se7  1  0.70920400  0.29079600  0.75000000  1
  O  O8  1  0.13197000  0.17306800  0.33772900  1
  O  O9  1  0.86803000  0.82693200  0.83772900  1
  O  O10  1  0.32693200  0.63197000  0.58772900  1
  O  O11  1  0.36803000  0.67306800  0.91227100  1
  O  O12  1  0.67306800  0.36803000  0.08772900  1
  O  O13  1  0.63197000  0.32693200  0.41227100  1
  O  O14  1  0.17306800  0.13197000  0.66227100  1
  O  O15  1  0.82693200  0.86803000  0.16227100  1
  O  O16  1  0.10515800  0.12091800  0.11219800  1
  O  O17  1  0.89484200  0.87908200  0.61219800  1
  O  O18  1  0.37908200  0.60515800  0.36219800  1
  O  O19  1  0.39484200  0.62091800  0.13780200  1
  O  O20  1  0.62091800  0.39484200  0.86219800  1
  O  O21  1  0.60515800  0.37908200  0.63780200  1
  O  O22  1  0.12091800  0.10515800  0.88780200  1
  O  O23  1  0.87908200  0.89484200  0.38780200  1
  O  O24  1  0.40402000  0.15059900  0.01019200  1
  O  O25  1  0.59598000  0.84940100  0.51019200  1
  O  O26  1  0.34940100  0.90402000  0.26019200  1
  O  O27  1  0.09598000  0.65059900  0.23980800  1
  O  O28  1  0.65059900  0.09598000  0.76019200  1
  O  O29  1  0.90402000  0.34940100  0.73980800  1
  O  O30  1  0.15059900  0.40402000  0.98980800  1
  O  O31  1  0.84940100  0.59598000  0.48980800  1
  O  O32  1  0.18146200  0.08944400  0.40765700  1
  O  O33  1  0.81853800  0.91055600  0.90765700  1
  O  O34  1  0.41055600  0.68146200  0.65765700  1
  O  O35  1  0.31853800  0.58944400  0.84234300  1
  O  O36  1  0.58944400  0.31853800  0.15765700  1
  O  O37  1  0.68146200  0.41055600  0.34234300  1
  O  O38  1  0.08944400  0.18146200  0.59234300  1
  O  O39  1  0.91055600  0.81853800  0.09234300  1
  O  O40  1  0.26393500  0.47908900  0.39813000  1
  O  O41  1  0.73606500  0.52091100  0.89813000  1
  O  O42  1  0.02091100  0.76393500  0.64813000  1
  O  O43  1  0.23606500  0.97908900  0.85187000  1
  O  O44  1  0.97908900  0.23606500  0.14813000  1
  O  O45  1  0.76393500  0.02091100  0.35187000  1
  O  O46  1  0.47908900  0.26393500  0.60187000  1
  O  O47  1  0.52091100  0.73606500  0.10187000  1
