# generated using pymatgen
data_CeMg2
_symmetry_space_group_name_H-M   'P 1'
_cell_length_a   6.59137225
_cell_length_b   6.59137225
_cell_length_c   7.86850672
_cell_angle_alpha   72.22347634
_cell_angle_beta   72.22347634
_cell_angle_gamma   27.91099063
_symmetry_Int_Tables_number   1
_chemical_formula_structural   CeMg2
_chemical_formula_sum   'Ce2 Mg4'
_cell_volume   151.89807676
_cell_formula_units_Z   2
loop_
 _symmetry_equiv_pos_site_id
 _symmetry_equiv_pos_as_xyz
  1  'x, y, z'
loop_
 _atom_site_type_symbol
 _atom_site_label
 _atom_site_symmetry_multiplicity
 _atom_site_fract_x
 _atom_site_fract_y
 _atom_site_fract_z
 _atom_site_occupancy
  Ce  Ce0  1  0.59714800  0.59714800  0.30650300  1
  Ce  Ce1  1  0.95842900  0.95842900  0.58119300  1
  Mg  Mg2  1  0.99591500  0.99591500  0.99726400  1
  Mg  Mg3  1  0.32985600  0.32985600  0.32379800  1
  Mg  Mg4  1  0.67398500  0.67398500  0.67810500  1
  Mg  Mg5  1  0.27800100  0.27800100  0.94646900  1
