# generated using pymatgen
data_SrTi(PO4)2
_symmetry_space_group_name_H-M   'P 1'
_cell_length_a   4.85576648
_cell_length_b   4.85576648
_cell_length_c   7.45585311
_cell_angle_alpha   87.29094989
_cell_angle_beta   87.29094989
_cell_angle_gamma   65.70998859
_symmetry_Int_Tables_number   1
_chemical_formula_structural   SrTi(PO4)2
_chemical_formula_sum   'Sr1 Ti1 P2 O8'
_cell_volume   159.98129044
_cell_formula_units_Z   1
loop_
 _symmetry_equiv_pos_site_id
 _symmetry_equiv_pos_as_xyz
  1  'x, y, z'
loop_
 _atom_site_type_symbol
 _atom_site_label
 _atom_site_symmetry_multiplicity
 _atom_site_fract_x
 _atom_site_fract_y
 _atom_site_fract_z
 _atom_site_occupancy
  Sr  Sr0  1  0.00000000  0.00000000  0.50000000  1
  Ti  Ti1  1  0.00000000  0.00000000  0.00000000  1
  P  P2  1  0.36478100  0.36478100  0.78357500  1
  P  P3  1  0.63521900  0.63521900  0.21642500  1
  O  O4  1  0.30094500  0.30094500  0.59650800  1
  O  O5  1  0.69905500  0.69905500  0.40349200  1
  O  O6  1  0.71495600  0.23191400  0.80787600  1
  O  O7  1  0.28504400  0.76808600  0.19212400  1
  O  O8  1  0.76808600  0.28504400  0.19212400  1
  O  O9  1  0.23191400  0.71495600  0.80787600  1
  O  O10  1  0.22896400  0.22896400  0.93766100  1
  O  O11  1  0.77103600  0.77103600  0.06233900  1
