# generated using pymatgen
data_RbHfMg30O31
_symmetry_space_group_name_H-M   'P 1'
_cell_length_a   8.69233800
_cell_length_b   8.69963400
_cell_length_c   8.70256000
_cell_angle_alpha   90.00000000
_cell_angle_beta   90.00000000
_cell_angle_gamma   90.00000000
_symmetry_Int_Tables_number   1
_chemical_formula_structural   RbHfMg30O31
_chemical_formula_sum   'Rb1 Hf1 Mg30 O31'
_cell_volume   658.08897268
_cell_formula_units_Z   1
loop_
 _symmetry_equiv_pos_site_id
 _symmetry_equiv_pos_as_xyz
  1  'x, y, z'
loop_
 _atom_site_type_symbol
 _atom_site_label
 _atom_site_symmetry_multiplicity
 _atom_site_fract_x
 _atom_site_fract_y
 _atom_site_fract_z
 _atom_site_occupancy
  Rb  Rb0  1  0.00000000  0.00000000  0.00021300  1
  Hf  Hf1  1  0.50000000  0.50000000  0.00053500  1
  Mg  Mg2  1  0.50000000  0.00000000  0.00316000  1
  Mg  Mg3  1  0.00000000  0.50000000  0.00010400  1
  Mg  Mg4  1  0.00000000  0.00000000  0.49969500  1
  Mg  Mg5  1  0.50000000  0.00000000  0.49868000  1
  Mg  Mg6  1  0.00000000  0.50000000  0.49992800  1
  Mg  Mg7  1  0.50000000  0.50000000  0.49914200  1
  Mg  Mg8  1  0.75450700  0.75454000  0.99979700  1
  Mg  Mg9  1  0.24549300  0.75454000  0.99979700  1
  Mg  Mg10  1  0.75450700  0.24546000  0.99979700  1
  Mg  Mg11  1  0.24549300  0.24546000  0.99979700  1
  Mg  Mg12  1  0.75154000  0.75170800  0.50013200  1
  Mg  Mg13  1  0.24846000  0.75170800  0.50013200  1
  Mg  Mg14  1  0.75154000  0.24829200  0.50013200  1
  Mg  Mg15  1  0.24846000  0.24829200  0.50013200  1
  Mg  Mg16  1  0.75096400  0.00000000  0.74558100  1
  Mg  Mg17  1  0.24903600  0.00000000  0.74558100  1
  Mg  Mg18  1  0.75747700  0.50000000  0.74382200  1
  Mg  Mg19  1  0.24252300  0.50000000  0.74382200  1
  Mg  Mg20  1  0.74946300  0.00000000  0.25408300  1
  Mg  Mg21  1  0.25053700  0.00000000  0.25408300  1
  Mg  Mg22  1  0.75710700  0.50000000  0.25634700  1
  Mg  Mg23  1  0.24289300  0.50000000  0.25634700  1
  Mg  Mg24  1  0.00000000  0.74799900  0.74606300  1
  Mg  Mg25  1  0.50000000  0.75533200  0.74317000  1
  Mg  Mg26  1  0.00000000  0.25200100  0.74606300  1
  Mg  Mg27  1  0.50000000  0.24466800  0.74317000  1
  Mg  Mg28  1  0.00000000  0.74868500  0.25403000  1
  Mg  Mg29  1  0.50000000  0.75630500  0.25608100  1
  Mg  Mg30  1  0.00000000  0.25131500  0.25403000  1
  Mg  Mg31  1  0.50000000  0.24369500  0.25608100  1
  O  O32  1  0.00000000  0.00000000  0.72107600  1
  O  O33  1  0.00000000  0.50000000  0.74589600  1
  O  O34  1  0.50000000  0.50000000  0.75534200  1
  O  O35  1  0.00000000  0.00000000  0.27871300  1
  O  O36  1  0.50000000  0.00000000  0.25393800  1
  O  O37  1  0.00000000  0.50000000  0.25405500  1
  O  O38  1  0.50000000  0.50000000  0.24512800  1
  O  O39  1  0.75025100  0.74797100  0.75171600  1
  O  O40  1  0.24974900  0.74797100  0.75171600  1
  O  O41  1  0.75025100  0.25202900  0.75171600  1
  O  O42  1  0.24974900  0.25202900  0.75171600  1
  O  O43  1  0.74888700  0.74929700  0.24817300  1
  O  O44  1  0.25111300  0.74929700  0.24817300  1
  O  O45  1  0.74888700  0.25070300  0.24817300  1
  O  O46  1  0.25111300  0.25070300  0.24817300  1
  O  O47  1  0.72044100  0.00000000  0.99960200  1
  O  O48  1  0.27955900  0.00000000  0.99960200  1
  O  O49  1  0.74085800  0.50000000  0.99970500  1
  O  O50  1  0.25914200  0.50000000  0.99970500  1
  O  O51  1  0.74478400  0.00000000  0.49905400  1
  O  O52  1  0.25521600  0.00000000  0.49905400  1
  O  O53  1  0.74695200  0.50000000  0.50017100  1
  O  O54  1  0.25304800  0.50000000  0.50017100  1
  O  O55  1  0.00000000  0.72044900  0.99984100  1
  O  O56  1  0.50000000  0.74049500  0.00126600  1
  O  O57  1  0.00000000  0.27955100  0.99984100  1
  O  O58  1  0.50000000  0.25950500  0.00126600  1
  O  O59  1  0.00000000  0.74392600  0.50012200  1
  O  O60  1  0.50000000  0.74574800  0.49862200  1
  O  O61  1  0.00000000  0.25607400  0.50012200  1
  O  O62  1  0.50000000  0.25425200  0.49862200  1
