# generated using pymatgen
data_Zn12SiNi4
_symmetry_space_group_name_H-M   'P 1'
_cell_length_a   22.62294329
_cell_length_b   22.62294329
_cell_length_c   22.62294329
_cell_angle_alpha   60.00000000
_cell_angle_beta   60.00000000
_cell_angle_gamma   60.00000000
_symmetry_Int_Tables_number   1
_chemical_formula_structural   Zn12SiNi4
_chemical_formula_sum   'Zn24 Si2 Ni8'
_cell_volume   8187.14199357
_cell_formula_units_Z   2
loop_
 _symmetry_equiv_pos_site_id
 _symmetry_equiv_pos_as_xyz
  1  'x, y, z'
loop_
 _atom_site_type_symbol
 _atom_site_label
 _atom_site_symmetry_multiplicity
 _atom_site_fract_x
 _atom_site_fract_y
 _atom_site_fract_z
 _atom_site_occupancy
  Zn  Zn0  1  0.56028554  0.56028554  0.18998883  1
  Zn  Zn1  1  0.68944008  0.18998883  0.56028554  1
  Zn  Zn2  1  0.18998883  0.68944008  0.56028554  1
  Zn  Zn3  1  0.56028554  0.18998883  0.56028554  1
  Zn  Zn4  1  0.06055992  0.18971446  0.56001117  1
  Zn  Zn5  1  0.18971446  0.18971446  0.56001117  1
  Zn  Zn6  1  0.56028554  0.56028554  0.68944008  1
  Zn  Zn7  1  0.18998883  0.56028554  0.68944008  1
  Zn  Zn8  1  0.18971446  0.56001117  0.18971446  1
  Zn  Zn9  1  0.06055992  0.56001117  0.18971446  1
  Zn  Zn10  1  0.68944008  0.56028554  0.18998883  1
  Zn  Zn11  1  0.18971446  0.06055992  0.18971446  1
  Zn  Zn12  1  0.56001117  0.06055992  0.18971446  1
  Zn  Zn13  1  0.56028554  0.68944008  0.56028554  1
  Zn  Zn14  1  0.56001117  0.18971446  0.06055992  1
  Zn  Zn15  1  0.18971446  0.18971446  0.06055992  1
  Zn  Zn16  1  0.18998883  0.56028554  0.56028554  1
  Zn  Zn17  1  0.56028554  0.18998883  0.68944008  1
  Zn  Zn18  1  0.68944008  0.56028554  0.56028554  1
  Zn  Zn19  1  0.56028554  0.68944008  0.18998883  1
  Zn  Zn20  1  0.18971446  0.56001117  0.06055992  1
  Zn  Zn21  1  0.56001117  0.18971446  0.18971446  1
  Zn  Zn22  1  0.18971446  0.06055992  0.56001117  1
  Zn  Zn23  1  0.06055992  0.18971446  0.18971446  1
  Si  Si24  1  -0.00000000  -0.00000000  0.00000000  1
  Si  Si25  1  0.75000000  0.75000000  0.75000000  1
  Ni  Ni26  1  0.78786529  0.78786529  0.78786529  1
  Ni  Ni27  1  0.63640414  0.78786529  0.78786529  1
  Ni  Ni28  1  0.78786529  0.63640414  0.78786529  1
  Ni  Ni29  1  0.11359586  0.96213471  0.96213471  1
  Ni  Ni30  1  0.96213471  0.96213471  0.96213471  1
  Ni  Ni31  1  0.78786529  0.78786529  0.63640414  1
  Ni  Ni32  1  0.96213471  0.11359586  0.96213471  1
  Ni  Ni33  1  0.96213471  0.96213471  0.11359586  1
