# generated using pymatgen
data_RbMg30BO32
_symmetry_space_group_name_H-M   'P 1'
_cell_length_a   8.75714800
_cell_length_b   8.75714800
_cell_length_c   8.35961500
_cell_angle_alpha   90.00000000
_cell_angle_beta   90.00000000
_cell_angle_gamma   90.00000000
_symmetry_Int_Tables_number   1
_chemical_formula_structural   RbMg30BO32
_chemical_formula_sum   'Rb1 Mg30 B1 O32'
_cell_volume   641.07915480
_cell_formula_units_Z   1
loop_
 _symmetry_equiv_pos_site_id
 _symmetry_equiv_pos_as_xyz
  1  'x, y, z'
loop_
 _atom_site_type_symbol
 _atom_site_label
 _atom_site_symmetry_multiplicity
 _atom_site_fract_x
 _atom_site_fract_y
 _atom_site_fract_z
 _atom_site_occupancy
  Rb  Rb0  1  0.00000000  0.00000000  0.00000000  1
  Mg  Mg1  1  0.50000000  0.00000000  0.00000000  1
  Mg  Mg2  1  0.50000000  0.00000000  0.50000000  1
  Mg  Mg3  1  0.00000000  0.50000000  0.00000000  1
  Mg  Mg4  1  0.00000000  0.50000000  0.50000000  1
  Mg  Mg5  1  0.50000000  0.50000000  0.00000000  1
  Mg  Mg6  1  0.50000000  0.50000000  0.50000000  1
  Mg  Mg7  1  0.26565000  0.00000000  0.25581000  1
  Mg  Mg8  1  0.26565000  0.00000000  0.74419000  1
  Mg  Mg9  1  0.73435000  0.00000000  0.25581000  1
  Mg  Mg10  1  0.73435000  0.00000000  0.74419000  1
  Mg  Mg11  1  0.25169600  0.50000000  0.25065800  1
  Mg  Mg12  1  0.25169600  0.50000000  0.74934200  1
  Mg  Mg13  1  0.74830400  0.50000000  0.25065800  1
  Mg  Mg14  1  0.74830400  0.50000000  0.74934200  1
  Mg  Mg15  1  0.00000000  0.26565000  0.25581000  1
  Mg  Mg16  1  0.00000000  0.26565000  0.74419000  1
  Mg  Mg17  1  0.50000000  0.25169600  0.25065800  1
  Mg  Mg18  1  0.50000000  0.25169600  0.74934200  1
  Mg  Mg19  1  0.00000000  0.73435000  0.25581000  1
  Mg  Mg20  1  0.00000000  0.73435000  0.74419000  1
  Mg  Mg21  1  0.50000000  0.74830400  0.25065800  1
  Mg  Mg22  1  0.50000000  0.74830400  0.74934200  1
  Mg  Mg23  1  0.25337700  0.25337700  0.00000000  1
  Mg  Mg24  1  0.24765700  0.24765700  0.50000000  1
  Mg  Mg25  1  0.74662300  0.25337700  0.00000000  1
  Mg  Mg26  1  0.75234300  0.24765700  0.50000000  1
  Mg  Mg27  1  0.25337700  0.74662300  0.00000000  1
  Mg  Mg28  1  0.24765700  0.75234300  0.50000000  1
  Mg  Mg29  1  0.74662300  0.74662300  0.00000000  1
  Mg  Mg30  1  0.75234300  0.75234300  0.50000000  1
  B  B31  1  0.00000000  0.00000000  0.50000000  1
  O  O32  1  0.00000000  0.27712000  0.00000000  1
  O  O33  1  0.00000000  0.26739400  0.50000000  1
  O  O34  1  0.50000000  0.25591900  0.00000000  1
  O  O35  1  0.50000000  0.25310900  0.50000000  1
  O  O36  1  0.00000000  0.72288000  0.00000000  1
  O  O37  1  0.00000000  0.73260600  0.50000000  1
  O  O38  1  0.50000000  0.74408100  0.00000000  1
  O  O39  1  0.50000000  0.74689100  0.50000000  1
  O  O40  1  0.24633700  0.24633700  0.24949500  1
  O  O41  1  0.24633700  0.24633700  0.75050500  1
  O  O42  1  0.75366300  0.24633700  0.24949500  1
  O  O43  1  0.75366300  0.24633700  0.75050500  1
  O  O44  1  0.24633700  0.75366300  0.24949500  1
  O  O45  1  0.24633700  0.75366300  0.75050500  1
  O  O46  1  0.75366300  0.75366300  0.24949500  1
  O  O47  1  0.75366300  0.75366300  0.75050500  1
  O  O48  1  0.00000000  0.00000000  0.33893500  1
  O  O49  1  0.00000000  0.00000000  0.66106500  1
  O  O50  1  0.50000000  0.00000000  0.25241600  1
  O  O51  1  0.50000000  0.00000000  0.74758400  1
  O  O52  1  0.00000000  0.50000000  0.25241600  1
  O  O53  1  0.00000000  0.50000000  0.74758400  1
  O  O54  1  0.50000000  0.50000000  0.25085600  1
  O  O55  1  0.50000000  0.50000000  0.74914400  1
  O  O56  1  0.27712000  0.00000000  0.00000000  1
  O  O57  1  0.26739400  0.00000000  0.50000000  1
  O  O58  1  0.72288000  0.00000000  0.00000000  1
  O  O59  1  0.73260600  0.00000000  0.50000000  1
  O  O60  1  0.25591900  0.50000000  0.00000000  1
  O  O61  1  0.25310900  0.50000000  0.50000000  1
  O  O62  1  0.74408100  0.50000000  0.00000000  1
  O  O63  1  0.74689100  0.50000000  0.50000000  1
