# generated using pymatgen
data_SrGeO4
_symmetry_space_group_name_H-M   'P 1'
_cell_length_a   6.15124627
_cell_length_b   6.15124627
_cell_length_c   6.15124627
_cell_angle_alpha   108.83389896
_cell_angle_beta   108.83389896
_cell_angle_gamma   110.75352413
_symmetry_Int_Tables_number   1
_chemical_formula_structural   SrGeO4
_chemical_formula_sum   'Sr2 Ge2 O8'
_cell_volume   179.10341124
_cell_formula_units_Z   2
loop_
 _symmetry_equiv_pos_site_id
 _symmetry_equiv_pos_as_xyz
  1  'x, y, z'
loop_
 _atom_site_type_symbol
 _atom_site_label
 _atom_site_symmetry_multiplicity
 _atom_site_fract_x
 _atom_site_fract_y
 _atom_site_fract_z
 _atom_site_occupancy
  Sr  Sr0  1  0.50000000  0.50000000  0.00000000  1
  Sr  Sr1  1  0.75000000  0.25000000  0.50000000  1
  Ge  Ge2  1  0.00000000  0.00000000  0.00000000  1
  Ge  Ge3  1  0.25000000  0.75000000  0.50000000  1
  O  O4  1  0.73660200  0.67057300  0.74464800  1
  O  O5  1  0.92592500  0.99195400  0.25535200  1
  O  O6  1  0.32942700  0.07407500  0.06602900  1
  O  O7  1  0.32407500  0.07942700  0.56602900  1
  O  O8  1  0.00804600  0.26339800  0.93397100  1
  O  O9  1  0.51339800  0.75804600  0.43397100  1
  O  O10  1  0.24195400  0.67592500  0.75535200  1
  O  O11  1  0.92057300  0.48660200  0.24464800  1
