# generated using pymatgen
data_SrO10
_symmetry_space_group_name_H-M   'P 1'
_cell_length_a   5.23713300
_cell_length_b   5.23713300
_cell_length_c   5.47783400
_cell_angle_alpha   90.00000000
_cell_angle_beta   90.00000000
_cell_angle_gamma   90.00000000
_symmetry_Int_Tables_number   1
_chemical_formula_structural   SrO10
_chemical_formula_sum   'Sr1 O10'
_cell_volume   150.24363199
_cell_formula_units_Z   1
loop_
 _symmetry_equiv_pos_site_id
 _symmetry_equiv_pos_as_xyz
  1  'x, y, z'
loop_
 _atom_site_type_symbol
 _atom_site_label
 _atom_site_symmetry_multiplicity
 _atom_site_fract_x
 _atom_site_fract_y
 _atom_site_fract_z
 _atom_site_occupancy
  Sr  Sr0  1  0.00000000  0.00000000  0.00000000  1
  O  O1  1  0.35468800  0.35468800  0.24794300  1
  O  O2  1  0.64531200  0.64531200  0.75205700  1
  O  O3  1  0.64531200  0.64531200  0.24794300  1
  O  O4  1  0.64531200  0.35468800  0.24794300  1
  O  O5  1  0.64531200  0.35468800  0.75205700  1
  O  O6  1  0.35468800  0.35468800  0.75205700  1
  O  O7  1  0.35468800  0.64531200  0.75205700  1
  O  O8  1  0.35468800  0.64531200  0.24794300  1
  O  O9  1  0.00000000  0.50000000  0.00000000  1
  O  O10  1  0.50000000  0.00000000  0.00000000  1
