# generated using pymatgen
data_SrH(IO3)2
_symmetry_space_group_name_H-M   'P 1'
_cell_length_a   7.62362386
_cell_length_b   7.62362386
_cell_length_c   8.71501088
_cell_angle_alpha   55.50862691
_cell_angle_beta   55.50862691
_cell_angle_gamma   63.61238453
_symmetry_Int_Tables_number   1
_chemical_formula_structural   SrH(IO3)2
_chemical_formula_sum   'Sr2 H2 I4 O12'
_cell_volume   338.32805227
_cell_formula_units_Z   2
loop_
 _symmetry_equiv_pos_site_id
 _symmetry_equiv_pos_as_xyz
  1  'x, y, z'
loop_
 _atom_site_type_symbol
 _atom_site_label
 _atom_site_symmetry_multiplicity
 _atom_site_fract_x
 _atom_site_fract_y
 _atom_site_fract_z
 _atom_site_occupancy
  Sr  Sr0  1  0.32568500  0.67431500  0.25000000  1
  Sr  Sr1  1  0.67431500  0.32568500  0.75000000  1
  H  H2  1  0.67337700  0.32662300  0.25000000  1
  H  H3  1  0.32662300  0.67337700  0.75000000  1
  I  I4  1  0.78319500  0.84017300  0.20786800  1
  I  I5  1  0.21680500  0.15982700  0.79213200  1
  I  I6  1  0.15982700  0.21680500  0.29213200  1
  I  I7  1  0.84017300  0.78319500  0.70786800  1
  O  O8  1  0.42475200  0.29670200  0.11742300  1
  O  O9  1  0.57524800  0.70329800  0.88257700  1
  O  O10  1  0.70329800  0.57524800  0.38257700  1
  O  O11  1  0.29670200  0.42475200  0.61742300  1
  O  O12  1  0.24299700  0.92031900  0.40820900  1
  O  O13  1  0.75700300  0.07968100  0.59179100  1
  O  O14  1  0.07968100  0.75700300  0.09179100  1
  O  O15  1  0.92031900  0.24299700  0.90820900  1
  O  O16  1  0.72656500  0.90026600  0.00192900  1
  O  O17  1  0.27343500  0.09973400  0.99807100  1
  O  O18  1  0.09973400  0.27343500  0.49807100  1
  O  O19  1  0.90026600  0.72656500  0.50192900  1
