# generated using pymatgen
data_Yb(BRu)2
_symmetry_space_group_name_H-M   'P 1'
_cell_length_a   7.78226400
_cell_length_b   7.78123700
_cell_length_c   12.17711537
_cell_angle_alpha   108.63108044
_cell_angle_beta   108.63372606
_cell_angle_gamma   90.00232665
_symmetry_Int_Tables_number   1
_chemical_formula_structural   Yb(BRu)2
_chemical_formula_sum   'Yb8 B16 Ru16'
_cell_volume   657.82618744
_cell_formula_units_Z   8
loop_
 _symmetry_equiv_pos_site_id
 _symmetry_equiv_pos_as_xyz
  1  'x, y, z'
loop_
 _atom_site_type_symbol
 _atom_site_label
 _atom_site_symmetry_multiplicity
 _atom_site_fract_x
 _atom_site_fract_y
 _atom_site_fract_z
 _atom_site_occupancy
  Yb  Yb0  1  0.12502200  0.37502600  0.25004500  1
  Yb  Yb1  1  0.12498600  0.87498400  0.24997400  1
  Yb  Yb2  1  0.12499600  0.87498300  0.74998100  1
  Yb  Yb3  1  0.62500300  0.37500500  0.25000300  1
  Yb  Yb4  1  0.62499600  0.87499400  0.75000400  1
  Yb  Yb5  1  0.62499600  0.87499100  0.24998900  1
  Yb  Yb6  1  0.62499300  0.37500600  0.74999700  1
  Yb  Yb7  1  0.12500800  0.37500900  0.75000500  1
  B  B8  1  0.53968600  0.53967200  0.58131700  1
  B  B9  1  0.04161000  0.04166800  0.58135700  1
  B  B10  1  0.29166500  0.28971300  0.08131100  1
  B  B11  1  0.21034900  0.20834400  0.91867000  1
  B  B12  1  0.71023100  0.21031400  0.91867100  1
  B  B13  1  0.78966800  0.79164500  0.08132200  1
  B  B14  1  0.70836900  0.71035000  0.91869600  1
  B  B15  1  0.20840800  0.70834700  0.91869600  1
  B  B16  1  0.45832600  0.45839200  0.41865500  1
  B  B17  1  0.95835000  0.46032500  0.41867800  1
  B  B18  1  0.96031700  0.96026100  0.41867700  1
  B  B19  1  0.46033100  0.95834600  0.41865600  1
  B  B20  1  0.03972400  0.54166100  0.58131700  1
  B  B21  1  0.54166200  0.03968100  0.58135600  1
  B  B22  1  0.28966700  0.78968600  0.08131100  1
  B  B23  1  0.79164200  0.29159600  0.08132300  1
  Ru  Ru24  1  0.48552100  0.23486300  0.47193800  1
  Ru  Ru25  1  0.98649400  0.23712600  0.47192400  1
  Ru  Ru26  1  0.48714800  0.23551200  0.97193700  1
  Ru  Ru27  1  0.26450000  0.01288600  0.02809500  1
  Ru  Ru28  1  0.76448200  0.51511200  0.02806800  1
  Ru  Ru29  1  0.48489200  0.73646400  0.97190700  1
  Ru  Ru30  1  0.76353600  0.01511800  0.02808300  1
  Ru  Ru31  1  0.26350400  0.51284900  0.02807100  1
  Ru  Ru32  1  0.26287000  0.51350400  0.52807500  1
  Ru  Ru33  1  0.76286600  0.51451000  0.52809900  1
  Ru  Ru34  1  0.26512200  0.01447200  0.52804000  1
  Ru  Ru35  1  0.76508600  0.01351400  0.52805200  1
  Ru  Ru36  1  0.98549100  0.73713500  0.47190200  1
  Ru  Ru37  1  0.48647600  0.73490700  0.47192500  1
  Ru  Ru38  1  0.98486100  0.73551600  0.97191200  1
  Ru  Ru39  1  0.98714700  0.23651200  0.97196100  1
