# generated using pymatgen
data_Sr5Al3F19
_symmetry_space_group_name_H-M   'P 1'
_cell_length_a   10.75055447
_cell_length_b   10.75055447
_cell_length_c   10.75055447
_cell_angle_alpha   96.52230221
_cell_angle_beta   96.52230221
_cell_angle_gamma   140.60781122
_symmetry_Int_Tables_number   1
_chemical_formula_structural   Sr5Al3F19
_chemical_formula_sum   'Sr10 Al6 F38'
_cell_volume   742.38162302
_cell_formula_units_Z   2
loop_
 _symmetry_equiv_pos_site_id
 _symmetry_equiv_pos_as_xyz
  1  'x, y, z'
loop_
 _atom_site_type_symbol
 _atom_site_label
 _atom_site_symmetry_multiplicity
 _atom_site_fract_x
 _atom_site_fract_y
 _atom_site_fract_z
 _atom_site_occupancy
  Sr  Sr0  1  0.78076000  0.05411400  0.83487400  1
  Sr  Sr1  1  0.21924000  0.94588600  0.16512600  1
  Sr  Sr2  1  0.05411400  0.21924000  0.27335400  1
  Sr  Sr3  1  0.94588600  0.78076000  0.72664600  1
  Sr  Sr4  1  0.57770200  0.25202300  0.82972500  1
  Sr  Sr5  1  0.42229800  0.74797700  0.17027500  1
  Sr  Sr6  1  0.25202300  0.42229800  0.67432100  1
  Sr  Sr7  1  0.74797700  0.57770200  0.32567900  1
  Sr  Sr8  1  0.75000000  0.25000000  0.50000000  1
  Sr  Sr9  1  0.25000000  0.75000000  0.50000000  1
  Al  Al10  1  0.82337400  0.34076800  0.16414100  1
  Al  Al11  1  0.17662600  0.65923200  0.83585900  1
  Al  Al12  1  0.34076800  0.17662600  0.51739400  1
  Al  Al13  1  0.65923200  0.82337400  0.48260600  1
  Al  Al14  1  0.74716900  0.74716900  0.00000000  1
  Al  Al15  1  0.25283100  0.25283100  0.00000000  1
  F  F16  1  0.42512300  0.77740600  0.85673200  1
  F  F17  1  0.57487700  0.22259400  0.14326800  1
  F  F18  1  0.92067300  0.56839100  0.14326800  1
  F  F19  1  0.77740600  0.92067300  0.35228300  1
  F  F20  1  0.07932700  0.43160900  0.85673200  1
  F  F21  1  0.22259400  0.07932700  0.64771700  1
  F  F22  1  0.56839100  0.42512300  0.64771700  1
  F  F23  1  0.43160900  0.57487700  0.35228300  1
  F  F24  1  0.71236800  0.87717800  0.07142300  1
  F  F25  1  0.28763200  0.12282200  0.92857700  1
  F  F26  1  0.80575500  0.64094500  0.92857700  1
  F  F27  1  0.87717800  0.80575500  0.16481000  1
  F  F28  1  0.19424500  0.35905500  0.07142300  1
  F  F29  1  0.12282200  0.19424500  0.83519000  1
  F  F30  1  0.64094500  0.71236800  0.83519000  1
  F  F31  1  0.35905500  0.28763200  0.16481000  1
  F  F32  1  0.61727800  0.07645000  0.69372800  1
  F  F33  1  0.38272200  0.92355000  0.30627200  1
  F  F34  1  0.07645000  0.38272200  0.45917200  1
  F  F35  1  0.92355000  0.61727800  0.54082800  1
  F  F36  1  0.00000000  0.00000000  0.00000000  1
  F  F37  1  0.88892900  0.45153000  0.34045900  1
  F  F38  1  0.11107100  0.54847000  0.65954100  1
  F  F39  1  0.45153000  0.11107100  0.56260000  1
  F  F40  1  0.54847000  0.88892900  0.43740000  1
  F  F41  1  0.73256500  0.12406400  0.20565000  1
  F  F42  1  0.26743500  0.87593600  0.79435000  1
  F  F43  1  0.91841400  0.52691500  0.79435000  1
  F  F44  1  0.12406400  0.91841400  0.39150000  1
  F  F45  1  0.08158600  0.47308500  0.20565000  1
  F  F46  1  0.87593600  0.08158600  0.60850000  1
  F  F47  1  0.52691500  0.73256500  0.60850000  1
  F  F48  1  0.47308500  0.26743500  0.39150000  1
  F  F49  1  0.75657100  0.23327800  0.98984900  1
  F  F50  1  0.24342900  0.76672200  0.01015100  1
  F  F51  1  0.23327800  0.24342900  0.47670700  1
  F  F52  1  0.76672200  0.75657100  0.52329300  1
  F  F53  1  0.50000000  0.50000000  0.00000000  1
