# generated using pymatgen
data_Sr4Ir3O10
_symmetry_space_group_name_H-M   'P 1'
_cell_length_a   14.66336282
_cell_length_b   14.66336282
_cell_length_c   14.66336282
_cell_angle_alpha   164.37206630
_cell_angle_beta   164.37206630
_cell_angle_gamma   22.17085114
_symmetry_Int_Tables_number   1
_chemical_formula_structural   Sr4Ir3O10
_chemical_formula_sum   'Sr4 Ir3 O10'
_cell_volume   228.76237939
_cell_formula_units_Z   1
loop_
 _symmetry_equiv_pos_site_id
 _symmetry_equiv_pos_as_xyz
  1  'x, y, z'
loop_
 _atom_site_type_symbol
 _atom_site_label
 _atom_site_symmetry_multiplicity
 _atom_site_fract_x
 _atom_site_fract_y
 _atom_site_fract_z
 _atom_site_occupancy
  Sr  Sr0  1  0.29831400  0.29831400  0.00000000  1
  Sr  Sr1  1  0.70168600  0.70168600  0.00000000  1
  Sr  Sr2  1  0.43109600  0.43109600  0.00000000  1
  Sr  Sr3  1  0.56890400  0.56890400  0.00000000  1
  Ir  Ir4  1  0.14251000  0.14251000  0.00000000  1
  Ir  Ir5  1  0.85749000  0.85749000  0.00000000  1
  Ir  Ir6  1  0.00000000  0.00000000  0.00000000  1
  O  O7  1  0.21298900  0.21298900  0.00000000  1
  O  O8  1  0.78701100  0.78701100  0.00000000  1
  O  O9  1  0.63712100  0.13712100  0.50000000  1
  O  O10  1  0.36287900  0.86287900  0.50000000  1
  O  O11  1  0.13712100  0.63712100  0.50000000  1
  O  O12  1  0.86287900  0.36287900  0.50000000  1
  O  O13  1  0.06975600  0.06975600  0.00000000  1
  O  O14  1  0.93024400  0.93024400  0.00000000  1
  O  O15  1  0.50000000  0.00000000  0.50000000  1
  O  O16  1  0.00000000  0.50000000  0.50000000  1
