# generated using pymatgen
data_Sr3Sn2S7
_symmetry_space_group_name_H-M   'P 1'
_cell_length_a   4.02893200
_cell_length_b   11.62708800
_cell_length_c   12.91587400
_cell_angle_alpha   90.00000000
_cell_angle_beta   90.00000000
_cell_angle_gamma   90.00000000
_symmetry_Int_Tables_number   1
_chemical_formula_structural   Sr3Sn2S7
_chemical_formula_sum   'Sr6 Sn4 S14'
_cell_volume   605.04084865
_cell_formula_units_Z   2
loop_
 _symmetry_equiv_pos_site_id
 _symmetry_equiv_pos_as_xyz
  1  'x, y, z'
loop_
 _atom_site_type_symbol
 _atom_site_label
 _atom_site_symmetry_multiplicity
 _atom_site_fract_x
 _atom_site_fract_y
 _atom_site_fract_z
 _atom_site_occupancy
  Sr  Sr0  1  0.50000000  0.11172400  0.14662400  1
  Sr  Sr1  1  0.50000000  0.88827600  0.85337600  1
  Sr  Sr2  1  0.50000000  0.38827600  0.64662400  1
  Sr  Sr3  1  0.50000000  0.61172400  0.35337600  1
  Sr  Sr4  1  0.50000000  0.00000000  0.50000000  1
  Sr  Sr5  1  0.50000000  0.50000000  0.00000000  1
  Sn  Sn6  1  0.00000000  0.27782800  0.39152100  1
  Sn  Sn7  1  0.00000000  0.72217200  0.60847900  1
  Sn  Sn8  1  0.00000000  0.22217200  0.89152100  1
  Sn  Sn9  1  0.00000000  0.77782800  0.10847900  1
  S  S10  1  0.50000000  0.34880700  0.29536700  1
  S  S11  1  0.50000000  0.65119300  0.70463300  1
  S  S12  1  0.50000000  0.15119300  0.79536700  1
  S  S13  1  0.50000000  0.84880700  0.20463300  1
  S  S14  1  0.00000000  0.07883500  0.32072800  1
  S  S15  1  0.00000000  0.92116500  0.67927200  1
  S  S16  1  0.00000000  0.42116500  0.82072800  1
  S  S17  1  0.00000000  0.57883500  0.17927200  1
  S  S18  1  0.00000000  0.29702100  0.06558400  1
  S  S19  1  0.00000000  0.70297900  0.93441600  1
  S  S20  1  0.00000000  0.20297900  0.56558400  1
  S  S21  1  0.00000000  0.79702100  0.43441600  1
  S  S22  1  0.00000000  0.00000000  0.00000000  1
  S  S23  1  0.00000000  0.50000000  0.50000000  1
