# generated using pymatgen
data_TbGa6
_symmetry_space_group_name_H-M   'P 1'
_cell_length_a   14.55549800
_cell_length_b   14.55549800
_cell_length_c   18.11439300
_cell_angle_alpha   90.00000000
_cell_angle_beta   90.00000000
_cell_angle_gamma   90.00000000
_symmetry_Int_Tables_number   1
_chemical_formula_structural   TbGa6
_chemical_formula_sum   'Tb2 Ga12'
_cell_volume   3837.76098599
_cell_formula_units_Z   2
loop_
 _symmetry_equiv_pos_site_id
 _symmetry_equiv_pos_as_xyz
  1  'x, y, z'
loop_
 _atom_site_type_symbol
 _atom_site_label
 _atom_site_symmetry_multiplicity
 _atom_site_fract_x
 _atom_site_fract_y
 _atom_site_fract_z
 _atom_site_occupancy
  Tb  Tb0  1  0.50000000  0.00000000  0.00000000  1
  Tb  Tb1  1  0.00000000  0.50000000  0.00000000  1
  Ga  Ga2  1  0.87470800  0.00000000  0.35069800  1
  Ga  Ga3  1  0.12529200  0.00000000  0.35069800  1
  Ga  Ga4  1  0.00000000  0.87470800  0.35069800  1
  Ga  Ga5  1  0.00000000  0.12529200  0.64930200  1
  Ga  Ga6  1  0.12529200  0.00000000  0.64930200  1
  Ga  Ga7  1  0.00000000  0.12529200  0.35069800  1
  Ga  Ga8  1  0.00000000  0.87470800  0.64930200  1
  Ga  Ga9  1  0.87470800  0.00000000  0.64930200  1
  Ga  Ga10  1  0.00000000  0.50000000  0.15776800  1
  Ga  Ga11  1  0.50000000  0.00000000  0.15776800  1
  Ga  Ga12  1  0.50000000  0.00000000  0.84223200  1
  Ga  Ga13  1  0.00000000  0.50000000  0.84223200  1
