# generated using pymatgen
data_TbZr6(PO4)9
_symmetry_space_group_name_H-M   'P 1'
_cell_length_a   8.93908551
_cell_length_b   8.93908551
_cell_length_c   22.98719900
_cell_angle_alpha   90.00000000
_cell_angle_beta   90.00000000
_cell_angle_gamma   119.99999639
_symmetry_Int_Tables_number   1
_chemical_formula_structural   TbZr6(PO4)9
_chemical_formula_sum   'Tb2 Zr12 P18 O72'
_cell_volume   1590.75349711
_cell_formula_units_Z   2
loop_
 _symmetry_equiv_pos_site_id
 _symmetry_equiv_pos_as_xyz
  1  'x, y, z'
loop_
 _atom_site_type_symbol
 _atom_site_label
 _atom_site_symmetry_multiplicity
 _atom_site_fract_x
 _atom_site_fract_y
 _atom_site_fract_z
 _atom_site_occupancy
  Tb  Tb0  1  0.00000000  0.00000000  0.50000000  1
  Tb  Tb1  1  0.00000000  0.00000000  0.00000000  1
  Zr  Zr2  1  0.33333300  0.66666700  0.52823600  1
  Zr  Zr3  1  0.66666700  0.33333300  0.47176400  1
  Zr  Zr4  1  0.66666700  0.33333300  0.97176400  1
  Zr  Zr5  1  0.33333300  0.66666700  0.02823600  1
  Zr  Zr6  1  0.00000000  0.00000000  0.64946100  1
  Zr  Zr7  1  0.00000000  0.00000000  0.35053900  1
  Zr  Zr8  1  0.00000000  0.00000000  0.85053900  1
  Zr  Zr9  1  0.00000000  0.00000000  0.14946100  1
  Zr  Zr10  1  0.33333300  0.66666700  0.81312700  1
  Zr  Zr11  1  0.66666700  0.33333300  0.18687300  1
  Zr  Zr12  1  0.66666700  0.33333300  0.68687300  1
  Zr  Zr13  1  0.33333300  0.66666700  0.31312700  1
  P  P14  1  0.37327900  0.31865400  0.57894000  1
  P  P15  1  0.62672100  0.68134600  0.42106000  1
  P  P16  1  0.68134600  0.05462500  0.57894000  1
  P  P17  1  0.31865400  0.37327900  0.92106000  1
  P  P18  1  0.31865400  0.94537500  0.42106000  1
  P  P19  1  0.68134600  0.62672100  0.07894000  1
  P  P20  1  0.94537500  0.62672100  0.57894000  1
  P  P21  1  0.05462500  0.68134600  0.92106000  1
  P  P22  1  0.05462500  0.37327900  0.42106000  1
  P  P23  1  0.94537500  0.31865400  0.07894000  1
  P  P24  1  0.62672100  0.94537500  0.92106000  1
  P  P25  1  0.37327900  0.05462500  0.07894000  1
  P  P26  1  0.29201800  0.00000000  0.75000000  1
  P  P27  1  0.70798200  0.00000000  0.25000000  1
  P  P28  1  0.00000000  0.29201800  0.75000000  1
  P  P29  1  0.00000000  0.70798200  0.25000000  1
  P  P30  1  0.70798200  0.70798200  0.75000000  1
  P  P31  1  0.29201800  0.29201800  0.25000000  1
  O  O32  1  0.45543000  0.28255100  0.52630100  1
  O  O33  1  0.54457000  0.71744900  0.47369900  1
  O  O34  1  0.71744900  0.17287900  0.52630100  1
  O  O35  1  0.28255100  0.45543000  0.97369900  1
  O  O36  1  0.28255100  0.82712100  0.47369900  1
  O  O37  1  0.71744900  0.54457000  0.02630100  1
  O  O38  1  0.82712100  0.54457000  0.52630100  1
  O  O39  1  0.17287900  0.71744900  0.97369900  1
  O  O40  1  0.17287900  0.45543000  0.47369900  1
  O  O41  1  0.82712100  0.28255100  0.02630100  1
  O  O42  1  0.54457000  0.82712100  0.97369900  1
  O  O43  1  0.45543000  0.17287900  0.02630100  1
  O  O44  1  0.37566800  0.49139800  0.57415200  1
  O  O45  1  0.62433200  0.50860200  0.42584800  1
  O  O46  1  0.50860200  0.88427100  0.57415200  1
  O  O47  1  0.49139800  0.37566800  0.92584800  1
  O  O48  1  0.49139800  0.11572900  0.42584800  1
  O  O49  1  0.50860200  0.62433200  0.07415200  1
  O  O50  1  0.11572900  0.62433200  0.57415200  1
  O  O51  1  0.88427100  0.50860200  0.92584800  1
  O  O52  1  0.88427100  0.37566800  0.42584800  1
  O  O53  1  0.11572900  0.49139800  0.07415200  1
  O  O54  1  0.62433200  0.11572900  0.92584800  1
  O  O55  1  0.37566800  0.88427100  0.07415200  1
  O  O56  1  0.17669700  0.16808400  0.57864100  1
  O  O57  1  0.82330300  0.83191600  0.42135900  1
  O  O58  1  0.83191600  0.00861300  0.57864100  1
  O  O59  1  0.16808400  0.17669700  0.92135900  1
  O  O60  1  0.16808400  0.99138700  0.42135900  1
  O  O61  1  0.83191600  0.82330300  0.07864100  1
  O  O62  1  0.99138700  0.82330300  0.57864100  1
  O  O63  1  0.00861300  0.83191600  0.92135900  1
  O  O64  1  0.00861300  0.17669700  0.42135900  1
  O  O65  1  0.99138700  0.16808400  0.07864100  1
  O  O66  1  0.82330300  0.99138700  0.92135900  1
  O  O67  1  0.17669700  0.00861300  0.07864100  1
  O  O68  1  0.03115400  0.20504600  0.69594600  1
  O  O69  1  0.96884600  0.79495400  0.30405400  1
  O  O70  1  0.79495400  0.82610800  0.69594600  1
  O  O71  1  0.20504600  0.03115400  0.80405400  1
  O  O72  1  0.20504600  0.17389200  0.30405400  1
  O  O73  1  0.79495400  0.96884600  0.19594600  1
  O  O74  1  0.17389200  0.96884600  0.69594600  1
  O  O75  1  0.82610800  0.79495400  0.80405400  1
  O  O76  1  0.82610800  0.03115400  0.30405400  1
  O  O77  1  0.17389200  0.20504600  0.19594600  1
  O  O78  1  0.96884600  0.17389200  0.80405400  1
  O  O79  1  0.03115400  0.82610800  0.19594600  1
  O  O80  1  0.46026400  0.31375400  0.63576200  1
  O  O81  1  0.53973600  0.68624600  0.36423800  1
  O  O82  1  0.68624600  0.14651000  0.63576200  1
  O  O83  1  0.31375400  0.46026400  0.86423800  1
  O  O84  1  0.31375400  0.85349000  0.36423800  1
  O  O85  1  0.68624600  0.53973600  0.13576200  1
  O  O86  1  0.85349000  0.53973600  0.63576200  1
  O  O87  1  0.14651000  0.68624600  0.86423800  1
  O  O88  1  0.14651000  0.46026400  0.36423800  1
  O  O89  1  0.85349000  0.31375400  0.13576200  1
  O  O90  1  0.53973600  0.85349000  0.86423800  1
  O  O91  1  0.46026400  0.14651000  0.13576200  1
  O  O92  1  0.46801800  0.15892800  0.73978800  1
  O  O93  1  0.53198200  0.84107200  0.26021200  1
  O  O94  1  0.84107200  0.30909000  0.73978800  1
  O  O95  1  0.15892800  0.46801800  0.76021200  1
  O  O96  1  0.15892800  0.69091000  0.26021200  1
  O  O97  1  0.84107200  0.53198200  0.23978800  1
  O  O98  1  0.69091000  0.53198200  0.73978800  1
  O  O99  1  0.30909000  0.84107200  0.76021200  1
  O  O100  1  0.30909000  0.46801800  0.26021200  1
  O  O101  1  0.69091000  0.15892800  0.23978800  1
  O  O102  1  0.53198200  0.69091000  0.76021200  1
  O  O103  1  0.46801800  0.30909000  0.23978800  1
