# generated using pymatgen
data_SrCa2Cu2(BiO4)2
_symmetry_space_group_name_H-M   'P 1'
_cell_length_a   15.85086115
_cell_length_b   15.85086115
_cell_length_c   5.25962000
_cell_angle_alpha   90.00000000
_cell_angle_beta   90.00000000
_cell_angle_gamma   160.00662257
_symmetry_Int_Tables_number   1
_chemical_formula_structural   SrCa2Cu2(BiO4)2
_chemical_formula_sum   'Sr2 Ca4 Cu4 Bi4 O16'
_cell_volume   451.82872001
_cell_formula_units_Z   2
loop_
 _symmetry_equiv_pos_site_id
 _symmetry_equiv_pos_as_xyz
  1  'x, y, z'
loop_
 _atom_site_type_symbol
 _atom_site_label
 _atom_site_symmetry_multiplicity
 _atom_site_fract_x
 _atom_site_fract_y
 _atom_site_fract_z
 _atom_site_occupancy
  Sr  Sr0  1  0.50000000  0.00000000  0.50000000  1
  Sr  Sr1  1  0.00000000  0.50000000  0.00000000  1
  Ca  Ca2  1  0.62335000  0.90798400  0.50000000  1
  Ca  Ca3  1  0.37665000  0.09201600  0.50000000  1
  Ca  Ca4  1  0.09201600  0.37665000  0.00000000  1
  Ca  Ca5  1  0.90798400  0.62335000  0.00000000  1
  Cu  Cu6  1  0.06005200  0.44426200  0.50000000  1
  Cu  Cu7  1  0.93994800  0.55573800  0.50000000  1
  Cu  Cu8  1  0.55573800  0.93994800  0.00000000  1
  Cu  Cu9  1  0.44426200  0.06005200  0.00000000  1
  Bi  Bi10  1  0.17036900  0.26844200  0.50000000  1
  Bi  Bi11  1  0.82963100  0.73155800  0.50000000  1
  Bi  Bi12  1  0.73155800  0.82963100  0.00000000  1
  Bi  Bi13  1  0.26844200  0.17036900  0.00000000  1
  O  O14  1  0.10917300  0.33864700  0.50000000  1
  O  O15  1  0.89082700  0.66135300  0.50000000  1
  O  O16  1  0.66135300  0.89082700  0.00000000  1
  O  O17  1  0.33864700  0.10917300  0.00000000  1
  O  O18  1  0.68991600  0.31008400  0.75000000  1
  O  O19  1  0.31008400  0.68991600  0.25000000  1
  O  O20  1  0.31008400  0.68991600  0.75000000  1
  O  O21  1  0.68991600  0.31008400  0.25000000  1
  O  O22  1  0.77899300  0.87423000  0.50000000  1
  O  O23  1  0.22100700  0.12577000  0.50000000  1
  O  O24  1  0.12577000  0.22100700  0.00000000  1
  O  O25  1  0.87423000  0.77899300  0.00000000  1
  O  O26  1  0.80661300  0.19338700  0.75000000  1
  O  O27  1  0.19338700  0.80661300  0.25000000  1
  O  O28  1  0.19338700  0.80661300  0.75000000  1
  O  O29  1  0.80661300  0.19338700  0.25000000  1
