# generated using pymatgen
data_UH10CSe2(NO2)4
_symmetry_space_group_name_H-M   'P 1'
_cell_length_a   7.15243300
_cell_length_b   9.57209661
_cell_length_c   9.72191728
_cell_angle_alpha   88.45645041
_cell_angle_beta   109.59736994
_cell_angle_gamma   103.50422552
_symmetry_Int_Tables_number   1
_chemical_formula_structural   UH10CSe2(NO2)4
_chemical_formula_sum   'U2 H20 C2 Se4 N8 O16'
_cell_volume   608.74678730
_cell_formula_units_Z   2
loop_
 _symmetry_equiv_pos_site_id
 _symmetry_equiv_pos_as_xyz
  1  'x, y, z'
loop_
 _atom_site_type_symbol
 _atom_site_label
 _atom_site_symmetry_multiplicity
 _atom_site_fract_x
 _atom_site_fract_y
 _atom_site_fract_z
 _atom_site_occupancy
  U  U0  1  0.23623400  0.47070500  0.80841300  1
  U  U1  1  0.76376600  0.52929500  0.19158700  1
  H  H2  1  0.20389600  0.76370800  0.09422600  1
  H  H3  1  0.79610400  0.23629200  0.90577400  1
  H  H4  1  0.04435800  0.90355000  0.23952200  1
  H  H5  1  0.95564200  0.09645000  0.76047800  1
  H  H6  1  0.24315500  0.84789600  0.73137000  1
  H  H7  1  0.75684500  0.15210400  0.26863000  1
  H  H8  1  0.35525600  0.93144500  0.11567300  1
  H  H9  1  0.64474400  0.06855500  0.88432700  1
  H  H10  1  0.40225500  0.81063000  0.25181200  1
  H  H11  1  0.59774500  0.18937000  0.74818800  1
  H  H12  1  0.26156700  0.98904200  0.38306500  1
  H  H13  1  0.73843300  0.01095800  0.61693500  1
  H  H14  1  0.23776400  0.99145900  0.83903300  1
  H  H15  1  0.76223600  0.00854100  0.16096700  1
  H  H16  1  0.73345700  0.80402500  0.49308800  1
  H  H17  1  0.26654300  0.19597500  0.50691200  1
  H  H18  1  0.04169500  0.25665600  0.46724900  1
  H  H19  1  0.95830500  0.74334400  0.53275100  1
  H  H20  1  0.55331600  0.20969600  0.90741600  1
  H  H21  1  0.44668400  0.79030400  0.09258400  1
  C  C22  1  0.97846900  0.91543800  0.66307600  1
  C  C23  1  0.02153100  0.08456200  0.33692400  1
  Se  Se24  1  0.74058900  0.77076000  0.92806200  1
  Se  Se25  1  0.25941100  0.22924000  0.07193800  1
  Se  Se26  1  0.31089200  0.63672000  0.48342100  1
  Se  Se27  1  0.68910800  0.36328000  0.51657900  1
  N  N28  1  0.11676800  0.18680000  0.44486700  1
  N  N29  1  0.88323200  0.81320000  0.55513300  1
  N  N30  1  0.17433600  0.92643800  0.74469900  1
  N  N31  1  0.82566400  0.07356200  0.25530100  1
  N  N32  1  0.35341000  0.82339700  0.13915600  1
  N  N33  1  0.64659000  0.17660300  0.86084400  1
  N  N34  1  0.12317500  0.99290100  0.30946300  1
  N  N35  1  0.87682500  0.00709900  0.69053700  1
  O  O36  1  0.07401000  0.24885900  0.90722700  1
  O  O37  1  0.92599000  0.75114100  0.09277300  1
  O  O38  1  0.28814200  0.66007800  0.65571800  1
  O  O39  1  0.71185800  0.33992200  0.34428200  1
  O  O40  1  0.11509300  0.57813000  0.88763700  1
  O  O41  1  0.88490700  0.42187000  0.11236300  1
  O  O42  1  0.36100900  0.36932800  0.72457400  1
  O  O43  1  0.63899100  0.63067200  0.27542600  1
  O  O44  1  0.05537400  0.62633700  0.37639200  1
  O  O45  1  0.94462600  0.37366300  0.62360800  1
  O  O46  1  0.64870000  0.90622700  0.96888200  1
  O  O47  1  0.35130000  0.09377300  0.03111800  1
  O  O48  1  0.43292000  0.80153000  0.45109000  1
  O  O49  1  0.56708000  0.19847000  0.54891000  1
  O  O50  1  0.56387000  0.61701600  0.94996200  1
  O  O51  1  0.43613000  0.38298400  0.05003800  1
