# generated using pymatgen
data_Y6N8O49
_symmetry_space_group_name_H-M   'P 1'
_cell_length_a   10.15997300
_cell_length_b   10.19764366
_cell_length_c   11.60182986
_cell_angle_alpha   97.86877615
_cell_angle_beta   107.81152070
_cell_angle_gamma   108.08347634
_symmetry_Int_Tables_number   1
_chemical_formula_structural   Y6N8O49
_chemical_formula_sum   'Y6 N8 O49'
_cell_volume   1051.59128971
_cell_formula_units_Z   1
loop_
 _symmetry_equiv_pos_site_id
 _symmetry_equiv_pos_as_xyz
  1  'x, y, z'
loop_
 _atom_site_type_symbol
 _atom_site_label
 _atom_site_symmetry_multiplicity
 _atom_site_fract_x
 _atom_site_fract_y
 _atom_site_fract_z
 _atom_site_occupancy
  Y  Y0  1  0.26919000  0.05833900  0.37592800  1
  Y  Y1  1  0.73081000  0.94166100  0.62407200  1
  Y  Y2  1  0.64390900  0.28663000  0.49216400  1
  Y  Y3  1  0.35609100  0.71337000  0.50783600  1
  Y  Y4  1  0.46412800  0.06511500  0.69727900  1
  Y  Y5  1  0.53587200  0.93488500  0.30272100  1
  N  N6  1  0.30333000  0.28478300  0.05064800  1
  N  N7  1  0.69667000  0.71521700  0.94935200  1
  N  N8  1  0.74721300  0.99780800  0.18554700  1
  N  N9  1  0.25278700  0.00219200  0.81445300  1
  N  N10  1  0.33525700  0.51564500  0.65523100  1
  N  N11  1  0.66474300  0.48435500  0.34476900  1
  N  N12  1  0.10962400  0.23786300  0.39618400  1
  N  N13  1  0.89037600  0.76213700  0.60381600  1
  O  O14  1  0.08381300  0.12103000  0.43259500  1
  O  O15  1  0.91618700  0.87897000  0.56740500  1
  O  O16  1  0.04711100  0.32028400  0.41224800  1
  O  O17  1  0.95288900  0.67971600  0.58775200  1
  O  O18  1  0.25284600  0.59160700  0.64047800  1
  O  O19  1  0.74715400  0.40839300  0.35952200  1
  O  O20  1  0.69773500  0.34923600  0.02891700  1
  O  O21  1  0.30226500  0.65076400  0.97108300  1
  O  O22  1  0.25991500  0.09226500  0.74595200  1
  O  O23  1  0.74008500  0.90773500  0.25404800  1
  O  O24  1  0.13458000  0.95409500  0.14097100  1
  O  O25  1  0.86542000  0.04590500  0.85902900  1
  O  O26  1  0.84528500  0.03151200  0.14242600  1
  O  O27  1  0.15471500  0.96848800  0.85757400  1
  O  O28  1  0.58184900  0.47189500  0.41139700  1
  O  O29  1  0.41815100  0.52810500  0.58860300  1
  O  O30  1  0.46766300  0.12612500  0.32446000  1
  O  O31  1  0.53233700  0.87387500  0.67554000  1
  O  O32  1  0.03035300  0.63064100  0.33528700  1
  O  O33  1  0.96964700  0.36935900  0.66471300  1
  O  O34  1  0.40555400  0.69675600  0.07395000  1
  O  O35  1  0.59444600  0.30324400  0.92605000  1
  O  O36  1  0.64355900  0.04988300  0.16625200  1
  O  O37  1  0.35644100  0.95011700  0.83374800  1
  O  O38  1  0.19196600  0.26322500  0.08044600  1
  O  O39  1  0.80803400  0.73677500  0.91955400  1
  O  O40  1  0.27120200  0.84306900  0.25063300  1
  O  O41  1  0.72879800  0.15693100  0.74936700  1
  O  O42  1  0.68194600  0.64847900  0.03025400  1
  O  O43  1  0.31805400  0.35152100  0.96974600  1
  O  O44  1  0.70067500  0.08441800  0.49168200  1
  O  O45  1  0.29932500  0.91558200  0.50831800  1
  O  O46  1  0.33453500  0.43797700  0.72648300  1
  O  O47  1  0.66546500  0.56202300  0.27351700  1
  O  O48  1  0.00117100  0.55305100  0.03310100  1
  O  O49  1  0.99882900  0.44694900  0.96689900  1
  O  O50  1  0.50000000  0.00000000  0.50000000  1
  O  O51  1  0.40254900  0.23907800  0.10158600  1
  O  O52  1  0.59745100  0.76092200  0.89841400  1
  O  O53  1  0.44962400  0.21050500  0.56096500  1
  O  O54  1  0.55037600  0.78949500  0.43903500  1
  O  O55  1  0.33526800  0.64896600  0.29937400  1
  O  O56  1  0.66473200  0.35103400  0.70062600  1
  O  O57  1  0.18582000  0.85357400  0.12622400  1
  O  O58  1  0.81418000  0.14642600  0.87377600  1
  O  O59  1  0.02310700  0.28437300  0.70579900  1
  O  O60  1  0.97689300  0.71562700  0.29420100  1
  O  O61  1  0.20589400  0.26207400  0.34283400  1
  O  O62  1  0.79410600  0.73792600  0.65716600  1
