# generated using pymatgen
data_Sr2LiTeO6
_symmetry_space_group_name_H-M   'P 1'
_cell_length_a   5.67966500
_cell_length_b   5.67929352
_cell_length_c   8.07000717
_cell_angle_alpha   90.08535325
_cell_angle_beta   90.00000000
_cell_angle_gamma   90.00000000
_symmetry_Int_Tables_number   1
_chemical_formula_structural   Sr2LiTeO6
_chemical_formula_sum   'Sr4 Li2 Te2 O12'
_cell_volume   260.30977334
_cell_formula_units_Z   2
loop_
 _symmetry_equiv_pos_site_id
 _symmetry_equiv_pos_as_xyz
  1  'x, y, z'
loop_
 _atom_site_type_symbol
 _atom_site_label
 _atom_site_symmetry_multiplicity
 _atom_site_fract_x
 _atom_site_fract_y
 _atom_site_fract_z
 _atom_site_occupancy
  Sr  Sr0  1  0.50098500  0.00228000  0.74994400  1
  Sr  Sr1  1  0.49901500  0.99772000  0.25005600  1
  Sr  Sr2  1  0.00098500  0.49772000  0.75005600  1
  Sr  Sr3  1  0.99901500  0.50228000  0.24994400  1
  Li  Li4  1  0.00000000  0.00000000  0.50000000  1
  Li  Li5  1  0.50000000  0.50000000  0.00000000  1
  Te  Te6  1  0.00000000  0.00000000  0.00000000  1
  Te  Te7  1  0.50000000  0.50000000  0.50000000  1
  O  O8  1  0.77644900  0.74318700  0.99588300  1
  O  O9  1  0.22355100  0.25681300  0.00411700  1
  O  O10  1  0.27644900  0.75681300  0.50411700  1
  O  O11  1  0.72355100  0.24318700  0.49588300  1
  O  O12  1  0.25640600  0.77607700  0.99671300  1
  O  O13  1  0.74359400  0.22392300  0.00328700  1
  O  O14  1  0.75640600  0.72392300  0.50328700  1
  O  O15  1  0.24359400  0.27607700  0.49671300  1
  O  O16  1  0.99989700  0.00868900  0.76055900  1
  O  O17  1  0.00010300  0.99131100  0.23944100  1
  O  O18  1  0.49989700  0.49131100  0.73944100  1
  O  O19  1  0.50010300  0.50868900  0.26055900  1
