# generated using pymatgen
data_SrZnO5
_symmetry_space_group_name_H-M   'P 1'
_cell_length_a   5.47615500
_cell_length_b   6.88688758
_cell_length_c   7.68318567
_cell_angle_alpha   101.01547650
_cell_angle_beta   107.73795770
_cell_angle_gamma   109.09651458
_symmetry_Int_Tables_number   1
_chemical_formula_structural   SrZnO5
_chemical_formula_sum   'Sr2 Zn2 O10'
_cell_volume   246.81559888
_cell_formula_units_Z   2
loop_
 _symmetry_equiv_pos_site_id
 _symmetry_equiv_pos_as_xyz
  1  'x, y, z'
loop_
 _atom_site_type_symbol
 _atom_site_label
 _atom_site_symmetry_multiplicity
 _atom_site_fract_x
 _atom_site_fract_y
 _atom_site_fract_z
 _atom_site_occupancy
  Sr  Sr0  1  0.54791100  0.47640900  0.74173500  1
  Sr  Sr1  1  0.45208900  0.52359100  0.25826500  1
  Zn  Zn2  1  0.14299400  0.97232300  0.30373100  1
  Zn  Zn3  1  0.85700600  0.02767700  0.69626900  1
  O  O4  1  0.30686700  0.80136700  0.04750100  1
  O  O5  1  0.69313300  0.19863300  0.95249900  1
  O  O6  1  0.77847300  0.71940400  0.10570400  1
  O  O7  1  0.22152700  0.28059600  0.89429600  1
  O  O8  1  0.15844000  0.75324200  0.87123000  1
  O  O9  1  0.84156000  0.24675800  0.12877000  1
  O  O10  1  0.37961000  0.24982800  0.41441200  1
  O  O11  1  0.62039000  0.75017200  0.58558800  1
  O  O12  1  0.96142600  0.66886900  0.26819600  1
  O  O13  1  0.03857400  0.33113100  0.73180400  1
