# generated using pymatgen
data_VPbF5
_symmetry_space_group_name_H-M   'P 1'
_cell_length_a   11.27013880
_cell_length_b   11.27013880
_cell_length_c   11.27013880
_cell_angle_alpha   96.53242926
_cell_angle_beta   96.53242926
_cell_angle_gamma   140.57611370
_symmetry_Int_Tables_number   1
_chemical_formula_structural   VPbF5
_chemical_formula_sum   'V8 Pb8 F40'
_cell_volume   855.79906995
_cell_formula_units_Z   8
loop_
 _symmetry_equiv_pos_site_id
 _symmetry_equiv_pos_as_xyz
  1  'x, y, z'
loop_
 _atom_site_type_symbol
 _atom_site_label
 _atom_site_symmetry_multiplicity
 _atom_site_fract_x
 _atom_site_fract_y
 _atom_site_fract_z
 _atom_site_occupancy
  V  V0  1  0.71224300  0.71224300  0.00000000  1
  V  V1  1  0.31468000  0.79546700  0.15292400  1
  V  V2  1  0.64254300  0.16175500  0.84707600  1
  V  V3  1  0.79546700  0.64254300  0.48078800  1
  V  V4  1  0.16175500  0.31468000  0.51921200  1
  V  V5  1  0.22135200  0.22135200  0.00000000  1
  V  V6  1  0.97386300  0.47386300  0.50000000  1
  V  V7  1  0.47386300  0.97386300  0.50000000  1
  Pb  Pb8  1  0.04555800  0.76387900  0.82667500  1
  Pb  Pb9  1  0.93720400  0.21888300  0.17332500  1
  Pb  Pb10  1  0.76387900  0.93720400  0.71832000  1
  Pb  Pb11  1  0.21888300  0.04555800  0.28168000  1
  Pb  Pb12  1  0.24805900  0.56571200  0.83739200  1
  Pb  Pb13  1  0.72832000  0.41066700  0.16260800  1
  Pb  Pb14  1  0.56571200  0.72832000  0.31765300  1
  Pb  Pb15  1  0.41066700  0.24805900  0.68234700  1
  F  F16  1  0.08552700  0.69159700  0.18947100  1
  F  F17  1  0.50212600  0.89605600  0.81052900  1
  F  F18  1  0.69159700  0.50212600  0.60607000  1
  F  F19  1  0.89605600  0.08552700  0.39393000  1
  F  F20  1  0.72377900  0.22377900  0.50000000  1
  F  F21  1  0.22377900  0.72377900  0.50000000  1
  F  F22  1  0.46635500  0.46635500  0.00000000  1
  F  F23  1  0.19378400  0.54127500  0.13011400  1
  F  F24  1  0.41116100  0.06367000  0.86988600  1
  F  F25  1  0.54127500  0.41116100  0.34749100  1
  F  F26  1  0.06367000  0.19378400  0.65250900  1
  F  F27  1  0.20982300  0.72147700  0.96310500  1
  F  F28  1  0.75837200  0.24671800  0.03689500  1
  F  F29  1  0.72147700  0.75837200  0.51165400  1
  F  F30  1  0.24671800  0.20982300  0.48834600  1
  F  F31  1  0.76794700  0.41440500  0.86355000  1
  F  F32  1  0.55085500  0.90439700  0.13645000  1
  F  F33  1  0.41440500  0.55085500  0.64645800  1
  F  F34  1  0.90439700  0.76794700  0.35354200  1
  F  F35  1  0.96809900  0.96809900  0.00000000  1
  F  F36  1  0.04180200  0.59366000  0.68354600  1
  F  F37  1  0.91011500  0.35825700  0.31645400  1
  F  F38  1  0.59366000  0.91011500  0.55185800  1
  F  F39  1  0.35825700  0.04180200  0.44814200  1
  F  F40  1  0.09223500  0.25990100  0.92232500  1
  F  F41  1  0.33757600  0.16991000  0.07767500  1
  F  F42  1  0.25990100  0.33757600  0.16766600  1
  F  F43  1  0.16991000  0.09223500  0.83233400  1
  F  F44  1  0.42867000  0.85081100  0.33478600  1
  F  F45  1  0.51602600  0.09388400  0.66521400  1
  F  F46  1  0.85081100  0.51602600  0.42214200  1
  F  F47  1  0.09388400  0.42867000  0.57785800  1
  F  F48  1  0.84175100  0.67273600  0.08218100  1
  F  F49  1  0.59055500  0.75957100  0.91781900  1
  F  F50  1  0.67273600  0.59055500  0.83098400  1
  F  F51  1  0.75957100  0.84175100  0.16901600  1
  F  F52  1  0.85321900  0.23775400  0.80272800  1
  F  F53  1  0.43502600  0.05049100  0.19727200  1
  F  F54  1  0.23775400  0.43502600  0.38453500  1
  F  F55  1  0.05049100  0.85321900  0.61546500  1
