# generated using pymatgen
data_Sr2HBr2
_symmetry_space_group_name_H-M   'P 1'
_cell_length_a   5.36289900
_cell_length_b   5.36289900
_cell_length_c   15.60690400
_cell_angle_alpha   90.00000000
_cell_angle_beta   90.00000000
_cell_angle_gamma   90.00000000
_symmetry_Int_Tables_number   1
_chemical_formula_structural   Sr2HBr2
_chemical_formula_sum   'Sr2 H1 Br2'
_cell_volume   448.86526045
_cell_formula_units_Z   1
loop_
 _symmetry_equiv_pos_site_id
 _symmetry_equiv_pos_as_xyz
  1  'x, y, z'
loop_
 _atom_site_type_symbol
 _atom_site_label
 _atom_site_symmetry_multiplicity
 _atom_site_fract_x
 _atom_site_fract_y
 _atom_site_fract_z
 _atom_site_occupancy
  Sr  Sr0  1  0.50000000  0.50000000  0.14687200  1
  Sr  Sr1  1  0.50000000  0.50000000  0.85312800  1
  H  H2  1  0.50000000  0.50000000  0.00000000  1
  Br  Br3  1  0.50000000  0.50000000  0.67958800  1
  Br  Br4  1  0.50000000  0.50000000  0.32041200  1
