# generated using pymatgen
data_Sm5(SiB4)2
_symmetry_space_group_name_H-M   'P 1'
_cell_length_a   7.35492400
_cell_length_b   7.35492400
_cell_length_c   8.36462800
_cell_angle_alpha   90.00000000
_cell_angle_beta   90.00000000
_cell_angle_gamma   90.00000000
_symmetry_Int_Tables_number   1
_chemical_formula_structural   Sm5(SiB4)2
_chemical_formula_sum   'Sm10 Si4 B16'
_cell_volume   452.48377413
_cell_formula_units_Z   2
loop_
 _symmetry_equiv_pos_site_id
 _symmetry_equiv_pos_as_xyz
  1  'x, y, z'
loop_
 _atom_site_type_symbol
 _atom_site_label
 _atom_site_symmetry_multiplicity
 _atom_site_fract_x
 _atom_site_fract_y
 _atom_site_fract_z
 _atom_site_occupancy
  Sm  Sm0  1  0.68042100  0.18042100  0.22387200  1
  Sm  Sm1  1  0.31957900  0.81957900  0.77612800  1
  Sm  Sm2  1  0.31957900  0.81957900  0.22387200  1
  Sm  Sm3  1  0.81957900  0.68042100  0.22387200  1
  Sm  Sm4  1  0.81957900  0.68042100  0.77612800  1
  Sm  Sm5  1  0.68042100  0.18042100  0.77612800  1
  Sm  Sm6  1  0.18042100  0.31957900  0.77612800  1
  Sm  Sm7  1  0.18042100  0.31957900  0.22387200  1
  Sm  Sm8  1  0.00000000  0.00000000  0.50000000  1
  Sm  Sm9  1  0.50000000  0.50000000  0.50000000  1
  Si  Si10  1  0.11292000  0.61292000  0.50000000  1
  Si  Si11  1  0.88708000  0.38708000  0.50000000  1
  Si  Si12  1  0.38708000  0.11292000  0.50000000  1
  Si  Si13  1  0.61292000  0.88708000  0.50000000  1
  B  B14  1  0.17149800  0.03910800  0.00000000  1
  B  B15  1  0.82850200  0.96089200  0.00000000  1
  B  B16  1  0.96089200  0.17149800  0.00000000  1
  B  B17  1  0.32850200  0.53910800  0.00000000  1
  B  B18  1  0.03910800  0.82850200  0.00000000  1
  B  B19  1  0.67149800  0.46089200  0.00000000  1
  B  B20  1  0.53910800  0.67149800  0.00000000  1
  B  B21  1  0.46089200  0.32850200  0.00000000  1
  B  B22  1  0.09070800  0.59070800  0.00000000  1
  B  B23  1  0.90929200  0.40929200  0.00000000  1
  B  B24  1  0.40929200  0.09070800  0.00000000  1
  B  B25  1  0.59070800  0.90929200  0.00000000  1
  B  B26  1  0.00000000  0.00000000  0.15563700  1
  B  B27  1  0.00000000  0.00000000  0.84436300  1
  B  B28  1  0.50000000  0.50000000  0.84436300  1
  B  B29  1  0.50000000  0.50000000  0.15563700  1
