# generated using pymatgen
data_Sm3B2(O2F)3
_symmetry_space_group_name_H-M   'P 1'
_cell_length_a   7.19537704
_cell_length_b   7.19537704
_cell_length_c   8.39377954
_cell_angle_alpha   83.75649101
_cell_angle_beta   83.75649101
_cell_angle_gamma   51.86327248
_symmetry_Int_Tables_number   1
_chemical_formula_structural   Sm3B2(O2F)3
_chemical_formula_sum   'Sm6 B4 O12 F6'
_cell_volume   339.30174671
_cell_formula_units_Z   2
loop_
 _symmetry_equiv_pos_site_id
 _symmetry_equiv_pos_as_xyz
  1  'x, y, z'
loop_
 _atom_site_type_symbol
 _atom_site_label
 _atom_site_symmetry_multiplicity
 _atom_site_fract_x
 _atom_site_fract_y
 _atom_site_fract_z
 _atom_site_occupancy
  Sm  Sm0  1  0.28635000  0.06999000  0.82055200  1
  Sm  Sm1  1  0.71365000  0.93001000  0.17944800  1
  Sm  Sm2  1  0.93001000  0.71365000  0.67944800  1
  Sm  Sm3  1  0.06999000  0.28635000  0.32055200  1
  Sm  Sm4  1  0.60099600  0.39900400  0.75000000  1
  Sm  Sm5  1  0.39900400  0.60099600  0.25000000  1
  B  B6  1  0.41054500  0.22764100  0.52188400  1
  B  B7  1  0.58945500  0.77235900  0.47811600  1
  B  B8  1  0.77235900  0.58945500  0.97811600  1
  B  B9  1  0.22764100  0.41054500  0.02188400  1
  O  O10  1  0.55077100  0.74853300  0.64173700  1
  O  O11  1  0.44922900  0.25146700  0.35826300  1
  O  O12  1  0.25146700  0.44922900  0.85826300  1
  O  O13  1  0.74853300  0.55077100  0.14173700  1
  O  O14  1  0.70471400  0.81488600  0.92526000  1
  O  O15  1  0.29528600  0.18511400  0.07474000  1
  O  O16  1  0.18511400  0.29528600  0.57474000  1
  O  O17  1  0.81488600  0.70471400  0.42526000  1
  O  O18  1  0.57951400  0.11929200  0.63449900  1
  O  O19  1  0.42048600  0.88070800  0.36550100  1
  O  O20  1  0.88070800  0.42048600  0.86550100  1
  O  O21  1  0.11929200  0.57951400  0.13449900  1
  F  F22  1  0.97595100  0.02404900  0.75000000  1
  F  F23  1  0.02404900  0.97595100  0.25000000  1
  F  F24  1  0.27045000  0.62637000  0.54295500  1
  F  F25  1  0.72955000  0.37363000  0.45704500  1
  F  F26  1  0.37363000  0.72955000  0.95704500  1
  F  F27  1  0.62637000  0.27045000  0.04295500  1
