# generated using pymatgen
data_SrCa3Yb9O18
_symmetry_space_group_name_H-M   'P 1'
_cell_length_a   17.58843343
_cell_length_b   17.58843343
_cell_length_c   3.43176100
_cell_angle_alpha   90.00000000
_cell_angle_beta   90.00000000
_cell_angle_gamma   119.99999786
_symmetry_Int_Tables_number   1
_chemical_formula_structural   SrCa3Yb9O18
_chemical_formula_sum   'Sr2 Ca6 Yb18 O36'
_cell_volume   919.39469659
_cell_formula_units_Z   2
loop_
 _symmetry_equiv_pos_site_id
 _symmetry_equiv_pos_as_xyz
  1  'x, y, z'
loop_
 _atom_site_type_symbol
 _atom_site_label
 _atom_site_symmetry_multiplicity
 _atom_site_fract_x
 _atom_site_fract_y
 _atom_site_fract_z
 _atom_site_occupancy
  Sr  Sr0  1  0.33333300  0.66666700  0.97956900  1
  Sr  Sr1  1  0.66666700  0.33333300  0.47956900  1
  Ca  Ca2  1  0.66774500  0.99669800  0.74953300  1
  Ca  Ca3  1  0.32895300  0.33225500  0.74953300  1
  Ca  Ca4  1  0.33225500  0.00330200  0.24953300  1
  Ca  Ca5  1  0.00330200  0.67104700  0.74953300  1
  Ca  Ca6  1  0.67104700  0.66774500  0.24953300  1
  Ca  Ca7  1  0.99669800  0.32895300  0.24953300  1
  Yb  Yb8  1  0.55600900  0.77324900  0.75064800  1
  Yb  Yb9  1  0.21724000  0.44399100  0.75064800  1
  Yb  Yb10  1  0.44399100  0.22675100  0.25064800  1
  Yb  Yb11  1  0.22675100  0.78276000  0.75064800  1
  Yb  Yb12  1  0.78276000  0.55600900  0.25064800  1
  Yb  Yb13  1  0.77324900  0.21724000  0.25064800  1
  Yb  Yb14  1  0.87237200  0.75589900  0.74656300  1
  Yb  Yb15  1  0.88352700  0.12762800  0.74656300  1
  Yb  Yb16  1  0.12762800  0.24410100  0.24656300  1
  Yb  Yb17  1  0.24410100  0.11647300  0.74656300  1
  Yb  Yb18  1  0.11647300  0.87237200  0.24656300  1
  Yb  Yb19  1  0.75589900  0.88352700  0.24656300  1
  Yb  Yb20  1  0.90032100  0.44516700  0.75527700  1
  Yb  Yb21  1  0.54484500  0.09967900  0.75527700  1
  Yb  Yb22  1  0.09967900  0.55483300  0.25527700  1
  Yb  Yb23  1  0.55483300  0.45515500  0.75527700  1
  Yb  Yb24  1  0.45515500  0.90032100  0.25527700  1
  Yb  Yb25  1  0.44516700  0.54484500  0.25527700  1
  O  O26  1  0.45741000  0.81741200  0.75534200  1
  O  O27  1  0.36000200  0.54259000  0.75534200  1
  O  O28  1  0.54259000  0.18258800  0.25534200  1
  O  O29  1  0.18258800  0.63999800  0.75534200  1
  O  O30  1  0.63999800  0.45741000  0.25534200  1
  O  O31  1  0.81741200  0.36000200  0.25534200  1
  O  O32  1  0.79080200  0.47424000  0.75985000  1
  O  O33  1  0.68343800  0.20919800  0.75985000  1
  O  O34  1  0.20919800  0.52576000  0.25985000  1
  O  O35  1  0.52576000  0.31656200  0.75985000  1
  O  O36  1  0.31656200  0.79080200  0.25985000  1
  O  O37  1  0.47424000  0.68343800  0.25985000  1
  O  O38  1  0.41337100  0.96866000  0.75127400  1
  O  O39  1  0.55528900  0.58662900  0.75127400  1
  O  O40  1  0.58662900  0.03134000  0.25127400  1
  O  O41  1  0.03134000  0.44471100  0.75127400  1
  O  O42  1  0.44471100  0.41337100  0.25127400  1
  O  O43  1  0.96866000  0.55528900  0.25127400  1
  O  O44  1  0.79627700  0.97939500  0.74617200  1
  O  O45  1  0.18311800  0.20372300  0.74617200  1
  O  O46  1  0.20372300  0.02060500  0.24617200  1
  O  O47  1  0.02060500  0.81688200  0.74617200  1
  O  O48  1  0.81688200  0.79627700  0.24617200  1
  O  O49  1  0.97939500  0.18311800  0.24617200  1
  O  O50  1  0.73896200  0.62015400  0.74660700  1
  O  O51  1  0.88119200  0.26103800  0.74660700  1
  O  O52  1  0.26103800  0.37984600  0.24660700  1
  O  O53  1  0.37984600  0.11880800  0.74660700  1
  O  O54  1  0.11880800  0.73896200  0.24660700  1
  O  O55  1  0.62015400  0.88119200  0.24660700  1
  O  O56  1  0.68610300  0.77579700  0.74554400  1
  O  O57  1  0.08969400  0.31389700  0.74554400  1
  O  O58  1  0.31389700  0.22420300  0.24554400  1
  O  O59  1  0.22420300  0.91030600  0.74554400  1
  O  O60  1  0.91030600  0.68610300  0.24554400  1
  O  O61  1  0.77579700  0.08969400  0.24554400  1
