# generated using pymatgen
data_Sm6Al39V8
_symmetry_space_group_name_H-M   'P 1'
_cell_length_a   11.05386260
_cell_length_b   11.05386260
_cell_length_c   17.62277800
_cell_angle_alpha   90.00000000
_cell_angle_beta   90.00000000
_cell_angle_gamma   120.00000362
_symmetry_Int_Tables_number   1
_chemical_formula_structural   Sm6Al39V8
_chemical_formula_sum   'Sm12 Al78 V16'
_cell_volume   1864.80364966
_cell_formula_units_Z   2
loop_
 _symmetry_equiv_pos_site_id
 _symmetry_equiv_pos_as_xyz
  1  'x, y, z'
loop_
 _atom_site_type_symbol
 _atom_site_label
 _atom_site_symmetry_multiplicity
 _atom_site_fract_x
 _atom_site_fract_y
 _atom_site_fract_z
 _atom_site_occupancy
  Sm  Sm0  1  0.53397100  0.00000000  0.59878800  1
  Sm  Sm1  1  0.46602900  0.00000000  0.40121200  1
  Sm  Sm2  1  0.00000000  0.53397100  0.59878800  1
  Sm  Sm3  1  0.46602900  0.00000000  0.09878800  1
  Sm  Sm4  1  0.00000000  0.53397100  0.90121200  1
  Sm  Sm5  1  0.00000000  0.46602900  0.40121200  1
  Sm  Sm6  1  0.53397100  0.00000000  0.90121200  1
  Sm  Sm7  1  0.00000000  0.46602900  0.09878800  1
  Sm  Sm8  1  0.46602900  0.46602900  0.59878800  1
  Sm  Sm9  1  0.53397100  0.53397100  0.40121200  1
  Sm  Sm10  1  0.53397100  0.53397100  0.09878800  1
  Sm  Sm11  1  0.46602900  0.46602900  0.90121200  1
  Al  Al12  1  0.15476400  0.60401000  0.75000000  1
  Al  Al13  1  0.84523600  0.39599000  0.25000000  1
  Al  Al14  1  0.39599000  0.55075400  0.75000000  1
  Al  Al15  1  0.60401000  0.15476400  0.75000000  1
  Al  Al16  1  0.60401000  0.44924600  0.25000000  1
  Al  Al17  1  0.39599000  0.84523600  0.25000000  1
  Al  Al18  1  0.44924600  0.84523600  0.75000000  1
  Al  Al19  1  0.55075400  0.39599000  0.75000000  1
  Al  Al20  1  0.55075400  0.15476400  0.25000000  1
  Al  Al21  1  0.44924600  0.60401000  0.25000000  1
  Al  Al22  1  0.84523600  0.44924600  0.75000000  1
  Al  Al23  1  0.15476400  0.55075400  0.25000000  1
  Al  Al24  1  0.15358600  0.00000000  0.11690100  1
  Al  Al25  1  0.84641400  0.00000000  0.88309900  1
  Al  Al26  1  0.00000000  0.15358600  0.11690100  1
  Al  Al27  1  0.84641400  0.00000000  0.61690100  1
  Al  Al28  1  0.00000000  0.15358600  0.38309900  1
  Al  Al29  1  0.00000000  0.84641400  0.88309900  1
  Al  Al30  1  0.15358600  0.00000000  0.38309900  1
  Al  Al31  1  0.00000000  0.84641400  0.61690100  1
  Al  Al32  1  0.84641400  0.84641400  0.11690100  1
  Al  Al33  1  0.15358600  0.15358600  0.88309900  1
  Al  Al34  1  0.15358600  0.15358600  0.61690100  1
  Al  Al35  1  0.84641400  0.84641400  0.38309900  1
  Al  Al36  1  0.25027000  0.50054000  0.50000000  1
  Al  Al37  1  0.74973000  0.49946000  0.50000000  1
  Al  Al38  1  0.49946000  0.74973000  0.50000000  1
  Al  Al39  1  0.74973000  0.49946000  0.00000000  1
  Al  Al40  1  0.50054000  0.25027000  0.00000000  1
  Al  Al41  1  0.50054000  0.25027000  0.50000000  1
  Al  Al42  1  0.25027000  0.50054000  0.00000000  1
  Al  Al43  1  0.49946000  0.74973000  0.00000000  1
  Al  Al44  1  0.25027000  0.74973000  0.50000000  1
  Al  Al45  1  0.74973000  0.25027000  0.50000000  1
  Al  Al46  1  0.74973000  0.25027000  0.00000000  1
  Al  Al47  1  0.25027000  0.74973000  0.00000000  1
  Al  Al48  1  0.14988500  0.00000000  0.75000000  1
  Al  Al49  1  0.85011500  0.00000000  0.25000000  1
  Al  Al50  1  0.00000000  0.14988500  0.75000000  1
  Al  Al51  1  0.00000000  0.85011500  0.25000000  1
  Al  Al52  1  0.85011500  0.85011500  0.75000000  1
  Al  Al53  1  0.14988500  0.14988500  0.25000000  1
  Al  Al54  1  0.24959400  0.00000000  0.52924700  1
  Al  Al55  1  0.75040600  0.00000000  0.47075300  1
  Al  Al56  1  0.00000000  0.24959400  0.52924700  1
  Al  Al57  1  0.75040600  0.00000000  0.02924700  1
  Al  Al58  1  0.00000000  0.24959400  0.97075300  1
  Al  Al59  1  0.00000000  0.75040600  0.47075300  1
  Al  Al60  1  0.24959400  0.00000000  0.97075300  1
  Al  Al61  1  0.00000000  0.75040600  0.02924700  1
  Al  Al62  1  0.75040600  0.75040600  0.52924700  1
  Al  Al63  1  0.24959400  0.24959400  0.47075300  1
  Al  Al64  1  0.24959400  0.24959400  0.02924700  1
  Al  Al65  1  0.75040600  0.75040600  0.97075300  1
  Al  Al66  1  0.16269500  0.39563200  0.66338200  1
  Al  Al67  1  0.83730500  0.60436800  0.33661800  1
  Al  Al68  1  0.60436800  0.76706300  0.66338200  1
  Al  Al69  1  0.83730500  0.60436800  0.16338200  1
  Al  Al70  1  0.39563200  0.16269500  0.83661800  1
  Al  Al71  1  0.39563200  0.23293700  0.33661800  1
  Al  Al72  1  0.16269500  0.39563200  0.83661800  1
  Al  Al73  1  0.60436800  0.83730500  0.16338200  1
  Al  Al74  1  0.23293700  0.83730500  0.66338200  1
  Al  Al75  1  0.39563200  0.23293700  0.16338200  1
  Al  Al76  1  0.76706300  0.60436800  0.83661800  1
  Al  Al77  1  0.76706300  0.16269500  0.33661800  1
  Al  Al78  1  0.60436800  0.76706300  0.83661800  1
  Al  Al79  1  0.23293700  0.39563200  0.16338200  1
  Al  Al80  1  0.60436800  0.83730500  0.33661800  1
  Al  Al81  1  0.39563200  0.16269500  0.66338200  1
  Al  Al82  1  0.76706300  0.16269500  0.16338200  1
  Al  Al83  1  0.23293700  0.39563200  0.33661800  1
  Al  Al84  1  0.23293700  0.83730500  0.83661800  1
  Al  Al85  1  0.76706300  0.60436800  0.66338200  1
  Al  Al86  1  0.83730500  0.23293700  0.83661800  1
  Al  Al87  1  0.16269500  0.76706300  0.16338200  1
  Al  Al88  1  0.16269500  0.76706300  0.33661800  1
  Al  Al89  1  0.83730500  0.23293700  0.66338200  1
  V  V90  1  0.33333300  0.66666700  0.63061700  1
  V  V91  1  0.66666700  0.33333300  0.36938300  1
  V  V92  1  0.66666700  0.33333300  0.13061700  1
  V  V93  1  0.66666700  0.33333300  0.86938300  1
  V  V94  1  0.33333300  0.66666700  0.86938300  1
  V  V95  1  0.33333300  0.66666700  0.13061700  1
  V  V96  1  0.33333300  0.66666700  0.36938300  1
  V  V97  1  0.66666700  0.33333300  0.63061700  1
  V  V98  1  0.00000000  0.00000000  0.50000000  1
  V  V99  1  0.00000000  0.00000000  0.00000000  1
  V  V100  1  0.73758800  0.00000000  0.75000000  1
  V  V101  1  0.26241200  0.00000000  0.25000000  1
  V  V102  1  0.00000000  0.73758800  0.75000000  1
  V  V103  1  0.00000000  0.26241200  0.25000000  1
  V  V104  1  0.26241200  0.26241200  0.75000000  1
  V  V105  1  0.73758800  0.73758800  0.25000000  1
