# generated using pymatgen
data_SmS3(NO3)3
_symmetry_space_group_name_H-M   'P 1'
_cell_length_a   9.86084005
_cell_length_b   9.86084005
_cell_length_c   5.79704100
_cell_angle_alpha   90.00000000
_cell_angle_beta   90.00000000
_cell_angle_gamma   120.00000033
_symmetry_Int_Tables_number   1
_chemical_formula_structural   SmS3(NO3)3
_chemical_formula_sum   'Sm2 S6 N6 O18'
_cell_volume   488.16296795
_cell_formula_units_Z   2
loop_
 _symmetry_equiv_pos_site_id
 _symmetry_equiv_pos_as_xyz
  1  'x, y, z'
loop_
 _atom_site_type_symbol
 _atom_site_label
 _atom_site_symmetry_multiplicity
 _atom_site_fract_x
 _atom_site_fract_y
 _atom_site_fract_z
 _atom_site_occupancy
  Sm  Sm0  1  0.66666700  0.33333300  0.25000000  1
  Sm  Sm1  1  0.33333300  0.66666700  0.75000000  1
  S  S2  1  0.08670400  0.40084600  0.25000000  1
  S  S3  1  0.91329600  0.59915400  0.75000000  1
  S  S4  1  0.59915400  0.68585800  0.25000000  1
  S  S5  1  0.40084600  0.31414200  0.75000000  1
  S  S6  1  0.31414200  0.91329600  0.25000000  1
  S  S7  1  0.68585800  0.08670400  0.75000000  1
  N  N8  1  0.14471400  0.26926300  0.25000000  1
  N  N9  1  0.85528600  0.73073700  0.75000000  1
  N  N10  1  0.73073700  0.87545100  0.25000000  1
  N  N11  1  0.26926300  0.12454900  0.75000000  1
  N  N12  1  0.12454900  0.85528600  0.25000000  1
  N  N13  1  0.87545100  0.14471400  0.75000000  1
  O  O14  1  0.39484200  0.08444900  0.25000000  1
  O  O15  1  0.60515800  0.91555100  0.75000000  1
  O  O16  1  0.91555100  0.31039400  0.25000000  1
  O  O17  1  0.08444900  0.68960600  0.75000000  1
  O  O18  1  0.68960600  0.60515800  0.25000000  1
  O  O19  1  0.31039400  0.39484200  0.75000000  1
  O  O20  1  0.15197800  0.49413700  0.03996200  1
  O  O21  1  0.84802200  0.50586300  0.96003800  1
  O  O22  1  0.50586300  0.65784100  0.03996200  1
  O  O23  1  0.84802200  0.50586300  0.53996200  1
  O  O24  1  0.49413700  0.34215900  0.96003800  1
  O  O25  1  0.15197800  0.49413700  0.46003800  1
  O  O26  1  0.34215900  0.84802200  0.03996200  1
  O  O27  1  0.49413700  0.34215900  0.53996200  1
  O  O28  1  0.65784100  0.15197800  0.96003800  1
  O  O29  1  0.50586300  0.65784100  0.46003800  1
  O  O30  1  0.65784100  0.15197800  0.53996200  1
  O  O31  1  0.34215900  0.84802200  0.46003800  1
