# generated using pymatgen
data_Sm4MgPd
_symmetry_space_group_name_H-M   'P 1'
_cell_length_a   9.97728093
_cell_length_b   9.97728093
_cell_length_c   9.97728093
_cell_angle_alpha   60.00000000
_cell_angle_beta   60.00000000
_cell_angle_gamma   60.00000000
_symmetry_Int_Tables_number   1
_chemical_formula_structural   Sm4MgPd
_chemical_formula_sum   'Sm16 Mg4 Pd4'
_cell_volume   702.29827866
_cell_formula_units_Z   4
loop_
 _symmetry_equiv_pos_site_id
 _symmetry_equiv_pos_as_xyz
  1  'x, y, z'
loop_
 _atom_site_type_symbol
 _atom_site_label
 _atom_site_symmetry_multiplicity
 _atom_site_fract_x
 _atom_site_fract_y
 _atom_site_fract_z
 _atom_site_occupancy
  Sm  Sm0  1  0.59902600  0.59902600  0.59902600  1
  Sm  Sm1  1  0.59902600  0.59902600  0.20292200  1
  Sm  Sm2  1  0.59902600  0.20292200  0.59902600  1
  Sm  Sm3  1  0.20292200  0.59902600  0.59902600  1
  Sm  Sm4  1  0.06015000  0.43985000  0.43985000  1
  Sm  Sm5  1  0.43985000  0.06015000  0.06015000  1
  Sm  Sm6  1  0.43985000  0.06015000  0.43985000  1
  Sm  Sm7  1  0.06015000  0.43985000  0.06015000  1
  Sm  Sm8  1  0.43985000  0.43985000  0.06015000  1
  Sm  Sm9  1  0.06015000  0.06015000  0.43985000  1
  Sm  Sm10  1  0.18356500  0.81643500  0.81643500  1
  Sm  Sm11  1  0.81643500  0.18356500  0.18356500  1
  Sm  Sm12  1  0.81643500  0.18356500  0.81643500  1
  Sm  Sm13  1  0.18356500  0.81643500  0.18356500  1
  Sm  Sm14  1  0.81643500  0.81643500  0.18356500  1
  Sm  Sm15  1  0.18356500  0.18356500  0.81643500  1
  Mg  Mg16  1  0.82954100  0.82954100  0.82954100  1
  Mg  Mg17  1  0.82954100  0.82954100  0.51137600  1
  Mg  Mg18  1  0.82954100  0.51137600  0.82954100  1
  Mg  Mg19  1  0.51137600  0.82954100  0.82954100  1
  Pd  Pd20  1  0.39274500  0.39274500  0.39274500  1
  Pd  Pd21  1  0.39274500  0.39274500  0.82176500  1
  Pd  Pd22  1  0.39274500  0.82176500  0.39274500  1
  Pd  Pd23  1  0.82176500  0.39274500  0.39274500  1
