# generated using pymatgen
data_Sc2TlCu3Se5
_symmetry_space_group_name_H-M   'P 1'
_cell_length_a   7.44609395
_cell_length_b   7.44609395
_cell_length_c   16.38487500
_cell_angle_alpha   90.00000000
_cell_angle_beta   90.00000000
_cell_angle_gamma   148.97807307
_symmetry_Int_Tables_number   1
_chemical_formula_structural   Sc2TlCu3Se5
_chemical_formula_sum   'Sc4 Tl2 Cu6 Se10'
_cell_volume   468.18336746
_cell_formula_units_Z   2
loop_
 _symmetry_equiv_pos_site_id
 _symmetry_equiv_pos_as_xyz
  1  'x, y, z'
loop_
 _atom_site_type_symbol
 _atom_site_label
 _atom_site_symmetry_multiplicity
 _atom_site_fract_x
 _atom_site_fract_y
 _atom_site_fract_z
 _atom_site_occupancy
  Sc  Sc0  1  0.69193500  0.30806500  0.59399200  1
  Sc  Sc1  1  0.30806500  0.69193500  0.40600800  1
  Sc  Sc2  1  0.30806500  0.69193500  0.09399200  1
  Sc  Sc3  1  0.69193500  0.30806500  0.90600800  1
  Tl  Tl4  1  0.56483500  0.43516500  0.25000000  1
  Tl  Tl5  1  0.43516500  0.56483500  0.75000000  1
  Cu  Cu6  1  0.91740600  0.08259400  0.53585000  1
  Cu  Cu7  1  0.08259400  0.91740600  0.46415000  1
  Cu  Cu8  1  0.08259400  0.91740600  0.03585000  1
  Cu  Cu9  1  0.91740600  0.08259400  0.96415000  1
  Cu  Cu10  1  0.84731300  0.15268700  0.25000000  1
  Cu  Cu11  1  0.15268700  0.84731300  0.75000000  1
  Se  Se12  1  0.24950300  0.75049700  0.25000000  1
  Se  Se13  1  0.75049700  0.24950300  0.75000000  1
  Se  Se14  1  0.93651700  0.06348300  0.11705300  1
  Se  Se15  1  0.06348300  0.93651700  0.88294700  1
  Se  Se16  1  0.06348300  0.93651700  0.61705300  1
  Se  Se17  1  0.93651700  0.06348300  0.38294700  1
  Se  Se18  1  0.67409800  0.32590200  0.07086700  1
  Se  Se19  1  0.32590200  0.67409800  0.92913300  1
  Se  Se20  1  0.32590200  0.67409800  0.57086700  1
  Se  Se21  1  0.67409800  0.32590200  0.42913300  1
