# generated using pymatgen
data_Sr2EuTaO6
_symmetry_space_group_name_H-M   'P 1'
_cell_length_a   5.87880771
_cell_length_b   6.07549900
_cell_length_c   8.39717027
_cell_angle_alpha   90.00000000
_cell_angle_beta   90.04397225
_cell_angle_gamma   90.00000000
_symmetry_Int_Tables_number   1
_chemical_formula_structural   Sr2EuTaO6
_chemical_formula_sum   'Sr4 Eu2 Ta2 O12'
_cell_volume   299.91904233
_cell_formula_units_Z   2
loop_
 _symmetry_equiv_pos_site_id
 _symmetry_equiv_pos_as_xyz
  1  'x, y, z'
loop_
 _atom_site_type_symbol
 _atom_site_label
 _atom_site_symmetry_multiplicity
 _atom_site_fract_x
 _atom_site_fract_y
 _atom_site_fract_z
 _atom_site_occupancy
  Sr  Sr0  1  0.01263800  0.45260400  0.25350100  1
  Sr  Sr1  1  0.98736200  0.54739600  0.74649900  1
  Sr  Sr2  1  0.48736200  0.95260400  0.24649900  1
  Sr  Sr3  1  0.51263800  0.04739600  0.75350100  1
  Eu  Eu4  1  0.00000000  0.00000000  0.50000000  1
  Eu  Eu5  1  0.50000000  0.50000000  0.00000000  1
  Ta  Ta6  1  0.00000000  0.00000000  0.00000000  1
  Ta  Ta7  1  0.50000000  0.50000000  0.50000000  1
  O  O8  1  0.90931200  0.03694200  0.23112400  1
  O  O9  1  0.09068800  0.96305800  0.76887600  1
  O  O10  1  0.59068800  0.53694200  0.26887600  1
  O  O11  1  0.40931200  0.46305800  0.73112400  1
  O  O12  1  0.18662000  0.72912800  0.05503900  1
  O  O13  1  0.81338000  0.27087200  0.94496100  1
  O  O14  1  0.31338000  0.22912800  0.44496100  1
  O  O15  1  0.68662000  0.77087200  0.55503900  1
  O  O16  1  0.27612600  0.18856700  0.04177300  1
  O  O17  1  0.72387400  0.81143300  0.95822700  1
  O  O18  1  0.22387400  0.68856700  0.45822700  1
  O  O19  1  0.77612600  0.31143300  0.54177300  1
