# generated using pymatgen
data_Sr3Yb2O12
_symmetry_space_group_name_H-M   'P 1'
_cell_length_a   12.71279740
_cell_length_b   12.71279740
_cell_length_c   12.71279740
_cell_angle_alpha   109.47122063
_cell_angle_beta   109.47122063
_cell_angle_gamma   109.47122063
_symmetry_Int_Tables_number   1
_chemical_formula_structural   Sr3Yb2O12
_chemical_formula_sum   'Sr12 Yb8 O48'
_cell_volume   1581.61759070
_cell_formula_units_Z   4
loop_
 _symmetry_equiv_pos_site_id
 _symmetry_equiv_pos_as_xyz
  1  'x, y, z'
loop_
 _atom_site_type_symbol
 _atom_site_label
 _atom_site_symmetry_multiplicity
 _atom_site_fract_x
 _atom_site_fract_y
 _atom_site_fract_z
 _atom_site_occupancy
  Sr  Sr0  1  0.25000000  0.37500000  0.12500000  1
  Sr  Sr1  1  0.75000000  0.62500000  0.87500000  1
  Sr  Sr2  1  0.75000000  0.12500000  0.37500000  1
  Sr  Sr3  1  0.12500000  0.25000000  0.37500000  1
  Sr  Sr4  1  0.37500000  0.75000000  0.12500000  1
  Sr  Sr5  1  0.25000000  0.87500000  0.62500000  1
  Sr  Sr6  1  0.87500000  0.75000000  0.62500000  1
  Sr  Sr7  1  0.62500000  0.25000000  0.87500000  1
  Sr  Sr8  1  0.37500000  0.12500000  0.25000000  1
  Sr  Sr9  1  0.62500000  0.87500000  0.75000000  1
  Sr  Sr10  1  0.12500000  0.37500000  0.75000000  1
  Sr  Sr11  1  0.87500000  0.62500000  0.25000000  1
  Yb  Yb12  1  0.00000000  0.00000000  0.00000000  1
  Yb  Yb13  1  0.50000000  0.00000000  0.50000000  1
  Yb  Yb14  1  0.00000000  0.50000000  0.50000000  1
  Yb  Yb15  1  0.50000000  0.00000000  0.00000000  1
  Yb  Yb16  1  0.50000000  0.50000000  0.00000000  1
  Yb  Yb17  1  0.50000000  0.50000000  0.50000000  1
  Yb  Yb18  1  0.00000000  0.00000000  0.50000000  1
  Yb  Yb19  1  0.00000000  0.50000000  0.00000000  1
  O  O20  1  0.42225600  0.35966500  0.29407300  1
  O  O21  1  0.57774400  0.64033500  0.70592700  1
  O  O22  1  0.56559100  0.12818300  0.20592700  1
  O  O23  1  0.93440900  0.14033500  0.56259100  1
  O  O24  1  0.29407300  0.42225600  0.35966500  1
  O  O25  1  0.37181700  0.93440900  0.29407300  1
  O  O26  1  0.43440900  0.87181700  0.79407300  1
  O  O27  1  0.06559100  0.85966500  0.43740900  1
  O  O28  1  0.70592700  0.57774400  0.64033500  1
  O  O29  1  0.62818300  0.06559100  0.70592700  1
  O  O30  1  0.07774400  0.37181700  0.93740900  1
  O  O31  1  0.20592700  0.56559100  0.12818300  1
  O  O32  1  0.14033500  0.07774400  0.20592700  1
  O  O33  1  0.92225600  0.62818300  0.06259100  1
  O  O34  1  0.79407300  0.43440900  0.87181700  1
  O  O35  1  0.85966500  0.92225600  0.79407300  1
  O  O36  1  0.56259100  0.93440900  0.14033500  1
  O  O37  1  0.12818300  0.42225600  0.56259100  1
  O  O38  1  0.43740900  0.06559100  0.85966500  1
  O  O39  1  0.87181700  0.57774400  0.43740900  1
  O  O40  1  0.93740900  0.07774400  0.37181700  1
  O  O41  1  0.35966500  0.56559100  0.93740900  1
  O  O42  1  0.06259100  0.92225600  0.62818300  1
  O  O43  1  0.64033500  0.43440900  0.06259100  1
  O  O44  1  0.35966500  0.29407300  0.42225600  1
  O  O45  1  0.56559100  0.93740900  0.35966500  1
  O  O46  1  0.64033500  0.70592700  0.57774400  1
  O  O47  1  0.43440900  0.06259100  0.64033500  1
  O  O48  1  0.14033500  0.56259100  0.93440900  1
  O  O49  1  0.07774400  0.20592700  0.14033500  1
  O  O50  1  0.85966500  0.43740900  0.06559100  1
  O  O51  1  0.92225600  0.79407300  0.85966500  1
  O  O52  1  0.37181700  0.93740900  0.07774400  1
  O  O53  1  0.93440900  0.29407300  0.37181700  1
  O  O54  1  0.62818300  0.06259100  0.92225600  1
  O  O55  1  0.06559100  0.70592700  0.62818300  1
  O  O56  1  0.12818300  0.20592700  0.56559100  1
  O  O57  1  0.42225600  0.56259100  0.12818300  1
  O  O58  1  0.87181700  0.79407300  0.43440900  1
  O  O59  1  0.57774400  0.43740900  0.87181700  1
  O  O60  1  0.29407300  0.37181700  0.93440900  1
  O  O61  1  0.70592700  0.62818300  0.06559100  1
  O  O62  1  0.20592700  0.14033500  0.07774400  1
  O  O63  1  0.79407300  0.85966500  0.92225600  1
  O  O64  1  0.93740900  0.35966500  0.56559100  1
  O  O65  1  0.06259100  0.64033500  0.43440900  1
  O  O66  1  0.56259100  0.12818300  0.42225600  1
  O  O67  1  0.43740900  0.87181700  0.57774400  1
