# generated using pymatgen
data_Sr2LaCu2(BiO4)2
_symmetry_space_group_name_H-M   'P 1'
_cell_length_a   15.71959416
_cell_length_b   15.71959416
_cell_length_c   5.40397600
_cell_angle_alpha   90.00000000
_cell_angle_beta   90.00000000
_cell_angle_gamma   159.44156572
_symmetry_Int_Tables_number   1
_chemical_formula_structural   Sr2LaCu2(BiO4)2
_chemical_formula_sum   'Sr4 La2 Cu4 Bi4 O16'
_cell_volume   468.92585830
_cell_formula_units_Z   2
loop_
 _symmetry_equiv_pos_site_id
 _symmetry_equiv_pos_as_xyz
  1  'x, y, z'
loop_
 _atom_site_type_symbol
 _atom_site_label
 _atom_site_symmetry_multiplicity
 _atom_site_fract_x
 _atom_site_fract_y
 _atom_site_fract_z
 _atom_site_occupancy
  Sr  Sr0  1  0.61444400  0.88757500  0.50000000  1
  Sr  Sr1  1  0.38555600  0.11242500  0.50000000  1
  Sr  Sr2  1  0.11242500  0.38555600  0.00000000  1
  Sr  Sr3  1  0.88757500  0.61444400  0.00000000  1
  La  La4  1  0.50000000  0.00000000  0.50000000  1
  La  La5  1  0.00000000  0.50000000  0.00000000  1
  Cu  Cu6  1  0.05506800  0.44386900  0.50000000  1
  Cu  Cu7  1  0.94493200  0.55613100  0.50000000  1
  Cu  Cu8  1  0.55613100  0.94493200  0.00000000  1
  Cu  Cu9  1  0.44386900  0.05506800  0.00000000  1
  Bi  Bi10  1  0.22895000  0.32258600  0.50000000  1
  Bi  Bi11  1  0.77105000  0.67741400  0.50000000  1
  Bi  Bi12  1  0.67741400  0.77105000  0.00000000  1
  Bi  Bi13  1  0.32258600  0.22895000  0.00000000  1
  O  O14  1  0.12571600  0.35458300  0.50000000  1
  O  O15  1  0.87428400  0.64541700  0.50000000  1
  O  O16  1  0.64541700  0.87428400  0.00000000  1
  O  O17  1  0.35458300  0.12571600  0.00000000  1
  O  O18  1  0.69706000  0.30294000  0.75000000  1
  O  O19  1  0.30294000  0.69706000  0.25000000  1
  O  O20  1  0.30294000  0.69706000  0.75000000  1
  O  O21  1  0.69706000  0.30294000  0.25000000  1
  O  O22  1  0.61161100  0.71021700  0.50000000  1
  O  O23  1  0.38838900  0.28978300  0.50000000  1
  O  O24  1  0.28978300  0.38838900  0.00000000  1
  O  O25  1  0.71021700  0.61161100  0.00000000  1
  O  O26  1  0.80287600  0.19712400  0.75000000  1
  O  O27  1  0.19712400  0.80287600  0.25000000  1
  O  O28  1  0.19712400  0.80287600  0.75000000  1
  O  O29  1  0.80287600  0.19712400  0.25000000  1
