# generated using pymatgen
data_Sr2Ca2Ga(CuO3)3
_symmetry_space_group_name_H-M   'P 1'
_cell_length_a   15.41222772
_cell_length_b   15.41222772
_cell_length_c   15.41222772
_cell_angle_alpha   159.86534473
_cell_angle_beta   159.52327445
_cell_angle_gamma   28.87200104
_symmetry_Int_Tables_number   1
_chemical_formula_structural   Sr2Ca2Ga(CuO3)3
_chemical_formula_sum   'Sr4 Ca4 Ga2 Cu6 O18'
_cell_volume   440.62764385
_cell_formula_units_Z   2
loop_
 _symmetry_equiv_pos_site_id
 _symmetry_equiv_pos_as_xyz
  1  'x, y, z'
loop_
 _atom_site_type_symbol
 _atom_site_label
 _atom_site_symmetry_multiplicity
 _atom_site_fract_x
 _atom_site_fract_y
 _atom_site_fract_z
 _atom_site_occupancy
  Sr  Sr0  1  0.68723200  0.18897600  0.53099200  1
  Sr  Sr1  1  0.31276800  0.84376000  0.50174400  1
  Sr  Sr2  1  0.15798500  0.68897600  0.50174400  1
  Sr  Sr3  1  0.84201500  0.34376000  0.53099200  1
  Ca  Ca4  1  0.55461900  0.06697900  0.50957800  1
  Ca  Ca5  1  0.44538100  0.95496000  0.51236000  1
  Ca  Ca6  1  0.05740000  0.56697900  0.51236000  1
  Ca  Ca7  1  0.94260000  0.45496000  0.50957800  1
  Ga  Ga8  1  0.32082700  0.31125500  0.13208200  1
  Ga  Ga9  1  0.67917300  0.81125500  0.99042800  1
  Cu  Cu10  1  0.00000000  0.00969300  0.00969300  1
  Cu  Cu11  1  0.50000000  0.50969300  0.00969300  1
  Cu  Cu12  1  0.11405200  0.12603200  0.01243900  1
  Cu  Cu13  1  0.88594800  0.89838700  0.01198000  1
  Cu  Cu14  1  0.61359300  0.62603200  0.01198000  1
  Cu  Cu15  1  0.38640700  0.39838700  0.01243900  1
  O  O16  1  0.73612500  0.68736400  0.03780200  1
  O  O17  1  0.26387500  0.30167800  0.95124000  1
  O  O18  1  0.14956200  0.18736400  0.95124000  1
  O  O19  1  0.85043800  0.80167800  0.03780200  1
  O  O20  1  0.85402400  0.86972300  0.51293300  1
  O  O21  1  0.14597600  0.65890900  0.01569900  1
  O  O22  1  0.85679000  0.36972300  0.01569900  1
  O  O23  1  0.14321000  0.15890900  0.51293300  1
  O  O24  1  0.25022700  0.25968700  0.50826000  1
  O  O25  1  0.74977300  0.25803300  0.00946000  1
  O  O26  1  0.25142700  0.75968700  0.00946000  1
  O  O27  1  0.74857300  0.75803300  0.50826000  1
  O  O28  1  0.36458300  0.66250400  0.52708700  1
  O  O29  1  0.63541700  0.16250400  0.29792100  1
  O  O30  1  0.36013600  0.37004100  0.51315500  1
  O  O31  1  0.63986400  0.15301900  0.00990500  1
  O  O32  1  0.35688600  0.87004100  0.00990500  1
  O  O33  1  0.64311400  0.65301900  0.51315500  1
