# generated using pymatgen
data_Yb6NpO12
_symmetry_space_group_name_H-M   'P 1'
_cell_length_a   9.69727257
_cell_length_b   9.26740332
_cell_length_c   9.06901182
_cell_angle_alpha   140.01067365
_cell_angle_beta   113.46031168
_cell_angle_gamma   56.54534652
_symmetry_Int_Tables_number   1
_chemical_formula_structural   Yb6NpO12
_chemical_formula_sum   'Yb6 Np1 O12'
_cell_volume   436.54374675
_cell_formula_units_Z   1
loop_
 _symmetry_equiv_pos_site_id
 _symmetry_equiv_pos_as_xyz
  1  'x, y, z'
loop_
 _atom_site_type_symbol
 _atom_site_label
 _atom_site_symmetry_multiplicity
 _atom_site_fract_x
 _atom_site_fract_y
 _atom_site_fract_z
 _atom_site_occupancy
  Yb  Yb0  1  0.06724600  0.82778800  0.23890600  1
  Yb  Yb1  1  0.93275400  0.17221200  0.76109400  1
  Yb  Yb2  1  0.67168500  0.90180300  0.11129000  1
  Yb  Yb3  1  0.32831500  0.09819700  0.88871000  1
  Yb  Yb4  1  0.85793000  0.57665300  0.65492700  1
  Yb  Yb5  1  0.14207000  0.42334700  0.34507300  1
  Np  Np6  1  0.00000000  0.00000000  0.00000000  1
  O  O7  1  0.96924800  0.75565400  0.65998000  1
  O  O8  1  0.03075200  0.24434600  0.34002000  1
  O  O9  1  0.16814600  0.73560100  0.96881400  1
  O  O10  1  0.83185400  0.26439900  0.03118600  1
  O  O11  1  0.84370200  0.93903500  0.04142700  1
  O  O12  1  0.15629800  0.06096500  0.95857300  1
  O  O13  1  0.59397300  0.80486700  0.77541100  1
  O  O14  1  0.40602700  0.19513300  0.22458900  1
  O  O15  1  0.85332400  0.49982100  0.83747000  1
  O  O16  1  0.14667600  0.50017900  0.16253000  1
  O  O17  1  0.84072500  0.97324400  0.40173400  1
  O  O18  1  0.15927500  0.02675600  0.59826600  1
