# generated using pymatgen
data_SrSn2Br6O5
_symmetry_space_group_name_H-M   'P 1'
_cell_length_a   9.38453703
_cell_length_b   9.38453703
_cell_length_c   11.04535873
_cell_angle_alpha   72.20679949
_cell_angle_beta   72.20679949
_cell_angle_gamma   102.71949962
_symmetry_Int_Tables_number   1
_chemical_formula_structural   SrSn2Br6O5
_chemical_formula_sum   'Sr2 Sn4 Br12 O10'
_cell_volume   827.49758490
_cell_formula_units_Z   2
loop_
 _symmetry_equiv_pos_site_id
 _symmetry_equiv_pos_as_xyz
  1  'x, y, z'
loop_
 _atom_site_type_symbol
 _atom_site_label
 _atom_site_symmetry_multiplicity
 _atom_site_fract_x
 _atom_site_fract_y
 _atom_site_fract_z
 _atom_site_occupancy
  Sr  Sr0  1  0.87918100  0.12081900  0.75000000  1
  Sr  Sr1  1  0.12081900  0.87918100  0.25000000  1
  Sn  Sn2  1  0.62979700  0.78712000  0.41088600  1
  Sn  Sn3  1  0.37020300  0.21288000  0.58911400  1
  Sn  Sn4  1  0.21288000  0.37020300  0.08911400  1
  Sn  Sn5  1  0.78712000  0.62979700  0.91088600  1
  Br  Br6  1  0.36712100  0.58166700  0.59024100  1
  Br  Br7  1  0.63287900  0.41833300  0.40975900  1
  Br  Br8  1  0.41833300  0.63287900  0.90975900  1
  Br  Br9  1  0.58166700  0.36712100  0.09024100  1
  Br  Br10  1  0.34348500  0.02874200  0.46392000  1
  Br  Br11  1  0.65651500  0.97125800  0.53608000  1
  Br  Br12  1  0.97125800  0.65651500  0.03608000  1
  Br  Br13  1  0.02874200  0.34348500  0.96392000  1
  Br  Br14  1  0.47704300  0.12784500  0.79120800  1
  Br  Br15  1  0.52295700  0.87215500  0.20879200  1
  Br  Br16  1  0.87215500  0.52295700  0.70879200  1
  Br  Br17  1  0.12784500  0.47704300  0.29120800  1
  O  O18  1  0.93420100  0.00606800  0.00627800  1
  O  O19  1  0.06579900  0.99393200  0.99372200  1
  O  O20  1  0.99393200  0.06579900  0.49372200  1
  O  O21  1  0.00606800  0.93420100  0.50627800  1
  O  O22  1  0.78908300  0.84103800  0.83019800  1
  O  O23  1  0.21091700  0.15896200  0.16980200  1
  O  O24  1  0.15896200  0.21091700  0.66980200  1
  O  O25  1  0.84103800  0.78908300  0.33019800  1
  O  O26  1  0.69860300  0.30139700  0.75000000  1
  O  O27  1  0.30139700  0.69860300  0.25000000  1
