# generated using pymatgen
data_SiCCl3
_symmetry_space_group_name_H-M   'P 1'
_cell_length_a   9.59651718
_cell_length_b   9.59651718
_cell_length_c   9.65350471
_cell_angle_alpha   84.01397088
_cell_angle_beta   84.01397088
_cell_angle_gamma   101.05467148
_symmetry_Int_Tables_number   1
_chemical_formula_structural   SiCCl3
_chemical_formula_sum   'Si6 C6 Cl18'
_cell_volume   860.70505239
_cell_formula_units_Z   6
loop_
 _symmetry_equiv_pos_site_id
 _symmetry_equiv_pos_as_xyz
  1  'x, y, z'
loop_
 _atom_site_type_symbol
 _atom_site_label
 _atom_site_symmetry_multiplicity
 _atom_site_fract_x
 _atom_site_fract_y
 _atom_site_fract_z
 _atom_site_occupancy
  Si  Si0  1  0.40709000  0.18170100  0.24334900  1
  Si  Si1  1  0.59291000  0.81829900  0.75665100  1
  Si  Si2  1  0.81829900  0.59291000  0.75665100  1
  Si  Si3  1  0.18170100  0.40709000  0.24334900  1
  Si  Si4  1  0.89488200  0.89488200  0.31376300  1
  Si  Si5  1  0.10511800  0.10511800  0.68623700  1
  C  C6  1  0.76768400  0.76768400  0.69620200  1
  C  C7  1  0.23231600  0.23231600  0.30379800  1
  C  C8  1  0.94032800  0.94032800  0.49240000  1
  C  C9  1  0.05967200  0.05967200  0.50760000  1
  C  C10  1  0.85610600  0.85610600  0.59836800  1
  C  C11  1  0.14389400  0.14389400  0.40163200  1
  Cl  Cl12  1  0.43850200  0.18611700  0.03086100  1
  Cl  Cl13  1  0.56149800  0.81388300  0.96913900  1
  Cl  Cl14  1  0.81388300  0.56149800  0.96913900  1
  Cl  Cl15  1  0.18611700  0.43850200  0.03086100  1
  Cl  Cl16  1  0.57311200  0.32073000  0.30227700  1
  Cl  Cl17  1  0.42688800  0.67927000  0.69772300  1
  Cl  Cl18  1  0.67927000  0.42688800  0.69772300  1
  Cl  Cl19  1  0.32073000  0.57311200  0.30227700  1
  Cl  Cl20  1  0.41302300  0.98127600  0.33272500  1
  Cl  Cl21  1  0.58697700  0.01872400  0.66727500  1
  Cl  Cl22  1  0.01872400  0.58697700  0.66727500  1
  Cl  Cl23  1  0.98127600  0.41302300  0.33272500  1
  Cl  Cl24  1  0.84227100  0.06509800  0.20154200  1
  Cl  Cl25  1  0.15772900  0.93490200  0.79845800  1
  Cl  Cl26  1  0.93490200  0.15772900  0.79845800  1
  Cl  Cl27  1  0.06509800  0.84227100  0.20154200  1
  Cl  Cl28  1  0.72572200  0.72572200  0.33220100  1
  Cl  Cl29  1  0.27427800  0.27427800  0.66779900  1
