# generated using pymatgen
data_SrAl2C2O11
_symmetry_space_group_name_H-M   'P 1'
_cell_length_a   6.17954800
_cell_length_b   9.12332700
_cell_length_c   15.67702700
_cell_angle_alpha   90.00000000
_cell_angle_beta   90.00000000
_cell_angle_gamma   90.00000000
_symmetry_Int_Tables_number   1
_chemical_formula_structural   SrAl2C2O11
_chemical_formula_sum   'Sr4 Al8 C8 O44'
_cell_volume   883.84001008
_cell_formula_units_Z   4
loop_
 _symmetry_equiv_pos_site_id
 _symmetry_equiv_pos_as_xyz
  1  'x, y, z'
loop_
 _atom_site_type_symbol
 _atom_site_label
 _atom_site_symmetry_multiplicity
 _atom_site_fract_x
 _atom_site_fract_y
 _atom_site_fract_z
 _atom_site_occupancy
  Sr  Sr0  1  0.25000000  0.47827000  0.40689100  1
  Sr  Sr1  1  0.75000000  0.52173000  0.59310900  1
  Sr  Sr2  1  0.75000000  0.97827000  0.09310900  1
  Sr  Sr3  1  0.25000000  0.02173000  0.90689100  1
  Al  Al4  1  0.47376200  0.15862000  0.29846400  1
  Al  Al5  1  0.52623800  0.84138000  0.70153600  1
  Al  Al6  1  0.52623800  0.65862000  0.20153600  1
  Al  Al7  1  0.97376200  0.84138000  0.70153600  1
  Al  Al8  1  0.47376200  0.34138000  0.79846400  1
  Al  Al9  1  0.02623800  0.15862000  0.29846400  1
  Al  Al10  1  0.02623800  0.34138000  0.79846400  1
  Al  Al11  1  0.97376200  0.65862000  0.20153600  1
  C  C12  1  0.25000000  0.74511200  0.05321200  1
  C  C13  1  0.75000000  0.25488800  0.94678800  1
  C  C14  1  0.75000000  0.24511200  0.44678800  1
  C  C15  1  0.25000000  0.75488800  0.55321200  1
  C  C16  1  0.25000000  0.07755600  0.14235600  1
  C  C17  1  0.75000000  0.92244400  0.85764400  1
  C  C18  1  0.75000000  0.57755600  0.35764400  1
  C  C19  1  0.25000000  0.42244400  0.64235600  1
  O  O20  1  0.25000000  0.04429800  0.06352700  1
  O  O21  1  0.75000000  0.95570200  0.93647300  1
  O  O22  1  0.75000000  0.54429800  0.43647300  1
  O  O23  1  0.25000000  0.45570200  0.56352700  1
  O  O24  1  0.06620800  0.09177800  0.18261800  1
  O  O25  1  0.93379200  0.90822200  0.81738200  1
  O  O26  1  0.93379200  0.59177800  0.31738200  1
  O  O27  1  0.56620800  0.90822200  0.81738200  1
  O  O28  1  0.06620800  0.40822200  0.68261800  1
  O  O29  1  0.43379200  0.09177800  0.18261800  1
  O  O30  1  0.43379200  0.40822200  0.68261800  1
  O  O31  1  0.56620800  0.59177800  0.31738200  1
  O  O32  1  0.25000000  0.72037100  0.24565100  1
  O  O33  1  0.75000000  0.27962900  0.75434900  1
  O  O34  1  0.75000000  0.22037100  0.25434900  1
  O  O35  1  0.25000000  0.77962900  0.74565100  1
  O  O36  1  0.25000000  0.28888500  0.29343100  1
  O  O37  1  0.75000000  0.71111500  0.70656900  1
  O  O38  1  0.75000000  0.78888500  0.20656900  1
  O  O39  1  0.25000000  0.21111500  0.79343100  1
  O  O40  1  0.25000000  0.39854200  0.03802500  1
  O  O41  1  0.75000000  0.60145800  0.96197500  1
  O  O42  1  0.75000000  0.89854200  0.46197500  1
  O  O43  1  0.25000000  0.10145800  0.53802500  1
  O  O44  1  0.25000000  0.05442100  0.34417200  1
  O  O45  1  0.75000000  0.94557900  0.65582800  1
  O  O46  1  0.75000000  0.55442100  0.15582800  1
  O  O47  1  0.25000000  0.44557900  0.84417200  1
  O  O48  1  0.25000000  0.56443600  0.21220900  1
  O  O49  1  0.75000000  0.43556400  0.78779100  1
  O  O50  1  0.75000000  0.06443600  0.28779100  1
  O  O51  1  0.25000000  0.93556400  0.71220900  1
  O  O52  1  0.25000000  0.73817900  0.47309700  1
  O  O53  1  0.75000000  0.26182100  0.52690300  1
  O  O54  1  0.75000000  0.23817900  0.02690300  1
  O  O55  1  0.25000000  0.76182100  0.97309700  1
  O  O56  1  0.56557800  0.23985500  0.40638000  1
  O  O57  1  0.43442200  0.76014500  0.59362000  1
  O  O58  1  0.43442200  0.73985500  0.09362000  1
  O  O59  1  0.06557800  0.76014500  0.59362000  1
  O  O60  1  0.56557800  0.26014500  0.90638000  1
  O  O61  1  0.93442200  0.23985500  0.40638000  1
  O  O62  1  0.93442200  0.26014500  0.90638000  1
  O  O63  1  0.06557800  0.73985500  0.09362000  1
