# generated using pymatgen
data_Sb2AsS2
_symmetry_space_group_name_H-M   'P 1'
_cell_length_a   5.86266619
_cell_length_b   5.86266619
_cell_length_c   12.57728598
_cell_angle_alpha   67.42289988
_cell_angle_beta   67.42289988
_cell_angle_gamma   39.95380716
_symmetry_Int_Tables_number   1
_chemical_formula_structural   Sb2AsS2
_chemical_formula_sum   'Sb4 As2 S4'
_cell_volume   253.38545695
_cell_formula_units_Z   2
loop_
 _symmetry_equiv_pos_site_id
 _symmetry_equiv_pos_as_xyz
  1  'x, y, z'
loop_
 _atom_site_type_symbol
 _atom_site_label
 _atom_site_symmetry_multiplicity
 _atom_site_fract_x
 _atom_site_fract_y
 _atom_site_fract_z
 _atom_site_occupancy
  Sb  Sb0  1  0.28340200  0.28340200  0.67206100  1
  Sb  Sb1  1  0.71659800  0.71659800  0.32793900  1
  Sb  Sb2  1  0.90907700  0.90907700  0.90162500  1
  Sb  Sb3  1  0.09092300  0.09092300  0.09837500  1
  As  As4  1  0.11700700  0.11700700  0.48811300  1
  As  As5  1  0.88299300  0.88299300  0.51188700  1
  S  S6  1  0.67706500  0.67706500  0.92257600  1
  S  S7  1  0.32293500  0.32293500  0.07742400  1
  S  S8  1  0.52979800  0.52979800  0.26109900  1
  S  S9  1  0.47020200  0.47020200  0.73890100  1
