# generated using pymatgen
data_Sr(ClO)2
_symmetry_space_group_name_H-M   'P 1'
_cell_length_a   9.41885476
_cell_length_b   9.41885476
_cell_length_c   3.48557300
_cell_angle_alpha   90.00000000
_cell_angle_beta   90.00000000
_cell_angle_gamma   137.02165081
_symmetry_Int_Tables_number   1
_chemical_formula_structural   Sr(ClO)2
_chemical_formula_sum   'Sr2 Cl4 O4'
_cell_volume   210.80342340
_cell_formula_units_Z   2
loop_
 _symmetry_equiv_pos_site_id
 _symmetry_equiv_pos_as_xyz
  1  'x, y, z'
loop_
 _atom_site_type_symbol
 _atom_site_label
 _atom_site_symmetry_multiplicity
 _atom_site_fract_x
 _atom_site_fract_y
 _atom_site_fract_z
 _atom_site_occupancy
  Sr  Sr0  1  0.50000000  0.00000000  0.50000000  1
  Sr  Sr1  1  0.00000000  0.50000000  0.50000000  1
  Cl  Cl2  1  0.91062500  0.08937500  0.14220200  1
  Cl  Cl3  1  0.58937500  0.41062500  0.14220200  1
  Cl  Cl4  1  0.41062500  0.58937500  0.85779800  1
  Cl  Cl5  1  0.08937500  0.91062500  0.85779800  1
  O  O6  1  0.81580500  0.18419500  0.02642000  1
  O  O7  1  0.68419500  0.31580500  0.02642000  1
  O  O8  1  0.31580500  0.68419500  0.97358000  1
  O  O9  1  0.18419500  0.81580500  0.97358000  1
