# generated using pymatgen
data_Sm6Al39Cr8
_symmetry_space_group_name_H-M   'P 1'
_cell_length_a   10.94585878
_cell_length_b   10.94585878
_cell_length_c   17.43860400
_cell_angle_alpha   90.00000000
_cell_angle_beta   90.00000000
_cell_angle_gamma   120.00000474
_symmetry_Int_Tables_number   1
_chemical_formula_structural   Sm6Al39Cr8
_chemical_formula_sum   'Sm12 Al78 Cr16'
_cell_volume   1809.43092448
_cell_formula_units_Z   2
loop_
 _symmetry_equiv_pos_site_id
 _symmetry_equiv_pos_as_xyz
  1  'x, y, z'
loop_
 _atom_site_type_symbol
 _atom_site_label
 _atom_site_symmetry_multiplicity
 _atom_site_fract_x
 _atom_site_fract_y
 _atom_site_fract_z
 _atom_site_occupancy
  Sm  Sm0  1  0.53277300  0.00000000  0.59685400  1
  Sm  Sm1  1  0.46722700  0.00000000  0.40314600  1
  Sm  Sm2  1  0.00000000  0.53277300  0.59685400  1
  Sm  Sm3  1  0.46722700  0.00000000  0.09685400  1
  Sm  Sm4  1  0.00000000  0.53277300  0.90314600  1
  Sm  Sm5  1  0.00000000  0.46722700  0.40314600  1
  Sm  Sm6  1  0.53277300  0.00000000  0.90314600  1
  Sm  Sm7  1  0.00000000  0.46722700  0.09685400  1
  Sm  Sm8  1  0.46722700  0.46722700  0.59685400  1
  Sm  Sm9  1  0.53277300  0.53277300  0.40314600  1
  Sm  Sm10  1  0.53277300  0.53277300  0.09685400  1
  Sm  Sm11  1  0.46722700  0.46722700  0.90314600  1
  Al  Al12  1  0.15291900  0.60429400  0.75000000  1
  Al  Al13  1  0.84708100  0.39570600  0.25000000  1
  Al  Al14  1  0.39570600  0.54862600  0.75000000  1
  Al  Al15  1  0.60429400  0.15291900  0.75000000  1
  Al  Al16  1  0.60429400  0.45137400  0.25000000  1
  Al  Al17  1  0.39570600  0.84708100  0.25000000  1
  Al  Al18  1  0.45137400  0.84708100  0.75000000  1
  Al  Al19  1  0.54862600  0.39570600  0.75000000  1
  Al  Al20  1  0.54862600  0.15291900  0.25000000  1
  Al  Al21  1  0.45137400  0.60429400  0.25000000  1
  Al  Al22  1  0.84708100  0.45137400  0.75000000  1
  Al  Al23  1  0.15291900  0.54862600  0.25000000  1
  Al  Al24  1  0.15466100  0.00000000  0.11527400  1
  Al  Al25  1  0.84533900  0.00000000  0.88472600  1
  Al  Al26  1  0.00000000  0.15466100  0.11527400  1
  Al  Al27  1  0.84533900  0.00000000  0.61527400  1
  Al  Al28  1  0.00000000  0.15466100  0.38472600  1
  Al  Al29  1  0.00000000  0.84533900  0.88472600  1
  Al  Al30  1  0.15466100  0.00000000  0.38472600  1
  Al  Al31  1  0.00000000  0.84533900  0.61527400  1
  Al  Al32  1  0.84533900  0.84533900  0.11527400  1
  Al  Al33  1  0.15466100  0.15466100  0.88472600  1
  Al  Al34  1  0.15466100  0.15466100  0.61527400  1
  Al  Al35  1  0.84533900  0.84533900  0.38472600  1
  Al  Al36  1  0.24946700  0.49893300  0.50000000  1
  Al  Al37  1  0.75053300  0.50106700  0.50000000  1
  Al  Al38  1  0.50106700  0.75053300  0.50000000  1
  Al  Al39  1  0.75053300  0.50106700  0.00000000  1
  Al  Al40  1  0.49893300  0.24946700  0.00000000  1
  Al  Al41  1  0.49893300  0.24946700  0.50000000  1
  Al  Al42  1  0.24946700  0.49893300  0.00000000  1
  Al  Al43  1  0.50106700  0.75053300  0.00000000  1
  Al  Al44  1  0.24946700  0.75053300  0.50000000  1
  Al  Al45  1  0.75053300  0.24946700  0.50000000  1
  Al  Al46  1  0.75053300  0.24946700  0.00000000  1
  Al  Al47  1  0.24946700  0.75053300  0.00000000  1
  Al  Al48  1  0.15055600  0.00000000  0.75000000  1
  Al  Al49  1  0.84944400  0.00000000  0.25000000  1
  Al  Al50  1  0.00000000  0.15055600  0.75000000  1
  Al  Al51  1  0.00000000  0.84944400  0.25000000  1
  Al  Al52  1  0.84944400  0.84944400  0.75000000  1
  Al  Al53  1  0.15055600  0.15055600  0.25000000  1
  Al  Al54  1  0.24967300  0.00000000  0.52917500  1
  Al  Al55  1  0.75032700  0.00000000  0.47082500  1
  Al  Al56  1  0.00000000  0.24967300  0.52917500  1
  Al  Al57  1  0.75032700  0.00000000  0.02917500  1
  Al  Al58  1  0.00000000  0.24967300  0.97082500  1
  Al  Al59  1  0.00000000  0.75032700  0.47082500  1
  Al  Al60  1  0.24967300  0.00000000  0.97082500  1
  Al  Al61  1  0.00000000  0.75032700  0.02917500  1
  Al  Al62  1  0.75032700  0.75032700  0.52917500  1
  Al  Al63  1  0.24967300  0.24967300  0.47082500  1
  Al  Al64  1  0.24967300  0.24967300  0.02917500  1
  Al  Al65  1  0.75032700  0.75032700  0.97082500  1
  Al  Al66  1  0.16434000  0.39606800  0.66232000  1
  Al  Al67  1  0.83566000  0.60393200  0.33768000  1
  Al  Al68  1  0.60393200  0.76827200  0.66232000  1
  Al  Al69  1  0.83566000  0.60393200  0.16232000  1
  Al  Al70  1  0.39606800  0.16434000  0.83768000  1
  Al  Al71  1  0.39606800  0.23172800  0.33768000  1
  Al  Al72  1  0.16434000  0.39606800  0.83768000  1
  Al  Al73  1  0.60393200  0.83566000  0.16232000  1
  Al  Al74  1  0.23172800  0.83566000  0.66232000  1
  Al  Al75  1  0.39606800  0.23172800  0.16232000  1
  Al  Al76  1  0.76827200  0.60393200  0.83768000  1
  Al  Al77  1  0.76827200  0.16434000  0.33768000  1
  Al  Al78  1  0.60393200  0.76827200  0.83768000  1
  Al  Al79  1  0.23172800  0.39606800  0.16232000  1
  Al  Al80  1  0.60393200  0.83566000  0.33768000  1
  Al  Al81  1  0.39606800  0.16434000  0.66232000  1
  Al  Al82  1  0.76827200  0.16434000  0.16232000  1
  Al  Al83  1  0.23172800  0.39606800  0.33768000  1
  Al  Al84  1  0.23172800  0.83566000  0.83768000  1
  Al  Al85  1  0.76827200  0.60393200  0.66232000  1
  Al  Al86  1  0.83566000  0.23172800  0.83768000  1
  Al  Al87  1  0.16434000  0.76827200  0.16232000  1
  Al  Al88  1  0.16434000  0.76827200  0.33768000  1
  Al  Al89  1  0.83566000  0.23172800  0.66232000  1
  Cr  Cr90  1  0.33333300  0.66666700  0.63218200  1
  Cr  Cr91  1  0.66666700  0.33333300  0.36781800  1
  Cr  Cr92  1  0.66666700  0.33333300  0.13218200  1
  Cr  Cr93  1  0.66666700  0.33333300  0.86781800  1
  Cr  Cr94  1  0.33333300  0.66666700  0.86781800  1
  Cr  Cr95  1  0.33333300  0.66666700  0.13218200  1
  Cr  Cr96  1  0.33333300  0.66666700  0.36781800  1
  Cr  Cr97  1  0.66666700  0.33333300  0.63218200  1
  Cr  Cr98  1  0.00000000  0.00000000  0.50000000  1
  Cr  Cr99  1  0.00000000  0.00000000  0.00000000  1
  Cr  Cr100  1  0.74210000  0.00000000  0.75000000  1
  Cr  Cr101  1  0.25790000  0.00000000  0.25000000  1
  Cr  Cr102  1  0.00000000  0.74210000  0.75000000  1
  Cr  Cr103  1  0.00000000  0.25790000  0.25000000  1
  Cr  Cr104  1  0.25790000  0.25790000  0.75000000  1
  Cr  Cr105  1  0.74210000  0.74210000  0.25000000  1
