# generated using pymatgen
data_Sc6CdTe2
_symmetry_space_group_name_H-M   'P 1'
_cell_length_a   3.93160000
_cell_length_b   20.49209400
_cell_length_c   10.89394700
_cell_angle_alpha   90.00000000
_cell_angle_beta   90.00000000
_cell_angle_gamma   90.00000000
_symmetry_Int_Tables_number   1
_chemical_formula_structural   Sc6CdTe2
_chemical_formula_sum   'Sc24 Cd4 Te8'
_cell_volume   877.68954246
_cell_formula_units_Z   4
loop_
 _symmetry_equiv_pos_site_id
 _symmetry_equiv_pos_as_xyz
  1  'x, y, z'
loop_
 _atom_site_type_symbol
 _atom_site_label
 _atom_site_symmetry_multiplicity
 _atom_site_fract_x
 _atom_site_fract_y
 _atom_site_fract_z
 _atom_site_occupancy
  Sc  Sc0  1  0.75000000  0.63720600  0.94092200  1
  Sc  Sc1  1  0.25000000  0.36279400  0.05907800  1
  Sc  Sc2  1  0.25000000  0.86279400  0.44092200  1
  Sc  Sc3  1  0.75000000  0.13720600  0.55907800  1
  Sc  Sc4  1  0.75000000  0.99367400  0.39234800  1
  Sc  Sc5  1  0.25000000  0.00632600  0.60765200  1
  Sc  Sc6  1  0.25000000  0.50632600  0.89234800  1
  Sc  Sc7  1  0.75000000  0.49367400  0.10765200  1
  Sc  Sc8  1  0.75000000  0.53048600  0.62914100  1
  Sc  Sc9  1  0.25000000  0.46951400  0.37085900  1
  Sc  Sc10  1  0.25000000  0.96951400  0.12914100  1
  Sc  Sc11  1  0.75000000  0.03048600  0.87085900  1
  Sc  Sc12  1  0.75000000  0.73091300  0.25994000  1
  Sc  Sc13  1  0.25000000  0.26908700  0.74006000  1
  Sc  Sc14  1  0.25000000  0.76908700  0.75994000  1
  Sc  Sc15  1  0.75000000  0.23091300  0.24006000  1
  Sc  Sc16  1  0.75000000  0.89095200  0.67532900  1
  Sc  Sc17  1  0.25000000  0.10904800  0.32467100  1
  Sc  Sc18  1  0.25000000  0.60904800  0.17532900  1
  Sc  Sc19  1  0.75000000  0.39095200  0.82467100  1
  Sc  Sc20  1  0.75000000  0.83607800  0.97680600  1
  Sc  Sc21  1  0.25000000  0.16392200  0.02319400  1
  Sc  Sc22  1  0.25000000  0.66392200  0.47680600  1
  Sc  Sc23  1  0.75000000  0.33607800  0.52319400  1
  Cd  Cd24  1  0.75000000  0.57733800  0.36590000  1
  Cd  Cd25  1  0.25000000  0.42266200  0.63410000  1
  Cd  Cd26  1  0.25000000  0.92266200  0.86590000  1
  Cd  Cd27  1  0.75000000  0.07733800  0.13410000  1
  Te  Te28  1  0.75000000  0.87471600  0.23531300  1
  Te  Te29  1  0.25000000  0.12528400  0.76468700  1
  Te  Te30  1  0.25000000  0.62528400  0.73531300  1
  Te  Te31  1  0.75000000  0.37471600  0.26468700  1
  Te  Te32  1  0.75000000  0.76486100  0.54496300  1
  Te  Te33  1  0.25000000  0.23513900  0.45503700  1
  Te  Te34  1  0.25000000  0.73513900  0.04496300  1
  Te  Te35  1  0.75000000  0.26486100  0.95503700  1
