# generated using pymatgen
data_Si4Mo8Pt5
_symmetry_space_group_name_H-M   'P 1'
_cell_length_a   7.99964195
_cell_length_b   7.99964195
_cell_length_c   9.67214029
_cell_angle_alpha   80.19028714
_cell_angle_beta   80.19028714
_cell_angle_gamma   60.48327821
_symmetry_Int_Tables_number   1
_chemical_formula_structural   Si4Mo8Pt5
_chemical_formula_sum   'Si8 Mo16 Pt10'
_cell_volume   528.04915253
_cell_formula_units_Z   2
loop_
 _symmetry_equiv_pos_site_id
 _symmetry_equiv_pos_as_xyz
  1  'x, y, z'
loop_
 _atom_site_type_symbol
 _atom_site_label
 _atom_site_symmetry_multiplicity
 _atom_site_fract_x
 _atom_site_fract_y
 _atom_site_fract_z
 _atom_site_occupancy
  Si  Si0  1  0.29121700  0.02533700  0.80803400  1
  Si  Si1  1  0.02533700  0.29121700  0.30803400  1
  Si  Si2  1  0.80777100  0.50024100  0.82296400  1
  Si  Si3  1  0.50024100  0.80777100  0.32296400  1
  Si  Si4  1  0.92386900  0.39297000  0.55908800  1
  Si  Si5  1  0.39297000  0.92386900  0.05908800  1
  Si  Si6  1  0.81937700  0.02262000  0.80739000  1
  Si  Si7  1  0.02262000  0.81937700  0.30739000  1
  Mo  Mo8  1  0.53510800  0.12852800  0.63331200  1
  Mo  Mo9  1  0.12852800  0.53510800  0.13331200  1
  Mo  Mo10  1  0.41492800  0.59262100  0.91509200  1
  Mo  Mo11  1  0.59262100  0.41492800  0.41509200  1
  Mo  Mo12  1  0.07903900  0.90227200  0.01550400  1
  Mo  Mo13  1  0.90227200  0.07903900  0.51550400  1
  Mo  Mo14  1  0.55528600  0.75763900  0.60828500  1
  Mo  Mo15  1  0.75763900  0.55528600  0.10828500  1
  Mo  Mo16  1  0.90659800  0.75214200  0.60607400  1
  Mo  Mo17  1  0.75214200  0.90659800  0.10607400  1
  Mo  Mo18  1  0.26778300  0.08738400  0.50735300  1
  Mo  Mo19  1  0.08738400  0.26778300  0.00735300  1
  Mo  Mo20  1  0.41691500  0.28026500  0.91434800  1
  Mo  Mo21  1  0.28026500  0.41691500  0.41434800  1
  Mo  Mo22  1  0.63117400  0.03057000  0.39455300  1
  Mo  Mo23  1  0.03057000  0.63117400  0.89455300  1
  Pt  Pt24  1  0.36494600  0.15288600  0.20926400  1
  Pt  Pt25  1  0.15288600  0.36494600  0.70926400  1
  Pt  Pt26  1  0.74744500  0.25668200  0.97380300  1
  Pt  Pt27  1  0.25668200  0.74744500  0.47380300  1
  Pt  Pt28  1  0.16365600  0.85578400  0.72468500  1
  Pt  Pt29  1  0.85578400  0.16365600  0.22468500  1
  Pt  Pt30  1  0.63575400  0.83934600  0.86129600  1
  Pt  Pt31  1  0.83934600  0.63575400  0.36129600  1
  Pt  Pt32  1  0.64852100  0.37552400  0.69435400  1
  Pt  Pt33  1  0.37552400  0.64852100  0.19435400  1
