# generated using pymatgen
data_ReAgO2
_symmetry_space_group_name_H-M   'P 1'
_cell_length_a   7.30314517
_cell_length_b   7.30314517
_cell_length_c   7.30314517
_cell_angle_alpha   130.95804279
_cell_angle_beta   130.95804279
_cell_angle_gamma   71.87974872
_symmetry_Int_Tables_number   1
_chemical_formula_structural   ReAgO2
_chemical_formula_sum   'Re4 Ag4 O8'
_cell_volume   217.28493760
_cell_formula_units_Z   4
loop_
 _symmetry_equiv_pos_site_id
 _symmetry_equiv_pos_as_xyz
  1  'x, y, z'
loop_
 _atom_site_type_symbol
 _atom_site_label
 _atom_site_symmetry_multiplicity
 _atom_site_fract_x
 _atom_site_fract_y
 _atom_site_fract_z
 _atom_site_occupancy
  Re  Re0  1  0.37500000  0.12500000  0.25000000  1
  Re  Re1  1  0.87500000  0.12500000  0.75000000  1
  Re  Re2  1  0.87500000  0.12500000  0.25000000  1
  Re  Re3  1  0.87500000  0.62500000  0.75000000  1
  Ag  Ag4  1  0.87500000  0.62500000  0.25000000  1
  Ag  Ag5  1  0.37500000  0.62500000  0.75000000  1
  Ag  Ag6  1  0.37500000  0.62500000  0.25000000  1
  Ag  Ag7  1  0.37500000  0.12500000  0.75000000  1
  O  O8  1  0.17673000  0.37115800  0.19442800  1
  O  O9  1  0.17673000  0.98230300  0.80557200  1
  O  O10  1  0.12115800  0.42673000  0.69442800  1
  O  O11  1  0.57327000  0.87884200  0.30557200  1
  O  O12  1  0.73230300  0.42673000  0.30557200  1
  O  O13  1  0.57327000  0.26769700  0.69442800  1
  O  O14  1  0.62884200  0.82327000  0.80557200  1
  O  O15  1  0.01769700  0.82327000  0.19442800  1
