# generated using pymatgen
data_CsMg30BO31
_symmetry_space_group_name_H-M   'P 1'
_cell_length_a   8.34126400
_cell_length_b   8.77589000
_cell_length_c   8.88971500
_cell_angle_alpha   90.00000000
_cell_angle_beta   90.00000000
_cell_angle_gamma   90.00000000
_symmetry_Int_Tables_number   1
_chemical_formula_structural   CsMg30BO31
_chemical_formula_sum   'Cs1 Mg30 B1 O31'
_cell_volume   650.74505366
_cell_formula_units_Z   1
loop_
 _symmetry_equiv_pos_site_id
 _symmetry_equiv_pos_as_xyz
  1  'x, y, z'
loop_
 _atom_site_type_symbol
 _atom_site_label
 _atom_site_symmetry_multiplicity
 _atom_site_fract_x
 _atom_site_fract_y
 _atom_site_fract_z
 _atom_site_occupancy
  Cs  Cs0  1  0.00000000  0.01003600  0.00000000  1
  Mg  Mg1  1  0.00000000  0.00329400  0.50000000  1
  Mg  Mg2  1  0.50000000  0.00791500  0.50000000  1
  Mg  Mg3  1  0.00000000  0.50761500  0.00000000  1
  Mg  Mg4  1  0.50000000  0.50241900  0.00000000  1
  Mg  Mg5  1  0.00000000  0.50046900  0.50000000  1
  Mg  Mg6  1  0.50000000  0.49674500  0.50000000  1
  Mg  Mg7  1  0.25697300  0.99885100  0.26695400  1
  Mg  Mg8  1  0.74302700  0.99885100  0.26695400  1
  Mg  Mg9  1  0.25697300  0.99885100  0.73304600  1
  Mg  Mg10  1  0.74302700  0.99885100  0.73304600  1
  Mg  Mg11  1  0.25179500  0.50386100  0.25278700  1
  Mg  Mg12  1  0.74820500  0.50386100  0.25278700  1
  Mg  Mg13  1  0.25179500  0.50386100  0.74721300  1
  Mg  Mg14  1  0.74820500  0.50386100  0.74721300  1
  Mg  Mg15  1  0.25091800  0.74258800  0.00000000  1
  Mg  Mg16  1  0.74908200  0.74258800  0.00000000  1
  Mg  Mg17  1  0.24883300  0.74854200  0.50000000  1
  Mg  Mg18  1  0.75116700  0.74854200  0.50000000  1
  Mg  Mg19  1  0.25667800  0.27364200  0.00000000  1
  Mg  Mg20  1  0.74332200  0.27364200  0.00000000  1
  Mg  Mg21  1  0.25198100  0.25287400  0.50000000  1
  Mg  Mg22  1  0.74801900  0.25287400  0.50000000  1
  Mg  Mg23  1  0.00000000  0.74778000  0.25860100  1
  Mg  Mg24  1  0.50000000  0.75412600  0.26542000  1
  Mg  Mg25  1  0.00000000  0.74778000  0.74139900  1
  Mg  Mg26  1  0.50000000  0.75412600  0.73458000  1
  Mg  Mg27  1  0.00000000  0.25870900  0.25544900  1
  Mg  Mg28  1  0.50000000  0.24152100  0.23866800  1
  Mg  Mg29  1  0.00000000  0.25870900  0.74455100  1
  Mg  Mg30  1  0.50000000  0.24152100  0.76133200  1
  B  B31  1  0.50000000  0.91087100  0.00000000  1
  O  O32  1  0.00000000  0.72435700  0.00000000  1
  O  O33  1  0.00000000  0.74224800  0.50000000  1
  O  O34  1  0.50000000  0.74362900  0.50000000  1
  O  O35  1  0.00000000  0.29207500  0.00000000  1
  O  O36  1  0.50000000  0.27545000  0.00000000  1
  O  O37  1  0.00000000  0.25814800  0.50000000  1
  O  O38  1  0.50000000  0.25625300  0.50000000  1
  O  O39  1  0.24990500  0.75192800  0.25116900  1
  O  O40  1  0.75009500  0.75192800  0.25116900  1
  O  O41  1  0.24990500  0.75192800  0.74883100  1
  O  O42  1  0.75009500  0.75192800  0.74883100  1
  O  O43  1  0.24897500  0.24717300  0.24276400  1
  O  O44  1  0.75102500  0.24717300  0.24276400  1
  O  O45  1  0.24897500  0.24717300  0.75723600  1
  O  O46  1  0.75102500  0.24717300  0.75723600  1
  O  O47  1  0.34409500  0.96897300  0.00000000  1
  O  O48  1  0.65590500  0.96897300  0.00000000  1
  O  O49  1  0.25134200  0.00244500  0.50000000  1
  O  O50  1  0.74865800  0.00244500  0.50000000  1
  O  O51  1  0.25652100  0.51052800  0.00000000  1
  O  O52  1  0.74347900  0.51052800  0.00000000  1
  O  O53  1  0.25129700  0.49912600  0.50000000  1
  O  O54  1  0.74870300  0.49912600  0.50000000  1
  O  O55  1  0.00000000  0.99708500  0.28302900  1
  O  O56  1  0.50000000  0.99940600  0.27695200  1
  O  O57  1  0.00000000  0.99708500  0.71697100  1
  O  O58  1  0.50000000  0.99940600  0.72304800  1
  O  O59  1  0.00000000  0.50231000  0.25757600  1
  O  O60  1  0.50000000  0.50595500  0.25118500  1
  O  O61  1  0.00000000  0.50231000  0.74242400  1
  O  O62  1  0.50000000  0.50595500  0.74881500  1
