# generated using pymatgen
data_RbSr2I5
_symmetry_space_group_name_H-M   'P 1'
_cell_length_a   9.19350600
_cell_length_b   10.17046700
_cell_length_c   14.71558415
_cell_angle_alpha   89.74905248
_cell_angle_beta   90.00000000
_cell_angle_gamma   90.00000000
_symmetry_Int_Tables_number   1
_chemical_formula_structural   RbSr2I5
_chemical_formula_sum   'Rb4 Sr8 I20'
_cell_volume   1375.92702123
_cell_formula_units_Z   4
loop_
 _symmetry_equiv_pos_site_id
 _symmetry_equiv_pos_as_xyz
  1  'x, y, z'
loop_
 _atom_site_type_symbol
 _atom_site_label
 _atom_site_symmetry_multiplicity
 _atom_site_fract_x
 _atom_site_fract_y
 _atom_site_fract_z
 _atom_site_occupancy
  Rb  Rb0  1  0.46284600  0.49699600  0.82707400  1
  Rb  Rb1  1  0.53715400  0.50300400  0.17292600  1
  Rb  Rb2  1  0.96284600  0.50300400  0.67292600  1
  Rb  Rb3  1  0.03715400  0.49699600  0.32707400  1
  Sr  Sr4  1  0.47803000  0.99728000  0.82113800  1
  Sr  Sr5  1  0.52197000  0.00272000  0.17886200  1
  Sr  Sr6  1  0.97803000  0.00272000  0.67886200  1
  Sr  Sr7  1  0.02197000  0.99728000  0.32113800  1
  Sr  Sr8  1  0.42974100  0.75396000  0.50540900  1
  Sr  Sr9  1  0.57025900  0.24604000  0.49459100  1
  Sr  Sr10  1  0.92974100  0.24604000  0.99459100  1
  Sr  Sr11  1  0.07025900  0.75396000  0.00540900  1
  I  I12  1  0.33328600  0.46586800  0.58695300  1
  I  I13  1  0.66671400  0.53413200  0.41304700  1
  I  I14  1  0.83328600  0.53413200  0.91304700  1
  I  I15  1  0.16671400  0.46586800  0.08695300  1
  I  I16  1  0.66664600  0.78475000  0.68050300  1
  I  I17  1  0.33335400  0.21525000  0.31949700  1
  I  I18  1  0.16664600  0.21525000  0.81949700  1
  I  I19  1  0.83335400  0.78475000  0.18050300  1
  I  I20  1  0.19342800  0.77452400  0.78743000  1
  I  I21  1  0.80657200  0.22547600  0.21257000  1
  I  I22  1  0.69342800  0.22547600  0.71257000  1
  I  I23  1  0.30657200  0.77452400  0.28743000  1
  I  I24  1  0.04615200  0.78767000  0.50464700  1
  I  I25  1  0.95384800  0.21233000  0.49535300  1
  I  I26  1  0.54615200  0.21233000  0.99535300  1
  I  I27  1  0.45384800  0.78767000  0.00464700  1
  I  I28  1  0.84003500  0.95852900  0.89737800  1
  I  I29  1  0.15996500  0.04147100  0.10262200  1
  I  I30  1  0.34003500  0.04147100  0.60262200  1
  I  I31  1  0.65996500  0.95852900  0.39737800  1
