# generated using pymatgen
data_RbYb(WO4)2
_symmetry_space_group_name_H-M   'P 1'
_cell_length_a   8.09009640
_cell_length_b   9.05705509
_cell_length_c   10.58585000
_cell_angle_alpha   90.00000000
_cell_angle_beta   90.00000000
_cell_angle_gamma   98.83516011
_symmetry_Int_Tables_number   1
_chemical_formula_structural   RbYb(WO4)2
_chemical_formula_sum   'Rb4 Yb4 W8 O32'
_cell_volume   766.44751903
_cell_formula_units_Z   4
loop_
 _symmetry_equiv_pos_site_id
 _symmetry_equiv_pos_as_xyz
  1  'x, y, z'
loop_
 _atom_site_type_symbol
 _atom_site_label
 _atom_site_symmetry_multiplicity
 _atom_site_fract_x
 _atom_site_fract_y
 _atom_site_fract_z
 _atom_site_occupancy
  Rb  Rb0  1  0.07184700  0.51211700  0.21303600  1
  Rb  Rb1  1  0.92815300  0.48788300  0.78696400  1
  Rb  Rb2  1  0.42815300  0.48788300  0.71303600  1
  Rb  Rb3  1  0.57184700  0.51211700  0.28696400  1
  Yb  Yb4  1  0.02432900  0.06076400  0.77316000  1
  Yb  Yb5  1  0.97567100  0.93923600  0.22684000  1
  Yb  Yb6  1  0.47567100  0.93923600  0.27316000  1
  Yb  Yb7  1  0.52432900  0.06076400  0.72684000  1
  W  W8  1  0.29176300  0.21899000  0.00528900  1
  W  W9  1  0.70823700  0.78101000  0.99471100  1
  W  W10  1  0.20823700  0.78101000  0.50528900  1
  W  W11  1  0.79176300  0.21899000  0.49471100  1
  W  W12  1  0.17655800  0.16123700  0.49056400  1
  W  W13  1  0.82344200  0.83876300  0.50943600  1
  W  W14  1  0.32344200  0.83876300  0.99056400  1
  W  W15  1  0.67655800  0.16123700  0.00943600  1
  O  O16  1  0.25396400  0.00505700  0.39773900  1
  O  O17  1  0.74603600  0.99494300  0.60226100  1
  O  O18  1  0.24603600  0.99494300  0.89773900  1
  O  O19  1  0.75396400  0.00505700  0.10226100  1
  O  O20  1  0.34999400  0.39300400  0.08776400  1
  O  O21  1  0.65000600  0.60699600  0.91223600  1
  O  O22  1  0.15000600  0.60699600  0.58776400  1
  O  O23  1  0.84999400  0.39300400  0.41223600  1
  O  O24  1  0.11766600  0.13609200  0.11091100  1
  O  O25  1  0.88233400  0.86390800  0.88908900  1
  O  O26  1  0.38233400  0.86390800  0.61091100  1
  O  O27  1  0.61766600  0.13609200  0.38908900  1
  O  O28  1  0.33124200  0.72672800  0.37176900  1
  O  O29  1  0.66875800  0.27327200  0.62823100  1
  O  O30  1  0.16875800  0.27327200  0.87176900  1
  O  O31  1  0.83124200  0.72672800  0.12823100  1
  O  O32  1  0.26606700  0.32700900  0.41182800  1
  O  O33  1  0.73393300  0.67299100  0.58817200  1
  O  O34  1  0.23393300  0.67299100  0.91182800  1
  O  O35  1  0.76606700  0.32700900  0.08817200  1
  O  O36  1  0.00342000  0.23041300  0.60225100  1
  O  O37  1  0.99658000  0.76958700  0.39774900  1
  O  O38  1  0.49658000  0.76958700  0.10225100  1
  O  O39  1  0.50342000  0.23041300  0.89774900  1
  O  O40  1  0.30167200  0.15436200  0.63581200  1
  O  O41  1  0.69832800  0.84563800  0.36418800  1
  O  O42  1  0.19832800  0.84563800  0.13581200  1
  O  O43  1  0.80167200  0.15436200  0.86418800  1
  O  O44  1  0.45207400  0.09238000  0.09822100  1
  O  O45  1  0.54792600  0.90762000  0.90177900  1
  O  O46  1  0.04792600  0.90762000  0.59822100  1
  O  O47  1  0.95207400  0.09238000  0.40177900  1
