# generated using pymatgen
data_Sr2B11HO21
_symmetry_space_group_name_H-M   'P 1'
_cell_length_a   6.80612082
_cell_length_b   6.80612082
_cell_length_c   21.23559971
_cell_angle_alpha   89.17398927
_cell_angle_beta   89.17398927
_cell_angle_gamma   120.87323961
_symmetry_Int_Tables_number   1
_chemical_formula_structural   Sr2B11HO21
_chemical_formula_sum   'Sr4 B22 H2 O42'
_cell_volume   843.95608119
_cell_formula_units_Z   2
loop_
 _symmetry_equiv_pos_site_id
 _symmetry_equiv_pos_as_xyz
  1  'x, y, z'
loop_
 _atom_site_type_symbol
 _atom_site_label
 _atom_site_symmetry_multiplicity
 _atom_site_fract_x
 _atom_site_fract_y
 _atom_site_fract_z
 _atom_site_occupancy
  Sr  Sr0  1  0.24122300  0.61803200  0.12950000  1
  Sr  Sr1  1  0.61803200  0.24122300  0.62950000  1
  Sr  Sr2  1  0.92317700  0.99211100  0.02137900  1
  Sr  Sr3  1  0.99211100  0.92317700  0.52137900  1
  B  B4  1  0.40144800  0.43188400  0.47882200  1
  B  B5  1  0.43188400  0.40144800  0.97882200  1
  B  B6  1  0.64391100  0.25114200  0.48025100  1
  B  B7  1  0.25114200  0.64391100  0.98025100  1
  B  B8  1  0.53426900  0.34108400  0.38002700  1
  B  B9  1  0.34108400  0.53426900  0.88002700  1
  B  B10  1  0.91314300  0.96456400  0.15943000  1
  B  B11  1  0.96456400  0.91314300  0.65943000  1
  B  B12  1  0.73070100  0.20582500  0.16219500  1
  B  B13  1  0.20582500  0.73070100  0.66219500  1
  B  B14  1  0.34263500  0.13141200  0.13826200  1
  B  B15  1  0.13141200  0.34263500  0.63826200  1
  B  B16  1  0.50727300  0.08341700  0.99647700  1
  B  B17  1  0.08341700  0.50727300  0.49647700  1
  B  B18  1  0.82052900  0.06748000  0.25933900  1
  B  B19  1  0.06748000  0.82052900  0.75933900  1
  B  B20  1  0.52488600  0.65687300  0.64354600  1
  B  B21  1  0.65687300  0.52488600  0.14354600  1
  B  B22  1  0.47938300  0.82223400  0.50136900  1
  B  B23  1  0.82223400  0.47938300  0.00137000  1
  B  B24  1  0.23561900  0.64240200  0.29001100  1
  B  B25  1  0.64240200  0.23561900  0.79001100  1
  H  H26  1  0.03437500  0.89236600  0.39862600  1
  H  H27  1  0.89236600  0.03437500  0.89862600  1
  O  O28  1  0.55379900  0.66912200  0.50165900  1
  O  O29  1  0.66912200  0.55379900  0.00165900  1
  O  O30  1  0.70837100  0.74715500  0.13709900  1
  O  O31  1  0.74715500  0.70837100  0.63709900  1
  O  O32  1  0.15620000  0.35375400  0.49458100  1
  O  O33  1  0.35375400  0.15620000  0.99458100  1
  O  O34  1  0.89506500  0.15589200  0.13202400  1
  O  O35  1  0.15589200  0.89506500  0.63202400  1
  O  O36  1  0.32593300  0.54861700  0.25052500  1
  O  O37  1  0.54861700  0.32593300  0.75052500  1
  O  O38  1  0.21864100  0.65089400  0.35255900  1
  O  O39  1  0.65089400  0.21864100  0.85255900  1
  O  O40  1  0.82159800  0.04974000  0.32449400  1
  O  O41  1  0.04974000  0.82159800  0.82449400  1
  O  O42  1  0.15808500  0.73509100  0.24455700  1
  O  O43  1  0.73509100  0.15808500  0.74455700  1
  O  O44  1  0.11618000  0.97183200  0.12941300  1
  O  O45  1  0.97183200  0.11618000  0.62941300  1
  O  O46  1  0.92195400  0.96780200  0.22729600  1
  O  O47  1  0.96780200  0.92195400  0.72729600  1
  O  O48  1  0.26675100  0.45152700  0.00796500  1
  O  O49  1  0.45152700  0.26675100  0.50796500  1
  O  O50  1  0.42952000  0.44208900  0.40958300  1
  O  O51  1  0.44208900  0.42952000  0.90958300  1
  O  O52  1  0.52796200  0.34243300  0.31476400  1
  O  O53  1  0.34243300  0.52796200  0.81476400  1
  O  O54  1  0.42039300  0.36338500  0.14216900  1
  O  O55  1  0.36338500  0.42039300  0.64216900  1
  O  O56  1  0.45111700  0.80886300  0.64586400  1
  O  O57  1  0.80886300  0.45111700  0.14586400  1
  O  O58  1  0.64197700  0.04842700  0.50807100  1
  O  O59  1  0.04842700  0.64197700  0.00807100  1
  O  O60  1  0.72316000  0.17677400  0.23098500  1
  O  O61  1  0.17677400  0.72316000  0.73098500  1
  O  O62  1  0.45804900  0.86203500  0.00120800  1
  O  O63  1  0.86203500  0.45804900  0.50120800  1
  O  O64  1  0.74441700  0.24626900  0.99859400  1
  O  O65  1  0.24626900  0.74441700  0.49859400  1
  O  O66  1  0.63726900  0.24274900  0.41169500  1
  O  O67  1  0.24274900  0.63726900  0.91169500  1
  O  O68  1  0.49453400  0.05637400  0.13826200  1
  O  O69  1  0.05637400  0.49453400  0.63826200  1
