# generated using pymatgen
data_Sc11Ga10
_symmetry_space_group_name_H-M   'P 1'
_cell_length_a   10.65856159
_cell_length_b   10.65856159
_cell_length_c   10.65856159
_cell_angle_alpha   121.24266730
_cell_angle_beta   121.24266730
_cell_angle_gamma   87.86078421
_symmetry_Int_Tables_number   1
_chemical_formula_structural   Sc11Ga10
_chemical_formula_sum   'Sc22 Ga20'
_cell_volume   839.49336129
_cell_formula_units_Z   2
loop_
 _symmetry_equiv_pos_site_id
 _symmetry_equiv_pos_as_xyz
  1  'x, y, z'
loop_
 _atom_site_type_symbol
 _atom_site_label
 _atom_site_symmetry_multiplicity
 _atom_site_fract_x
 _atom_site_fract_y
 _atom_site_fract_z
 _atom_site_occupancy
  Sc  Sc0  1  0.16781700  0.16781700  0.00000000  1
  Sc  Sc1  1  0.83218300  0.83218300  0.00000000  1
  Sc  Sc2  1  0.32461500  0.32461500  0.64923000  1
  Sc  Sc3  1  0.67538500  0.67538500  0.35077000  1
  Sc  Sc4  1  0.32461500  0.67538500  0.00000000  1
  Sc  Sc5  1  0.67538500  0.32461500  0.00000000  1
  Sc  Sc6  1  0.43417300  0.10539800  0.32877400  1
  Sc  Sc7  1  0.56582700  0.89460200  0.67122600  1
  Sc  Sc8  1  0.77662400  0.10539800  0.67122600  1
  Sc  Sc9  1  0.10539800  0.77662400  0.67122600  1
  Sc  Sc10  1  0.22337600  0.89460200  0.32877400  1
  Sc  Sc11  1  0.89460200  0.22337600  0.32877400  1
  Sc  Sc12  1  0.10539800  0.43417300  0.32877400  1
  Sc  Sc13  1  0.89460200  0.56582700  0.67122600  1
  Sc  Sc14  1  0.56150800  0.31437700  0.24713100  1
  Sc  Sc15  1  0.43849200  0.68562300  0.75286900  1
  Sc  Sc16  1  0.06724700  0.31437700  0.75286900  1
  Sc  Sc17  1  0.31437700  0.06724700  0.75286900  1
  Sc  Sc18  1  0.93275300  0.68562300  0.24713100  1
  Sc  Sc19  1  0.68562300  0.93275300  0.24713100  1
  Sc  Sc20  1  0.31437700  0.56150800  0.24713100  1
  Sc  Sc21  1  0.68562300  0.43849200  0.75286900  1
  Ga  Ga22  1  0.38272200  0.38272200  0.41291900  1
  Ga  Ga23  1  0.61727800  0.61727800  0.58708100  1
  Ga  Ga24  1  0.96980300  0.96980300  0.58708100  1
  Ga  Ga25  1  0.38272200  0.96980300  0.00000000  1
  Ga  Ga26  1  0.03019700  0.61727800  0.00000000  1
  Ga  Ga27  1  0.03019700  0.03019700  0.41291900  1
  Ga  Ga28  1  0.61727800  0.03019700  0.00000000  1
  Ga  Ga29  1  0.96980300  0.38272200  0.00000000  1
  Ga  Ga30  1  0.39158100  0.39158100  0.00000000  1
  Ga  Ga31  1  0.60841900  0.60841900  0.00000000  1
  Ga  Ga32  1  0.12577800  0.12577800  0.25155500  1
  Ga  Ga33  1  0.87422200  0.87422200  0.74844500  1
  Ga  Ga34  1  0.12577800  0.87422200  0.00000000  1
  Ga  Ga35  1  0.87422200  0.12577800  0.00000000  1
  Ga  Ga36  1  0.75000000  0.25000000  0.50000000  1
  Ga  Ga37  1  0.25000000  0.75000000  0.50000000  1
  Ga  Ga38  1  0.50000000  0.13288300  0.63288300  1
  Ga  Ga39  1  0.50000000  0.86711700  0.36711700  1
  Ga  Ga40  1  0.13288300  0.50000000  0.63288300  1
  Ga  Ga41  1  0.86711700  0.50000000  0.36711700  1
