# generated using pymatgen
data_ScP2H5O9
_symmetry_space_group_name_H-M   'P 1'
_cell_length_a   8.65141600
_cell_length_b   5.35961800
_cell_length_c   14.89718646
_cell_angle_alpha   83.27655796
_cell_angle_beta   90.00000000
_cell_angle_gamma   90.00000000
_symmetry_Int_Tables_number   1
_chemical_formula_structural   ScP2H5O9
_chemical_formula_sum   'Sc4 P8 H20 O36'
_cell_volume   686.00653415
_cell_formula_units_Z   4
loop_
 _symmetry_equiv_pos_site_id
 _symmetry_equiv_pos_as_xyz
  1  'x, y, z'
loop_
 _atom_site_type_symbol
 _atom_site_label
 _atom_site_symmetry_multiplicity
 _atom_site_fract_x
 _atom_site_fract_y
 _atom_site_fract_z
 _atom_site_occupancy
  Sc  Sc0  1  0.53359800  0.73238600  0.14819300  1
  Sc  Sc1  1  0.46640200  0.26761400  0.85180700  1
  Sc  Sc2  1  0.03359800  0.26761400  0.35180700  1
  Sc  Sc3  1  0.96640200  0.73238600  0.64819300  1
  P  P4  1  0.82946300  0.73333700  0.44408700  1
  P  P5  1  0.17053700  0.26666300  0.55591300  1
  P  P6  1  0.32946300  0.26666300  0.05591300  1
  P  P7  1  0.67053700  0.73333700  0.94408700  1
  P  P8  1  0.25186000  0.79146300  0.30606700  1
  P  P9  1  0.74814000  0.20853700  0.69393300  1
  P  P10  1  0.75186000  0.20853700  0.19393300  1
  P  P11  1  0.24814000  0.79146300  0.80606700  1
  H  H12  1  0.44666600  0.90177000  0.59785500  1
  H  H13  1  0.55333400  0.09823000  0.40214500  1
  H  H14  1  0.94666600  0.09823000  0.90214500  1
  H  H15  1  0.05333400  0.90177000  0.09785500  1
  H  H16  1  0.71087600  0.24156800  0.04658500  1
  H  H17  1  0.28912400  0.75843200  0.95341500  1
  H  H18  1  0.21087600  0.75843200  0.45341500  1
  H  H19  1  0.78912400  0.24156800  0.54658500  1
  H  H20  1  0.48529100  0.66819800  0.67592800  1
  H  H21  1  0.51470900  0.33180200  0.32407200  1
  H  H22  1  0.98529100  0.33180200  0.82407200  1
  H  H23  1  0.01470900  0.66819800  0.17592800  1
  H  H24  1  0.68080300  0.84468700  0.32601700  1
  H  H25  1  0.31919700  0.15531300  0.67398300  1
  H  H26  1  0.18080300  0.15531300  0.17398300  1
  H  H27  1  0.81919700  0.84468700  0.82601700  1
  H  H28  1  0.88330000  0.74112900  0.08810000  1
  H  H29  1  0.11670000  0.25887100  0.91190000  1
  H  H30  1  0.38330000  0.25887100  0.41190000  1
  H  H31  1  0.61670000  0.74112900  0.58810000  1
  O  O32  1  0.70148500  0.93258200  0.22074600  1
  O  O33  1  0.29851500  0.06741800  0.77925400  1
  O  O34  1  0.20148500  0.06741800  0.27925400  1
  O  O35  1  0.79851500  0.93258200  0.72074600  1
  O  O36  1  0.79761000  0.23999600  0.08960600  1
  O  O37  1  0.20239000  0.76000400  0.91039400  1
  O  O38  1  0.29761000  0.76000400  0.41039400  1
  O  O39  1  0.70239000  0.23999600  0.58960600  1
  O  O40  1  0.99726100  0.73658300  0.11074700  1
  O  O41  1  0.00273900  0.26341700  0.88925300  1
  O  O42  1  0.49726100  0.26341700  0.38925300  1
  O  O43  1  0.50273900  0.73658300  0.61074700  1
  O  O44  1  0.87101800  0.46628000  0.42428800  1
  O  O45  1  0.12898200  0.53372000  0.57571200  1
  O  O46  1  0.37101800  0.53372000  0.07571200  1
  O  O47  1  0.62898200  0.46628000  0.92428800  1
  O  O48  1  0.67010800  0.82522200  0.39479800  1
  O  O49  1  0.32989200  0.17477800  0.60520200  1
  O  O50  1  0.17010800  0.17477800  0.10520200  1
  O  O51  1  0.82989200  0.82522200  0.89479800  1
  O  O52  1  0.62355200  0.39217300  0.21544000  1
  O  O53  1  0.37644800  0.60782700  0.78456000  1
  O  O54  1  0.12355200  0.60782700  0.28456000  1
  O  O55  1  0.87644800  0.39217300  0.71544000  1
  O  O56  1  0.95604800  0.92189700  0.41132700  1
  O  O57  1  0.04395200  0.07810300  0.58867300  1
  O  O58  1  0.45604800  0.07810300  0.08867300  1
  O  O59  1  0.54395200  0.92189700  0.91132700  1
  O  O60  1  0.40286200  0.73122400  0.26068300  1
  O  O61  1  0.59713800  0.26877600  0.73931700  1
  O  O62  1  0.90286200  0.26877600  0.23931700  1
  O  O63  1  0.09713800  0.73122400  0.76068300  1
  O  O64  1  0.70956100  0.74138900  0.04536600  1
  O  O65  1  0.29043900  0.25861100  0.95463400  1
  O  O66  1  0.20956100  0.25861100  0.45463400  1
  O  O67  1  0.79043900  0.74138900  0.54536600  1
