# generated using pymatgen
data_Sb3IO4
_symmetry_space_group_name_H-M   'P 1'
_cell_length_a   4.60082600
_cell_length_b   18.70892500
_cell_length_c   19.27797232
_cell_angle_alpha   59.14358099
_cell_angle_beta   90.00000000
_cell_angle_gamma   90.00000000
_symmetry_Int_Tables_number   1
_chemical_formula_structural   Sb3IO4
_chemical_formula_sum   'Sb24 I8 O32'
_cell_volume   1424.50398355
_cell_formula_units_Z   8
loop_
 _symmetry_equiv_pos_site_id
 _symmetry_equiv_pos_as_xyz
  1  'x, y, z'
loop_
 _atom_site_type_symbol
 _atom_site_label
 _atom_site_symmetry_multiplicity
 _atom_site_fract_x
 _atom_site_fract_y
 _atom_site_fract_z
 _atom_site_occupancy
  Sb  Sb0  1  0.33739600  0.98513700  0.67203000  1
  Sb  Sb1  1  0.66260400  0.01486300  0.32797000  1
  Sb  Sb2  1  0.83739600  0.01486300  0.82797000  1
  Sb  Sb3  1  0.16260400  0.98513700  0.17203000  1
  Sb  Sb4  1  0.83122500  0.67753000  0.54550200  1
  Sb  Sb5  1  0.16877500  0.32247000  0.45449800  1
  Sb  Sb6  1  0.33122500  0.32247000  0.95449800  1
  Sb  Sb7  1  0.66877500  0.67753000  0.04550200  1
  Sb  Sb8  1  0.12968000  0.60156900  0.95395100  1
  Sb  Sb9  1  0.87032000  0.39843100  0.04604900  1
  Sb  Sb10  1  0.62968000  0.39843100  0.54604900  1
  Sb  Sb11  1  0.37032000  0.60156900  0.45395100  1
  Sb  Sb12  1  0.82304900  0.82307000  0.72288500  1
  Sb  Sb13  1  0.17695100  0.17693000  0.27711500  1
  Sb  Sb14  1  0.32304900  0.17693000  0.77711500  1
  Sb  Sb15  1  0.67695100  0.82307000  0.22288500  1
  Sb  Sb16  1  0.36369000  0.89874400  0.55519900  1
  Sb  Sb17  1  0.63631000  0.10125600  0.44480100  1
  Sb  Sb18  1  0.86369000  0.10125600  0.94480100  1
  Sb  Sb19  1  0.13631000  0.89874400  0.05519900  1
  Sb  Sb20  1  0.34481000  0.51606100  0.65724600  1
  Sb  Sb21  1  0.65519000  0.48393900  0.34275400  1
  Sb  Sb22  1  0.84481000  0.48393900  0.84275400  1
  Sb  Sb23  1  0.15519000  0.51606100  0.15724600  1
  I  I24  1  0.23468800  0.65846000  0.72608900  1
  I  I25  1  0.76531200  0.34154000  0.27391100  1
  I  I26  1  0.73468800  0.34154000  0.77391100  1
  I  I27  1  0.26531200  0.65846000  0.22608900  1
  I  I28  1  0.22916500  0.84078300  0.88359900  1
  I  I29  1  0.77083500  0.15921700  0.11640100  1
  I  I30  1  0.72916500  0.15921700  0.61640100  1
  I  I31  1  0.27083500  0.84078300  0.38359900  1
  O  O32  1  0.23676500  0.86950000  0.68204600  1
  O  O33  1  0.76323500  0.13050000  0.31795400  1
  O  O34  1  0.73676500  0.13050000  0.81795400  1
  O  O35  1  0.26323500  0.86950000  0.18204600  1
  O  O36  1  0.24632700  0.35544500  0.53669400  1
  O  O37  1  0.75367300  0.64455500  0.46330600  1
  O  O38  1  0.74632700  0.64455500  0.96330600  1
  O  O39  1  0.25367300  0.35544500  0.03669400  1
  O  O40  1  0.37412400  0.48957500  0.56429600  1
  O  O41  1  0.62587600  0.51042500  0.43570400  1
  O  O42  1  0.87412400  0.51042500  0.93570400  1
  O  O43  1  0.12587600  0.48957500  0.06429600  1
  O  O44  1  0.74337400  0.85466600  0.60835200  1
  O  O45  1  0.25662600  0.14533400  0.39164800  1
  O  O46  1  0.24337400  0.14533400  0.89164800  1
  O  O47  1  0.75662600  0.85466600  0.10835200  1
  O  O48  1  0.74065900  0.93920000  0.69998300  1
  O  O49  1  0.25934100  0.06080000  0.30001700  1
  O  O50  1  0.24065900  0.06080000  0.80001700  1
  O  O51  1  0.75934100  0.93920000  0.19998300  1
  O  O52  1  0.87579300  0.98904000  0.94667100  1
  O  O53  1  0.12420700  0.01096000  0.05332900  1
  O  O54  1  0.37579300  0.01096000  0.55332900  1
  O  O55  1  0.62420700  0.98904000  0.44667100  1
  O  O56  1  0.24644900  0.63174200  0.55190300  1
  O  O57  1  0.75355100  0.36825800  0.44809700  1
  O  O58  1  0.74644900  0.36825800  0.94809700  1
  O  O59  1  0.25355100  0.63174200  0.05190300  1
  O  O60  1  0.24835700  0.43795300  0.86067700  1
  O  O61  1  0.75164300  0.56204700  0.13932300  1
  O  O62  1  0.74835700  0.56204700  0.63932300  1
  O  O63  1  0.25164300  0.43795300  0.36067700  1
