# generated using pymatgen
data_RbPr(WO4)2
_symmetry_space_group_name_H-M   'P 1'
_cell_length_a   6.23280931
_cell_length_b   6.23280931
_cell_length_c   8.65947000
_cell_angle_alpha   90.00000000
_cell_angle_beta   90.00000000
_cell_angle_gamma   119.99999267
_symmetry_Int_Tables_number   1
_chemical_formula_structural   RbPr(WO4)2
_chemical_formula_sum   'Rb1 Pr1 W2 O8'
_cell_volume   291.33298310
_cell_formula_units_Z   1
loop_
 _symmetry_equiv_pos_site_id
 _symmetry_equiv_pos_as_xyz
  1  'x, y, z'
loop_
 _atom_site_type_symbol
 _atom_site_label
 _atom_site_symmetry_multiplicity
 _atom_site_fract_x
 _atom_site_fract_y
 _atom_site_fract_z
 _atom_site_occupancy
  Rb  Rb0  1  0.00000000  0.00000000  0.00000000  1
  Pr  Pr1  1  0.00000000  0.00000000  0.50000000  1
  W  W2  1  0.66666700  0.33333300  0.73755000  1
  W  W3  1  0.33333300  0.66666700  0.26245000  1
  O  O4  1  0.82753100  0.65506200  0.67089800  1
  O  O5  1  0.17246900  0.34493800  0.32910200  1
  O  O6  1  0.82753100  0.17246900  0.67089800  1
  O  O7  1  0.17246900  0.82753100  0.32910200  1
  O  O8  1  0.34493800  0.17246900  0.67089800  1
  O  O9  1  0.65506200  0.82753100  0.32910200  1
  O  O10  1  0.66666700  0.33333300  0.94212600  1
  O  O11  1  0.33333300  0.66666700  0.05787400  1
