# generated using pymatgen
data_Rb3Ca2Cl7
_symmetry_space_group_name_H-M   'P 1'
_cell_length_a   14.22797007
_cell_length_b   14.22797007
_cell_length_c   14.22797007
_cell_angle_alpha   158.09512325
_cell_angle_beta   158.09512325
_cell_angle_gamma   31.17291947
_symmetry_Int_Tables_number   1
_chemical_formula_structural   Rb3Ca2Cl7
_chemical_formula_sum   'Rb3 Ca2 Cl7'
_cell_volume   400.58729338
_cell_formula_units_Z   1
loop_
 _symmetry_equiv_pos_site_id
 _symmetry_equiv_pos_as_xyz
  1  'x, y, z'
loop_
 _atom_site_type_symbol
 _atom_site_label
 _atom_site_symmetry_multiplicity
 _atom_site_fract_x
 _atom_site_fract_y
 _atom_site_fract_z
 _atom_site_occupancy
  Rb  Rb0  1  0.31674800  0.31674800  0.00000000  1
  Rb  Rb1  1  0.68325200  0.68325200  0.00000000  1
  Rb  Rb2  1  0.50000000  0.50000000  0.00000000  1
  Ca  Ca3  1  0.09966500  0.09966500  0.00000000  1
  Ca  Ca4  1  0.90033500  0.90033500  0.00000000  1
  Cl  Cl5  1  0.59626700  0.09626700  0.50000000  1
  Cl  Cl6  1  0.40373300  0.90373300  0.50000000  1
  Cl  Cl7  1  0.09626700  0.59626700  0.50000000  1
  Cl  Cl8  1  0.90373300  0.40373300  0.50000000  1
  Cl  Cl9  1  0.19807700  0.19807700  0.00000000  1
  Cl  Cl10  1  0.80192300  0.80192300  0.00000000  1
  Cl  Cl11  1  0.00000000  0.00000000  0.00000000  1
