# generated using pymatgen
data_SmCO4
_symmetry_space_group_name_H-M   'P 1'
_cell_length_a   12.42125802
_cell_length_b   12.42125802
_cell_length_c   9.82761100
_cell_angle_alpha   90.00000000
_cell_angle_beta   90.00000000
_cell_angle_gamma   120.00000012
_symmetry_Int_Tables_number   1
_chemical_formula_structural   SmCO4
_chemical_formula_sum   'Sm18 C18 O72'
_cell_volume   1313.13614432
_cell_formula_units_Z   18
loop_
 _symmetry_equiv_pos_site_id
 _symmetry_equiv_pos_as_xyz
  1  'x, y, z'
loop_
 _atom_site_type_symbol
 _atom_site_label
 _atom_site_symmetry_multiplicity
 _atom_site_fract_x
 _atom_site_fract_y
 _atom_site_fract_z
 _atom_site_occupancy
  Sm  Sm0  1  0.55691200  0.10298700  0.24807900  1
  Sm  Sm1  1  0.89701300  0.45392500  0.24807900  1
  Sm  Sm2  1  0.55691200  0.10298700  0.75192100  1
  Sm  Sm3  1  0.54607500  0.44308800  0.24807900  1
  Sm  Sm4  1  0.89701300  0.45392500  0.75192100  1
  Sm  Sm5  1  0.54607500  0.44308800  0.75192100  1
  Sm  Sm6  1  0.22950600  0.11339100  0.25754600  1
  Sm  Sm7  1  0.88660900  0.11611600  0.25754600  1
  Sm  Sm8  1  0.22950600  0.11339100  0.74245400  1
  Sm  Sm9  1  0.88388400  0.77049400  0.25754600  1
  Sm  Sm10  1  0.88660900  0.11611600  0.74245400  1
  Sm  Sm11  1  0.88388400  0.77049400  0.74245400  1
  Sm  Sm12  1  0.21397400  0.43371300  0.24670700  1
  Sm  Sm13  1  0.56628700  0.78026100  0.24670700  1
  Sm  Sm14  1  0.21397400  0.43371300  0.75329300  1
  Sm  Sm15  1  0.21973900  0.78602600  0.24670700  1
  Sm  Sm16  1  0.56628700  0.78026100  0.75329300  1
  Sm  Sm17  1  0.21973900  0.78602600  0.75329300  1
  C  C18  1  0.35363500  0.49101700  0.50000000  1
  C  C19  1  0.50898300  0.86261800  0.50000000  1
  C  C20  1  0.13738200  0.64636500  0.50000000  1
  C  C21  1  0.47511100  0.16922700  0.00000000  1
  C  C22  1  0.83077300  0.30588400  0.00000000  1
  C  C23  1  0.69411600  0.52488900  0.00000000  1
  C  C24  1  0.08997800  0.20270900  0.50000000  1
  C  C25  1  0.79729100  0.88726900  0.50000000  1
  C  C26  1  0.11273100  0.91002200  0.50000000  1
  C  C27  1  0.13712700  0.50438300  0.00000000  1
  C  C28  1  0.49561700  0.63274400  0.00000000  1
  C  C29  1  0.36725600  0.86287300  0.00000000  1
  C  C30  1  0.02044800  0.19385800  0.00000000  1
  C  C31  1  0.80614200  0.82659000  0.00000000  1
  C  C32  1  0.17341000  0.97955200  0.00000000  1
  C  C33  1  0.46718200  0.30148200  0.50000000  1
  C  C34  1  0.69851800  0.16570000  0.50000000  1
  C  C35  1  0.83430000  0.53281800  0.50000000  1
  O  O36  1  0.57478000  0.15935900  0.00000000  1
  O  O37  1  0.84064100  0.41542100  0.00000000  1
  O  O38  1  0.58457900  0.42522000  0.00000000  1
  O  O39  1  0.24517900  0.48371100  0.50000000  1
  O  O40  1  0.51628900  0.76146900  0.50000000  1
  O  O41  1  0.23853100  0.75482100  0.50000000  1
  O  O42  1  0.41795200  0.25154200  0.38468600  1
  O  O43  1  0.74845800  0.16640900  0.38468600  1
  O  O44  1  0.41795200  0.25154200  0.61531400  1
  O  O45  1  0.83359100  0.58204800  0.38468600  1
  O  O46  1  0.74845800  0.16640900  0.61531400  1
  O  O47  1  0.83359100  0.58204800  0.61531400  1
  O  O48  1  0.14892200  0.23246700  0.38491400  1
  O  O49  1  0.76753300  0.91645500  0.38491400  1
  O  O50  1  0.14892200  0.23246700  0.61508600  1
  O  O51  1  0.08354500  0.85107800  0.38491400  1
  O  O52  1  0.76753300  0.91645500  0.61508600  1
  O  O53  1  0.08354500  0.85107800  0.61508600  1
  O  O54  1  0.00000000  0.00000000  0.24727200  1
  O  O55  1  0.00000000  0.00000000  0.75272800  1
  O  O56  1  0.99801000  0.33844300  0.30914500  1
  O  O57  1  0.66155700  0.65956600  0.30914500  1
  O  O58  1  0.99801000  0.33844300  0.69085500  1
  O  O59  1  0.34043400  0.00199000  0.30914500  1
  O  O60  1  0.66155700  0.65956600  0.69085500  1
  O  O61  1  0.34043400  0.00199000  0.69085500  1
  O  O62  1  0.08994700  0.50733500  0.11590400  1
  O  O63  1  0.49266500  0.58261200  0.11590400  1
  O  O64  1  0.08994700  0.50733500  0.88409600  1
  O  O65  1  0.41738800  0.91005300  0.11590400  1
  O  O66  1  0.49266500  0.58261200  0.88409600  1
  O  O67  1  0.41738800  0.91005300  0.88409600  1
  O  O68  1  0.07017200  0.24395700  0.11542900  1
  O  O69  1  0.75604300  0.82621500  0.11542900  1
  O  O70  1  0.07017200  0.24395700  0.88457100  1
  O  O71  1  0.17378500  0.92982800  0.11542900  1
  O  O72  1  0.75604300  0.82621500  0.88457100  1
  O  O73  1  0.17378500  0.92982800  0.88457100  1
  O  O74  1  0.42762500  0.17152400  0.11630400  1
  O  O75  1  0.82847600  0.25610100  0.11630400  1
  O  O76  1  0.42762500  0.17152400  0.88369600  1
  O  O77  1  0.74389900  0.57237500  0.11630400  1
  O  O78  1  0.82847600  0.25610100  0.88369600  1
  O  O79  1  0.74389900  0.57237500  0.88369600  1
  O  O80  1  0.59130100  0.15959900  0.50000000  1
  O  O81  1  0.84040100  0.43170200  0.50000000  1
  O  O82  1  0.56829800  0.40869900  0.50000000  1
  O  O83  1  0.23589900  0.49306200  0.00000000  1
  O  O84  1  0.50693800  0.74283700  0.00000000  1
  O  O85  1  0.25716300  0.76410100  0.00000000  1
  O  O86  1  0.17268900  0.03033100  0.50000000  1
  O  O87  1  0.96966900  0.14235800  0.50000000  1
  O  O88  1  0.85764200  0.82731100  0.50000000  1
  O  O89  1  0.32582700  0.32815900  0.19252300  1
  O  O90  1  0.67184100  0.99766900  0.19252300  1
  O  O91  1  0.32582700  0.32815900  0.80747700  1
  O  O92  1  0.00233100  0.67417300  0.19252300  1
  O  O93  1  0.67184100  0.99766900  0.80747700  1
  O  O94  1  0.00233100  0.67417300  0.80747700  1
  O  O95  1  0.17745700  0.08575200  0.00000000  1
  O  O96  1  0.91424800  0.09170500  0.00000000  1
  O  O97  1  0.90829500  0.82254300  0.00000000  1
  O  O98  1  0.33333300  0.66666700  0.25065300  1
  O  O99  1  0.33333300  0.66666700  0.74934700  1
  O  O100  1  0.08937600  0.59641700  0.38424500  1
  O  O101  1  0.40358300  0.49295800  0.38424500  1
  O  O102  1  0.08937600  0.59641700  0.61575500  1
  O  O103  1  0.50704200  0.91062400  0.38424500  1
  O  O104  1  0.40358300  0.49295800  0.61575500  1
  O  O105  1  0.50704200  0.91062400  0.61575500  1
  O  O106  1  0.66666700  0.33333300  0.25415700  1
  O  O107  1  0.66666700  0.33333300  0.74584300  1
