# generated using pymatgen
data_SeO5
_symmetry_space_group_name_H-M   'P 1'
_cell_length_a   9.48752400
_cell_length_b   8.09361700
_cell_length_c   10.08617100
_cell_angle_alpha   90.00000000
_cell_angle_beta   90.00000000
_cell_angle_gamma   90.00000000
_symmetry_Int_Tables_number   1
_chemical_formula_structural   SeO5
_chemical_formula_sum   'Se8 O40'
_cell_volume   774.50078731
_cell_formula_units_Z   8
loop_
 _symmetry_equiv_pos_site_id
 _symmetry_equiv_pos_as_xyz
  1  'x, y, z'
loop_
 _atom_site_type_symbol
 _atom_site_label
 _atom_site_symmetry_multiplicity
 _atom_site_fract_x
 _atom_site_fract_y
 _atom_site_fract_z
 _atom_site_occupancy
  Se  Se0  1  0.89664700  0.96420200  0.73345000  1
  Se  Se1  1  0.10335300  0.03579800  0.26655000  1
  Se  Se2  1  0.60335300  0.46420200  0.26655000  1
  Se  Se3  1  0.10335300  0.53579800  0.23345000  1
  Se  Se4  1  0.39664700  0.53579800  0.73345000  1
  Se  Se5  1  0.89664700  0.46420200  0.76655000  1
  Se  Se6  1  0.39664700  0.03579800  0.76655000  1
  Se  Se7  1  0.60335300  0.96420200  0.23345000  1
  O  O8  1  0.93500900  0.64526700  0.84366400  1
  O  O9  1  0.06499100  0.35473300  0.15633600  1
  O  O10  1  0.56499100  0.14526700  0.15633600  1
  O  O11  1  0.06499100  0.85473300  0.34366400  1
  O  O12  1  0.43500900  0.85473300  0.84366400  1
  O  O13  1  0.93500900  0.14526700  0.65633600  1
  O  O14  1  0.43500900  0.35473300  0.65633600  1
  O  O15  1  0.56499100  0.64526700  0.34366400  1
  O  O16  1  0.69937100  0.69836800  0.01734100  1
  O  O17  1  0.30062900  0.30163200  0.98265900  1
  O  O18  1  0.80062900  0.19836800  0.98265900  1
  O  O19  1  0.30062900  0.80163200  0.51734100  1
  O  O20  1  0.19937100  0.80163200  0.01734100  1
  O  O21  1  0.69937100  0.19836800  0.48265900  1
  O  O22  1  0.19937100  0.30163200  0.48265900  1
  O  O23  1  0.80062900  0.69836800  0.51734100  1
  O  O24  1  0.54272700  0.65520000  0.71727900  1
  O  O25  1  0.45727300  0.34480000  0.28272100  1
  O  O26  1  0.95727300  0.15520000  0.28272100  1
  O  O27  1  0.45727300  0.84480000  0.21727900  1
  O  O28  1  0.04272700  0.84480000  0.71727900  1
  O  O29  1  0.54272700  0.15520000  0.78272100  1
  O  O30  1  0.04272700  0.34480000  0.78272100  1
  O  O31  1  0.95727300  0.65520000  0.21727900  1
  O  O32  1  0.75658800  0.88282400  0.65382400  1
  O  O33  1  0.24341200  0.11717600  0.34617600  1
  O  O34  1  0.74341200  0.38282400  0.34617600  1
  O  O35  1  0.24341200  0.61717600  0.15382400  1
  O  O36  1  0.25658800  0.61717600  0.65382400  1
  O  O37  1  0.75658800  0.38282400  0.84617600  1
  O  O38  1  0.25658800  0.11717600  0.84617600  1
  O  O39  1  0.74341200  0.88282400  0.15382400  1
  O  O40  1  0.85887900  0.98910900  0.89744700  1
  O  O41  1  0.14112100  0.01089100  0.10255300  1
  O  O42  1  0.64112100  0.48910900  0.10255300  1
  O  O43  1  0.14112100  0.51089100  0.39744700  1
  O  O44  1  0.35887900  0.51089100  0.89744700  1
  O  O45  1  0.85887900  0.48910900  0.60255300  1
  O  O46  1  0.35887900  0.01089100  0.60255300  1
  O  O47  1  0.64112100  0.98910900  0.39744700  1
