# generated using pymatgen
data_SmTlS2O9
_symmetry_space_group_name_H-M   'P 1'
_cell_length_a   8.63827600
_cell_length_b   10.86677162
_cell_length_c   10.28119284
_cell_angle_alpha   120.68389192
_cell_angle_beta   90.00000000
_cell_angle_gamma   90.00000000
_symmetry_Int_Tables_number   1
_chemical_formula_structural   SmTlS2O9
_chemical_formula_sum   'Sm4 Tl4 S8 O36'
_cell_volume   829.97963557
_cell_formula_units_Z   4
loop_
 _symmetry_equiv_pos_site_id
 _symmetry_equiv_pos_as_xyz
  1  'x, y, z'
loop_
 _atom_site_type_symbol
 _atom_site_label
 _atom_site_symmetry_multiplicity
 _atom_site_fract_x
 _atom_site_fract_y
 _atom_site_fract_z
 _atom_site_occupancy
  Sm  Sm0  1  0.36600900  0.96896000  0.72043800  1
  Sm  Sm1  1  0.63399100  0.03104000  0.27956200  1
  Sm  Sm2  1  0.86600900  0.53104000  0.77956200  1
  Sm  Sm3  1  0.13399100  0.46896000  0.22043800  1
  Tl  Tl4  1  0.33892300  0.68324800  0.95342000  1
  Tl  Tl5  1  0.66107700  0.31675200  0.04658000  1
  Tl  Tl6  1  0.83892300  0.81675200  0.54658000  1
  Tl  Tl7  1  0.16107700  0.18324800  0.45342000  1
  S  S8  1  0.12643200  0.31164600  0.87207500  1
  S  S9  1  0.87356800  0.68835400  0.12792500  1
  S  S10  1  0.62643200  0.18835400  0.62792500  1
  S  S11  1  0.37356800  0.81164600  0.37207500  1
  S  S12  1  0.19873700  0.60927600  0.59542000  1
  S  S13  1  0.80126300  0.39072400  0.40458000  1
  S  S14  1  0.69873700  0.89072400  0.90458000  1
  S  S15  1  0.30126300  0.10927600  0.09542000  1
  O  O16  1  0.78528400  0.02723500  0.99441800  1
  O  O17  1  0.21471600  0.97276500  0.00558200  1
  O  O18  1  0.28528400  0.47276500  0.50558200  1
  O  O19  1  0.71471600  0.52723500  0.49441800  1
  O  O20  1  0.19400100  0.16892100  0.76806300  1
  O  O21  1  0.80599900  0.83107900  0.23193700  1
  O  O22  1  0.69400100  0.33107900  0.73193700  1
  O  O23  1  0.30599900  0.66892100  0.26806300  1
  O  O24  1  0.30583600  0.73327800  0.67585200  1
  O  O25  1  0.69416400  0.26672200  0.32414800  1
  O  O26  1  0.80583600  0.76672200  0.82414800  1
  O  O27  1  0.19416400  0.23327800  0.17585200  1
  O  O28  1  0.40199700  0.13083100  0.99031900  1
  O  O29  1  0.59800300  0.86916900  0.00968100  1
  O  O30  1  0.90199700  0.36916900  0.50968100  1
  O  O31  1  0.09800300  0.63083100  0.49031900  1
  O  O32  1  0.10170800  0.93836400  0.77202200  1
  O  O33  1  0.89829200  0.06163600  0.22797800  1
  O  O34  1  0.60170800  0.56163600  0.72797800  1
  O  O35  1  0.39829200  0.43836400  0.27202200  1
  O  O36  1  0.24850000  0.41307900  0.97519900  1
  O  O37  1  0.75150000  0.58692100  0.02480100  1
  O  O38  1  0.74850000  0.08692100  0.52480100  1
  O  O39  1  0.25150000  0.91307900  0.47519900  1
  O  O40  1  0.00765800  0.30687400  0.97515500  1
  O  O41  1  0.99234200  0.69312600  0.02484500  1
  O  O42  1  0.50765800  0.19312600  0.52484500  1
  O  O43  1  0.49234200  0.80687400  0.47515500  1
  O  O44  1  0.05632800  0.36589700  0.77844200  1
  O  O45  1  0.94367200  0.63410300  0.22155800  1
  O  O46  1  0.55632800  0.13410300  0.72155800  1
  O  O47  1  0.44367200  0.86589700  0.27844200  1
  O  O48  1  0.60457900  0.89894500  0.78811000  1
  O  O49  1  0.39542100  0.10105500  0.21189000  1
  O  O50  1  0.10457900  0.60105500  0.71189000  1
  O  O51  1  0.89542100  0.39894500  0.28811000  1
