# generated using pymatgen
data_RbEu(MoO4)2
_symmetry_space_group_name_H-M   'P 1'
_cell_length_a   7.64741082
_cell_length_b   7.64741082
_cell_length_c   7.87000154
_cell_angle_alpha   61.93906007
_cell_angle_beta   61.93906007
_cell_angle_gamma   88.61397385
_symmetry_Int_Tables_number   1
_chemical_formula_structural   RbEu(MoO4)2
_chemical_formula_sum   'Rb2 Eu2 Mo4 O16'
_cell_volume   346.74084578
_cell_formula_units_Z   2
loop_
 _symmetry_equiv_pos_site_id
 _symmetry_equiv_pos_as_xyz
  1  'x, y, z'
loop_
 _atom_site_type_symbol
 _atom_site_label
 _atom_site_symmetry_multiplicity
 _atom_site_fract_x
 _atom_site_fract_y
 _atom_site_fract_z
 _atom_site_occupancy
  Rb  Rb0  1  0.19958700  0.80041300  0.75000000  1
  Rb  Rb1  1  0.80041300  0.19958700  0.25000000  1
  Eu  Eu2  1  0.76955200  0.23044800  0.75000000  1
  Eu  Eu3  1  0.23044800  0.76955200  0.25000000  1
  Mo  Mo4  1  0.69439900  0.69647400  0.76149000  1
  Mo  Mo5  1  0.30560100  0.30352600  0.23851000  1
  Mo  Mo6  1  0.30352600  0.30560100  0.73851000  1
  Mo  Mo7  1  0.69647400  0.69439900  0.26149000  1
  O  O8  1  0.61604300  0.76437400  0.56257600  1
  O  O9  1  0.38395700  0.23562600  0.43742400  1
  O  O10  1  0.23562600  0.38395700  0.93742400  1
  O  O11  1  0.76437400  0.61604300  0.06257600  1
  O  O12  1  0.38308100  0.07234300  0.86954900  1
  O  O13  1  0.61691900  0.92765700  0.13045100  1
  O  O14  1  0.92765700  0.61691900  0.63045100  1
  O  O15  1  0.07234300  0.38308100  0.36954900  1
  O  O16  1  0.58125200  0.36959000  0.97378200  1
  O  O17  1  0.41874800  0.63041000  0.02621800  1
  O  O18  1  0.63041000  0.41874800  0.52621800  1
  O  O19  1  0.36959000  0.58125200  0.47378200  1
  O  O20  1  0.79299700  0.94779200  0.69098500  1
  O  O21  1  0.20700300  0.05220800  0.30901500  1
  O  O22  1  0.05220800  0.20700300  0.80901500  1
  O  O23  1  0.94779200  0.79299700  0.19098500  1
