# generated using pymatgen
data_Rb5Dy3Br12
_symmetry_space_group_name_H-M   'P 1'
_cell_length_a   4.29260000
_cell_length_b   14.38930640
_cell_length_c   14.38930640
_cell_angle_alpha   120.00000184
_cell_angle_beta   90.00000000
_cell_angle_gamma   90.00000000
_symmetry_Int_Tables_number   1
_chemical_formula_structural   Rb5Dy3Br12
_chemical_formula_sum   'Rb5 Dy3 Br12'
_cell_volume   769.71644544
_cell_formula_units_Z   1
loop_
 _symmetry_equiv_pos_site_id
 _symmetry_equiv_pos_as_xyz
  1  'x, y, z'
loop_
 _atom_site_type_symbol
 _atom_site_label
 _atom_site_symmetry_multiplicity
 _atom_site_fract_x
 _atom_site_fract_y
 _atom_site_fract_z
 _atom_site_occupancy
  Rb  Rb0  1  0.00000000  0.66666700  0.33333300  1
  Rb  Rb1  1  0.00000000  0.33333300  0.66666700  1
  Rb  Rb2  1  0.00000000  0.28310300  0.28310300  1
  Rb  Rb3  1  0.00000000  0.00000000  0.71689700  1
  Rb  Rb4  1  0.00000000  0.71689700  0.00000000  1
  Dy  Dy5  1  0.50000000  0.67599500  0.67599500  1
  Dy  Dy6  1  0.50000000  0.00000000  0.32400500  1
  Dy  Dy7  1  0.50000000  0.32400500  0.00000000  1
  Br  Br8  1  0.00000000  0.81324500  0.81324500  1
  Br  Br9  1  0.00000000  0.00000000  0.18675500  1
  Br  Br10  1  0.00000000  0.18675500  0.00000000  1
  Br  Br11  1  0.00000000  0.54126600  0.54126600  1
  Br  Br12  1  0.00000000  0.00000000  0.45873400  1
  Br  Br13  1  0.00000000  0.45873400  0.00000000  1
  Br  Br14  1  0.50000000  0.77189400  0.21116300  1
  Br  Br15  1  0.50000000  0.43926900  0.22810600  1
  Br  Br16  1  0.50000000  0.56073100  0.78883700  1
  Br  Br17  1  0.50000000  0.78883700  0.56073100  1
  Br  Br18  1  0.50000000  0.21116300  0.77189400  1
  Br  Br19  1  0.50000000  0.22810600  0.43926900  1
