# generated using pymatgen
data_Re3S4Br3
_symmetry_space_group_name_H-M   'P 1'
_cell_length_a   9.23397900
_cell_length_b   9.25046501
_cell_length_c   12.99224114
_cell_angle_alpha   83.29417665
_cell_angle_beta   83.23071868
_cell_angle_gamma   82.66387892
_symmetry_Int_Tables_number   1
_chemical_formula_structural   Re3S4Br3
_chemical_formula_sum   'Re12 S16 Br12'
_cell_volume   1087.17628976
_cell_formula_units_Z   4
loop_
 _symmetry_equiv_pos_site_id
 _symmetry_equiv_pos_as_xyz
  1  'x, y, z'
loop_
 _atom_site_type_symbol
 _atom_site_label
 _atom_site_symmetry_multiplicity
 _atom_site_fract_x
 _atom_site_fract_y
 _atom_site_fract_z
 _atom_site_occupancy
  Re  Re0  1  0.69423700  0.47253900  0.94388700  1
  Re  Re1  1  0.30576300  0.52746100  0.05611300  1
  Re  Re2  1  0.47924200  0.68852000  0.93200700  1
  Re  Re3  1  0.52075800  0.31148000  0.06799300  1
  Re  Re4  1  0.44078100  0.42287100  0.88109800  1
  Re  Re5  1  0.55921900  0.57712900  0.11890200  1
  Re  Re6  1  0.88690500  0.19086200  0.49978500  1
  Re  Re7  1  0.11309500  0.80913800  0.50021500  1
  Re  Re8  1  0.83006300  0.91456000  0.50827400  1
  Re  Re9  1  0.16993700  0.08544000  0.49172600  1
  Re  Re10  1  0.98820900  0.98635300  0.64614700  1
  Re  Re11  1  0.01179100  0.01364700  0.35385300  1
  S  S12  1  0.60125200  0.57936100  0.77982700  1
  S  S13  1  0.39874800  0.42063900  0.22017300  1
  S  S14  1  0.95671200  0.76181300  0.37627800  1
  S  S15  1  0.04328800  0.23818700  0.62372200  1
  S  S16  1  0.63793500  0.23302700  0.90381300  1
  S  S17  1  0.36206500  0.76697300  0.09618700  1
  S  S18  1  0.26972500  0.92294000  0.36122400  1
  S  S19  1  0.73027500  0.07706000  0.63877600  1
  S  S20  1  0.24679400  0.89313900  0.62526000  1
  S  S21  1  0.75320600  0.10686100  0.37474000  1
  S  S22  1  0.24849900  0.62635300  0.88378300  1
  S  S23  1  0.75150100  0.37364700  0.11621700  1
  S  S24  1  0.93483700  0.73680900  0.64001700  1
  S  S25  1  0.06516300  0.26319100  0.35998300  1
  S  S26  1  0.71575100  0.71282400  0.98879200  1
  S  S27  1  0.28424900  0.28717600  0.01120800  1
  Br  Br28  1  0.64410000  0.68034800  0.26725700  1
  Br  Br29  1  0.35590000  0.31965200  0.73274300  1
  Br  Br30  1  0.97630800  0.96846500  0.84112100  1
  Br  Br31  1  0.02369200  0.03153500  0.15887900  1
  Br  Br32  1  0.59650100  0.79562100  0.51713100  1
  Br  Br33  1  0.40349900  0.20437900  0.48286900  1
  Br  Br34  1  0.95574200  0.42478700  0.86349400  1
  Br  Br35  1  0.04425800  0.57521300  0.13650600  1
  Br  Br36  1  0.44747600  0.94606600  0.84361700  1
  Br  Br37  1  0.55252400  0.05393400  0.15638300  1
  Br  Br38  1  0.73500100  0.43512000  0.50286600  1
  Br  Br39  1  0.26499900  0.56488000  0.49713400  1
