# generated using pymatgen
data_Rb3Zn3(MoO4)4
_symmetry_space_group_name_H-M   'P 1'
_cell_length_a   10.56429576
_cell_length_b   10.56429576
_cell_length_c   10.56429576
_cell_angle_alpha   109.47122063
_cell_angle_beta   109.47122063
_cell_angle_gamma   109.47122063
_symmetry_Int_Tables_number   1
_chemical_formula_structural   Rb3Zn3(MoO4)4
_chemical_formula_sum   'Rb6 Zn6 Mo8 O32'
_cell_volume   907.61102545
_cell_formula_units_Z   2
loop_
 _symmetry_equiv_pos_site_id
 _symmetry_equiv_pos_as_xyz
  1  'x, y, z'
loop_
 _atom_site_type_symbol
 _atom_site_label
 _atom_site_symmetry_multiplicity
 _atom_site_fract_x
 _atom_site_fract_y
 _atom_site_fract_z
 _atom_site_occupancy
  Rb  Rb0  1  0.62500000  0.37500000  0.25000000  1
  Rb  Rb1  1  0.87500000  0.12500000  0.75000000  1
  Rb  Rb2  1  0.37500000  0.25000000  0.62500000  1
  Rb  Rb3  1  0.12500000  0.75000000  0.87500000  1
  Rb  Rb4  1  0.25000000  0.62500000  0.37500000  1
  Rb  Rb5  1  0.75000000  0.87500000  0.12500000  1
  Zn  Zn6  1  0.12500000  0.87500000  0.25000000  1
  Zn  Zn7  1  0.37500000  0.62500000  0.75000000  1
  Zn  Zn8  1  0.87500000  0.25000000  0.12500000  1
  Zn  Zn9  1  0.62500000  0.75000000  0.37500000  1
  Zn  Zn10  1  0.25000000  0.12500000  0.87500000  1
  Zn  Zn11  1  0.75000000  0.37500000  0.62500000  1
  Mo  Mo12  1  0.21495900  0.21495900  0.21495900  1
  Mo  Mo13  1  0.28504100  0.50000000  0.00000000  1
  Mo  Mo14  1  0.00000000  0.28504100  0.50000000  1
  Mo  Mo15  1  0.71495900  0.71495900  0.71495900  1
  Mo  Mo16  1  0.50000000  0.00000000  0.28504100  1
  Mo  Mo17  1  0.78504100  0.50000000  0.00000000  1
  Mo  Mo18  1  0.50000000  0.00000000  0.78504100  1
  Mo  Mo19  1  0.00000000  0.78504100  0.50000000  1
  O  O20  1  0.27161200  0.14053800  0.07240300  1
  O  O21  1  0.22838800  0.30079100  0.86892600  1
  O  O22  1  0.93186500  0.35946200  0.63107400  1
  O  O23  1  0.14053800  0.07240300  0.27161200  1
  O  O24  1  0.77161200  0.57240300  0.64053800  1
  O  O25  1  0.56813500  0.19920900  0.42759700  1
  O  O26  1  0.30079100  0.86892600  0.22838800  1
  O  O27  1  0.72838800  0.36892600  0.80079100  1
  O  O28  1  0.35946200  0.63107400  0.93186500  1
  O  O29  1  0.43186500  0.13107400  0.85946200  1
  O  O30  1  0.19920900  0.42759700  0.56813500  1
  O  O31  1  0.06813500  0.92759700  0.69920900  1
  O  O32  1  0.07240300  0.27161200  0.14053800  1
  O  O33  1  0.64053800  0.77161200  0.57240300  1
  O  O34  1  0.63107400  0.93186500  0.35946200  1
  O  O35  1  0.85946200  0.43186500  0.13107400  1
  O  O36  1  0.42759700  0.56813500  0.19920900  1
  O  O37  1  0.69920900  0.06813500  0.92759700  1
  O  O38  1  0.86892600  0.22838800  0.30079100  1
  O  O39  1  0.80079100  0.72838800  0.36892600  1
  O  O40  1  0.57240300  0.64053800  0.77161200  1
  O  O41  1  0.36892600  0.80079100  0.72838800  1
  O  O42  1  0.92759700  0.69920900  0.06813500  1
  O  O43  1  0.13107400  0.85946200  0.43186500  1
  O  O44  1  0.38130900  0.38130900  0.38130900  1
  O  O45  1  0.11869100  0.50000000  0.00000000  1
  O  O46  1  0.00000000  0.11869100  0.50000000  1
  O  O47  1  0.88130900  0.88130900  0.88130900  1
  O  O48  1  0.50000000  0.00000000  0.11869100  1
  O  O49  1  0.61869100  0.50000000  0.00000000  1
  O  O50  1  0.50000000  0.00000000  0.61869100  1
  O  O51  1  0.00000000  0.61869100  0.50000000  1
