# generated using pymatgen
data_PrS3(NO3)3
_symmetry_space_group_name_H-M   'P 1'
_cell_length_a   9.96380950
_cell_length_b   9.96380950
_cell_length_c   5.89848800
_cell_angle_alpha   90.00000000
_cell_angle_beta   90.00000000
_cell_angle_gamma   119.99999667
_symmetry_Int_Tables_number   1
_chemical_formula_structural   PrS3(NO3)3
_chemical_formula_sum   'Pr2 S6 N6 O18'
_cell_volume   507.13335710
_cell_formula_units_Z   2
loop_
 _symmetry_equiv_pos_site_id
 _symmetry_equiv_pos_as_xyz
  1  'x, y, z'
loop_
 _atom_site_type_symbol
 _atom_site_label
 _atom_site_symmetry_multiplicity
 _atom_site_fract_x
 _atom_site_fract_y
 _atom_site_fract_z
 _atom_site_occupancy
  Pr  Pr0  1  0.66666700  0.33333300  0.75000000  1
  Pr  Pr1  1  0.33333300  0.66666700  0.25000000  1
  S  S2  1  0.60023100  0.91394900  0.75000000  1
  S  S3  1  0.39976900  0.08605100  0.25000000  1
  S  S4  1  0.31371800  0.39976900  0.75000000  1
  S  S5  1  0.68628200  0.60023100  0.25000000  1
  S  S6  1  0.08605100  0.68628200  0.75000000  1
  S  S7  1  0.91394900  0.31371800  0.25000000  1
  N  N8  1  0.72934700  0.85556600  0.75000000  1
  N  N9  1  0.27065300  0.14443400  0.25000000  1
  N  N10  1  0.12621900  0.27065300  0.75000000  1
  N  N11  1  0.87378100  0.72934700  0.25000000  1
  N  N12  1  0.14443400  0.87378100  0.75000000  1
  N  N13  1  0.85556600  0.12621900  0.25000000  1
  O  O14  1  0.91649400  0.60746000  0.75000000  1
  O  O15  1  0.08350600  0.39254000  0.25000000  1
  O  O16  1  0.69096600  0.08350600  0.75000000  1
  O  O17  1  0.30903400  0.91649400  0.25000000  1
  O  O18  1  0.39254000  0.30903400  0.75000000  1
  O  O19  1  0.60746000  0.69096600  0.25000000  1
  O  O20  1  0.50806500  0.84956000  0.95664800  1
  O  O21  1  0.49193500  0.15044000  0.04335200  1
  O  O22  1  0.34149600  0.49193500  0.95664800  1
  O  O23  1  0.49193500  0.15044000  0.45664800  1
  O  O24  1  0.65850400  0.50806500  0.04335200  1
  O  O25  1  0.50806500  0.84956000  0.54335200  1
  O  O26  1  0.15044000  0.65850400  0.95664800  1
  O  O27  1  0.65850400  0.50806500  0.45664800  1
  O  O28  1  0.84956000  0.34149600  0.04335200  1
  O  O29  1  0.34149600  0.49193500  0.54335200  1
  O  O30  1  0.84956000  0.34149600  0.45664800  1
  O  O31  1  0.15044000  0.65850400  0.54335200  1
