# generated using pymatgen
data_RbCoBr3
_symmetry_space_group_name_H-M   'P 1'
_cell_length_a   13.07014869
_cell_length_b   13.07014869
_cell_length_c   6.20955700
_cell_angle_alpha   90.00000000
_cell_angle_beta   90.00000000
_cell_angle_gamma   120.00000351
_symmetry_Int_Tables_number   1
_chemical_formula_structural   RbCoBr3
_chemical_formula_sum   'Rb6 Co6 Br18'
_cell_volume   918.65467845
_cell_formula_units_Z   6
loop_
 _symmetry_equiv_pos_site_id
 _symmetry_equiv_pos_as_xyz
  1  'x, y, z'
loop_
 _atom_site_type_symbol
 _atom_site_label
 _atom_site_symmetry_multiplicity
 _atom_site_fract_x
 _atom_site_fract_y
 _atom_site_fract_z
 _atom_site_occupancy
  Rb  Rb0  1  0.66794700  0.00000000  0.25000000  1
  Rb  Rb1  1  0.33205300  0.00000000  0.75000000  1
  Rb  Rb2  1  0.00000000  0.66794700  0.25000000  1
  Rb  Rb3  1  0.00000000  0.33205300  0.75000000  1
  Rb  Rb4  1  0.33205300  0.33205300  0.25000000  1
  Rb  Rb5  1  0.66794700  0.66794700  0.75000000  1
  Co  Co6  1  0.33333300  0.66666700  0.03084300  1
  Co  Co7  1  0.66666700  0.33333300  0.96915700  1
  Co  Co8  1  0.66666700  0.33333300  0.46915700  1
  Co  Co9  1  0.33333300  0.66666700  0.53084300  1
  Co  Co10  1  0.00000000  0.00000000  0.00000000  1
  Co  Co11  1  0.00000000  0.00000000  0.50000000  1
  Br  Br12  1  0.50932600  0.17592800  0.21807500  1
  Br  Br13  1  0.49067400  0.82407200  0.78192500  1
  Br  Br14  1  0.82407200  0.33339800  0.21807500  1
  Br  Br15  1  0.17592800  0.50932600  0.28192500  1
  Br  Br16  1  0.17592800  0.66660200  0.78192500  1
  Br  Br17  1  0.82407200  0.49067400  0.71807500  1
  Br  Br18  1  0.66660200  0.49067400  0.21807500  1
  Br  Br19  1  0.33339800  0.82407200  0.28192500  1
  Br  Br20  1  0.33339800  0.50932600  0.78192500  1
  Br  Br21  1  0.66660200  0.17592800  0.71807500  1
  Br  Br22  1  0.49067400  0.66660200  0.28192500  1
  Br  Br23  1  0.50932600  0.33339800  0.71807500  1
  Br  Br24  1  0.15712800  0.00000000  0.25000000  1
  Br  Br25  1  0.84287200  0.00000000  0.75000000  1
  Br  Br26  1  0.00000000  0.15712800  0.25000000  1
  Br  Br27  1  0.00000000  0.84287200  0.75000000  1
  Br  Br28  1  0.84287200  0.84287200  0.25000000  1
  Br  Br29  1  0.15712800  0.15712800  0.75000000  1
