# generated using pymatgen
data_Rb2YCl5
_symmetry_space_group_name_H-M   'P 1'
_cell_length_a   7.47468600
_cell_length_b   9.61066900
_cell_length_c   14.88340700
_cell_angle_alpha   90.00000000
_cell_angle_beta   90.00000000
_cell_angle_gamma   90.00000000
_symmetry_Int_Tables_number   1
_chemical_formula_structural   Rb2YCl5
_chemical_formula_sum   'Rb8 Y4 Cl20'
_cell_volume   1069.17533516
_cell_formula_units_Z   4
loop_
 _symmetry_equiv_pos_site_id
 _symmetry_equiv_pos_as_xyz
  1  'x, y, z'
loop_
 _atom_site_type_symbol
 _atom_site_label
 _atom_site_symmetry_multiplicity
 _atom_site_fract_x
 _atom_site_fract_y
 _atom_site_fract_z
 _atom_site_occupancy
  Rb  Rb0  1  0.25000000  0.66251400  0.91747000  1
  Rb  Rb1  1  0.75000000  0.33748600  0.08253000  1
  Rb  Rb2  1  0.75000000  0.83748600  0.41747000  1
  Rb  Rb3  1  0.25000000  0.16251400  0.58253000  1
  Rb  Rb4  1  0.25000000  0.97779800  0.21243700  1
  Rb  Rb5  1  0.75000000  0.02220200  0.78756300  1
  Rb  Rb6  1  0.75000000  0.52220200  0.71243700  1
  Rb  Rb7  1  0.25000000  0.47779800  0.28756300  1
  Y  Y8  1  0.25000000  0.68189500  0.56579400  1
  Y  Y9  1  0.75000000  0.31810500  0.43420600  1
  Y  Y10  1  0.75000000  0.81810500  0.06579400  1
  Y  Y11  1  0.25000000  0.18189500  0.93420600  1
  Cl  Cl12  1  0.25000000  0.52076100  0.70719800  1
  Cl  Cl13  1  0.75000000  0.47923900  0.29280200  1
  Cl  Cl14  1  0.75000000  0.97923900  0.20719800  1
  Cl  Cl15  1  0.25000000  0.02076100  0.79280200  1
  Cl  Cl16  1  0.51036000  0.83832000  0.61802000  1
  Cl  Cl17  1  0.48964000  0.16168000  0.38198000  1
  Cl  Cl18  1  0.48964000  0.66168000  0.11802000  1
  Cl  Cl19  1  0.01036000  0.16168000  0.38198000  1
  Cl  Cl20  1  0.51036000  0.33832000  0.88198000  1
  Cl  Cl21  1  0.98964000  0.83832000  0.61802000  1
  Cl  Cl22  1  0.98964000  0.33832000  0.88198000  1
  Cl  Cl23  1  0.01036000  0.66168000  0.11802000  1
  Cl  Cl24  1  0.25000000  0.78637400  0.39964800  1
  Cl  Cl25  1  0.75000000  0.21362600  0.60035200  1
  Cl  Cl26  1  0.75000000  0.71362600  0.89964800  1
  Cl  Cl27  1  0.25000000  0.28637400  0.10035200  1
  Cl  Cl28  1  0.00000000  0.50000000  0.50000000  1
  Cl  Cl29  1  0.00000000  0.00000000  0.00000000  1
  Cl  Cl30  1  0.50000000  0.50000000  0.50000000  1
  Cl  Cl31  1  0.50000000  0.00000000  0.00000000  1
