# generated using pymatgen
data_Sm2Sn3(PbS4)3
_symmetry_space_group_name_H-M   'P 1'
_cell_length_a   3.96854800
_cell_length_b   11.71954200
_cell_length_c   20.60556700
_cell_angle_alpha   90.00000000
_cell_angle_beta   90.00000000
_cell_angle_gamma   90.00000000
_symmetry_Int_Tables_number   1
_chemical_formula_structural   Sm2Sn3(PbS4)3
_chemical_formula_sum   'Sm4 Sn6 Pb6 S24'
_cell_volume   958.35595703
_cell_formula_units_Z   2
loop_
 _symmetry_equiv_pos_site_id
 _symmetry_equiv_pos_as_xyz
  1  'x, y, z'
loop_
 _atom_site_type_symbol
 _atom_site_label
 _atom_site_symmetry_multiplicity
 _atom_site_fract_x
 _atom_site_fract_y
 _atom_site_fract_z
 _atom_site_occupancy
  Sm  Sm0  1  0.50000000  0.64964300  0.41231600  1
  Sm  Sm1  1  0.50000000  0.14964300  0.58768400  1
  Sm  Sm2  1  0.50000000  0.82497800  0.89439600  1
  Sm  Sm3  1  0.50000000  0.32497800  0.10560400  1
  Sn  Sn4  1  0.00000000  0.00168600  0.74991700  1
  Sn  Sn5  1  0.00000000  0.50168600  0.25008300  1
  Sn  Sn6  1  0.00000000  0.51860100  0.91182800  1
  Sn  Sn7  1  0.00000000  0.01860100  0.08817200  1
  Sn  Sn8  1  0.00000000  0.99417800  0.42473600  1
  Sn  Sn9  1  0.00000000  0.49417800  0.57526400  1
  Pb  Pb10  1  0.50000000  0.40321800  0.74253500  1
  Pb  Pb11  1  0.50000000  0.90321800  0.25746500  1
  Pb  Pb12  1  0.50000000  0.19863200  0.91363900  1
  Pb  Pb13  1  0.50000000  0.69863200  0.08636100  1
  Pb  Pb14  1  0.50000000  0.77099800  0.62292300  1
  Pb  Pb15  1  0.50000000  0.27099800  0.37707700  1
  S  S16  1  0.00000000  0.99474800  0.87481700  1
  S  S17  1  0.00000000  0.49474800  0.12518300  1
  S  S18  1  0.00000000  0.98214300  0.62670900  1
  S  S19  1  0.00000000  0.48214300  0.37329100  1
  S  S20  1  0.00000000  0.68314600  0.51167500  1
  S  S21  1  0.00000000  0.18314600  0.48832500  1
  S  S22  1  0.50000000  0.64580000  0.25793700  1
  S  S23  1  0.50000000  0.14580000  0.74206300  1
  S  S24  1  0.50000000  0.85137200  0.75613100  1
  S  S25  1  0.50000000  0.35137200  0.24386900  1
  S  S26  1  0.50000000  0.59921500  0.84120900  1
  S  S27  1  0.50000000  0.09921500  0.15879100  1
  S  S28  1  0.50000000  0.43794800  0.98177700  1
  S  S29  1  0.50000000  0.93794800  0.01822300  1
  S  S30  1  0.50000000  0.93480300  0.48986400  1
  S  S31  1  0.50000000  0.43480300  0.51013600  1
  S  S32  1  0.00000000  0.33789400  0.84275200  1
  S  S33  1  0.00000000  0.83789400  0.15724800  1
  S  S34  1  0.00000000  0.71108600  0.97051700  1
  S  S35  1  0.00000000  0.21108600  0.02948300  1
  S  S36  1  0.00000000  0.80702600  0.35918000  1
  S  S37  1  0.00000000  0.30702600  0.64082000  1
  S  S38  1  0.00000000  0.60218500  0.67708100  1
  S  S39  1  0.00000000  0.10218500  0.32291900  1
