# generated using pymatgen
data_Rb4Fe2O
_symmetry_space_group_name_H-M   'P 1'
_cell_length_a   10.26777170
_cell_length_b   10.26777170
_cell_length_c   10.26777170
_cell_angle_alpha   60.00000000
_cell_angle_beta   60.00000000
_cell_angle_gamma   60.00000000
_symmetry_Int_Tables_number   1
_chemical_formula_structural   Rb4Fe2O
_chemical_formula_sum   'Rb8 Fe4 O2'
_cell_volume   765.44433630
_cell_formula_units_Z   2
loop_
 _symmetry_equiv_pos_site_id
 _symmetry_equiv_pos_as_xyz
  1  'x, y, z'
loop_
 _atom_site_type_symbol
 _atom_site_label
 _atom_site_symmetry_multiplicity
 _atom_site_fract_x
 _atom_site_fract_y
 _atom_site_fract_z
 _atom_site_occupancy
  Rb  Rb0  1  0.35700100  0.35700100  0.35700100  1
  Rb  Rb1  1  0.35700100  0.35700100  0.92899800  1
  Rb  Rb2  1  0.35700100  0.92899800  0.35700100  1
  Rb  Rb3  1  0.89299900  0.89299900  0.32100200  1
  Rb  Rb4  1  0.89299900  0.89299900  0.89299900  1
  Rb  Rb5  1  0.92899800  0.35700100  0.35700100  1
  Rb  Rb6  1  0.89299900  0.32100200  0.89299900  1
  Rb  Rb7  1  0.32100200  0.89299900  0.89299900  1
  Fe  Fe8  1  0.12500000  0.12500000  0.12500000  1
  Fe  Fe9  1  0.12500000  0.12500000  0.62500000  1
  Fe  Fe10  1  0.12500000  0.62500000  0.12500000  1
  Fe  Fe11  1  0.62500000  0.12500000  0.12500000  1
  O  O12  1  0.00000000  0.00000000  0.00000000  1
  O  O13  1  0.25000000  0.25000000  0.25000000  1
