# generated using pymatgen
data_Re3Se4Br3
_symmetry_space_group_name_H-M   'P 1'
_cell_length_a   9.29462100
_cell_length_b   9.43300104
_cell_length_c   13.22661308
_cell_angle_alpha   83.62482717
_cell_angle_beta   83.59481028
_cell_angle_gamma   82.58849710
_symmetry_Int_Tables_number   1
_chemical_formula_structural   Re3Se4Br3
_chemical_formula_sum   'Re12 Se16 Br12'
_cell_volume   1137.28254366
_cell_formula_units_Z   4
loop_
 _symmetry_equiv_pos_site_id
 _symmetry_equiv_pos_as_xyz
  1  'x, y, z'
loop_
 _atom_site_type_symbol
 _atom_site_label
 _atom_site_symmetry_multiplicity
 _atom_site_fract_x
 _atom_site_fract_y
 _atom_site_fract_z
 _atom_site_occupancy
  Re  Re0  1  0.69095400  0.47427500  0.94612700  1
  Re  Re1  1  0.30904600  0.52572500  0.05387300  1
  Re  Re2  1  0.47882700  0.68582900  0.93325900  1
  Re  Re3  1  0.52117300  0.31417100  0.06674100  1
  Re  Re4  1  0.44308800  0.42309100  0.88130400  1
  Re  Re5  1  0.55691200  0.57690900  0.11869600  1
  Re  Re6  1  0.88802100  0.18946200  0.50151500  1
  Re  Re7  1  0.11197900  0.81053800  0.49848500  1
  Re  Re8  1  0.83254100  0.91759100  0.50773600  1
  Re  Re9  1  0.16745900  0.08240900  0.49226400  1
  Re  Re10  1  0.99004600  0.98559900  0.64326600  1
  Re  Re11  1  0.00995400  0.01440100  0.35673400  1
  Se  Se12  1  0.60188000  0.58375700  0.77089400  1
  Se  Se13  1  0.39812000  0.41624300  0.22910600  1
  Se  Se14  1  0.95495200  0.75208700  0.37152300  1
  Se  Se15  1  0.04504800  0.24791300  0.62847700  1
  Se  Se16  1  0.64193900  0.22105100  0.90166500  1
  Se  Se17  1  0.35806100  0.77894900  0.09833500  1
  Se  Se18  1  0.28285600  0.91651000  0.35836700  1
  Se  Se19  1  0.71714400  0.08349000  0.64163300  1
  Se  Se20  1  0.25806900  0.88665700  0.62969600  1
  Se  Se21  1  0.74193100  0.11334300  0.37030400  1
  Se  Se22  1  0.23692300  0.62859500  0.87934600  1
  Se  Se23  1  0.76307700  0.37140500  0.12065400  1
  Se  Se24  1  0.93477100  0.72815100  0.64597500  1
  Se  Se25  1  0.06522900  0.27184900  0.35402500  1
  Se  Se26  1  0.72524500  0.71950900  0.99057700  1
  Se  Se27  1  0.27475500  0.28049100  0.00942300  1
  Br  Br28  1  0.64027100  0.67943900  0.26644800  1
  Br  Br29  1  0.35972900  0.32056100  0.73355200  1
  Br  Br30  1  0.97691000  0.96949500  0.83721800  1
  Br  Br31  1  0.02309000  0.03050500  0.16278200  1
  Br  Br32  1  0.60048200  0.79679200  0.51528600  1
  Br  Br33  1  0.39951800  0.20320800  0.48471400  1
  Br  Br34  1  0.95128600  0.42395800  0.86454300  1
  Br  Br35  1  0.04871400  0.57604200  0.13545700  1
  Br  Br36  1  0.44921700  0.94069800  0.84582000  1
  Br  Br37  1  0.55078300  0.05930200  0.15418000  1
  Br  Br38  1  0.73835700  0.43306400  0.50386100  1
  Br  Br39  1  0.26164300  0.56693600  0.49613900  1
