# generated using pymatgen
data_Sr11Hg54
_symmetry_space_group_name_H-M   'P 1'
_cell_length_a   13.64454870
_cell_length_b   13.64454870
_cell_length_c   11.21432000
_cell_angle_alpha   90.00000000
_cell_angle_beta   90.00000000
_cell_angle_gamma   120.00000340
_symmetry_Int_Tables_number   1
_chemical_formula_structural   Sr11Hg54
_chemical_formula_sum   'Sr11 Hg54'
_cell_volume   1808.09777960
_cell_formula_units_Z   1
loop_
 _symmetry_equiv_pos_site_id
 _symmetry_equiv_pos_as_xyz
  1  'x, y, z'
loop_
 _atom_site_type_symbol
 _atom_site_label
 _atom_site_symmetry_multiplicity
 _atom_site_fract_x
 _atom_site_fract_y
 _atom_site_fract_z
 _atom_site_occupancy
  Sr  Sr0  1  0.57050400  0.69570100  0.00000000  1
  Sr  Sr1  1  0.12519700  0.42949600  0.00000000  1
  Sr  Sr2  1  0.30429900  0.87480300  0.00000000  1
  Sr  Sr3  1  0.66666700  0.33333300  0.81630200  1
  Sr  Sr4  1  0.66666700  0.33333300  0.18369800  1
  Sr  Sr5  1  0.53801000  0.95018800  0.50000000  1
  Sr  Sr6  1  0.41217800  0.46199000  0.50000000  1
  Sr  Sr7  1  0.04981200  0.58782200  0.50000000  1
  Sr  Sr8  1  0.79567100  0.75054200  0.50000000  1
  Sr  Sr9  1  0.95487000  0.20432900  0.50000000  1
  Sr  Sr10  1  0.24945800  0.04513000  0.50000000  1
  Hg  Hg11  1  0.75858400  0.95258400  0.64617900  1
  Hg  Hg12  1  0.19400000  0.24141600  0.64617900  1
  Hg  Hg13  1  0.75858400  0.95258400  0.35382100  1
  Hg  Hg14  1  0.04741600  0.80600000  0.64617900  1
  Hg  Hg15  1  0.19400000  0.24141600  0.35382100  1
  Hg  Hg16  1  0.04741600  0.80600000  0.35382100  1
  Hg  Hg17  1  0.89251800  0.49211800  0.00000000  1
  Hg  Hg18  1  0.59960000  0.10748200  0.00000000  1
  Hg  Hg19  1  0.50788200  0.40040000  0.00000000  1
  Hg  Hg20  1  0.65283700  0.45410800  0.50000000  1
  Hg  Hg21  1  0.80127000  0.34716300  0.50000000  1
  Hg  Hg22  1  0.54589200  0.19873000  0.50000000  1
  Hg  Hg23  1  0.60988800  0.54958600  0.73781300  1
  Hg  Hg24  1  0.93969800  0.39011200  0.73781300  1
  Hg  Hg25  1  0.60988800  0.54958600  0.26218700  1
  Hg  Hg26  1  0.45041400  0.06030200  0.73781300  1
  Hg  Hg27  1  0.93969800  0.39011200  0.26218700  1
  Hg  Hg28  1  0.45041400  0.06030200  0.26218700  1
  Hg  Hg29  1  0.54077500  0.90069300  0.82525000  1
  Hg  Hg30  1  0.35991800  0.45922500  0.82525000  1
  Hg  Hg31  1  0.54077500  0.90069300  0.17475000  1
  Hg  Hg32  1  0.09930700  0.64008200  0.82525000  1
  Hg  Hg33  1  0.35991800  0.45922500  0.17475000  1
  Hg  Hg34  1  0.09930700  0.64008200  0.17475000  1
  Hg  Hg35  1  0.33333300  0.66666700  0.50000000  1
  Hg  Hg36  1  0.85203100  0.58379700  0.71813600  1
  Hg  Hg37  1  0.73176600  0.14796900  0.71813600  1
  Hg  Hg38  1  0.85203100  0.58379700  0.28186400  1
  Hg  Hg39  1  0.41620300  0.26823400  0.71813600  1
  Hg  Hg40  1  0.73176600  0.14796900  0.28186400  1
  Hg  Hg41  1  0.41620300  0.26823400  0.28186400  1
  Hg  Hg42  1  0.82401400  0.80503700  0.81565100  1
  Hg  Hg43  1  0.98102400  0.17598600  0.81565100  1
  Hg  Hg44  1  0.82401400  0.80503700  0.18434900  1
  Hg  Hg45  1  0.19496300  0.01897600  0.81565100  1
  Hg  Hg46  1  0.98102400  0.17598600  0.18434900  1
  Hg  Hg47  1  0.19496300  0.01897600  0.18434900  1
  Hg  Hg48  1  0.00000000  0.00000000  0.64513300  1
  Hg  Hg49  1  0.00000000  0.00000000  0.35486700  1
  Hg  Hg50  1  0.76832600  0.98879100  0.00000000  1
  Hg  Hg51  1  0.22046500  0.23167400  0.00000000  1
  Hg  Hg52  1  0.01120900  0.77953500  0.00000000  1
  Hg  Hg53  1  0.33333300  0.66666700  0.84625000  1
  Hg  Hg54  1  0.33333300  0.66666700  0.15375000  1
  Hg  Hg55  1  0.75048700  0.59883600  0.00000000  1
  Hg  Hg56  1  0.84834900  0.24951300  0.00000000  1
  Hg  Hg57  1  0.40116400  0.15165100  0.00000000  1
  Hg  Hg58  1  0.00000000  0.00000000  0.00000000  1
  Hg  Hg59  1  0.54801400  0.72211900  0.64801500  1
  Hg  Hg60  1  0.17410500  0.45198600  0.64801500  1
  Hg  Hg61  1  0.54801400  0.72211900  0.35198500  1
  Hg  Hg62  1  0.27788100  0.82589500  0.64801500  1
  Hg  Hg63  1  0.17410500  0.45198600  0.35198500  1
  Hg  Hg64  1  0.27788100  0.82589500  0.35198500  1
