# generated using pymatgen
data_Rb2Mo4O13
_symmetry_space_group_name_H-M   'P 1'
_cell_length_a   8.48010600
_cell_length_b   8.59836851
_cell_length_c   10.51904602
_cell_angle_alpha   104.28042839
_cell_angle_beta   106.45050112
_cell_angle_gamma   109.84063282
_symmetry_Int_Tables_number   1
_chemical_formula_structural   Rb2Mo4O13
_chemical_formula_sum   'Rb4 Mo8 O26'
_cell_volume   640.03927060
_cell_formula_units_Z   2
loop_
 _symmetry_equiv_pos_site_id
 _symmetry_equiv_pos_as_xyz
  1  'x, y, z'
loop_
 _atom_site_type_symbol
 _atom_site_label
 _atom_site_symmetry_multiplicity
 _atom_site_fract_x
 _atom_site_fract_y
 _atom_site_fract_z
 _atom_site_occupancy
  Rb  Rb0  1  0.30970500  0.34869500  0.57181700  1
  Rb  Rb1  1  0.69029500  0.65130500  0.42818300  1
  Rb  Rb2  1  0.62216600  0.07259500  0.30551600  1
  Rb  Rb3  1  0.37783400  0.92740500  0.69448400  1
  Mo  Mo4  1  0.22639400  0.53973700  0.04156900  1
  Mo  Mo5  1  0.77360600  0.46026300  0.95843100  1
  Mo  Mo6  1  0.77791300  0.84704000  0.94253200  1
  Mo  Mo7  1  0.22208700  0.15296000  0.05746800  1
  Mo  Mo8  1  0.05225800  0.87290600  0.26781500  1
  Mo  Mo9  1  0.94774200  0.12709400  0.73218500  1
  Mo  Mo10  1  0.07611400  0.49709600  0.28872300  1
  Mo  Mo11  1  0.92388600  0.50290400  0.71127700  1
  O  O12  1  0.58466700  0.71959900  0.78195300  1
  O  O13  1  0.41533300  0.28040100  0.21804700  1
  O  O14  1  0.99062600  0.68281200  0.33690800  1
  O  O15  1  0.00937400  0.31718800  0.66309200  1
  O  O16  1  0.77921800  0.69262600  0.06129900  1
  O  O17  1  0.22078200  0.30737400  0.93870100  1
  O  O18  1  0.70357800  0.97692700  0.04060200  1
  O  O19  1  0.29642200  0.02307300  0.95939800  1
  O  O20  1  0.09746100  0.64560200  0.13227200  1
  O  O21  1  0.90253900  0.35439800  0.86772800  1
  O  O22  1  0.97115600  0.34532000  0.35602700  1
  O  O23  1  0.02884400  0.65468000  0.64397300  1
  O  O24  1  0.06756900  0.97948000  0.11595600  1
  O  O25  1  0.93243100  0.02052000  0.88404400  1
  O  O26  1  0.30096300  0.61739900  0.42081000  1
  O  O27  1  0.69903700  0.38260100  0.57919000  1
  O  O28  1  0.12193200  0.36026500  0.14170800  1
  O  O29  1  0.87806800  0.63973500  0.85829200  1
  O  O30  1  0.78318600  0.37657400  0.09708000  1
  O  O31  1  0.21681400  0.62342600  0.90292000  1
  O  O32  1  0.94454800  0.98324700  0.34458600  1
  O  O33  1  0.05545200  0.01675300  0.65541400  1
  O  O34  1  0.45089400  0.66369900  0.16716900  1
  O  O35  1  0.54910600  0.33630100  0.83283100  1
  O  O36  1  0.28374600  0.00120800  0.38091400  1
  O  O37  1  0.71625400  0.99879200  0.61908600  1
