# generated using pymatgen
data_Rb3AsF6
_symmetry_space_group_name_H-M   'P 1'
_cell_length_a   8.83927472
_cell_length_b   7.11209963
_cell_length_c   7.13455231
_cell_angle_alpha   77.58723023
_cell_angle_beta   110.04923479
_cell_angle_gamma   128.27288450
_symmetry_Int_Tables_number   1
_chemical_formula_structural   Rb3AsF6
_chemical_formula_sum   'Rb3 As1 F6'
_cell_volume   330.77787088
_cell_formula_units_Z   1
loop_
 _symmetry_equiv_pos_site_id
 _symmetry_equiv_pos_as_xyz
  1  'x, y, z'
loop_
 _atom_site_type_symbol
 _atom_site_label
 _atom_site_symmetry_multiplicity
 _atom_site_fract_x
 _atom_site_fract_y
 _atom_site_fract_z
 _atom_site_occupancy
  Rb  Rb0  1  0.00000000  0.00000000  0.50000000  1
  Rb  Rb1  1  0.50000000  0.50000000  0.00000000  1
  Rb  Rb2  1  0.00000000  0.50000000  0.00000000  1
  As  As3  1  0.00000000  0.00000000  0.00000000  1
  F  F4  1  0.05083100  0.26558200  0.78252500  1
  F  F5  1  0.94916900  0.73441800  0.21747500  1
  F  F6  1  0.79087800  0.71933300  0.79354600  1
  F  F7  1  0.20912200  0.28066700  0.20645400  1
  F  F8  1  0.78334900  0.99557900  0.06408000  1
  F  F9  1  0.21665100  0.00442100  0.93592000  1
