# generated using pymatgen
data_RbSm2Br5
_symmetry_space_group_name_H-M   'P 1'
_cell_length_a   7.30849200
_cell_length_b   10.27254100
_cell_length_c   14.17125921
_cell_angle_alpha   85.45248378
_cell_angle_beta   90.00000000
_cell_angle_gamma   90.00000000
_symmetry_Int_Tables_number   1
_chemical_formula_structural   RbSm2Br5
_chemical_formula_sum   'Rb4 Sm8 Br20'
_cell_volume   1060.58322148
_cell_formula_units_Z   4
loop_
 _symmetry_equiv_pos_site_id
 _symmetry_equiv_pos_as_xyz
  1  'x, y, z'
loop_
 _atom_site_type_symbol
 _atom_site_label
 _atom_site_symmetry_multiplicity
 _atom_site_fract_x
 _atom_site_fract_y
 _atom_site_fract_z
 _atom_site_occupancy
  Rb  Rb0  1  0.08510800  0.49886800  0.33882800  1
  Rb  Rb1  1  0.91489200  0.50113200  0.66117200  1
  Rb  Rb2  1  0.58510800  0.50113200  0.16117200  1
  Rb  Rb3  1  0.41489200  0.49886800  0.83882800  1
  Sm  Sm4  1  0.11762400  0.99014100  0.34741000  1
  Sm  Sm5  1  0.88237600  0.00985900  0.65259000  1
  Sm  Sm6  1  0.61762400  0.00985900  0.15259000  1
  Sm  Sm7  1  0.38237600  0.99014100  0.84741000  1
  Sm  Sm8  1  0.02471900  0.17091400  0.98941100  1
  Sm  Sm9  1  0.97528100  0.82908600  0.01058900  1
  Sm  Sm10  1  0.52471900  0.82908600  0.51058900  1
  Sm  Sm11  1  0.47528100  0.17091400  0.48941100  1
  Br  Br12  1  0.15860000  0.58244500  0.08488300  1
  Br  Br13  1  0.84140000  0.41755500  0.91511700  1
  Br  Br14  1  0.65860000  0.41755500  0.41511700  1
  Br  Br15  1  0.34140000  0.58244500  0.58488300  1
  Br  Br16  1  0.85849400  0.23155300  0.16994200  1
  Br  Br17  1  0.14150600  0.76844700  0.83005800  1
  Br  Br18  1  0.35849400  0.76844700  0.33005800  1
  Br  Br19  1  0.64150600  0.23155300  0.66994200  1
  Br  Br20  1  0.33417900  0.22003500  0.28441300  1
  Br  Br21  1  0.66582100  0.77996500  0.71558700  1
  Br  Br22  1  0.83417900  0.77996500  0.21558700  1
  Br  Br23  1  0.16582100  0.22003500  0.78441300  1
  Br  Br24  1  0.44237400  0.19243500  0.99314500  1
  Br  Br25  1  0.55762600  0.80756500  0.00685500  1
  Br  Br26  1  0.94237400  0.80756500  0.50685500  1
  Br  Br27  1  0.05762600  0.19243500  0.49314500  1
  Br  Br28  1  0.70069600  0.02459200  0.36111100  1
  Br  Br29  1  0.29930400  0.97540800  0.63888900  1
  Br  Br30  1  0.20069600  0.97540800  0.13888900  1
  Br  Br31  1  0.79930400  0.02459200  0.86111100  1
