# generated using pymatgen
data_Rb2Y2(PO4)3
_symmetry_space_group_name_H-M   'P 1'
_cell_length_a   10.80361200
_cell_length_b   10.80361200
_cell_length_c   10.80361200
_cell_angle_alpha   90.00000000
_cell_angle_beta   90.00000000
_cell_angle_gamma   90.00000000
_symmetry_Int_Tables_number   1
_chemical_formula_structural   Rb2Y2(PO4)3
_chemical_formula_sum   'Rb8 Y8 P12 O48'
_cell_volume   1260.97633380
_cell_formula_units_Z   4
loop_
 _symmetry_equiv_pos_site_id
 _symmetry_equiv_pos_as_xyz
  1  'x, y, z'
loop_
 _atom_site_type_symbol
 _atom_site_label
 _atom_site_symmetry_multiplicity
 _atom_site_fract_x
 _atom_site_fract_y
 _atom_site_fract_z
 _atom_site_occupancy
  Rb  Rb0  1  0.04605400  0.04605400  0.04605400  1
  Rb  Rb1  1  0.45394600  0.95394600  0.54605400  1
  Rb  Rb2  1  0.95394600  0.54605400  0.45394600  1
  Rb  Rb3  1  0.54605400  0.45394600  0.95394600  1
  Rb  Rb4  1  0.81887700  0.81887700  0.81887700  1
  Rb  Rb5  1  0.68112300  0.18112300  0.31887700  1
  Rb  Rb6  1  0.18112300  0.31887700  0.68112300  1
  Rb  Rb7  1  0.31887700  0.68112300  0.18112300  1
  Y  Y8  1  0.60339600  0.60339600  0.60339600  1
  Y  Y9  1  0.89660400  0.39660400  0.10339600  1
  Y  Y10  1  0.39660400  0.10339600  0.89660400  1
  Y  Y11  1  0.10339600  0.89660400  0.39660400  1
  Y  Y12  1  0.33229500  0.33229500  0.33229500  1
  Y  Y13  1  0.16770500  0.66770500  0.83229500  1
  Y  Y14  1  0.66770500  0.83229500  0.16770500  1
  Y  Y15  1  0.83229500  0.16770500  0.66770500  1
  P  P16  1  0.01441100  0.21175100  0.37435200  1
  P  P17  1  0.48558900  0.78824900  0.87435200  1
  P  P18  1  0.98558900  0.71175100  0.12564800  1
  P  P19  1  0.37435200  0.01441100  0.21175100  1
  P  P20  1  0.51441100  0.28824900  0.62564800  1
  P  P21  1  0.87435200  0.48558900  0.78824900  1
  P  P22  1  0.12564800  0.98558900  0.71175100  1
  P  P23  1  0.62564800  0.51441100  0.28824900  1
  P  P24  1  0.21175100  0.37435200  0.01441100  1
  P  P25  1  0.71175100  0.12564800  0.98558900  1
  P  P26  1  0.28824900  0.62564800  0.51441100  1
  P  P27  1  0.78824900  0.87435200  0.48558900  1
  O  O28  1  0.14706200  0.26007000  0.39941600  1
  O  O29  1  0.35293800  0.73993000  0.89941600  1
  O  O30  1  0.85293800  0.76007000  0.10058400  1
  O  O31  1  0.39941600  0.14706200  0.26007000  1
  O  O32  1  0.64706200  0.23993000  0.60058400  1
  O  O33  1  0.89941600  0.35293800  0.73993000  1
  O  O34  1  0.10058400  0.85293800  0.76007000  1
  O  O35  1  0.60058400  0.64706200  0.23993000  1
  O  O36  1  0.26007000  0.39941600  0.14706200  1
  O  O37  1  0.76007000  0.10058400  0.85293800  1
  O  O38  1  0.23993000  0.60058400  0.64706200  1
  O  O39  1  0.73993000  0.89941600  0.35293800  1
  O  O40  1  0.04687900  0.79081000  0.22846900  1
  O  O41  1  0.45312100  0.20919000  0.72846900  1
  O  O42  1  0.95312100  0.29081000  0.27153100  1
  O  O43  1  0.22846900  0.04687900  0.79081000  1
  O  O44  1  0.54687900  0.70919000  0.77153100  1
  O  O45  1  0.72846900  0.45312100  0.20919000  1
  O  O46  1  0.27153100  0.95312100  0.29081000  1
  O  O47  1  0.77153100  0.54687900  0.70919000  1
  O  O48  1  0.79081000  0.22846900  0.04687900  1
  O  O49  1  0.29081000  0.27153100  0.95312100  1
  O  O50  1  0.70919000  0.77153100  0.54687900  1
  O  O51  1  0.20919000  0.72846900  0.45312100  1
  O  O52  1  0.01580500  0.07480500  0.33215900  1
  O  O53  1  0.48419500  0.92519500  0.83215900  1
  O  O54  1  0.98419500  0.57480500  0.16784100  1
  O  O55  1  0.33215900  0.01580500  0.07480500  1
  O  O56  1  0.51580500  0.42519500  0.66784100  1
  O  O57  1  0.83215900  0.48419500  0.92519500  1
  O  O58  1  0.16784100  0.98419500  0.57480500  1
  O  O59  1  0.66784100  0.51580500  0.42519500  1
  O  O60  1  0.07480500  0.33215900  0.01580500  1
  O  O61  1  0.57480500  0.16784100  0.98419500  1
  O  O62  1  0.42519500  0.66784100  0.51580500  1
  O  O63  1  0.92519500  0.83215900  0.48419500  1
  O  O64  1  0.27426900  0.50697000  0.43424800  1
  O  O65  1  0.22573100  0.49303000  0.93424800  1
  O  O66  1  0.72573100  0.00697000  0.06575200  1
  O  O67  1  0.43424800  0.27426900  0.50697000  1
  O  O68  1  0.77426900  0.99303000  0.56575200  1
  O  O69  1  0.93424800  0.22573100  0.49303000  1
  O  O70  1  0.06575200  0.72573100  0.00697000  1
  O  O71  1  0.56575200  0.77426900  0.99303000  1
  O  O72  1  0.50697000  0.43424800  0.27426900  1
  O  O73  1  0.00697000  0.06575200  0.72573100  1
  O  O74  1  0.99303000  0.56575200  0.77426900  1
  O  O75  1  0.49303000  0.93424800  0.22573100  1
