# generated using pymatgen
data_Rb2Fe2(PO4)3
_symmetry_space_group_name_H-M   'P 1'
_cell_length_a   10.09973200
_cell_length_b   10.09973200
_cell_length_c   10.09973200
_cell_angle_alpha   90.00000000
_cell_angle_beta   90.00000000
_cell_angle_gamma   90.00000000
_symmetry_Int_Tables_number   1
_chemical_formula_structural   Rb2Fe2(PO4)3
_chemical_formula_sum   'Rb8 Fe8 P12 O48'
_cell_volume   1030.21898614
_cell_formula_units_Z   4
loop_
 _symmetry_equiv_pos_site_id
 _symmetry_equiv_pos_as_xyz
  1  'x, y, z'
loop_
 _atom_site_type_symbol
 _atom_site_label
 _atom_site_symmetry_multiplicity
 _atom_site_fract_x
 _atom_site_fract_y
 _atom_site_fract_z
 _atom_site_occupancy
  Rb  Rb0  1  0.04099800  0.04099800  0.04099800  1
  Rb  Rb1  1  0.45900200  0.95900200  0.54099800  1
  Rb  Rb2  1  0.95900200  0.54099800  0.45900200  1
  Rb  Rb3  1  0.54099800  0.45900200  0.95900200  1
  Rb  Rb4  1  0.81658600  0.81658600  0.81658600  1
  Rb  Rb5  1  0.68341400  0.18341400  0.31658600  1
  Rb  Rb6  1  0.18341400  0.31658600  0.68341400  1
  Rb  Rb7  1  0.31658600  0.68341400  0.18341400  1
  Fe  Fe8  1  0.60484900  0.60484900  0.60484900  1
  Fe  Fe9  1  0.89515100  0.39515100  0.10484900  1
  Fe  Fe10  1  0.39515100  0.10484900  0.89515100  1
  Fe  Fe11  1  0.10484900  0.89515100  0.39515100  1
  Fe  Fe12  1  0.33838100  0.33838100  0.33838100  1
  Fe  Fe13  1  0.16161900  0.66161900  0.83838100  1
  Fe  Fe14  1  0.66161900  0.83838100  0.16161900  1
  Fe  Fe15  1  0.83838100  0.16161900  0.66161900  1
  P  P16  1  0.02529400  0.20886400  0.37533700  1
  P  P17  1  0.47470600  0.79113600  0.87533700  1
  P  P18  1  0.97470600  0.70886400  0.12466300  1
  P  P19  1  0.37533700  0.02529400  0.20886400  1
  P  P20  1  0.52529400  0.29113600  0.62466300  1
  P  P21  1  0.87533700  0.47470600  0.79113600  1
  P  P22  1  0.12466300  0.97470600  0.70886400  1
  P  P23  1  0.62466300  0.52529400  0.29113600  1
  P  P24  1  0.20886400  0.37533700  0.02529400  1
  P  P25  1  0.70886400  0.12466300  0.97470600  1
  P  P26  1  0.29113600  0.62466300  0.52529400  1
  P  P27  1  0.79113600  0.87533700  0.47470600  1
  O  O28  1  0.01706200  0.06221800  0.33011900  1
  O  O29  1  0.48293800  0.93778200  0.83011900  1
  O  O30  1  0.98293800  0.56221800  0.16988100  1
  O  O31  1  0.33011900  0.01706200  0.06221800  1
  O  O32  1  0.51706200  0.43778200  0.66988100  1
  O  O33  1  0.83011900  0.48293800  0.93778200  1
  O  O34  1  0.16988100  0.98293800  0.56221800  1
  O  O35  1  0.66988100  0.51706200  0.43778200  1
  O  O36  1  0.06221800  0.33011900  0.01706200  1
  O  O37  1  0.56221800  0.16988100  0.98293800  1
  O  O38  1  0.43778200  0.66988100  0.51706200  1
  O  O39  1  0.93778200  0.83011900  0.48293800  1
  O  O40  1  0.17060600  0.24954300  0.39864600  1
  O  O41  1  0.32939400  0.75045700  0.89864600  1
  O  O42  1  0.82939400  0.74954300  0.10135400  1
  O  O43  1  0.39864600  0.17060600  0.24954300  1
  O  O44  1  0.67060600  0.25045700  0.60135400  1
  O  O45  1  0.89864600  0.32939400  0.75045700  1
  O  O46  1  0.10135400  0.82939400  0.74954300  1
  O  O47  1  0.60135400  0.67060600  0.25045700  1
  O  O48  1  0.24954300  0.39864600  0.17060600  1
  O  O49  1  0.74954300  0.10135400  0.82939400  1
  O  O50  1  0.25045700  0.60135400  0.67060600  1
  O  O51  1  0.75045700  0.89864600  0.32939400  1
  O  O52  1  0.04290400  0.79762000  0.22920200  1
  O  O53  1  0.45709600  0.20238000  0.72920200  1
  O  O54  1  0.95709600  0.29762000  0.27079800  1
  O  O55  1  0.22920200  0.04290400  0.79762000  1
  O  O56  1  0.54290400  0.70238000  0.77079800  1
  O  O57  1  0.72920200  0.45709600  0.20238000  1
  O  O58  1  0.27079800  0.95709600  0.29762000  1
  O  O59  1  0.77079800  0.54290400  0.70238000  1
  O  O60  1  0.79762000  0.22920200  0.04290400  1
  O  O61  1  0.29762000  0.27079800  0.95709600  1
  O  O62  1  0.70238000  0.77079800  0.54290400  1
  O  O63  1  0.20238000  0.72920200  0.45709600  1
  O  O64  1  0.27079900  0.49316300  0.44809500  1
  O  O65  1  0.22920100  0.50683700  0.94809500  1
  O  O66  1  0.72920100  0.99316300  0.05190500  1
  O  O67  1  0.44809500  0.27079900  0.49316300  1
  O  O68  1  0.77079900  0.00683700  0.55190500  1
  O  O69  1  0.94809500  0.22920100  0.50683700  1
  O  O70  1  0.05190500  0.72920100  0.99316300  1
  O  O71  1  0.55190500  0.77079900  0.00683700  1
  O  O72  1  0.49316300  0.44809500  0.27079900  1
  O  O73  1  0.99316300  0.05190500  0.72920100  1
  O  O74  1  0.00683700  0.55190500  0.77079900  1
  O  O75  1  0.50683700  0.94809500  0.22920100  1
