# generated using pymatgen
data_PO3
_symmetry_space_group_name_H-M   'P 1'
_cell_length_a   7.70112773
_cell_length_b   7.70112773
_cell_length_c   13.23251300
_cell_angle_alpha   90.00000000
_cell_angle_beta   90.00000000
_cell_angle_gamma   90.47173892
_symmetry_Int_Tables_number   1
_chemical_formula_structural   PO3
_chemical_formula_sum   'P8 O24'
_cell_volume   784.75892322
_cell_formula_units_Z   8
loop_
 _symmetry_equiv_pos_site_id
 _symmetry_equiv_pos_as_xyz
  1  'x, y, z'
loop_
 _atom_site_type_symbol
 _atom_site_label
 _atom_site_symmetry_multiplicity
 _atom_site_fract_x
 _atom_site_fract_y
 _atom_site_fract_z
 _atom_site_occupancy
  P  P0  1  0.29442500  0.70557500  0.50000000  1
  P  P1  1  0.70557500  0.29442500  0.50000000  1
  P  P2  1  0.20557500  0.79442500  0.00000000  1
  P  P3  1  0.79442500  0.20557500  0.00000000  1
  P  P4  1  0.53884600  0.53884600  0.64270100  1
  P  P5  1  0.46115400  0.46115400  0.35729900  1
  P  P6  1  0.96115400  0.96115400  0.14270100  1
  P  P7  1  0.03884600  0.03884600  0.85729900  1
  O  O8  1  0.46334200  0.68943800  0.57113500  1
  O  O9  1  0.53665800  0.31056200  0.42886500  1
  O  O10  1  0.03665800  0.81056200  0.07113500  1
  O  O11  1  0.18943800  0.96334200  0.92886500  1
  O  O12  1  0.96334200  0.18943800  0.92886500  1
  O  O13  1  0.81056200  0.03665800  0.07113500  1
  O  O14  1  0.31056200  0.53665800  0.42886500  1
  O  O15  1  0.68943800  0.46334200  0.57113500  1
  O  O16  1  0.90397700  0.90397700  0.82886500  1
  O  O17  1  0.09602300  0.09602300  0.17113500  1
  O  O18  1  0.59602300  0.59602300  0.32886500  1
  O  O19  1  0.40397700  0.40397700  0.67113500  1
  O  O20  1  0.69947500  0.12522200  0.55706700  1
  O  O21  1  0.30052500  0.87477800  0.44293300  1
  O  O22  1  0.80052500  0.37477800  0.05706700  1
  O  O23  1  0.62522200  0.19947500  0.94293300  1
  O  O24  1  0.19947500  0.62522200  0.94293300  1
  O  O25  1  0.37477800  0.80052500  0.05706700  1
  O  O26  1  0.87477800  0.30052500  0.44293300  1
  O  O27  1  0.12522200  0.69947500  0.55706700  1
  O  O28  1  0.61372800  0.61372800  0.73857600  1
  O  O29  1  0.38627200  0.38627200  0.26142400  1
  O  O30  1  0.88627200  0.88627200  0.23857600  1
  O  O31  1  0.11372800  0.11372800  0.76142400  1
