# generated using pymatgen
data_Rb2TiSi3O10
_symmetry_space_group_name_H-M   'P 1'
_cell_length_a   7.31717000
_cell_length_b   10.20903100
_cell_length_c   13.07258200
_cell_angle_alpha   90.00000000
_cell_angle_beta   90.00000000
_cell_angle_gamma   90.00000000
_symmetry_Int_Tables_number   1
_chemical_formula_structural   Rb2TiSi3O10
_chemical_formula_sum   'Rb8 Ti4 Si12 O40'
_cell_volume   976.53776332
_cell_formula_units_Z   4
loop_
 _symmetry_equiv_pos_site_id
 _symmetry_equiv_pos_as_xyz
  1  'x, y, z'
loop_
 _atom_site_type_symbol
 _atom_site_label
 _atom_site_symmetry_multiplicity
 _atom_site_fract_x
 _atom_site_fract_y
 _atom_site_fract_z
 _atom_site_occupancy
  Rb  Rb0  1  0.19861200  0.28635000  0.37604100  1
  Rb  Rb1  1  0.30138800  0.71365000  0.87604100  1
  Rb  Rb2  1  0.80138800  0.78635000  0.12395900  1
  Rb  Rb3  1  0.69861200  0.21365000  0.62395900  1
  Rb  Rb4  1  0.23161400  0.43848500  0.08821000  1
  Rb  Rb5  1  0.26838600  0.56151500  0.58821000  1
  Rb  Rb6  1  0.76838600  0.93848500  0.41179000  1
  Rb  Rb7  1  0.73161400  0.06151500  0.91179000  1
  Ti  Ti8  1  0.25803100  0.05541500  0.78695100  1
  Ti  Ti9  1  0.24196900  0.94458500  0.28695100  1
  Ti  Ti10  1  0.74196900  0.55541500  0.71304900  1
  Ti  Ti11  1  0.75803100  0.44458500  0.21304900  1
  Si  Si12  1  0.52767500  0.16674800  0.17782900  1
  Si  Si13  1  0.97232500  0.83325200  0.67782900  1
  Si  Si14  1  0.47232500  0.66674800  0.32217100  1
  Si  Si15  1  0.02767500  0.33325200  0.82217100  1
  Si  Si16  1  0.06493800  0.64567600  0.32801300  1
  Si  Si17  1  0.43506200  0.35432400  0.82801300  1
  Si  Si18  1  0.93506200  0.14567600  0.17198700  1
  Si  Si19  1  0.56493800  0.85432400  0.67198700  1
  Si  Si20  1  0.24106800  0.04019600  0.04861700  1
  Si  Si21  1  0.25893200  0.95980400  0.54861700  1
  Si  Si22  1  0.75893200  0.54019600  0.45138300  1
  Si  Si23  1  0.74106800  0.45980400  0.95138300  1
  O  O24  1  0.06674500  0.80219500  0.30509100  1
  O  O25  1  0.43325500  0.19780500  0.80509100  1
  O  O26  1  0.93325500  0.30219500  0.19490900  1
  O  O27  1  0.56674500  0.69780500  0.69490900  1
  O  O28  1  0.23340500  0.00206900  0.43062400  1
  O  O29  1  0.26659500  0.99793100  0.93062400  1
  O  O30  1  0.76659500  0.50206900  0.06937600  1
  O  O31  1  0.73340500  0.49793100  0.56937600  1
  O  O32  1  0.03960900  0.11294500  0.06271600  1
  O  O33  1  0.46039100  0.88705500  0.56271600  1
  O  O34  1  0.96039100  0.61294500  0.43728400  1
  O  O35  1  0.53960900  0.38705500  0.93728400  1
  O  O36  1  0.07412300  0.29507300  0.58940700  1
  O  O37  1  0.42587700  0.70492700  0.08940700  1
  O  O38  1  0.92587700  0.79507300  0.91059300  1
  O  O39  1  0.57412300  0.20492700  0.41059300  1
  O  O40  1  0.42369800  0.09467400  0.27250700  1
  O  O41  1  0.07630200  0.90532600  0.77250700  1
  O  O42  1  0.57630200  0.59467400  0.22749300  1
  O  O43  1  0.92369800  0.40532600  0.72749300  1
  O  O44  1  0.03278200  0.06542300  0.26375900  1
  O  O45  1  0.46721800  0.93457700  0.76375900  1
  O  O46  1  0.96721800  0.56542300  0.23624100  1
  O  O47  1  0.53278200  0.43457700  0.73624100  1
  O  O48  1  0.55912600  0.32203600  0.19627600  1
  O  O49  1  0.94087400  0.67796400  0.69627600  1
  O  O50  1  0.44087400  0.82203600  0.30372400  1
  O  O51  1  0.05912600  0.17796400  0.80372400  1
  O  O52  1  0.39985800  0.15142100  0.07469100  1
  O  O53  1  0.10014200  0.84857900  0.57469100  1
  O  O54  1  0.60014200  0.65142100  0.42530900  1
  O  O55  1  0.89985800  0.34857900  0.92530900  1
  O  O56  1  0.72380200  0.09104900  0.15381700  1
  O  O57  1  0.77619800  0.90895100  0.65381700  1
  O  O58  1  0.27619800  0.59104900  0.34618300  1
  O  O59  1  0.22380200  0.40895100  0.84618300  1
  O  O60  1  0.24581200  0.07557200  0.63502000  1
  O  O61  1  0.25418800  0.92442800  0.13502000  1
  O  O62  1  0.75418800  0.57557200  0.86498000  1
  O  O63  1  0.74581200  0.42442800  0.36498000  1
