# generated using pymatgen
data_ScPO6
_symmetry_space_group_name_H-M   'P 1'
_cell_length_a   9.96669900
_cell_length_b   5.57948500
_cell_length_c   11.10977278
_cell_angle_alpha   60.64687342
_cell_angle_beta   90.00000000
_cell_angle_gamma   90.00000000
_symmetry_Int_Tables_number   1
_chemical_formula_structural   ScPO6
_chemical_formula_sum   'Sc4 P4 O24'
_cell_volume   538.48720926
_cell_formula_units_Z   4
loop_
 _symmetry_equiv_pos_site_id
 _symmetry_equiv_pos_as_xyz
  1  'x, y, z'
loop_
 _atom_site_type_symbol
 _atom_site_label
 _atom_site_symmetry_multiplicity
 _atom_site_fract_x
 _atom_site_fract_y
 _atom_site_fract_z
 _atom_site_occupancy
  Sc  Sc0  1  0.69609100  0.78767500  0.16322700  1
  Sc  Sc1  1  0.30390900  0.21232500  0.83677300  1
  Sc  Sc2  1  0.19609100  0.21232500  0.33677300  1
  Sc  Sc3  1  0.80390900  0.78767500  0.66322700  1
  P  P4  1  0.34879900  0.86858400  0.18753800  1
  P  P5  1  0.65120100  0.13141600  0.81246200  1
  P  P6  1  0.84879900  0.13141600  0.31246200  1
  P  P7  1  0.15120100  0.86858400  0.68753800  1
  O  O8  1  0.04627700  0.69180400  0.05851000  1
  O  O9  1  0.95372300  0.30819600  0.94149000  1
  O  O10  1  0.54627700  0.30819600  0.44149000  1
  O  O11  1  0.45372300  0.69180400  0.55851000  1
  O  O12  1  0.03158300  0.74970300  0.15163600  1
  O  O13  1  0.96841700  0.25029700  0.84836400  1
  O  O14  1  0.53158300  0.25029700  0.34836400  1
  O  O15  1  0.46841700  0.74970300  0.65163600  1
  O  O16  1  0.29578300  0.05945000  0.03922800  1
  O  O17  1  0.70421700  0.94055000  0.96077200  1
  O  O18  1  0.79578300  0.94055000  0.46077200  1
  O  O19  1  0.20421700  0.05945000  0.53922800  1
  O  O20  1  0.50379200  0.85540600  0.18680800  1
  O  O21  1  0.49620800  0.14459400  0.81319200  1
  O  O22  1  0.00379200  0.14459400  0.31319200  1
  O  O23  1  0.99620800  0.85540600  0.68680800  1
  O  O24  1  0.30212400  0.98800700  0.28013300  1
  O  O25  1  0.69787600  0.01199300  0.71986700  1
  O  O26  1  0.80212400  0.01199300  0.21986700  1
  O  O27  1  0.19787600  0.98800700  0.78013300  1
  O  O28  1  0.28992700  0.57624900  0.24517200  1
  O  O29  1  0.71007300  0.42375100  0.75482800  1
  O  O30  1  0.78992700  0.42375100  0.25482800  1
  O  O31  1  0.21007300  0.57624900  0.74517200  1
