# generated using pymatgen
data_Sr3Dy2(BO3)4
_symmetry_space_group_name_H-M   'P 1'
_cell_length_a   7.38870000
_cell_length_b   8.72976900
_cell_length_c   16.36008100
_cell_angle_alpha   90.00000000
_cell_angle_beta   90.00000000
_cell_angle_gamma   90.00000000
_symmetry_Int_Tables_number   1
_chemical_formula_structural   Sr3Dy2(BO3)4
_chemical_formula_sum   'Sr12 Dy8 B16 O48'
_cell_volume   1055.25212391
_cell_formula_units_Z   4
loop_
 _symmetry_equiv_pos_site_id
 _symmetry_equiv_pos_as_xyz
  1  'x, y, z'
loop_
 _atom_site_type_symbol
 _atom_site_label
 _atom_site_symmetry_multiplicity
 _atom_site_fract_x
 _atom_site_fract_y
 _atom_site_fract_z
 _atom_site_occupancy
  Sr  Sr0  1  0.02903200  0.33160300  0.45779500  1
  Sr  Sr1  1  0.97096800  0.66839700  0.95779500  1
  Sr  Sr2  1  0.52903200  0.16839700  0.45779500  1
  Sr  Sr3  1  0.47096800  0.83160300  0.95779500  1
  Sr  Sr4  1  0.18402900  0.84925800  0.41365300  1
  Sr  Sr5  1  0.81597100  0.15074200  0.91365300  1
  Sr  Sr6  1  0.68402900  0.65074200  0.41365300  1
  Sr  Sr7  1  0.31597100  0.34925800  0.91365300  1
  Sr  Sr8  1  0.32012900  0.35530000  0.66372700  1
  Sr  Sr9  1  0.67987100  0.64470000  0.16372700  1
  Sr  Sr10  1  0.82012900  0.14470000  0.66372700  1
  Sr  Sr11  1  0.17987100  0.85530000  0.16372700  1
  Dy  Dy12  1  0.31709500  0.46891000  0.28930000  1
  Dy  Dy13  1  0.68290500  0.53109000  0.78930000  1
  Dy  Dy14  1  0.81709500  0.03109000  0.28930000  1
  Dy  Dy15  1  0.18290500  0.96891000  0.78930000  1
  Dy  Dy16  1  0.01966400  0.32762000  0.12062700  1
  Dy  Dy17  1  0.98033600  0.67238000  0.62062700  1
  Dy  Dy18  1  0.51966400  0.17238000  0.12062700  1
  Dy  Dy19  1  0.48033600  0.82762000  0.62062700  1
  B  B20  1  0.16554300  0.06639200  0.99878800  1
  B  B21  1  0.83445700  0.93360800  0.49878800  1
  B  B22  1  0.66554300  0.43360800  0.99878800  1
  B  B23  1  0.33445700  0.56639200  0.49878800  1
  B  B24  1  0.00888500  0.37401300  0.78467900  1
  B  B25  1  0.99111500  0.62598700  0.28467900  1
  B  B26  1  0.50888500  0.12598700  0.78467900  1
  B  B27  1  0.49111500  0.87401300  0.28467900  1
  B  B28  1  0.16434600  0.04613600  0.58729800  1
  B  B29  1  0.83565400  0.95386400  0.08729800  1
  B  B30  1  0.66434600  0.45386400  0.58729800  1
  B  B31  1  0.33565400  0.54613600  0.08729800  1
  B  B32  1  0.21329300  0.15373900  0.28625100  1
  B  B33  1  0.78670700  0.84626100  0.78625100  1
  B  B34  1  0.71329300  0.34626100  0.28625100  1
  B  B35  1  0.28670700  0.65373900  0.78625100  1
  O  O36  1  0.23927500  0.22666900  0.21119100  1
  O  O37  1  0.76072500  0.77333100  0.71119100  1
  O  O38  1  0.73927500  0.27333100  0.21119100  1
  O  O39  1  0.26072500  0.72666900  0.71119100  1
  O  O40  1  0.10237600  0.19507400  0.58341700  1
  O  O41  1  0.89762400  0.80492600  0.08341700  1
  O  O42  1  0.60237600  0.30492600  0.58341700  1
  O  O43  1  0.39762400  0.69507400  0.08341700  1
  O  O44  1  0.08118000  0.20879000  0.00380900  1
  O  O45  1  0.91882000  0.79121000  0.50380900  1
  O  O46  1  0.58118000  0.29121000  0.00380900  1
  O  O47  1  0.41882000  0.70879000  0.50380900  1
  O  O48  1  0.12474400  0.01622500  0.29217400  1
  O  O49  1  0.87525600  0.98377500  0.79217400  1
  O  O50  1  0.62474400  0.48377500  0.29217400  1
  O  O51  1  0.37525600  0.51622500  0.79217400  1
  O  O52  1  0.19446700  0.49713400  0.03799500  1
  O  O53  1  0.80553300  0.50286600  0.53799500  1
  O  O54  1  0.69446700  0.00286600  0.03799500  1
  O  O55  1  0.30553300  0.99713400  0.53799500  1
  O  O56  1  0.11281000  0.24153900  0.78184600  1
  O  O57  1  0.88719000  0.75846100  0.28184600  1
  O  O58  1  0.61281000  0.25846100  0.78184600  1
  O  O59  1  0.38719000  0.74153900  0.28184600  1
  O  O60  1  0.04411100  0.54641100  0.21379600  1
  O  O61  1  0.95588900  0.45358900  0.71379600  1
  O  O62  1  0.54411100  0.95358900  0.21379600  1
  O  O63  1  0.45588900  0.04641100  0.71379600  1
  O  O64  1  0.27290200  0.23237600  0.35385500  1
  O  O65  1  0.72709800  0.76762400  0.85385500  1
  O  O66  1  0.77290200  0.26762400  0.35385500  1
  O  O67  1  0.22709800  0.73237600  0.85385500  1
  O  O68  1  0.38576700  0.46849000  0.43711900  1
  O  O69  1  0.61423300  0.53151000  0.93711900  1
  O  O70  1  0.88576700  0.03151000  0.43711900  1
  O  O71  1  0.11423300  0.96849000  0.93711900  1
  O  O72  1  0.41328000  0.44567100  0.14392100  1
  O  O73  1  0.58672000  0.55433000  0.64392100  1
  O  O74  1  0.91328000  0.05433000  0.14392100  1
  O  O75  1  0.08672000  0.94567000  0.64392100  1
  O  O76  1  0.30453900  0.03326400  0.05373200  1
  O  O77  1  0.69546100  0.96673600  0.55373200  1
  O  O78  1  0.80453900  0.46673600  0.05373200  1
  O  O79  1  0.19546100  0.53326400  0.55373200  1
  O  O80  1  0.06013800  0.57171200  0.35803000  1
  O  O81  1  0.93986200  0.42828800  0.85803000  1
  O  O82  1  0.56013800  0.92828800  0.35803000  1
  O  O83  1  0.43986200  0.07171200  0.85803000  1
