# generated using pymatgen
data_Rb2Co2(SO4)3
_symmetry_space_group_name_H-M   'P 1'
_cell_length_a   10.17153300
_cell_length_b   10.17153300
_cell_length_c   10.17153300
_cell_angle_alpha   90.00000000
_cell_angle_beta   90.00000000
_cell_angle_gamma   90.00000000
_symmetry_Int_Tables_number   1
_chemical_formula_structural   Rb2Co2(SO4)3
_chemical_formula_sum   'Rb8 Co8 S12 O48'
_cell_volume   1052.34765422
_cell_formula_units_Z   4
loop_
 _symmetry_equiv_pos_site_id
 _symmetry_equiv_pos_as_xyz
  1  'x, y, z'
loop_
 _atom_site_type_symbol
 _atom_site_label
 _atom_site_symmetry_multiplicity
 _atom_site_fract_x
 _atom_site_fract_y
 _atom_site_fract_z
 _atom_site_occupancy
  Rb  Rb0  1  0.04790300  0.04790300  0.04790300  1
  Rb  Rb1  1  0.45209700  0.95209700  0.54790300  1
  Rb  Rb2  1  0.95209700  0.54790300  0.45209700  1
  Rb  Rb3  1  0.54790300  0.45209700  0.95209700  1
  Rb  Rb4  1  0.81669700  0.81669700  0.81669700  1
  Rb  Rb5  1  0.68330300  0.18330300  0.31669700  1
  Rb  Rb6  1  0.18330300  0.31669700  0.68330300  1
  Rb  Rb7  1  0.31669700  0.68330300  0.18330300  1
  Co  Co8  1  0.33470900  0.33470900  0.33470900  1
  Co  Co9  1  0.16529100  0.66529100  0.83470900  1
  Co  Co10  1  0.66529100  0.83470900  0.16529100  1
  Co  Co11  1  0.83470900  0.16529100  0.66529100  1
  Co  Co12  1  0.59712100  0.59712100  0.59712100  1
  Co  Co13  1  0.90287900  0.40287900  0.09712100  1
  Co  Co14  1  0.40287900  0.09712100  0.90287900  1
  Co  Co15  1  0.09712100  0.90287900  0.40287900  1
  S  S16  1  0.01858800  0.21587600  0.37567100  1
  S  S17  1  0.48141200  0.78412400  0.87567100  1
  S  S18  1  0.98141200  0.71587600  0.12432900  1
  S  S19  1  0.37567100  0.01858800  0.21587600  1
  S  S20  1  0.51858800  0.28412400  0.62432900  1
  S  S21  1  0.87567100  0.48141200  0.78412400  1
  S  S22  1  0.12432900  0.98141200  0.71587600  1
  S  S23  1  0.62432900  0.51858800  0.28412400  1
  S  S24  1  0.21587600  0.37567100  0.01858800  1
  S  S25  1  0.71587600  0.12432900  0.98141200  1
  S  S26  1  0.28412400  0.62432900  0.51858800  1
  S  S27  1  0.78412400  0.87567100  0.48141200  1
  O  O28  1  0.00945400  0.07646400  0.33025600  1
  O  O29  1  0.49054600  0.92353600  0.83025600  1
  O  O30  1  0.99054600  0.57646400  0.16974400  1
  O  O31  1  0.33025600  0.00945400  0.07646400  1
  O  O32  1  0.50945400  0.42353600  0.66974400  1
  O  O33  1  0.83025600  0.49054600  0.92353600  1
  O  O34  1  0.16974400  0.99054600  0.57646400  1
  O  O35  1  0.66974400  0.50945400  0.42353600  1
  O  O36  1  0.07646400  0.33025600  0.00945400  1
  O  O37  1  0.57646400  0.16974400  0.99054600  1
  O  O38  1  0.42353600  0.66974400  0.50945400  1
  O  O39  1  0.92353600  0.83025600  0.49054600  1
  O  O40  1  0.26540400  0.50076100  0.44191500  1
  O  O41  1  0.23459600  0.49923900  0.94191500  1
  O  O42  1  0.73459600  0.00076100  0.05808500  1
  O  O43  1  0.44191500  0.26540400  0.50076100  1
  O  O44  1  0.76540400  0.99923900  0.55808500  1
  O  O45  1  0.94191500  0.23459600  0.49923900  1
  O  O46  1  0.05808500  0.73459600  0.00076100  1
  O  O47  1  0.55808500  0.76540400  0.99923900  1
  O  O48  1  0.50076100  0.44191500  0.26540400  1
  O  O49  1  0.00076100  0.05808500  0.73459600  1
  O  O50  1  0.99923900  0.55808500  0.76540400  1
  O  O51  1  0.49923900  0.94191500  0.23459600  1
  O  O52  1  0.04111000  0.80260400  0.22520800  1
  O  O53  1  0.45889000  0.19739600  0.72520800  1
  O  O54  1  0.95889000  0.30260400  0.27479200  1
  O  O55  1  0.22520800  0.04111000  0.80260400  1
  O  O56  1  0.54111000  0.69739600  0.77479200  1
  O  O57  1  0.72520800  0.45889000  0.19739600  1
  O  O58  1  0.27479200  0.95889000  0.30260400  1
  O  O59  1  0.77479200  0.54111000  0.69739600  1
  O  O60  1  0.80260400  0.22520800  0.04111000  1
  O  O61  1  0.30260400  0.27479200  0.95889000  1
  O  O62  1  0.69739600  0.77479200  0.54111000  1
  O  O63  1  0.19739600  0.72520800  0.45889000  1
  O  O64  1  0.15724400  0.25275800  0.40201800  1
  O  O65  1  0.34275600  0.74724200  0.90201800  1
  O  O66  1  0.84275600  0.75275800  0.09798200  1
  O  O67  1  0.40201800  0.15724400  0.25275800  1
  O  O68  1  0.65724400  0.24724200  0.59798200  1
  O  O69  1  0.90201800  0.34275600  0.74724200  1
  O  O70  1  0.09798200  0.84275600  0.75275800  1
  O  O71  1  0.59798200  0.65724400  0.24724200  1
  O  O72  1  0.25275800  0.40201800  0.15724400  1
  O  O73  1  0.75275800  0.09798200  0.84275600  1
  O  O74  1  0.24724200  0.59798200  0.65724400  1
  O  O75  1  0.74724200  0.90201800  0.34275600  1
