# generated using pymatgen
data_SnAs2O9
_symmetry_space_group_name_H-M   'P 1'
_cell_length_a   5.16436700
_cell_length_b   8.85089200
_cell_length_c   16.51563538
_cell_angle_alpha   69.91681209
_cell_angle_beta   90.00000000
_cell_angle_gamma   90.00000000
_symmetry_Int_Tables_number   1
_chemical_formula_structural   SnAs2O9
_chemical_formula_sum   'Sn4 As8 O36'
_cell_volume   709.01466839
_cell_formula_units_Z   4
loop_
 _symmetry_equiv_pos_site_id
 _symmetry_equiv_pos_as_xyz
  1  'x, y, z'
loop_
 _atom_site_type_symbol
 _atom_site_label
 _atom_site_symmetry_multiplicity
 _atom_site_fract_x
 _atom_site_fract_y
 _atom_site_fract_z
 _atom_site_occupancy
  Sn  Sn0  1  0.76071100  0.75927300  0.47810800  1
  Sn  Sn1  1  0.23928900  0.24072700  0.52189200  1
  Sn  Sn2  1  0.26071100  0.24072700  0.02189200  1
  Sn  Sn3  1  0.73928900  0.75927300  0.97810800  1
  As  As4  1  0.73431500  0.45411600  0.39420200  1
  As  As5  1  0.26568500  0.54588400  0.60579800  1
  As  As6  1  0.23431500  0.54588400  0.10579800  1
  As  As7  1  0.76568500  0.45411600  0.89420200  1
  As  As8  1  0.76555400  0.99560800  0.11794500  1
  As  As9  1  0.23444600  0.00439200  0.88205500  1
  As  As10  1  0.26555400  0.00439200  0.38205500  1
  As  As11  1  0.73444600  0.99560800  0.61794500  1
  O  O12  1  0.41665200  0.71546100  0.05751000  1
  O  O13  1  0.58334800  0.28453900  0.94249000  1
  O  O14  1  0.91665200  0.28453900  0.44249000  1
  O  O15  1  0.08334800  0.71546100  0.55751000  1
  O  O16  1  0.79532000  0.86023600  0.22080600  1
  O  O17  1  0.20468000  0.13976400  0.77919400  1
  O  O18  1  0.29532000  0.13976400  0.27919400  1
  O  O19  1  0.70468000  0.86023600  0.72080600  1
  O  O20  1  0.92122600  0.56491000  0.06827000  1
  O  O21  1  0.07877400  0.43509000  0.93173000  1
  O  O22  1  0.42122600  0.43509000  0.43173000  1
  O  O23  1  0.57877400  0.56491000  0.56827000  1
  O  O24  1  0.87906000  0.62030000  0.40650300  1
  O  O25  1  0.12094000  0.37970000  0.59349700  1
  O  O26  1  0.37906000  0.37970000  0.09349700  1
  O  O27  1  0.62094000  0.62030000  0.90650300  1
  O  O28  1  0.71251700  0.48306000  0.28363700  1
  O  O29  1  0.28748300  0.51694000  0.71636300  1
  O  O30  1  0.21251700  0.51694000  0.21636300  1
  O  O31  1  0.78748300  0.48306000  0.78363700  1
  O  O32  1  0.64944900  0.26434100  0.25453200  1
  O  O33  1  0.35055100  0.73565900  0.74546800  1
  O  O34  1  0.14944900  0.73565900  0.24546800  1
  O  O35  1  0.85055100  0.26434100  0.75453200  1
  O  O36  1  0.43442300  0.82829500  0.40180900  1
  O  O37  1  0.56557700  0.17170500  0.59819100  1
  O  O38  1  0.93442300  0.17170500  0.09819100  1
  O  O39  1  0.06557700  0.82829500  0.90180900  1
  O  O40  1  0.89721700  0.89379800  0.05300000  1
  O  O41  1  0.10278300  0.10620200  0.94700000  1
  O  O42  1  0.39721700  0.10620200  0.44700000  1
  O  O43  1  0.60278300  0.89379800  0.55300000  1
  O  O44  1  0.93972900  0.96534400  0.39943300  1
  O  O45  1  0.06027100  0.03465600  0.60056700  1
  O  O46  1  0.43972900  0.03465600  0.10056700  1
  O  O47  1  0.56027100  0.96534400  0.89943300  1
