# generated using pymatgen
data_Rb2PbCl5
_symmetry_space_group_name_H-M   'P 1'
_cell_length_a   9.02067823
_cell_length_b   9.88267583
_cell_length_c   12.43344574
_cell_angle_alpha   90.70568358
_cell_angle_beta   90.17176030
_cell_angle_gamma   89.76910286
_symmetry_Int_Tables_number   1
_chemical_formula_structural   Rb2PbCl5
_chemical_formula_sum   'Rb8 Pb4 Cl20'
_cell_volume   1108.32438802
_cell_formula_units_Z   4
loop_
 _symmetry_equiv_pos_site_id
 _symmetry_equiv_pos_as_xyz
  1  'x, y, z'
loop_
 _atom_site_type_symbol
 _atom_site_label
 _atom_site_symmetry_multiplicity
 _atom_site_fract_x
 _atom_site_fract_y
 _atom_site_fract_z
 _atom_site_occupancy
  Rb  Rb0  1  0.93686100  0.02757700  0.67044700  1
  Rb  Rb1  1  0.06313900  0.97242300  0.32955300  1
  Rb  Rb2  1  0.43734300  0.97258100  0.83007900  1
  Rb  Rb3  1  0.56265700  0.02741900  0.16992100  1
  Rb  Rb4  1  0.92281300  0.75767200  0.99702600  1
  Rb  Rb5  1  0.07718700  0.24232800  0.00297400  1
  Rb  Rb6  1  0.42270900  0.24304500  0.50291100  1
  Rb  Rb7  1  0.57729100  0.75695500  0.49708900  1
  Pb  Pb8  1  0.08461200  0.52057100  0.67809700  1
  Pb  Pb9  1  0.91538900  0.47942900  0.32190300  1
  Pb  Pb10  1  0.58454800  0.47951700  0.82194000  1
  Pb  Pb11  1  0.41545200  0.52048300  0.17806000  1
  Cl  Cl12  1  0.87648100  0.46409000  0.86452900  1
  Cl  Cl13  1  0.12351900  0.53591000  0.13547100  1
  Cl  Cl14  1  0.37638600  0.53592400  0.63549600  1
  Cl  Cl15  1  0.62361400  0.46407600  0.36450400  1
  Cl  Cl16  1  0.13440500  0.74338900  0.79068300  1
  Cl  Cl17  1  0.86559500  0.25661100  0.20931700  1
  Cl  Cl18  1  0.63431500  0.25683100  0.70913000  1
  Cl  Cl19  1  0.36568500  0.74316900  0.29087000  1
  Cl  Cl20  1  0.67523500  0.73091300  0.75236400  1
  Cl  Cl21  1  0.32476500  0.26908700  0.24763600  1
  Cl  Cl22  1  0.17537200  0.26896400  0.74761900  1
  Cl  Cl23  1  0.82462800  0.73103600  0.25238100  1
  Cl  Cl24  1  0.53745400  0.67121300  0.01244800  1
  Cl  Cl25  1  0.46254600  0.32878700  0.98755200  1
  Cl  Cl26  1  0.03749300  0.32869300  0.48757400  1
  Cl  Cl27  1  0.96250700  0.67130700  0.51242600  1
  Cl  Cl28  1  0.28604000  0.96269000  0.57406300  1
  Cl  Cl29  1  0.71396000  0.03731000  0.42593700  1
  Cl  Cl30  1  0.78583600  0.03687900  0.92608100  1
  Cl  Cl31  1  0.21416400  0.96312100  0.07391900  1
