# generated using pymatgen
data_SmZr6(PO4)9
_symmetry_space_group_name_H-M   'P 1'
_cell_length_a   8.93139169
_cell_length_b   8.93139169
_cell_length_c   23.17709400
_cell_angle_alpha   90.00000000
_cell_angle_beta   90.00000000
_cell_angle_gamma   119.99999767
_symmetry_Int_Tables_number   1
_chemical_formula_structural   SmZr6(PO4)9
_chemical_formula_sum   'Sm2 Zr12 P18 O72'
_cell_volume   1601.13479512
_cell_formula_units_Z   2
loop_
 _symmetry_equiv_pos_site_id
 _symmetry_equiv_pos_as_xyz
  1  'x, y, z'
loop_
 _atom_site_type_symbol
 _atom_site_label
 _atom_site_symmetry_multiplicity
 _atom_site_fract_x
 _atom_site_fract_y
 _atom_site_fract_z
 _atom_site_occupancy
  Sm  Sm0  1  0.00000000  0.00000000  0.50000000  1
  Sm  Sm1  1  0.00000000  0.00000000  0.00000000  1
  Zr  Zr2  1  0.33333300  0.66666700  0.52663100  1
  Zr  Zr3  1  0.66666700  0.33333300  0.47336900  1
  Zr  Zr4  1  0.66666700  0.33333300  0.97336900  1
  Zr  Zr5  1  0.33333300  0.66666700  0.02663100  1
  Zr  Zr6  1  0.00000000  0.00000000  0.65012900  1
  Zr  Zr7  1  0.00000000  0.00000000  0.34987100  1
  Zr  Zr8  1  0.00000000  0.00000000  0.84987100  1
  Zr  Zr9  1  0.00000000  0.00000000  0.15012900  1
  Zr  Zr10  1  0.33333300  0.66666700  0.81308700  1
  Zr  Zr11  1  0.66666700  0.33333300  0.18691300  1
  Zr  Zr12  1  0.66666700  0.33333300  0.68691300  1
  Zr  Zr13  1  0.33333300  0.66666700  0.31308700  1
  P  P14  1  0.37394700  0.32075200  0.57932700  1
  P  P15  1  0.62605300  0.67924800  0.42067300  1
  P  P16  1  0.67924800  0.05319500  0.57932700  1
  P  P17  1  0.32075200  0.37394700  0.92067300  1
  P  P18  1  0.32075200  0.94680500  0.42067300  1
  P  P19  1  0.67924800  0.62605300  0.07932700  1
  P  P20  1  0.94680500  0.62605300  0.57932700  1
  P  P21  1  0.05319500  0.67924800  0.92067300  1
  P  P22  1  0.05319500  0.37394700  0.42067300  1
  P  P23  1  0.94680500  0.32075200  0.07932700  1
  P  P24  1  0.62605300  0.94680500  0.92067300  1
  P  P25  1  0.37394700  0.05319500  0.07932700  1
  P  P26  1  0.29224000  0.00000000  0.75000000  1
  P  P27  1  0.70776000  0.00000000  0.25000000  1
  P  P28  1  0.00000000  0.29224000  0.75000000  1
  P  P29  1  0.00000000  0.70776000  0.25000000  1
  P  P30  1  0.70776000  0.70776000  0.75000000  1
  P  P31  1  0.29224000  0.29224000  0.25000000  1
  O  O32  1  0.45302200  0.28026800  0.52693800  1
  O  O33  1  0.54697800  0.71973200  0.47306200  1
  O  O34  1  0.71973200  0.17275400  0.52693800  1
  O  O35  1  0.28026800  0.45302200  0.97306200  1
  O  O36  1  0.28026800  0.82724600  0.47306200  1
  O  O37  1  0.71973200  0.54697800  0.02693800  1
  O  O38  1  0.82724600  0.54697800  0.52693800  1
  O  O39  1  0.17275400  0.71973200  0.97306200  1
  O  O40  1  0.17275400  0.45302200  0.47306200  1
  O  O41  1  0.82724600  0.28026800  0.02693800  1
  O  O42  1  0.54697800  0.82724600  0.97306200  1
  O  O43  1  0.45302200  0.17275400  0.02693800  1
  O  O44  1  0.37702100  0.49332800  0.57280400  1
  O  O45  1  0.62297900  0.50667200  0.42719600  1
  O  O46  1  0.50667200  0.88369300  0.57280400  1
  O  O47  1  0.49332800  0.37702100  0.92719600  1
  O  O48  1  0.49332800  0.11630700  0.42719600  1
  O  O49  1  0.50667200  0.62297900  0.07280400  1
  O  O50  1  0.11630700  0.62297900  0.57280400  1
  O  O51  1  0.88369300  0.50667200  0.92719600  1
  O  O52  1  0.88369300  0.37702100  0.42719600  1
  O  O53  1  0.11630700  0.49332800  0.07280400  1
  O  O54  1  0.62297900  0.11630700  0.92719600  1
  O  O55  1  0.37702100  0.88369300  0.07280400  1
  O  O56  1  0.17747500  0.17061500  0.58048200  1
  O  O57  1  0.82252500  0.82938500  0.41951800  1
  O  O58  1  0.82938500  0.00686000  0.58048200  1
  O  O59  1  0.17061500  0.17747500  0.91951800  1
  O  O60  1  0.17061500  0.99314000  0.41951800  1
  O  O61  1  0.82938500  0.82252500  0.08048200  1
  O  O62  1  0.99314000  0.82252500  0.58048200  1
  O  O63  1  0.00686000  0.82938500  0.91951800  1
  O  O64  1  0.00686000  0.17747500  0.41951800  1
  O  O65  1  0.99314000  0.17061500  0.08048200  1
  O  O66  1  0.82252500  0.99314000  0.91951800  1
  O  O67  1  0.17747500  0.00686000  0.08048200  1
  O  O68  1  0.03091100  0.20519100  0.69639300  1
  O  O69  1  0.96908900  0.79480900  0.30360700  1
  O  O70  1  0.79480900  0.82572000  0.69639300  1
  O  O71  1  0.20519100  0.03091100  0.80360700  1
  O  O72  1  0.20519100  0.17428000  0.30360700  1
  O  O73  1  0.79480900  0.96908900  0.19639300  1
  O  O74  1  0.17428000  0.96908900  0.69639300  1
  O  O75  1  0.82572000  0.79480900  0.80360700  1
  O  O76  1  0.82572000  0.03091100  0.30360700  1
  O  O77  1  0.17428000  0.20519100  0.19639300  1
  O  O78  1  0.96908900  0.17428000  0.80360700  1
  O  O79  1  0.03091100  0.82572000  0.19639300  1
  O  O80  1  0.46456800  0.32049800  0.63536400  1
  O  O81  1  0.53543200  0.67950200  0.36463600  1
  O  O82  1  0.67950200  0.14407000  0.63536400  1
  O  O83  1  0.32049800  0.46456800  0.86463600  1
  O  O84  1  0.32049800  0.85593000  0.36463600  1
  O  O85  1  0.67950200  0.53543200  0.13536400  1
  O  O86  1  0.85593000  0.53543200  0.63536400  1
  O  O87  1  0.14407000  0.67950200  0.86463600  1
  O  O88  1  0.14407000  0.46456800  0.36463600  1
  O  O89  1  0.85593000  0.32049800  0.13536400  1
  O  O90  1  0.53543200  0.85593000  0.86463600  1
  O  O91  1  0.46456800  0.14407000  0.13536400  1
  O  O92  1  0.46828300  0.15906000  0.73963200  1
  O  O93  1  0.53171700  0.84094000  0.26036800  1
  O  O94  1  0.84094000  0.30922200  0.73963200  1
  O  O95  1  0.15906000  0.46828300  0.76036800  1
  O  O96  1  0.15906000  0.69077800  0.26036800  1
  O  O97  1  0.84094000  0.53171700  0.23963200  1
  O  O98  1  0.69077800  0.53171700  0.73963200  1
  O  O99  1  0.30922200  0.84094000  0.76036800  1
  O  O100  1  0.30922200  0.46828300  0.26036800  1
  O  O101  1  0.69077800  0.15906000  0.23963200  1
  O  O102  1  0.53171700  0.69077800  0.76036800  1
  O  O103  1  0.46828300  0.30922200  0.23963200  1
