# generated using pymatgen
data_Pr2Ge6Au
_symmetry_space_group_name_H-M   'P 1'
_cell_length_a   4.21173600
_cell_length_b   4.23386900
_cell_length_c   11.46717056
_cell_angle_alpha   90.00000000
_cell_angle_beta   100.58203881
_cell_angle_gamma   90.00000000
_symmetry_Int_Tables_number   1
_chemical_formula_structural   Pr2Ge6Au
_chemical_formula_sum   'Pr2 Ge6 Au1'
_cell_volume   201.00424975
_cell_formula_units_Z   1
loop_
 _symmetry_equiv_pos_site_id
 _symmetry_equiv_pos_as_xyz
  1  'x, y, z'
loop_
 _atom_site_type_symbol
 _atom_site_label
 _atom_site_symmetry_multiplicity
 _atom_site_fract_x
 _atom_site_fract_y
 _atom_site_fract_z
 _atom_site_occupancy
  Pr  Pr0  1  0.11676200  0.50000000  0.23352500  1
  Pr  Pr1  1  0.77943000  0.50000000  0.55886000  1
  Ge  Ge2  1  0.23445000  0.00000000  0.46889900  1
  Ge  Ge3  1  0.38154000  0.50000000  0.76308000  1
  Ge  Ge4  1  0.67055200  0.00000000  0.34110400  1
  Ge  Ge5  1  0.99198500  0.00000000  0.98397000  1
  Ge  Ge6  1  0.49239000  0.50000000  0.98477900  1
  Ge  Ge7  1  0.88083000  0.00000000  0.76166000  1
  Au  Au8  1  0.55906100  0.00000000  0.11812300  1
