# generated using pymatgen
data_Sc(AsO)2
_symmetry_space_group_name_H-M   'P 1'
_cell_length_a   9.66754584
_cell_length_b   9.66754584
_cell_length_c   9.66754584
_cell_angle_alpha   115.70842691
_cell_angle_beta   115.70842691
_cell_angle_gamma   97.60927144
_symmetry_Int_Tables_number   1
_chemical_formula_structural   Sc(AsO)2
_chemical_formula_sum   'Sc4 As8 O8'
_cell_volume   673.90020851
_cell_formula_units_Z   4
loop_
 _symmetry_equiv_pos_site_id
 _symmetry_equiv_pos_as_xyz
  1  'x, y, z'
loop_
 _atom_site_type_symbol
 _atom_site_label
 _atom_site_symmetry_multiplicity
 _atom_site_fract_x
 _atom_site_fract_y
 _atom_site_fract_z
 _atom_site_occupancy
  Sc  Sc0  1  0.87500000  0.12500000  0.75000000  1
  Sc  Sc1  1  0.37500000  0.12500000  0.25000000  1
  Sc  Sc2  1  0.87500000  0.62500000  0.75000000  1
  Sc  Sc3  1  0.87500000  0.12500000  0.25000000  1
  As  As4  1  0.77173300  0.39750300  0.37423000  1
  As  As5  1  0.02327400  0.39750300  0.62577000  1
  As  As6  1  0.14750300  0.27327400  0.12577000  1
  As  As7  1  0.72672600  0.85249700  0.87423000  1
  As  As8  1  0.97826700  0.85249700  0.12577000  1
  As  As9  1  0.14750300  0.02173300  0.87423000  1
  As  As10  1  0.60249700  0.97672600  0.37423000  1
  As  As11  1  0.60249700  0.22826700  0.62577000  1
  O  O12  1  0.56518500  0.27588900  0.28929600  1
  O  O13  1  0.98659300  0.27588900  0.71070400  1
  O  O14  1  0.02588900  0.23659300  0.21070400  1
  O  O15  1  0.76340700  0.97411100  0.78929600  1
  O  O16  1  0.18481500  0.97411100  0.21070400  1
  O  O17  1  0.02588900  0.81518500  0.78929600  1
  O  O18  1  0.72411100  0.01340700  0.28929600  1
  O  O19  1  0.72411100  0.43481500  0.71070400  1
