# generated using pymatgen
data_Yb2W8(SO4)3
_symmetry_space_group_name_H-M   'P 1'
_cell_length_a   5.70654700
_cell_length_b   10.54411055
_cell_length_c   21.96675463
_cell_angle_alpha   125.97366143
_cell_angle_beta   90.00000000
_cell_angle_gamma   105.70018617
_symmetry_Int_Tables_number   1
_chemical_formula_structural   Yb2W8(SO4)3
_chemical_formula_sum   'Yb4 W16 S6 O24'
_cell_volume   1008.10552968
_cell_formula_units_Z   2
loop_
 _symmetry_equiv_pos_site_id
 _symmetry_equiv_pos_as_xyz
  1  'x, y, z'
loop_
 _atom_site_type_symbol
 _atom_site_label
 _atom_site_symmetry_multiplicity
 _atom_site_fract_x
 _atom_site_fract_y
 _atom_site_fract_z
 _atom_site_occupancy
  Yb  Yb0  1  0.80695300  0.68020700  0.57754100  1
  Yb  Yb1  1  0.19304700  0.31979300  0.42245900  1
  Yb  Yb2  1  0.12674600  0.31979300  0.92245900  1
  Yb  Yb3  1  0.87325400  0.68020700  0.07754100  1
  W  W4  1  0.44758400  0.79145100  0.95241100  1
  W  W5  1  0.55241600  0.20854900  0.04758900  1
  W  W6  1  0.65613300  0.20854900  0.54758900  1
  W  W7  1  0.34386700  0.79145100  0.45241100  1
  W  W8  1  0.33067300  0.57121200  0.76879300  1
  W  W9  1  0.66932700  0.42878800  0.23120700  1
  W  W10  1  0.75946000  0.42878800  0.73120700  1
  W  W11  1  0.24054000  0.57121200  0.26879300  1
  W  W12  1  0.89881800  0.01078600  0.56744500  1
  W  W13  1  0.10118100  0.98921400  0.43255500  1
  W  W14  1  0.88803300  0.98921400  0.93255500  1
  W  W15  1  0.11196700  0.01078600  0.06744500  1
  W  W16  1  0.33968900  0.94537300  0.87489600  1
  W  W17  1  0.66031100  0.05462700  0.12510400  1
  W  W18  1  0.39431600  0.05462700  0.62510400  1
  W  W19  1  0.60568400  0.94537300  0.37489600  1
  S  S20  1  0.66620700  0.00000000  0.75000000  1
  S  S21  1  0.33379300  0.00000000  0.25000000  1
  S  S22  1  0.66211200  0.48026200  0.90326400  1
  S  S23  1  0.33788800  0.51973800  0.09673600  1
  S  S24  1  0.18185100  0.51973800  0.59673600  1
  S  S25  1  0.81814900  0.48026200  0.40326400  1
  O  O26  1  0.57601600  0.61972200  0.96860700  1
  O  O27  1  0.42398400  0.38027800  0.03139300  1
  O  O28  1  0.95629400  0.38027800  0.53139300  1
  O  O29  1  0.04370600  0.61972200  0.46860700  1
  O  O30  1  0.48717500  0.95625900  0.78923700  1
  O  O31  1  0.51282500  0.04374100  0.21076300  1
  O  O32  1  0.53091600  0.04374100  0.71076300  1
  O  O33  1  0.46908400  0.95625900  0.28923700  1
  O  O34  1  0.38548400  0.52907100  0.55472300  1
  O  O35  1  0.61451600  0.47092900  0.44527700  1
  O  O36  1  0.85641300  0.47092900  0.94527700  1
  O  O37  1  0.14358700  0.52907100  0.05472300  1
  O  O38  1  0.44568300  0.32663000  0.85997400  1
  O  O39  1  0.55431700  0.67337000  0.14002600  1
  O  O40  1  0.11905300  0.67337000  0.64002600  1
  O  O41  1  0.88094700  0.32663000  0.35997400  1
  O  O42  1  0.77667200  0.52654900  0.85603100  1
  O  O43  1  0.22332800  0.47345100  0.14396900  1
  O  O44  1  0.25012400  0.47345100  0.64396900  1
  O  O45  1  0.74987600  0.52654900  0.35603100  1
  O  O46  1  0.74068400  0.85529700  0.69373500  1
  O  O47  1  0.25931600  0.14470300  0.30626500  1
  O  O48  1  0.88538700  0.14470300  0.80626500  1
  O  O49  1  0.11461300  0.85529700  0.19373500  1
