# generated using pymatgen
data_Rh(NO)6
_symmetry_space_group_name_H-M   'P 1'
_cell_length_a   11.35960100
_cell_length_b   6.66895900
_cell_length_c   12.68858030
_cell_angle_alpha   65.61275103
_cell_angle_beta   90.00000000
_cell_angle_gamma   90.00000000
_symmetry_Int_Tables_number   1
_chemical_formula_structural   Rh(NO)6
_chemical_formula_sum   'Rh4 N24 O24'
_cell_volume   875.47859395
_cell_formula_units_Z   4
loop_
 _symmetry_equiv_pos_site_id
 _symmetry_equiv_pos_as_xyz
  1  'x, y, z'
loop_
 _atom_site_type_symbol
 _atom_site_label
 _atom_site_symmetry_multiplicity
 _atom_site_fract_x
 _atom_site_fract_y
 _atom_site_fract_z
 _atom_site_occupancy
  Rh  Rh0  1  0.83573700  0.77381800  0.76243800  1
  Rh  Rh1  1  0.16426300  0.22618200  0.23756200  1
  Rh  Rh2  1  0.33573700  0.22618200  0.73756200  1
  Rh  Rh3  1  0.66426300  0.77381800  0.26243800  1
  N  N4  1  0.45227900  0.57499700  0.60421600  1
  N  N5  1  0.54772100  0.42500300  0.39578400  1
  N  N6  1  0.95227900  0.42500300  0.89578400  1
  N  N7  1  0.04772100  0.57499700  0.10421600  1
  N  N8  1  0.21205900  0.39562000  0.68451100  1
  N  N9  1  0.78794100  0.60438000  0.31548900  1
  N  N10  1  0.71205900  0.60438000  0.81548900  1
  N  N11  1  0.28794100  0.39562000  0.18451100  1
  N  N12  1  0.88433000  0.86487500  0.86867700  1
  N  N13  1  0.11567000  0.13512500  0.13132300  1
  N  N14  1  0.38433000  0.13512500  0.63132300  1
  N  N15  1  0.61567000  0.86487500  0.36867700  1
  N  N16  1  0.04729300  0.87271500  0.68629700  1
  N  N17  1  0.95270700  0.12728500  0.31370300  1
  N  N18  1  0.54729300  0.12728500  0.81370300  1
  N  N19  1  0.45270700  0.87271500  0.18629700  1
  N  N20  1  0.35794800  0.44371000  0.86494200  1
  N  N21  1  0.64205200  0.55629000  0.13505800  1
  N  N22  1  0.85794800  0.55629000  0.63505800  1
  N  N23  1  0.14205200  0.44371000  0.36494200  1
  N  N24  1  0.31021800  0.00363600  0.86934300  1
  N  N25  1  0.68978200  0.99636400  0.13065700  1
  N  N26  1  0.81021800  0.99636400  0.63065700  1
  N  N27  1  0.18978200  0.00363600  0.36934300  1
  O  O28  1  0.09689800  0.97054000  0.73582800  1
  O  O29  1  0.90310200  0.02946000  0.26417200  1
  O  O30  1  0.59689800  0.02946000  0.76417200  1
  O  O31  1  0.40310200  0.97054000  0.23582800  1
  O  O32  1  0.08035700  0.81784500  0.61149100  1
  O  O33  1  0.91964300  0.18215500  0.38850900  1
  O  O34  1  0.58035700  0.18215500  0.88850900  1
  O  O35  1  0.41964300  0.81784500  0.11149100  1
  O  O36  1  0.83577600  0.66384700  0.53395600  1
  O  O37  1  0.16422400  0.33615300  0.46604400  1
  O  O38  1  0.33577600  0.33615300  0.96604400  1
  O  O39  1  0.66422400  0.66384700  0.03395600  1
  O  O40  1  0.05408300  0.41482300  0.86939500  1
  O  O41  1  0.94591700  0.58517700  0.13060500  1
  O  O42  1  0.55408300  0.58517700  0.63060500  1
  O  O43  1  0.44591700  0.41482300  0.36939500  1
  O  O44  1  0.38634700  0.63532200  0.81307500  1
  O  O45  1  0.61365300  0.36467800  0.18692500  1
  O  O46  1  0.88634700  0.36467800  0.68692500  1
  O  O47  1  0.11365300  0.63532200  0.31307500  1
  O  O48  1  0.39382700  0.69754300  0.52332800  1
  O  O49  1  0.60617300  0.30245700  0.47667200  1
  O  O50  1  0.89382700  0.30245700  0.97667200  1
  O  O51  1  0.10617300  0.69754300  0.02332800  1
