# generated using pymatgen
data_Rb2Na2Al3(GeO4)3
_symmetry_space_group_name_H-M   'P 1'
_cell_length_a   5.38776000
_cell_length_b   8.50064800
_cell_length_c   15.82861300
_cell_angle_alpha   90.00000000
_cell_angle_beta   90.00000000
_cell_angle_gamma   90.00000000
_symmetry_Int_Tables_number   1
_chemical_formula_structural   Rb2Na2Al3(GeO4)3
_chemical_formula_sum   'Rb4 Na4 Al6 Ge6 O24'
_cell_volume   724.94178974
_cell_formula_units_Z   2
loop_
 _symmetry_equiv_pos_site_id
 _symmetry_equiv_pos_as_xyz
  1  'x, y, z'
loop_
 _atom_site_type_symbol
 _atom_site_label
 _atom_site_symmetry_multiplicity
 _atom_site_fract_x
 _atom_site_fract_y
 _atom_site_fract_z
 _atom_site_occupancy
  Rb  Rb0  1  0.80975800  0.32356500  0.74111700  1
  Rb  Rb1  1  0.30975800  0.67643500  0.75888300  1
  Rb  Rb2  1  0.30975800  0.67643500  0.24111700  1
  Rb  Rb3  1  0.80975800  0.32356500  0.25888300  1
  Na  Na4  1  0.79579500  0.18457600  0.00000000  1
  Na  Na5  1  0.29579500  0.81542400  0.50000000  1
  Na  Na6  1  0.29593600  0.82119200  0.00000000  1
  Na  Na7  1  0.79593600  0.17880800  0.50000000  1
  Al  Al8  1  0.33703700  0.39549600  0.00000000  1
  Al  Al9  1  0.83703700  0.60450400  0.50000000  1
  Al  Al10  1  0.82224800  0.89485700  0.85852300  1
  Al  Al11  1  0.32224800  0.10514300  0.64147700  1
  Al  Al12  1  0.32224800  0.10514300  0.35852300  1
  Al  Al13  1  0.82224800  0.89485700  0.14147700  1
  Ge  Ge14  1  0.83735700  0.60849300  0.00000000  1
  Ge  Ge15  1  0.33735700  0.39150700  0.50000000  1
  Ge  Ge16  1  0.82247200  0.88941300  0.64177300  1
  Ge  Ge17  1  0.32247200  0.11058700  0.85822700  1
  Ge  Ge18  1  0.32247200  0.11058700  0.14177300  1
  Ge  Ge19  1  0.82247200  0.88941300  0.35822700  1
  O  O20  1  0.93300300  0.71754900  0.58954900  1
  O  O21  1  0.43300300  0.28245100  0.91045100  1
  O  O22  1  0.43300300  0.28245100  0.08954900  1
  O  O23  1  0.93300300  0.71754900  0.41045100  1
  O  O24  1  0.51178700  0.94416700  0.88775000  1
  O  O25  1  0.01178700  0.05583300  0.61225000  1
  O  O26  1  0.01178700  0.05583300  0.38775000  1
  O  O27  1  0.51178700  0.94416700  0.11225000  1
  O  O28  1  0.51018400  0.57446000  0.00000000  1
  O  O29  1  0.01018400  0.42554000  0.50000000  1
  O  O30  1  0.84105800  0.84053600  0.75092400  1
  O  O31  1  0.34105800  0.15946400  0.74907600  1
  O  O32  1  0.34105800  0.15946400  0.25092400  1
  O  O33  1  0.84105800  0.84053600  0.24907600  1
  O  O34  1  0.50949100  0.93916700  0.61317900  1
  O  O35  1  0.00949100  0.06083300  0.88682100  1
  O  O36  1  0.00949100  0.06083300  0.11317900  1
  O  O37  1  0.50949100  0.93916700  0.38682100  1
  O  O38  1  0.01109300  0.43054300  0.00000000  1
  O  O39  1  0.51109300  0.56945700  0.50000000  1
  O  O40  1  0.93236100  0.72310700  0.91054600  1
  O  O41  1  0.43236100  0.27689300  0.58945400  1
  O  O42  1  0.43236100  0.27689300  0.41054600  1
  O  O43  1  0.93236100  0.72310700  0.08945400  1
