# generated using pymatgen
data_Pr2Sb3Pd
_symmetry_space_group_name_H-M   'P 1'
_cell_length_a   9.83152500
_cell_length_b   9.83152500
_cell_length_c   34.13260000
_cell_angle_alpha   90.00000000
_cell_angle_beta   90.00000000
_cell_angle_gamma   90.00000000
_symmetry_Int_Tables_number   1
_chemical_formula_structural   Pr2Sb3Pd
_chemical_formula_sum   'Pr2 Sb3 Pd1'
_cell_volume   3299.21901807
_cell_formula_units_Z   1
loop_
 _symmetry_equiv_pos_site_id
 _symmetry_equiv_pos_as_xyz
  1  'x, y, z'
loop_
 _atom_site_type_symbol
 _atom_site_label
 _atom_site_symmetry_multiplicity
 _atom_site_fract_x
 _atom_site_fract_y
 _atom_site_fract_z
 _atom_site_occupancy
  Pr  Pr0  1  0.50000000  0.50000000  0.26385400  1
  Pr  Pr1  1  0.50000000  0.50000000  0.73614600  1
  Sb  Sb2  1  0.50000000  0.50000000  0.50000000  1
  Sb  Sb3  1  0.50000000  0.50000000  0.65643400  1
  Sb  Sb4  1  0.50000000  0.50000000  0.34356600  1
  Pd  Pd5  1  0.50000000  0.50000000  0.00000000  1
