# generated using pymatgen
data_Rb2Be2Co(O3F4)2
_symmetry_space_group_name_H-M   'P 1'
_cell_length_a   6.19916758
_cell_length_b   8.15403089
_cell_length_c   11.64707500
_cell_angle_alpha   90.00000000
_cell_angle_beta   90.00000000
_cell_angle_gamma   104.42970728
_symmetry_Int_Tables_number   1
_chemical_formula_structural   Rb2Be2Co(O3F4)2
_chemical_formula_sum   'Rb4 Be4 Co2 O12 F16'
_cell_volume   570.16642220
_cell_formula_units_Z   2
loop_
 _symmetry_equiv_pos_site_id
 _symmetry_equiv_pos_as_xyz
  1  'x, y, z'
loop_
 _atom_site_type_symbol
 _atom_site_label
 _atom_site_symmetry_multiplicity
 _atom_site_fract_x
 _atom_site_fract_y
 _atom_site_fract_z
 _atom_site_occupancy
  Rb  Rb0  1  0.84981000  0.61677300  0.14809700  1
  Rb  Rb1  1  0.15019000  0.38322700  0.85190300  1
  Rb  Rb2  1  0.15019000  0.88322700  0.64809700  1
  Rb  Rb3  1  0.84981000  0.11677300  0.35190300  1
  Be  Be4  1  0.74201400  0.60281500  0.84745300  1
  Be  Be5  1  0.25798600  0.39718500  0.15254700  1
  Be  Be6  1  0.25798600  0.89718500  0.34745300  1
  Be  Be7  1  0.74201400  0.10281500  0.65254700  1
  Co  Co8  1  0.50000000  0.00000000  0.00000000  1
  Co  Co9  1  0.50000000  0.50000000  0.50000000  1
  O  O10  1  0.76750200  0.99128400  0.93666400  1
  O  O11  1  0.23249800  0.00871600  0.06333600  1
  O  O12  1  0.23249800  0.50871600  0.43666400  1
  O  O13  1  0.76750200  0.49128400  0.56333600  1
  O  O14  1  0.45756300  0.64784700  0.60626300  1
  O  O15  1  0.54243700  0.35215300  0.39373700  1
  O  O16  1  0.54243700  0.85215300  0.10626300  1
  O  O17  1  0.45756300  0.14784700  0.89373700  1
  O  O18  1  0.34680100  0.85276700  0.90014200  1
  O  O19  1  0.65319900  0.14723300  0.09985800  1
  O  O20  1  0.65319900  0.64723300  0.40014200  1
  O  O21  1  0.34680100  0.35276700  0.59985800  1
  F  F22  1  0.89739200  0.58531700  0.74554600  1
  F  F23  1  0.10260800  0.41468300  0.25445400  1
  F  F24  1  0.10260800  0.91468300  0.24554600  1
  F  F25  1  0.89739200  0.08531700  0.75445400  1
  F  F26  1  0.87061200  0.75913700  0.92550500  1
  F  F27  1  0.12938800  0.24086300  0.07449500  1
  F  F28  1  0.12938800  0.74086300  0.42550500  1
  F  F29  1  0.87061200  0.25913700  0.57449500  1
  F  F30  1  0.70621000  0.94656300  0.57289100  1
  F  F31  1  0.29379000  0.05343700  0.42710900  1
  F  F32  1  0.29379000  0.55343700  0.07289100  1
  F  F33  1  0.70621000  0.44656300  0.92710900  1
  F  F34  1  0.52357000  0.64043500  0.80114600  1
  F  F35  1  0.47643000  0.35956500  0.19885400  1
  F  F36  1  0.47643000  0.85956500  0.30114600  1
  F  F37  1  0.52357000  0.14043500  0.69885400  1
