# generated using pymatgen
data_Re3(PbS3)2
_symmetry_space_group_name_H-M   'P 1'
_cell_length_a   9.75631355
_cell_length_b   9.75631355
_cell_length_c   11.95711276
_cell_angle_alpha   89.22098114
_cell_angle_beta   89.22098114
_cell_angle_gamma   58.49386095
_symmetry_Int_Tables_number   1
_chemical_formula_structural   Re3(PbS3)2
_chemical_formula_sum   'Re12 Pb8 S24'
_cell_volume   970.24711228
_cell_formula_units_Z   4
loop_
 _symmetry_equiv_pos_site_id
 _symmetry_equiv_pos_as_xyz
  1  'x, y, z'
loop_
 _atom_site_type_symbol
 _atom_site_label
 _atom_site_symmetry_multiplicity
 _atom_site_fract_x
 _atom_site_fract_y
 _atom_site_fract_z
 _atom_site_occupancy
  Re  Re0  1  0.48555800  0.11282400  0.63065400  1
  Re  Re1  1  0.51444200  0.88717600  0.36934600  1
  Re  Re2  1  0.88717600  0.51444200  0.86934600  1
  Re  Re3  1  0.11282400  0.48555800  0.13065400  1
  Re  Re4  1  0.60702200  0.80568800  0.58030100  1
  Re  Re5  1  0.39297800  0.19431200  0.41969900  1
  Re  Re6  1  0.19431200  0.39297800  0.91969900  1
  Re  Re7  1  0.80568800  0.60702200  0.08030100  1
  Re  Re8  1  0.30553500  0.02035300  0.53809200  1
  Re  Re9  1  0.69446500  0.97964700  0.46190800  1
  Re  Re10  1  0.97964700  0.69446500  0.96190800  1
  Re  Re11  1  0.02035300  0.30553500  0.03809200  1
  Pb  Pb12  1  0.39826700  0.60173300  0.75000000  1
  Pb  Pb13  1  0.60173300  0.39826700  0.25000000  1
  Pb  Pb14  1  0.66441200  0.12961200  0.02239600  1
  Pb  Pb15  1  0.33558800  0.87038800  0.97760400  1
  Pb  Pb16  1  0.87038800  0.33558800  0.47760400  1
  Pb  Pb17  1  0.12961200  0.66441200  0.52239600  1
  Pb  Pb18  1  0.82316300  0.17683700  0.75000000  1
  Pb  Pb19  1  0.17683700  0.82316300  0.25000000  1
  S  S20  1  0.40890000  0.94196600  0.72581300  1
  S  S21  1  0.59110000  0.05803400  0.27418700  1
  S  S22  1  0.05803400  0.59110000  0.77418700  1
  S  S23  1  0.94196600  0.40890000  0.22581300  1
  S  S24  1  0.45559800  0.27473900  0.80840200  1
  S  S25  1  0.54440200  0.72526100  0.19159800  1
  S  S26  1  0.72526100  0.54440200  0.69159800  1
  S  S27  1  0.27473900  0.45559800  0.30840200  1
  S  S28  1  0.76529400  0.90574700  0.65738600  1
  S  S29  1  0.23470600  0.09425300  0.34261400  1
  S  S30  1  0.09425300  0.23470600  0.84261400  1
  S  S31  1  0.90574700  0.76529400  0.15738600  1
  S  S32  1  0.57116900  0.26223700  0.51639700  1
  S  S33  1  0.42883100  0.73776300  0.48360300  1
  S  S34  1  0.73776300  0.42883100  0.98360300  1
  S  S35  1  0.26223700  0.57116900  0.01639700  1
  S  S36  1  0.69822300  0.79219700  0.92365500  1
  S  S37  1  0.30177700  0.20780300  0.07634500  1
  S  S38  1  0.20780300  0.30177700  0.57634500  1
  S  S39  1  0.79219700  0.69822300  0.42365500  1
  S  S40  1  0.05850100  0.04298400  0.60041900  1
  S  S41  1  0.94149900  0.95701600  0.39958100  1
  S  S42  1  0.95701600  0.94149900  0.89958100  1
  S  S43  1  0.04298400  0.05850100  0.10041900  1
