# generated using pymatgen
data_Se2N3O8
_symmetry_space_group_name_H-M   'P 1'
_cell_length_a   6.31170200
_cell_length_b   10.00437609
_cell_length_c   11.61586853
_cell_angle_alpha   97.46878022
_cell_angle_beta   90.00000000
_cell_angle_gamma   108.38780435
_symmetry_Int_Tables_number   1
_chemical_formula_structural   Se2N3O8
_chemical_formula_sum   'Se4 N6 O16'
_cell_volume   689.46980752
_cell_formula_units_Z   2
loop_
 _symmetry_equiv_pos_site_id
 _symmetry_equiv_pos_as_xyz
  1  'x, y, z'
loop_
 _atom_site_type_symbol
 _atom_site_label
 _atom_site_symmetry_multiplicity
 _atom_site_fract_x
 _atom_site_fract_y
 _atom_site_fract_z
 _atom_site_occupancy
  Se  Se0  1  0.42093700  0.30009400  0.94726000  1
  Se  Se1  1  0.57906300  0.69990600  0.05274000  1
  Se  Se2  1  0.12084400  0.69990600  0.55274000  1
  Se  Se3  1  0.87915600  0.30009400  0.44726000  1
  N  N4  1  0.77832600  0.00000000  0.75000000  1
  N  N5  1  0.22167400  0.00000000  0.25000000  1
  N  N6  1  0.42479800  0.39392600  0.65199100  1
  N  N7  1  0.57520200  0.60607400  0.34800900  1
  N  N8  1  0.03087200  0.60607400  0.84800900  1
  N  N9  1  0.96912800  0.39392600  0.15199100  1
  O  O10  1  0.54521100  0.62614600  0.91708700  1
  O  O11  1  0.45478900  0.37385400  0.08291300  1
  O  O12  1  0.91906500  0.37385400  0.58291300  1
  O  O13  1  0.08093500  0.62614600  0.41708700  1
  O  O14  1  0.63941100  0.30310800  0.87207900  1
  O  O15  1  0.36058900  0.69689200  0.12792100  1
  O  O16  1  0.33630300  0.69689200  0.62792100  1
  O  O17  1  0.66369700  0.30310800  0.37207900  1
  O  O18  1  0.16970100  0.21905500  0.89126800  1
  O  O19  1  0.83029900  0.78094500  0.10873200  1
  O  O20  1  0.95064600  0.78094500  0.60873200  1
  O  O21  1  0.04935400  0.21905500  0.39126800  1
  O  O22  1  0.41791200  0.00600700  0.97532500  1
  O  O23  1  0.58208800  0.99399300  0.02467500  1
  O  O24  1  0.41190500  0.99399300  0.52467500  1
  O  O25  1  0.58809500  0.00600700  0.47532500  1
