# generated using pymatgen
data_Pu4Mn
_symmetry_space_group_name_H-M   'P 1'
_cell_length_a   6.44734448
_cell_length_b   6.44734448
_cell_length_c   6.44734448
_cell_angle_alpha   60.00000000
_cell_angle_beta   60.00000000
_cell_angle_gamma   60.00000000
_symmetry_Int_Tables_number   1
_chemical_formula_structural   Pu4Mn
_chemical_formula_sum   'Pu8 Mn2'
_cell_volume   189.50803423
_cell_formula_units_Z   2
loop_
 _symmetry_equiv_pos_site_id
 _symmetry_equiv_pos_as_xyz
  1  'x, y, z'
loop_
 _atom_site_type_symbol
 _atom_site_label
 _atom_site_symmetry_multiplicity
 _atom_site_fract_x
 _atom_site_fract_y
 _atom_site_fract_z
 _atom_site_occupancy
  Pu  Pu0  1  0.59766900  0.59766900  0.59766900  1
  Pu  Pu1  1  0.20699300  0.59766900  0.59766900  1
  Pu  Pu2  1  0.59766900  0.20699300  0.59766900  1
  Pu  Pu3  1  0.54300700  0.15233100  0.15233100  1
  Pu  Pu4  1  0.15233100  0.15233100  0.15233100  1
  Pu  Pu5  1  0.59766900  0.59766900  0.20699300  1
  Pu  Pu6  1  0.15233100  0.54300700  0.15233100  1
  Pu  Pu7  1  0.15233100  0.15233100  0.54300700  1
  Mn  Mn8  1  0.00000000  0.00000000  0.00000000  1
  Mn  Mn9  1  0.75000000  0.75000000  0.75000000  1
