# generated using pymatgen
data_NdZr3F15
_symmetry_space_group_name_H-M   'P 1'
_cell_length_a   7.51138471
_cell_length_b   7.51138471
_cell_length_c   7.51138477
_cell_angle_alpha   112.71184177
_cell_angle_beta   112.71184177
_cell_angle_gamma   112.71183800
_symmetry_Int_Tables_number   1
_chemical_formula_structural   NdZr3F15
_chemical_formula_sum   'Nd1 Zr3 F15'
_cell_volume   280.37334969
_cell_formula_units_Z   1
loop_
 _symmetry_equiv_pos_site_id
 _symmetry_equiv_pos_as_xyz
  1  'x, y, z'
loop_
 _atom_site_type_symbol
 _atom_site_label
 _atom_site_symmetry_multiplicity
 _atom_site_fract_x
 _atom_site_fract_y
 _atom_site_fract_z
 _atom_site_occupancy
  Nd  Nd0  1  0.99952300  0.99952300  0.99952300  1
  Zr  Zr1  1  0.36013700  0.79083500  0.36013700  1
  Zr  Zr2  1  0.36013700  0.36013700  0.79083500  1
  Zr  Zr3  1  0.79083500  0.36013700  0.36013700  1
  F  F4  1  0.64691000  0.43321800  0.10356200  1
  F  F5  1  0.10356200  0.64691000  0.43321800  1
  F  F6  1  0.10356200  0.43321800  0.64691000  1
  F  F7  1  0.43321800  0.10356200  0.64691000  1
  F  F8  1  0.43321800  0.64691000  0.10356200  1
  F  F9  1  0.64691000  0.10356200  0.43321800  1
  F  F10  1  0.10147300  0.76192000  0.10147300  1
  F  F11  1  0.10147300  0.10147300  0.76191900  1
  F  F12  1  0.76191900  0.10147300  0.10147300  1
  F  F13  1  0.64384100  0.86485800  0.64384100  1
  F  F14  1  0.64384100  0.64384100  0.86485800  1
  F  F15  1  0.86485800  0.64384100  0.64384100  1
  F  F16  1  0.18400700  0.41949600  0.18400700  1
  F  F17  1  0.18400700  0.18400700  0.41949600  1
  F  F18  1  0.41949600  0.18400700  0.18400700  1
