# generated using pymatgen
data_Nd3NbSb5
_symmetry_space_group_name_H-M   'P 1'
_cell_length_a   9.47037669
_cell_length_b   9.47037669
_cell_length_c   6.26120700
_cell_angle_alpha   90.00000000
_cell_angle_beta   90.00000000
_cell_angle_gamma   120.00000484
_symmetry_Int_Tables_number   1
_chemical_formula_structural   Nd3NbSb5
_chemical_formula_sum   'Nd6 Nb2 Sb10'
_cell_volume   486.32117566
_cell_formula_units_Z   2
loop_
 _symmetry_equiv_pos_site_id
 _symmetry_equiv_pos_as_xyz
  1  'x, y, z'
loop_
 _atom_site_type_symbol
 _atom_site_label
 _atom_site_symmetry_multiplicity
 _atom_site_fract_x
 _atom_site_fract_y
 _atom_site_fract_z
 _atom_site_occupancy
  Nd  Nd0  1  0.62021100  0.00000000  0.75000000  1
  Nd  Nd1  1  0.37978900  0.00000000  0.25000000  1
  Nd  Nd2  1  0.00000000  0.62021100  0.75000000  1
  Nd  Nd3  1  0.00000000  0.37978900  0.25000000  1
  Nd  Nd4  1  0.37978900  0.37978900  0.75000000  1
  Nd  Nd5  1  0.62021100  0.62021100  0.25000000  1
  Nb  Nb6  1  0.00000000  0.00000000  0.50000000  1
  Nb  Nb7  1  0.00000000  0.00000000  0.00000000  1
  Sb  Sb8  1  0.26116400  0.00000000  0.75000000  1
  Sb  Sb9  1  0.73883600  0.00000000  0.25000000  1
  Sb  Sb10  1  0.00000000  0.26116400  0.75000000  1
  Sb  Sb11  1  0.00000000  0.73883600  0.25000000  1
  Sb  Sb12  1  0.73883600  0.73883600  0.75000000  1
  Sb  Sb13  1  0.26116400  0.26116400  0.25000000  1
  Sb  Sb14  1  0.33333300  0.66666700  0.50000000  1
  Sb  Sb15  1  0.66666700  0.33333300  0.50000000  1
  Sb  Sb16  1  0.66666700  0.33333300  0.00000000  1
  Sb  Sb17  1  0.33333300  0.66666700  0.00000000  1
