# generated using pymatgen
data_NdCrTeO6
_symmetry_space_group_name_H-M   'P 1'
_cell_length_a   5.54969898
_cell_length_b   5.54969898
_cell_length_c   8.49118200
_cell_angle_alpha   90.00000000
_cell_angle_beta   90.00000000
_cell_angle_gamma   119.99998778
_symmetry_Int_Tables_number   1
_chemical_formula_structural   NdCrTeO6
_chemical_formula_sum   'Nd2 Cr2 Te2 O12'
_cell_volume   226.48408449
_cell_formula_units_Z   2
loop_
 _symmetry_equiv_pos_site_id
 _symmetry_equiv_pos_as_xyz
  1  'x, y, z'
loop_
 _atom_site_type_symbol
 _atom_site_label
 _atom_site_symmetry_multiplicity
 _atom_site_fract_x
 _atom_site_fract_y
 _atom_site_fract_z
 _atom_site_occupancy
  Nd  Nd0  1  0.33333300  0.66666700  0.75000000  1
  Nd  Nd1  1  0.66666700  0.33333300  0.25000000  1
  Cr  Cr2  1  0.00000000  0.00000000  0.00000000  1
  Cr  Cr3  1  0.00000000  0.00000000  0.50000000  1
  Te  Te4  1  0.66666700  0.33333300  0.75000000  1
  Te  Te5  1  0.33333300  0.66666700  0.25000000  1
  O  O6  1  0.94332200  0.30106800  0.88034200  1
  O  O7  1  0.05667800  0.69893200  0.11965800  1
  O  O8  1  0.35774600  0.05667800  0.88034200  1
  O  O9  1  0.35774600  0.30106800  0.61965800  1
  O  O10  1  0.64225400  0.94332200  0.11965800  1
  O  O11  1  0.64225400  0.69893200  0.38034200  1
  O  O12  1  0.69893200  0.64225400  0.88034200  1
  O  O13  1  0.69893200  0.05667800  0.61965800  1
  O  O14  1  0.30106800  0.35774600  0.11965800  1
  O  O15  1  0.30106800  0.94332200  0.38034200  1
  O  O16  1  0.94332200  0.64225400  0.61965800  1
  O  O17  1  0.05667800  0.35774600  0.38034200  1
