# generated using pymatgen
data_Nd4Re6O19
_symmetry_space_group_name_H-M   'P 1'
_cell_length_a   7.83544971
_cell_length_b   7.83544971
_cell_length_c   7.83544971
_cell_angle_alpha   109.47122063
_cell_angle_beta   109.47122063
_cell_angle_gamma   109.47122063
_symmetry_Int_Tables_number   1
_chemical_formula_structural   Nd4Re6O19
_chemical_formula_sum   'Nd4 Re6 O19'
_cell_volume   370.31379611
_cell_formula_units_Z   1
loop_
 _symmetry_equiv_pos_site_id
 _symmetry_equiv_pos_as_xyz
  1  'x, y, z'
loop_
 _atom_site_type_symbol
 _atom_site_label
 _atom_site_symmetry_multiplicity
 _atom_site_fract_x
 _atom_site_fract_y
 _atom_site_fract_z
 _atom_site_occupancy
  Nd  Nd0  1  0.68822900  0.68822900  0.68822900  1
  Nd  Nd1  1  0.31177100  0.00000000  0.00000000  1
  Nd  Nd2  1  0.00000000  0.31177100  0.00000000  1
  Nd  Nd3  1  0.00000000  0.00000000  0.31177100  1
  Re  Re4  1  0.36656600  0.86656600  0.50000000  1
  Re  Re5  1  0.63343400  0.13343400  0.50000000  1
  Re  Re6  1  0.86656600  0.50000000  0.36656600  1
  Re  Re7  1  0.13343400  0.50000000  0.63343400  1
  Re  Re8  1  0.50000000  0.36656600  0.86656600  1
  Re  Re9  1  0.50000000  0.63343400  0.13343400  1
  O  O10  1  0.68066600  0.68066600  0.00000000  1
  O  O11  1  0.31933400  0.31933400  0.00000000  1
  O  O12  1  0.68066600  0.00000000  0.68066600  1
  O  O13  1  0.31933400  0.00000000  0.31933400  1
  O  O14  1  0.00000000  0.68066600  0.68066600  1
  O  O15  1  0.00000000  0.31933400  0.31933400  1
  O  O16  1  0.00000000  0.00000000  0.00000000  1
  O  O17  1  0.35853800  0.62076200  0.30237200  1
  O  O18  1  0.64146200  0.94383400  0.26222400  1
  O  O19  1  0.68160900  0.37923800  0.73777600  1
  O  O20  1  0.62076200  0.30237200  0.35853800  1
  O  O21  1  0.31839100  0.05616600  0.69762800  1
  O  O22  1  0.94383400  0.26222400  0.64146200  1
  O  O23  1  0.37923800  0.73777600  0.68160900  1
  O  O24  1  0.05616600  0.69762800  0.31839100  1
  O  O25  1  0.30237200  0.35853800  0.62076200  1
  O  O26  1  0.73777600  0.68160900  0.37923800  1
  O  O27  1  0.69762800  0.31839100  0.05616600  1
  O  O28  1  0.26222400  0.64146200  0.94383400  1
