# generated using pymatgen
data_Nd4Al
_symmetry_space_group_name_H-M   'P 1'
_cell_length_a   8.09259245
_cell_length_b   8.09259245
_cell_length_c   8.09259245
_cell_angle_alpha   60.00000000
_cell_angle_beta   60.00000000
_cell_angle_gamma   60.00000000
_symmetry_Int_Tables_number   1
_chemical_formula_structural   Nd4Al
_chemical_formula_sum   'Nd8 Al2'
_cell_volume   374.75549617
_cell_formula_units_Z   2
loop_
 _symmetry_equiv_pos_site_id
 _symmetry_equiv_pos_as_xyz
  1  'x, y, z'
loop_
 _atom_site_type_symbol
 _atom_site_label
 _atom_site_symmetry_multiplicity
 _atom_site_fract_x
 _atom_site_fract_y
 _atom_site_fract_z
 _atom_site_occupancy
  Nd  Nd0  1  0.89356600  0.89356600  0.89356600  1
  Nd  Nd1  1  0.89356600  0.89356600  0.31930100  1
  Nd  Nd2  1  0.89356600  0.31930100  0.89356600  1
  Nd  Nd3  1  0.35643400  0.35643400  0.93069900  1
  Nd  Nd4  1  0.35643400  0.35643400  0.35643400  1
  Nd  Nd5  1  0.31930100  0.89356600  0.89356600  1
  Nd  Nd6  1  0.35643400  0.93069900  0.35643400  1
  Nd  Nd7  1  0.93069900  0.35643400  0.35643400  1
  Al  Al8  1  0.50000000  0.50000000  0.50000000  1
  Al  Al9  1  0.75000000  0.75000000  0.75000000  1
