# generated using pymatgen
data_Sc3(Ge2Mo)2
_symmetry_space_group_name_H-M   'P 1'
_cell_length_a   6.79072200
_cell_length_b   6.97791600
_cell_length_c   13.30084900
_cell_angle_alpha   90.00000000
_cell_angle_beta   90.00000000
_cell_angle_gamma   90.00000000
_symmetry_Int_Tables_number   1
_chemical_formula_structural   Sc3(Ge2Mo)2
_chemical_formula_sum   'Sc12 Ge16 Mo8'
_cell_volume   630.26189629
_cell_formula_units_Z   4
loop_
 _symmetry_equiv_pos_site_id
 _symmetry_equiv_pos_as_xyz
  1  'x, y, z'
loop_
 _atom_site_type_symbol
 _atom_site_label
 _atom_site_symmetry_multiplicity
 _atom_site_fract_x
 _atom_site_fract_y
 _atom_site_fract_z
 _atom_site_occupancy
  Sc  Sc0  1  0.18159700  0.50316800  0.75000000  1
  Sc  Sc1  1  0.81840300  0.49683200  0.25000000  1
  Sc  Sc2  1  0.31840300  0.00316800  0.25000000  1
  Sc  Sc3  1  0.68159700  0.99683200  0.75000000  1
  Sc  Sc4  1  0.36314200  0.16251300  0.62209700  1
  Sc  Sc5  1  0.63685800  0.83748700  0.37790300  1
  Sc  Sc6  1  0.13685800  0.66251300  0.37790300  1
  Sc  Sc7  1  0.63685800  0.83748700  0.12209700  1
  Sc  Sc8  1  0.86314200  0.33748700  0.62209700  1
  Sc  Sc9  1  0.36314200  0.16251300  0.87790300  1
  Sc  Sc10  1  0.86314200  0.33748700  0.87790300  1
  Sc  Sc11  1  0.13685800  0.66251300  0.12209700  1
  Ge  Ge12  1  0.05196900  0.09524200  0.75000000  1
  Ge  Ge13  1  0.94803100  0.90475800  0.25000000  1
  Ge  Ge14  1  0.44803100  0.59524200  0.25000000  1
  Ge  Ge15  1  0.55196900  0.40475800  0.75000000  1
  Ge  Ge16  1  0.32284300  0.84672400  0.75000000  1
  Ge  Ge17  1  0.67715700  0.15327600  0.25000000  1
  Ge  Ge18  1  0.17715700  0.34672400  0.25000000  1
  Ge  Ge19  1  0.82284300  0.65327600  0.75000000  1
  Ge  Ge20  1  0.21236100  0.47109300  0.54184800  1
  Ge  Ge21  1  0.78763900  0.52890700  0.45815200  1
  Ge  Ge22  1  0.28763900  0.97109300  0.45815200  1
  Ge  Ge23  1  0.78763900  0.52890700  0.04184800  1
  Ge  Ge24  1  0.71236100  0.02890700  0.54184800  1
  Ge  Ge25  1  0.21236100  0.47109300  0.95815200  1
  Ge  Ge26  1  0.71236100  0.02890700  0.95815200  1
  Ge  Ge27  1  0.28763900  0.97109300  0.04184800  1
  Mo  Mo28  1  0.97058700  0.18512500  0.09506600  1
  Mo  Mo29  1  0.02941300  0.81487500  0.90493400  1
  Mo  Mo30  1  0.52941300  0.68512500  0.90493400  1
  Mo  Mo31  1  0.02941300  0.81487500  0.59506600  1
  Mo  Mo32  1  0.47058700  0.31487500  0.09506600  1
  Mo  Mo33  1  0.97058700  0.18512500  0.40493400  1
  Mo  Mo34  1  0.47058700  0.31487500  0.40493400  1
  Mo  Mo35  1  0.52941300  0.68512500  0.59506600  1
