# generated using pymatgen
data_NiPt(CN)6
_symmetry_space_group_name_H-M   'P 1'
_cell_length_a   7.38483937
_cell_length_b   7.38483937
_cell_length_c   7.38483937
_cell_angle_alpha   60.00000000
_cell_angle_beta   60.00000000
_cell_angle_gamma   60.00000000
_symmetry_Int_Tables_number   1
_chemical_formula_structural   NiPt(CN)6
_chemical_formula_sum   'Ni1 Pt1 C6 N6'
_cell_volume   284.77913258
_cell_formula_units_Z   1
loop_
 _symmetry_equiv_pos_site_id
 _symmetry_equiv_pos_as_xyz
  1  'x, y, z'
loop_
 _atom_site_type_symbol
 _atom_site_label
 _atom_site_symmetry_multiplicity
 _atom_site_fract_x
 _atom_site_fract_y
 _atom_site_fract_z
 _atom_site_occupancy
  Ni  Ni0  1  0.50000000  0.50000000  0.50000000  1
  Pt  Pt1  1  0.00000000  0.00000000  0.00000000  1
  C  C2  1  0.80673400  0.19326600  0.19326600  1
  C  C3  1  0.19326600  0.80673400  0.80673400  1
  C  C4  1  0.19326600  0.80673400  0.19326600  1
  C  C5  1  0.80673400  0.19326600  0.80673400  1
  C  C6  1  0.19326600  0.19326600  0.80673400  1
  C  C7  1  0.80673400  0.80673400  0.19326600  1
  N  N8  1  0.69539900  0.30460100  0.30460100  1
  N  N9  1  0.30460100  0.69539900  0.69539900  1
  N  N10  1  0.30460100  0.69539900  0.30460100  1
  N  N11  1  0.69539900  0.30460100  0.69539900  1
  N  N12  1  0.30460100  0.30460100  0.69539900  1
  N  N13  1  0.69539900  0.69539900  0.30460100  1
