# generated using pymatgen
data_Nb2Fe4O9
_symmetry_space_group_name_H-M   'P 1'
_cell_length_a   5.34490927
_cell_length_b   5.34490927
_cell_length_c   14.26238400
_cell_angle_alpha   90.00000000
_cell_angle_beta   90.00000000
_cell_angle_gamma   119.99999099
_symmetry_Int_Tables_number   1
_chemical_formula_structural   Nb2Fe4O9
_chemical_formula_sum   'Nb4 Fe8 O18'
_cell_volume   352.86084640
_cell_formula_units_Z   2
loop_
 _symmetry_equiv_pos_site_id
 _symmetry_equiv_pos_as_xyz
  1  'x, y, z'
loop_
 _atom_site_type_symbol
 _atom_site_label
 _atom_site_symmetry_multiplicity
 _atom_site_fract_x
 _atom_site_fract_y
 _atom_site_fract_z
 _atom_site_occupancy
  Nb  Nb0  1  0.00000000  0.00000000  0.64123700  1
  Nb  Nb1  1  0.00000000  0.00000000  0.35876300  1
  Nb  Nb2  1  0.00000000  0.00000000  0.85876300  1
  Nb  Nb3  1  0.00000000  0.00000000  0.14123700  1
  Fe  Fe4  1  0.33333300  0.66666700  0.51578300  1
  Fe  Fe5  1  0.66666700  0.33333300  0.48421700  1
  Fe  Fe6  1  0.66666700  0.33333300  0.98421700  1
  Fe  Fe7  1  0.33333300  0.66666700  0.01578300  1
  Fe  Fe8  1  0.33333300  0.66666700  0.80662400  1
  Fe  Fe9  1  0.66666700  0.33333300  0.19337600  1
  Fe  Fe10  1  0.66666700  0.33333300  0.69337600  1
  Fe  Fe11  1  0.33333300  0.66666700  0.30662400  1
  O  O12  1  0.33766700  0.31421400  0.58395000  1
  O  O13  1  0.66233300  0.68578600  0.41605000  1
  O  O14  1  0.68578600  0.02345300  0.58395000  1
  O  O15  1  0.31421400  0.33766700  0.91605000  1
  O  O16  1  0.31421400  0.97654700  0.41605000  1
  O  O17  1  0.68578600  0.66233300  0.08395000  1
  O  O18  1  0.97654700  0.66233300  0.58395000  1
  O  O19  1  0.02345300  0.68578600  0.91605000  1
  O  O20  1  0.02345300  0.33766700  0.41605000  1
  O  O21  1  0.97654700  0.31421400  0.08395000  1
  O  O22  1  0.66233300  0.97654700  0.91605000  1
  O  O23  1  0.33766700  0.02345300  0.08395000  1
  O  O24  1  0.28315500  0.00000000  0.75000000  1
  O  O25  1  0.71684500  0.00000000  0.25000000  1
  O  O26  1  0.00000000  0.28315500  0.75000000  1
  O  O27  1  0.00000000  0.71684500  0.25000000  1
  O  O28  1  0.71684500  0.71684500  0.75000000  1
  O  O29  1  0.28315500  0.28315500  0.25000000  1
