# generated using pymatgen
data_Yb2Zn25Rh
_symmetry_space_group_name_H-M   'P 1'
_cell_length_a   20.30632926
_cell_length_b   20.30632926
_cell_length_c   20.30632926
_cell_angle_alpha   60.00000000
_cell_angle_beta   60.00000000
_cell_angle_gamma   60.00000000
_symmetry_Int_Tables_number   1
_chemical_formula_structural   Yb2Zn25Rh
_chemical_formula_sum   'Yb4 Zn50 Rh2'
_cell_volume   5920.78476377
_cell_formula_units_Z   2
loop_
 _symmetry_equiv_pos_site_id
 _symmetry_equiv_pos_as_xyz
  1  'x, y, z'
loop_
 _atom_site_type_symbol
 _atom_site_label
 _atom_site_symmetry_multiplicity
 _atom_site_fract_x
 _atom_site_fract_y
 _atom_site_fract_z
 _atom_site_occupancy
  Yb  Yb0  1  0.87500000  0.87500000  0.87500000  1
  Yb  Yb1  1  0.37500000  0.87500000  0.87500000  1
  Yb  Yb2  1  0.87500000  0.37500000  0.87500000  1
  Yb  Yb3  1  0.87500000  0.87500000  0.37500000  1
  Zn  Zn4  1  0.51348185  0.51348185  0.24523282  1
  Zn  Zn5  1  0.72780347  0.24523282  0.51348185  1
  Zn  Zn6  1  0.24523282  0.72780347  0.51348185  1
  Zn  Zn7  1  0.51348185  0.24523282  0.51348185  1
  Zn  Zn8  1  0.02219653  0.23651815  0.50476718  1
  Zn  Zn9  1  0.23651815  0.23651815  0.50476718  1
  Zn  Zn10  1  0.51348185  0.51348185  0.72780347  1
  Zn  Zn11  1  0.24523282  0.51348185  0.72780347  1
  Zn  Zn12  1  0.23651815  0.50476718  0.23651815  1
  Zn  Zn13  1  0.02219653  0.50476718  0.23651815  1
  Zn  Zn14  1  0.72780347  0.51348185  0.24523282  1
  Zn  Zn15  1  0.23651815  0.02219653  0.23651815  1
  Zn  Zn16  1  0.50476718  0.02219653  0.23651815  1
  Zn  Zn17  1  0.51348185  0.72780347  0.51348185  1
  Zn  Zn18  1  0.50476718  0.23651815  0.02219653  1
  Zn  Zn19  1  0.23651815  0.23651815  0.02219653  1
  Zn  Zn20  1  0.24523282  0.51348185  0.51348185  1
  Zn  Zn21  1  0.51348185  0.24523282  0.72780347  1
  Zn  Zn22  1  0.72780347  0.51348185  0.51348185  1
  Zn  Zn23  1  0.51348185  0.72780347  0.24523282  1
  Zn  Zn24  1  0.23651815  0.50476718  0.02219653  1
  Zn  Zn25  1  0.50476718  0.23651815  0.23651815  1
  Zn  Zn26  1  0.23651815  0.02219653  0.50476718  1
  Zn  Zn27  1  0.02219653  0.23651815  0.23651815  1
  Zn  Zn28  1  -0.00000000  -0.00000000  -0.00000000  1
  Zn  Zn29  1  0.75000000  0.75000000  0.75000000  1
  Zn  Zn30  1  0.20159606  0.68019543  0.68019543  1
  Zn  Zn31  1  0.43801308  0.68019543  0.68019543  1
  Zn  Zn32  1  0.68019543  0.43801308  0.20159606  1
  Zn  Zn33  1  0.68019543  0.68019543  0.20159606  1
  Zn  Zn34  1  0.31198692  0.06980457  0.06980457  1
  Zn  Zn35  1  0.54840394  0.06980457  0.06980457  1
  Zn  Zn36  1  0.68019543  0.20159606  0.43801308  1
  Zn  Zn37  1  0.68019543  0.68019543  0.43801308  1
  Zn  Zn38  1  0.43801308  0.20159606  0.68019543  1
  Zn  Zn39  1  0.06980457  0.31198692  0.54840394  1
  Zn  Zn40  1  0.20159606  0.43801308  0.68019543  1
  Zn  Zn41  1  0.06980457  0.54840394  0.31198692  1
  Zn  Zn42  1  0.68019543  0.20159606  0.68019543  1
  Zn  Zn43  1  0.31198692  0.06980457  0.54840394  1
  Zn  Zn44  1  0.06980457  0.06980457  0.54840394  1
  Zn  Zn45  1  0.20159606  0.68019543  0.43801308  1
  Zn  Zn46  1  0.06980457  0.54840394  0.06980457  1
  Zn  Zn47  1  0.31198692  0.54840394  0.06980457  1
  Zn  Zn48  1  0.43801308  0.68019543  0.20159606  1
  Zn  Zn49  1  0.06980457  0.31198692  0.06980457  1
  Zn  Zn50  1  0.54840394  0.31198692  0.06980457  1
  Zn  Zn51  1  0.68019543  0.43801308  0.68019543  1
  Zn  Zn52  1  0.54840394  0.06980457  0.31198692  1
  Zn  Zn53  1  0.06980457  0.06980457  0.31198692  1
  Rh  Rh54  1  0.50000000  0.50000000  0.50000000  1
  Rh  Rh55  1  0.25000000  0.25000000  0.25000000  1
