# generated using pymatgen
data_NaAlSiO5
_symmetry_space_group_name_H-M   'P 1'
_cell_length_a   5.47556904
_cell_length_b   5.47556904
_cell_length_c   5.47556904
_cell_angle_alpha   60.00000000
_cell_angle_beta   60.00000000
_cell_angle_gamma   60.00000000
_symmetry_Int_Tables_number   1
_chemical_formula_structural   NaAlSiO5
_chemical_formula_sum   'Na1 Al1 Si1 O5'
_cell_volume   116.08411111
_cell_formula_units_Z   1
loop_
 _symmetry_equiv_pos_site_id
 _symmetry_equiv_pos_as_xyz
  1  'x, y, z'
loop_
 _atom_site_type_symbol
 _atom_site_label
 _atom_site_symmetry_multiplicity
 _atom_site_fract_x
 _atom_site_fract_y
 _atom_site_fract_z
 _atom_site_occupancy
  Na  Na0  1  0.50000000  0.50000000  0.50000000  1
  Al  Al1  1  0.25000000  0.25000000  0.25000000  1
  Si  Si2  1  0.00000000  0.00000000  0.00000000  1
  O  O3  1  0.12110500  0.12110500  0.12110500  1
  O  O4  1  0.12110500  0.12110500  0.63668400  1
  O  O5  1  0.12110500  0.63668400  0.12110500  1
  O  O6  1  0.63668400  0.12110500  0.12110500  1
  O  O7  1  0.75000000  0.75000000  0.75000000  1
