# generated using pymatgen
data_Nd2Ta3(SeO4)2
_symmetry_space_group_name_H-M   'P 1'
_cell_length_a   7.65459200
_cell_length_b   9.97325100
_cell_length_c   11.95508600
_cell_angle_alpha   90.00000000
_cell_angle_beta   90.00000000
_cell_angle_gamma   90.00000000
_symmetry_Int_Tables_number   1
_chemical_formula_structural   Nd2Ta3(SeO4)2
_chemical_formula_sum   'Nd8 Ta12 Se8 O32'
_cell_volume   912.66522063
_cell_formula_units_Z   4
loop_
 _symmetry_equiv_pos_site_id
 _symmetry_equiv_pos_as_xyz
  1  'x, y, z'
loop_
 _atom_site_type_symbol
 _atom_site_label
 _atom_site_symmetry_multiplicity
 _atom_site_fract_x
 _atom_site_fract_y
 _atom_site_fract_z
 _atom_site_occupancy
  Nd  Nd0  1  0.00000000  0.22703100  0.35121300  1
  Nd  Nd1  1  0.00000000  0.77296900  0.64878700  1
  Nd  Nd2  1  0.50000000  0.27296900  0.85121300  1
  Nd  Nd3  1  0.50000000  0.72703100  0.14878700  1
  Nd  Nd4  1  0.00000000  0.70978700  0.15645700  1
  Nd  Nd5  1  0.00000000  0.29021300  0.84354300  1
  Nd  Nd6  1  0.50000000  0.79021300  0.65645700  1
  Nd  Nd7  1  0.50000000  0.20978700  0.34354300  1
  Ta  Ta8  1  0.24983800  0.36437600  0.08431400  1
  Ta  Ta9  1  0.75016200  0.63562400  0.91568600  1
  Ta  Ta10  1  0.24983800  0.63562400  0.91568600  1
  Ta  Ta11  1  0.25016200  0.13562400  0.58431400  1
  Ta  Ta12  1  0.75016200  0.36437600  0.08431400  1
  Ta  Ta13  1  0.74983800  0.86437600  0.41568600  1
  Ta  Ta14  1  0.25016200  0.86437600  0.41568600  1
  Ta  Ta15  1  0.74983800  0.13562400  0.58431400  1
  Ta  Ta16  1  0.21436000  0.00000000  0.00000000  1
  Ta  Ta17  1  0.78564000  0.00000000  0.00000000  1
  Ta  Ta18  1  0.28564000  0.50000000  0.50000000  1
  Ta  Ta19  1  0.71436000  0.50000000  0.50000000  1
  Se  Se20  1  0.00000000  0.01846500  0.16429800  1
  Se  Se21  1  0.00000000  0.98153500  0.83570200  1
  Se  Se22  1  0.50000000  0.48153500  0.66429800  1
  Se  Se23  1  0.50000000  0.51846500  0.33570200  1
  Se  Se24  1  0.00000000  0.52332900  0.35998200  1
  Se  Se25  1  0.00000000  0.47667100  0.64001800  1
  Se  Se26  1  0.50000000  0.97667100  0.85998200  1
  Se  Se27  1  0.50000000  0.02332900  0.14001800  1
  O  O28  1  0.00000000  0.36590400  0.05080300  1
  O  O29  1  0.00000000  0.63409600  0.94919700  1
  O  O30  1  0.50000000  0.13409600  0.55080300  1
  O  O31  1  0.50000000  0.86590400  0.44919700  1
  O  O32  1  0.24704000  0.28653900  0.22500700  1
  O  O33  1  0.75296000  0.71346100  0.77499300  1
  O  O34  1  0.24704000  0.71346100  0.77499300  1
  O  O35  1  0.25296000  0.21346100  0.72500700  1
  O  O36  1  0.75296000  0.28653900  0.22500700  1
  O  O37  1  0.74704000  0.78653900  0.27499300  1
  O  O38  1  0.25296000  0.78653900  0.27499300  1
  O  O39  1  0.74704000  0.21346100  0.72500700  1
  O  O40  1  0.00000000  0.14928900  0.54880500  1
  O  O41  1  0.00000000  0.85071100  0.45119500  1
  O  O42  1  0.50000000  0.35071100  0.04880500  1
  O  O43  1  0.50000000  0.64928900  0.95119500  1
  O  O44  1  0.26366200  0.30252900  0.47538400  1
  O  O45  1  0.73633800  0.69747100  0.52461600  1
  O  O46  1  0.26366200  0.69747100  0.52461600  1
  O  O47  1  0.23633800  0.19747100  0.97538400  1
  O  O48  1  0.73633800  0.30252900  0.47538400  1
  O  O49  1  0.76366200  0.80252900  0.02461600  1
  O  O50  1  0.23633800  0.80252900  0.02461600  1
  O  O51  1  0.76366200  0.19747100  0.97538400  1
  O  O52  1  0.24531900  0.05711500  0.39660800  1
  O  O53  1  0.75468100  0.94288500  0.60339200  1
  O  O54  1  0.24531900  0.94288500  0.60339200  1
  O  O55  1  0.25468100  0.44288500  0.89660800  1
  O  O56  1  0.75468100  0.05711500  0.39660800  1
  O  O57  1  0.74531900  0.55711500  0.10339200  1
  O  O58  1  0.25468100  0.55711500  0.10339200  1
  O  O59  1  0.74531900  0.44288500  0.89660800  1
