# generated using pymatgen
data_KNaMg30O31
_symmetry_space_group_name_H-M   'P 1'
_cell_length_a   8.48454200
_cell_length_b   8.64850100
_cell_length_c   8.68911200
_cell_angle_alpha   90.00000000
_cell_angle_beta   90.00000000
_cell_angle_gamma   90.00000000
_symmetry_Int_Tables_number   1
_chemical_formula_structural   KNaMg30O31
_chemical_formula_sum   'K1 Na1 Mg30 O31'
_cell_volume   637.59461288
_cell_formula_units_Z   1
loop_
 _symmetry_equiv_pos_site_id
 _symmetry_equiv_pos_as_xyz
  1  'x, y, z'
loop_
 _atom_site_type_symbol
 _atom_site_label
 _atom_site_symmetry_multiplicity
 _atom_site_fract_x
 _atom_site_fract_y
 _atom_site_fract_z
 _atom_site_occupancy
  K  K0  1  0.07046100  0.00000000  0.00000000  1
  Na  Na1  1  0.99366900  0.00000000  0.50000000  1
  Mg  Mg2  1  0.99160500  0.50000000  0.00000000  1
  Mg  Mg3  1  0.99613400  0.50000000  0.50000000  1
  Mg  Mg4  1  0.52030800  0.00000000  0.00000000  1
  Mg  Mg5  1  0.50141500  0.00000000  0.50000000  1
  Mg  Mg6  1  0.50434800  0.50000000  0.00000000  1
  Mg  Mg7  1  0.50082900  0.50000000  0.50000000  1
  Mg  Mg8  1  0.99711200  0.24904100  0.25300000  1
  Mg  Mg9  1  0.99711200  0.24904100  0.74700000  1
  Mg  Mg10  1  0.99711200  0.75095900  0.25300000  1
  Mg  Mg11  1  0.99711200  0.75095900  0.74700000  1
  Mg  Mg12  1  0.49889100  0.24760000  0.24874200  1
  Mg  Mg13  1  0.49889100  0.24760000  0.75125800  1
  Mg  Mg14  1  0.49889100  0.75240000  0.24874200  1
  Mg  Mg15  1  0.49889100  0.75240000  0.75125800  1
  Mg  Mg16  1  0.24405800  0.00000000  0.27950800  1
  Mg  Mg17  1  0.24405800  0.00000000  0.72049200  1
  Mg  Mg18  1  0.24742300  0.50000000  0.25413500  1
  Mg  Mg19  1  0.24742300  0.50000000  0.74586500  1
  Mg  Mg20  1  0.75938000  0.00000000  0.24937900  1
  Mg  Mg21  1  0.75938000  0.00000000  0.75062100  1
  Mg  Mg22  1  0.74891400  0.50000000  0.25093200  1
  Mg  Mg23  1  0.74891400  0.50000000  0.74906800  1
  Mg  Mg24  1  0.24801500  0.27786400  0.00000000  1
  Mg  Mg25  1  0.24676500  0.25310500  0.50000000  1
  Mg  Mg26  1  0.24801500  0.72213600  0.00000000  1
  Mg  Mg27  1  0.24676500  0.74689500  0.50000000  1
  Mg  Mg28  1  0.75799300  0.24548100  0.00000000  1
  Mg  Mg29  1  0.74999600  0.24753900  0.50000000  1
  Mg  Mg30  1  0.75799300  0.75451900  0.00000000  1
  Mg  Mg31  1  0.74999600  0.75246100  0.50000000  1
  O  O32  1  0.26547000  0.00000000  0.50000000  1
  O  O33  1  0.25636500  0.50000000  0.00000000  1
  O  O34  1  0.25310400  0.50000000  0.50000000  1
  O  O35  1  0.74921700  0.00000000  0.00000000  1
  O  O36  1  0.73220700  0.00000000  0.50000000  1
  O  O37  1  0.74392400  0.50000000  0.00000000  1
  O  O38  1  0.74477200  0.50000000  0.50000000  1
  O  O39  1  0.24793400  0.24423300  0.24306700  1
  O  O40  1  0.24793400  0.24423300  0.75693300  1
  O  O41  1  0.24793400  0.75576700  0.24306700  1
  O  O42  1  0.24793400  0.75576700  0.75693300  1
  O  O43  1  0.74750400  0.24921400  0.24897900  1
  O  O44  1  0.74750400  0.24921400  0.75102100  1
  O  O45  1  0.74750400  0.75078600  0.24897900  1
  O  O46  1  0.74750400  0.75078600  0.75102100  1
  O  O47  1  0.00165900  0.00000000  0.25776900  1
  O  O48  1  0.00165900  0.00000000  0.74223100  1
  O  O49  1  0.00018600  0.50000000  0.25075800  1
  O  O50  1  0.00018600  0.50000000  0.74924200  1
  O  O51  1  0.48844500  0.00000000  0.23966700  1
  O  O52  1  0.48844500  0.00000000  0.76033300  1
  O  O53  1  0.49653200  0.50000000  0.24824600  1
  O  O54  1  0.49653200  0.50000000  0.75175400  1
  O  O55  1  0.00244000  0.27073300  0.00000000  1
  O  O56  1  0.00092200  0.26541000  0.50000000  1
  O  O57  1  0.00244000  0.72926700  0.00000000  1
  O  O58  1  0.00092200  0.73459000  0.50000000  1
  O  O59  1  0.49151500  0.24422300  0.00000000  1
  O  O60  1  0.49596000  0.25140600  0.50000000  1
  O  O61  1  0.49151500  0.75577700  0.00000000  1
  O  O62  1  0.49596000  0.74859400  0.50000000  1
