# generated using pymatgen
data_NaCaAsO4
_symmetry_space_group_name_H-M   'P 1'
_cell_length_a   5.50799798
_cell_length_b   5.50799798
_cell_length_c   7.27832900
_cell_angle_alpha   90.00000000
_cell_angle_beta   90.00000000
_cell_angle_gamma   115.20495030
_symmetry_Int_Tables_number   1
_chemical_formula_structural   NaCaAsO4
_chemical_formula_sum   'Na2 Ca2 As2 O8'
_cell_volume   199.78696315
_cell_formula_units_Z   2
loop_
 _symmetry_equiv_pos_site_id
 _symmetry_equiv_pos_as_xyz
  1  'x, y, z'
loop_
 _atom_site_type_symbol
 _atom_site_label
 _atom_site_symmetry_multiplicity
 _atom_site_fract_x
 _atom_site_fract_y
 _atom_site_fract_z
 _atom_site_occupancy
  Na  Na0  1  0.31863700  0.68136300  0.75000000  1
  Na  Na1  1  0.68136300  0.31863700  0.25000000  1
  Ca  Ca2  1  0.00000000  0.00000000  0.50000000  1
  Ca  Ca3  1  0.00000000  0.00000000  0.00000000  1
  As  As4  1  0.64871700  0.35128300  0.75000000  1
  As  As5  1  0.35128300  0.64871700  0.25000000  1
  O  O6  1  0.75302600  0.24697400  0.55737500  1
  O  O7  1  0.24697400  0.75302600  0.44262500  1
  O  O8  1  0.24697400  0.75302600  0.05737500  1
  O  O9  1  0.75302600  0.24697400  0.94262500  1
  O  O10  1  0.77325200  0.70012000  0.75000000  1
  O  O11  1  0.22674800  0.29988000  0.25000000  1
  O  O12  1  0.29988000  0.22674800  0.75000000  1
  O  O13  1  0.70011900  0.77325200  0.25000000  1
