# generated using pymatgen
data_Sr2Sb2(SO3)5
_symmetry_space_group_name_H-M   'P 1'
_cell_length_a   9.31993745
_cell_length_b   9.31993745
_cell_length_c   12.77291261
_cell_angle_alpha   83.37981312
_cell_angle_beta   83.37981312
_cell_angle_gamma   47.39559389
_symmetry_Int_Tables_number   1
_chemical_formula_structural   Sr2Sb2(SO3)5
_chemical_formula_sum   'Sr4 Sb4 S10 O30'
_cell_volume   810.12231206
_cell_formula_units_Z   2
loop_
 _symmetry_equiv_pos_site_id
 _symmetry_equiv_pos_as_xyz
  1  'x, y, z'
loop_
 _atom_site_type_symbol
 _atom_site_label
 _atom_site_symmetry_multiplicity
 _atom_site_fract_x
 _atom_site_fract_y
 _atom_site_fract_z
 _atom_site_occupancy
  Sr  Sr0  1  0.43530900  0.27655400  0.98242700  1
  Sr  Sr1  1  0.56469100  0.72344600  0.01757300  1
  Sr  Sr2  1  0.72344600  0.56469100  0.51757300  1
  Sr  Sr3  1  0.27655400  0.43530900  0.48242700  1
  Sb  Sb4  1  0.15094800  0.10472700  0.75564100  1
  Sb  Sb5  1  0.84905200  0.89527300  0.24435900  1
  Sb  Sb6  1  0.89527300  0.84905200  0.74435900  1
  Sb  Sb7  1  0.10472700  0.15094800  0.25564100  1
  S  S8  1  0.23355100  0.02865500  0.49719400  1
  S  S9  1  0.76644900  0.97134500  0.50280600  1
  S  S10  1  0.97134500  0.76644900  0.00280600  1
  S  S11  1  0.02865500  0.23355100  0.99719400  1
  S  S12  1  0.28420500  0.71579500  0.75000000  1
  S  S13  1  0.71579500  0.28420500  0.25000000  1
  S  S14  1  0.49413800  0.06540500  0.77123400  1
  S  S15  1  0.50586200  0.93459500  0.22876600  1
  S  S16  1  0.93459500  0.50586200  0.72876600  1
  S  S17  1  0.06540500  0.49413800  0.27123400  1
  O  O18  1  0.80602100  0.09270200  0.81933500  1
  O  O19  1  0.19397900  0.90729800  0.18066500  1
  O  O20  1  0.90729800  0.19397900  0.68066500  1
  O  O21  1  0.09270200  0.80602100  0.31933500  1
  O  O22  1  0.39399900  0.27355200  0.78697000  1
  O  O23  1  0.60600100  0.72644800  0.21303000  1
  O  O24  1  0.72644800  0.60600100  0.71303000  1
  O  O25  1  0.27355200  0.39399900  0.28697000  1
  O  O26  1  0.52463000  0.96345800  0.88001100  1
  O  O27  1  0.47537000  0.03654200  0.11998900  1
  O  O28  1  0.03654200  0.47537000  0.61998900  1
  O  O29  1  0.96345800  0.52463000  0.38001100  1
  O  O30  1  0.40094200  0.62254800  0.65067800  1
  O  O31  1  0.59905800  0.37745200  0.34932200  1
  O  O32  1  0.37745200  0.59905800  0.84932200  1
  O  O33  1  0.62254800  0.40094200  0.15067800  1
  O  O34  1  0.13573500  0.05348300  0.91605200  1
  O  O35  1  0.86426500  0.94651700  0.08394800  1
  O  O36  1  0.94651700  0.86426500  0.58394800  1
  O  O37  1  0.05348300  0.13573500  0.41605200  1
  O  O38  1  0.60225700  0.16442400  0.55142900  1
  O  O39  1  0.39774300  0.83557600  0.44857100  1
  O  O40  1  0.83557600  0.39774300  0.94857100  1
  O  O41  1  0.16442400  0.60225700  0.05142900  1
  O  O42  1  0.74172700  0.25827300  0.75000000  1
  O  O43  1  0.25827300  0.74172700  0.25000000  1
  O  O44  1  0.28287100  0.15265000  0.48515500  1
  O  O45  1  0.71712900  0.84735000  0.51484500  1
  O  O46  1  0.84735000  0.71712900  0.01484500  1
  O  O47  1  0.15265000  0.28287100  0.98515500  1
