# generated using pymatgen
data_NaTh2(PO4)3
_symmetry_space_group_name_H-M   'P 1'
_cell_length_a   9.45044192
_cell_length_b   9.45044192
_cell_length_c   8.23516905
_cell_angle_alpha   79.67647472
_cell_angle_beta   79.67647472
_cell_angle_gamma   42.56847198
_symmetry_Int_Tables_number   1
_chemical_formula_structural   NaTh2(PO4)3
_chemical_formula_sum   'Na2 Th4 P6 O24'
_cell_volume   488.24917216
_cell_formula_units_Z   2
loop_
 _symmetry_equiv_pos_site_id
 _symmetry_equiv_pos_as_xyz
  1  'x, y, z'
loop_
 _atom_site_type_symbol
 _atom_site_label
 _atom_site_symmetry_multiplicity
 _atom_site_fract_x
 _atom_site_fract_y
 _atom_site_fract_z
 _atom_site_occupancy
  Na  Na0  1  0.60311000  0.39689000  0.25000000  1
  Na  Na1  1  0.39689000  0.60311000  0.75000000  1
  Th  Th2  1  0.75162900  0.94201700  0.03581200  1
  Th  Th3  1  0.24837100  0.05798300  0.96418800  1
  Th  Th4  1  0.05798300  0.24837100  0.46418800  1
  Th  Th5  1  0.94201700  0.75162900  0.53581200  1
  P  P6  1  0.59969200  0.77949800  0.31285100  1
  P  P7  1  0.40030800  0.22050200  0.68714900  1
  P  P8  1  0.22050200  0.40030800  0.18714900  1
  P  P9  1  0.77949800  0.59969200  0.81285100  1
  P  P10  1  0.09863200  0.90136800  0.25000000  1
  P  P11  1  0.90136800  0.09863200  0.75000000  1
  O  O12  1  0.45424300  0.26933600  0.15898500  1
  O  O13  1  0.54575700  0.73066400  0.84101500  1
  O  O14  1  0.73066400  0.54575700  0.34101500  1
  O  O15  1  0.26933600  0.45424300  0.65898500  1
  O  O16  1  0.89259900  0.96426400  0.24829900  1
  O  O17  1  0.10740100  0.03573600  0.75170100  1
  O  O18  1  0.03573600  0.10740100  0.25170100  1
  O  O19  1  0.96426400  0.89259900  0.74829900  1
  O  O20  1  0.55400900  0.85203800  0.12433200  1
  O  O21  1  0.44599100  0.14796200  0.87566800  1
  O  O22  1  0.14796200  0.44599100  0.37566800  1
  O  O23  1  0.85203800  0.55400900  0.62433200  1
  O  O24  1  0.39448100  0.91306400  0.42254700  1
  O  O25  1  0.60551900  0.08693600  0.57745300  1
  O  O26  1  0.08693600  0.60551900  0.07745300  1
  O  O27  1  0.91306400  0.39448100  0.92254700  1
  O  O28  1  0.72539400  0.82445800  0.33074800  1
  O  O29  1  0.27460600  0.17554200  0.66925200  1
  O  O30  1  0.17554200  0.27460600  0.16925200  1
  O  O31  1  0.82445800  0.72539400  0.83074800  1
  O  O32  1  0.24808800  0.80146200  0.09208400  1
  O  O33  1  0.75191200  0.19853800  0.90791600  1
  O  O34  1  0.19853800  0.75191200  0.40791600  1
  O  O35  1  0.80146200  0.24808800  0.59208400  1
