# generated using pymatgen
data_Nb3TlCuCl9
_symmetry_space_group_name_H-M   'P 1'
_cell_length_a   9.37858242
_cell_length_b   9.40366484
_cell_length_c   9.38646769
_cell_angle_alpha   119.46482525
_cell_angle_beta   96.11559630
_cell_angle_gamma   105.21942001
_symmetry_Int_Tables_number   1
_chemical_formula_structural   Nb3TlCuCl9
_chemical_formula_sum   'Nb6 Tl2 Cu2 Cl18'
_cell_volume   667.54794039
_cell_formula_units_Z   2
loop_
 _symmetry_equiv_pos_site_id
 _symmetry_equiv_pos_as_xyz
  1  'x, y, z'
loop_
 _atom_site_type_symbol
 _atom_site_label
 _atom_site_symmetry_multiplicity
 _atom_site_fract_x
 _atom_site_fract_y
 _atom_site_fract_z
 _atom_site_occupancy
  Nb  Nb0  1  0.85828100  0.97964700  0.79942200  1
  Nb  Nb1  1  0.14171900  0.02035300  0.20057800  1
  Nb  Nb2  1  0.13344900  0.89320000  0.84309100  1
  Nb  Nb3  1  0.86655100  0.10680000  0.15690900  1
  Nb  Nb4  1  0.86026300  0.75037100  0.92656400  1
  Nb  Nb5  1  0.13973700  0.24962900  0.07343600  1
  Tl  Tl6  1  0.33974400  0.48170400  0.76699800  1
  Tl  Tl7  1  0.66025600  0.51829600  0.23300200  1
  Cu  Cu8  1  0.37975600  0.80998100  0.44988700  1
  Cu  Cu9  1  0.62024400  0.19001900  0.55011300  1
  Cl  Cl10  1  0.66875300  0.67935800  0.67467900  1
  Cl  Cl11  1  0.33124700  0.32064200  0.32532100  1
  Cl  Cl12  1  0.66981100  0.42744800  0.82832800  1
  Cl  Cl13  1  0.33018900  0.57255200  0.17167200  1
  Cl  Cl14  1  0.67747300  0.82963400  0.09866800  1
  Cl  Cl15  1  0.32252700  0.17036600  0.90133200  1
  Cl  Cl16  1  0.99357300  0.58099100  0.73285300  1
  Cl  Cl17  1  0.00642700  0.41900900  0.26714700  1
  Cl  Cl18  1  0.98932800  0.84941700  0.57835300  1
  Cl  Cl19  1  0.01067200  0.15058300  0.42164700  1
  Cl  Cl20  1  0.66802400  0.94784900  0.53797300  1
  Cl  Cl21  1  0.33197600  0.05215100  0.46202700  1
  Cl  Cl22  1  0.30421400  0.75392900  0.64704000  1
  Cl  Cl23  1  0.69578600  0.24607100  0.35296000  1
  Cl  Cl24  1  0.67671300  0.10015100  0.94730400  1
  Cl  Cl25  1  0.32328700  0.89984900  0.05269600  1
  Cl  Cl26  1  0.99915000  0.26967500  0.84909700  1
  Cl  Cl27  1  0.00085000  0.73032500  0.15090300  1
