# generated using pymatgen
data_NaLaSiO4
_symmetry_space_group_name_H-M   'P 1'
_cell_length_a   5.50415500
_cell_length_b   7.14629400
_cell_length_c   9.61051700
_cell_angle_alpha   90.00000000
_cell_angle_beta   90.00000000
_cell_angle_gamma   90.00000000
_symmetry_Int_Tables_number   1
_chemical_formula_structural   NaLaSiO4
_chemical_formula_sum   'Na4 La4 Si4 O16'
_cell_volume   378.02305351
_cell_formula_units_Z   4
loop_
 _symmetry_equiv_pos_site_id
 _symmetry_equiv_pos_as_xyz
  1  'x, y, z'
loop_
 _atom_site_type_symbol
 _atom_site_label
 _atom_site_symmetry_multiplicity
 _atom_site_fract_x
 _atom_site_fract_y
 _atom_site_fract_z
 _atom_site_occupancy
  Na  Na0  1  0.25000000  0.66870100  0.92006000  1
  Na  Na1  1  0.75000000  0.33129900  0.07994000  1
  Na  Na2  1  0.75000000  0.83129900  0.42006000  1
  Na  Na3  1  0.25000000  0.16870100  0.57994000  1
  La  La4  1  0.25000000  0.99105300  0.19344600  1
  La  La5  1  0.75000000  0.00894700  0.80655400  1
  La  La6  1  0.75000000  0.50894700  0.69344600  1
  La  La7  1  0.25000000  0.49105300  0.30655400  1
  Si  Si8  1  0.25000000  0.73424000  0.58095100  1
  Si  Si9  1  0.75000000  0.26576000  0.41904900  1
  Si  Si10  1  0.75000000  0.76576000  0.08095100  1
  Si  Si11  1  0.25000000  0.23424000  0.91904900  1
  O  O12  1  0.00372600  0.80500100  0.66094400  1
  O  O13  1  0.99627400  0.19499900  0.33905600  1
  O  O14  1  0.99627400  0.69499900  0.16094400  1
  O  O15  1  0.50372600  0.19499900  0.33905600  1
  O  O16  1  0.00372600  0.30500100  0.83905600  1
  O  O17  1  0.49627400  0.80500100  0.66094400  1
  O  O18  1  0.49627400  0.30500100  0.83905600  1
  O  O19  1  0.50372600  0.69499900  0.16094400  1
  O  O20  1  0.25000000  0.50278800  0.57626100  1
  O  O21  1  0.75000000  0.49721200  0.42373900  1
  O  O22  1  0.75000000  0.99721200  0.07626100  1
  O  O23  1  0.25000000  0.00278800  0.92373900  1
  O  O24  1  0.25000000  0.31056600  0.08153200  1
  O  O25  1  0.75000000  0.68943400  0.91846800  1
  O  O26  1  0.75000000  0.18943400  0.58153200  1
  O  O27  1  0.25000000  0.81056600  0.41846800  1
