# generated using pymatgen
data_NdTl(WO4)2
_symmetry_space_group_name_H-M   'P 1'
_cell_length_a   5.29415700
_cell_length_b   8.32657300
_cell_length_c   19.04110000
_cell_angle_alpha   90.00000000
_cell_angle_beta   90.00000000
_cell_angle_gamma   90.00000000
_symmetry_Int_Tables_number   1
_chemical_formula_structural   NdTl(WO4)2
_chemical_formula_sum   'Nd4 Tl4 W8 O32'
_cell_volume   839.37328774
_cell_formula_units_Z   4
loop_
 _symmetry_equiv_pos_site_id
 _symmetry_equiv_pos_as_xyz
  1  'x, y, z'
loop_
 _atom_site_type_symbol
 _atom_site_label
 _atom_site_symmetry_multiplicity
 _atom_site_fract_x
 _atom_site_fract_y
 _atom_site_fract_z
 _atom_site_occupancy
  Nd  Nd0  1  0.00000000  0.75000000  0.99307800  1
  Nd  Nd1  1  0.00000000  0.25000000  0.00692200  1
  Nd  Nd2  1  0.50000000  0.25000000  0.50692200  1
  Nd  Nd3  1  0.50000000  0.75000000  0.49307800  1
  Tl  Tl4  1  0.00000000  0.75000000  0.23045600  1
  Tl  Tl5  1  0.00000000  0.25000000  0.76954400  1
  Tl  Tl6  1  0.50000000  0.25000000  0.26954400  1
  Tl  Tl7  1  0.50000000  0.75000000  0.73045600  1
  W  W8  1  0.97868200  0.98249500  0.60068900  1
  W  W9  1  0.02131800  0.01750500  0.39931100  1
  W  W10  1  0.52131800  0.48249500  0.89931100  1
  W  W11  1  0.02131800  0.51750500  0.60068900  1
  W  W12  1  0.47868200  0.51750500  0.10068900  1
  W  W13  1  0.97868200  0.48249500  0.39931100  1
  W  W14  1  0.47868200  0.01750500  0.89931100  1
  W  W15  1  0.52131800  0.98249500  0.10068900  1
  O  O16  1  0.89795900  0.52459300  0.68785000  1
  O  O17  1  0.10204100  0.47540700  0.31215000  1
  O  O18  1  0.60204100  0.02459300  0.81215000  1
  O  O19  1  0.10204100  0.97540700  0.68785000  1
  O  O20  1  0.39795900  0.97540700  0.18785000  1
  O  O21  1  0.89795900  0.02459300  0.31215000  1
  O  O22  1  0.39795900  0.47540700  0.81215000  1
  O  O23  1  0.60204100  0.52459300  0.18785000  1
  O  O24  1  0.72445700  0.65825200  0.90110900  1
  O  O25  1  0.27554300  0.34174800  0.09889100  1
  O  O26  1  0.77554300  0.15825200  0.59889100  1
  O  O27  1  0.27554300  0.84174800  0.90110900  1
  O  O28  1  0.22445700  0.84174800  0.40110900  1
  O  O29  1  0.72445700  0.15825200  0.09889100  1
  O  O30  1  0.22445700  0.34174800  0.59889100  1
  O  O31  1  0.77554300  0.65825200  0.40110900  1
  O  O32  1  0.74424200  0.99666100  0.96442600  1
  O  O33  1  0.25575800  0.00333900  0.03557400  1
  O  O34  1  0.75575800  0.49666100  0.53557400  1
  O  O35  1  0.25575800  0.50333900  0.96442600  1
  O  O36  1  0.24424200  0.50333900  0.46442600  1
  O  O37  1  0.74424200  0.49666100  0.03557400  1
  O  O38  1  0.24424200  0.00333900  0.53557400  1
  O  O39  1  0.75575800  0.99666100  0.46442600  1
  O  O40  1  0.76128600  0.81094300  0.59208700  1
  O  O41  1  0.23871400  0.18905700  0.40791300  1
  O  O42  1  0.73871400  0.31094300  0.90791300  1
  O  O43  1  0.23871400  0.68905700  0.59208700  1
  O  O44  1  0.26128600  0.68905700  0.09208700  1
  O  O45  1  0.76128600  0.31094300  0.40791300  1
  O  O46  1  0.26128600  0.18905700  0.90791300  1
  O  O47  1  0.73871400  0.81094300  0.09208700  1
