# generated using pymatgen
data_Nb3Ga2Cl9
_symmetry_space_group_name_H-M   'P 1'
_cell_length_a   9.62568786
_cell_length_b   9.62568786
_cell_length_c   9.55053586
_cell_angle_alpha   76.98135254
_cell_angle_beta   76.98135254
_cell_angle_gamma   115.77914182
_symmetry_Int_Tables_number   1
_chemical_formula_structural   Nb3Ga2Cl9
_chemical_formula_sum   'Nb6 Ga4 Cl18'
_cell_volume   721.73331930
_cell_formula_units_Z   2
loop_
 _symmetry_equiv_pos_site_id
 _symmetry_equiv_pos_as_xyz
  1  'x, y, z'
loop_
 _atom_site_type_symbol
 _atom_site_label
 _atom_site_symmetry_multiplicity
 _atom_site_fract_x
 _atom_site_fract_y
 _atom_site_fract_z
 _atom_site_occupancy
  Nb  Nb0  1  0.62031000  0.62031000  0.13020300  1
  Nb  Nb1  1  0.37969000  0.37969000  0.86979700  1
  Nb  Nb2  1  0.45585000  0.27608700  0.14339000  1
  Nb  Nb3  1  0.54415000  0.72391300  0.85661000  1
  Nb  Nb4  1  0.72391300  0.54415000  0.85661000  1
  Nb  Nb5  1  0.27608700  0.45585000  0.14339000  1
  Ga  Ga6  1  0.72067900  0.04496100  0.33629700  1
  Ga  Ga7  1  0.27932100  0.95503900  0.66370300  1
  Ga  Ga8  1  0.95503900  0.27932100  0.66370300  1
  Ga  Ga9  1  0.04496100  0.72067900  0.33629700  1
  Cl  Cl10  1  0.71289300  0.28710700  0.00000000  1
  Cl  Cl11  1  0.28710700  0.71289300  0.00000000  1
  Cl  Cl12  1  0.39739600  0.98915400  0.33561800  1
  Cl  Cl13  1  0.60260400  0.01084600  0.66438200  1
  Cl  Cl14  1  0.01084600  0.60260400  0.66438200  1
  Cl  Cl15  1  0.98915400  0.39739600  0.33561800  1
  Cl  Cl16  1  0.30722600  0.09387100  0.01661300  1
  Cl  Cl17  1  0.69277400  0.90612900  0.98338700  1
  Cl  Cl18  1  0.90612900  0.69277400  0.98338700  1
  Cl  Cl19  1  0.09387100  0.30722600  0.01661300  1
  Cl  Cl20  1  0.77356600  0.77356600  0.29215200  1
  Cl  Cl21  1  0.22643400  0.22643400  0.70784800  1
  Cl  Cl22  1  0.82020500  0.82020500  0.66521100  1
  Cl  Cl23  1  0.17979500  0.17979500  0.33478900  1
  Cl  Cl24  1  0.58862100  0.37615900  0.32113700  1
  Cl  Cl25  1  0.41137900  0.62384100  0.67886300  1
  Cl  Cl26  1  0.62384100  0.41137900  0.67886300  1
  Cl  Cl27  1  0.37615900  0.58862100  0.32113700  1
