# generated using pymatgen
data_PbWO2
_symmetry_space_group_name_H-M   'P 1'
_cell_length_a   7.89100545
_cell_length_b   7.89100545
_cell_length_c   7.89100545
_cell_angle_alpha   131.08620426
_cell_angle_beta   131.08620426
_cell_angle_gamma   71.67615433
_symmetry_Int_Tables_number   1
_chemical_formula_structural   PbWO2
_chemical_formula_sum   'Pb4 W4 O8'
_cell_volume   273.10046393
_cell_formula_units_Z   4
loop_
 _symmetry_equiv_pos_site_id
 _symmetry_equiv_pos_as_xyz
  1  'x, y, z'
loop_
 _atom_site_type_symbol
 _atom_site_label
 _atom_site_symmetry_multiplicity
 _atom_site_fract_x
 _atom_site_fract_y
 _atom_site_fract_z
 _atom_site_occupancy
  Pb  Pb0  1  0.87500000  0.62500000  0.25000000  1
  Pb  Pb1  1  0.37500000  0.62500000  0.75000000  1
  Pb  Pb2  1  0.37500000  0.62500000  0.25000000  1
  Pb  Pb3  1  0.37500000  0.12500000  0.75000000  1
  W  W4  1  0.37500000  0.12500000  0.25000000  1
  W  W5  1  0.87500000  0.12500000  0.75000000  1
  W  W6  1  0.87500000  0.12500000  0.25000000  1
  W  W7  1  0.87500000  0.62500000  0.75000000  1
  O  O8  1  0.17556500  0.37517500  0.19961000  1
  O  O9  1  0.17556500  0.97595500  0.80039000  1
  O  O10  1  0.12517500  0.42556500  0.69961000  1
  O  O11  1  0.57443500  0.87482500  0.30039000  1
  O  O12  1  0.72595500  0.42556500  0.30039000  1
  O  O13  1  0.57443500  0.27404500  0.69961000  1
  O  O14  1  0.62482500  0.82443500  0.80039000  1
  O  O15  1  0.02404500  0.82443500  0.19961000  1
