# generated using pymatgen
data_Na3Sm2(SiSe3)2
_symmetry_space_group_name_H-M   'P 1'
_cell_length_a   7.33953407
_cell_length_b   7.33953407
_cell_length_c   7.67634008
_cell_angle_alpha   80.81250291
_cell_angle_beta   80.81250291
_cell_angle_gamma   119.92282476
_symmetry_Int_Tables_number   1
_chemical_formula_structural   Na3Sm2(SiSe3)2
_chemical_formula_sum   'Na3 Sm2 Si2 Se6'
_cell_volume   339.67315431
_cell_formula_units_Z   1
loop_
 _symmetry_equiv_pos_site_id
 _symmetry_equiv_pos_as_xyz
  1  'x, y, z'
loop_
 _atom_site_type_symbol
 _atom_site_label
 _atom_site_symmetry_multiplicity
 _atom_site_fract_x
 _atom_site_fract_y
 _atom_site_fract_z
 _atom_site_occupancy
  Na  Na0  1  0.00000000  0.00000000  0.00000000  1
  Na  Na1  1  0.67099000  0.32901000  0.00000000  1
  Na  Na2  1  0.32901000  0.67099000  0.00000000  1
  Sm  Sm3  1  0.83412900  0.16587100  0.50000000  1
  Sm  Sm4  1  0.16587100  0.83412900  0.50000000  1
  Si  Si5  1  0.55619100  0.55619100  0.33028600  1
  Si  Si6  1  0.44380900  0.44380900  0.66971400  1
  Se  Se7  1  0.23434300  0.23434300  0.26232500  1
  Se  Se8  1  0.76565700  0.76565700  0.73767500  1
  Se  Se9  1  0.57760200  0.92186400  0.26530200  1
  Se  Se10  1  0.42239800  0.07813600  0.73469800  1
  Se  Se11  1  0.07813600  0.42239800  0.73469800  1
  Se  Se12  1  0.92186400  0.57760200  0.26530200  1
