# generated using pymatgen
data_Na4W4O15
_symmetry_space_group_name_H-M   'P 1'
_cell_length_a   5.29731200
_cell_length_b   7.73992006
_cell_length_c   8.92151052
_cell_angle_alpha   112.86404599
_cell_angle_beta   96.30716677
_cell_angle_gamma   92.84355576
_symmetry_Int_Tables_number   1
_chemical_formula_structural   Na4W4O15
_chemical_formula_sum   'Na4 W4 O15'
_cell_volume   333.30307315
_cell_formula_units_Z   1
loop_
 _symmetry_equiv_pos_site_id
 _symmetry_equiv_pos_as_xyz
  1  'x, y, z'
loop_
 _atom_site_type_symbol
 _atom_site_label
 _atom_site_symmetry_multiplicity
 _atom_site_fract_x
 _atom_site_fract_y
 _atom_site_fract_z
 _atom_site_occupancy
  Na  Na0  1  0.73053500  0.22593800  0.12546200  1
  Na  Na1  1  0.26946500  0.77406200  0.87453800  1
  Na  Na2  1  0.32607800  0.51494500  0.31127600  1
  Na  Na3  1  0.67392200  0.48505500  0.68872400  1
  W  W4  1  0.34978300  0.03511800  0.34429000  1
  W  W5  1  0.65021700  0.96488200  0.65571000  1
  W  W6  1  0.18487200  0.23339100  0.81467700  1
  W  W7  1  0.81512800  0.76660900  0.18532300  1
  O  O8  1  0.33641600  0.08515800  0.57554300  1
  O  O9  1  0.66358400  0.91484200  0.42445700  1
  O  O10  1  0.01237500  0.06144900  0.27510000  1
  O  O11  1  0.98762500  0.93855100  0.72490000  1
  O  O12  1  0.00000000  0.00000000  0.00000000  1
  O  O13  1  0.13245500  0.30956300  0.02604200  1
  O  O14  1  0.86754500  0.69043700  0.97395800  1
  O  O15  1  0.48778300  0.26641700  0.37494800  1
  O  O16  1  0.51221700  0.73358300  0.62505200  1
  O  O17  1  0.67601400  0.55404200  0.19001700  1
  O  O18  1  0.32398600  0.44595800  0.80998300  1
  O  O19  1  0.49351600  0.09845500  0.85007900  1
  O  O20  1  0.50648400  0.90154500  0.14992100  1
  O  O21  1  0.14396100  0.76711900  0.29355100  1
  O  O22  1  0.85603900  0.23288100  0.70644900  1
