# generated using pymatgen
data_NaPO4
_symmetry_space_group_name_H-M   'P 1'
_cell_length_a   13.78332100
_cell_length_b   7.06279700
_cell_length_c   7.23648232
_cell_angle_alpha   87.78183693
_cell_angle_beta   90.00000000
_cell_angle_gamma   90.00000000
_symmetry_Int_Tables_number   1
_chemical_formula_structural   NaPO4
_chemical_formula_sum   'Na8 P8 O32'
_cell_volume   703.93500078
_cell_formula_units_Z   8
loop_
 _symmetry_equiv_pos_site_id
 _symmetry_equiv_pos_as_xyz
  1  'x, y, z'
loop_
 _atom_site_type_symbol
 _atom_site_label
 _atom_site_symmetry_multiplicity
 _atom_site_fract_x
 _atom_site_fract_y
 _atom_site_fract_z
 _atom_site_occupancy
  Na  Na0  1  0.60012800  0.83153700  0.70071100  1
  Na  Na1  1  0.39987200  0.16846300  0.29928900  1
  Na  Na2  1  0.10012800  0.16846300  0.79928900  1
  Na  Na3  1  0.89987200  0.83153700  0.20071100  1
  Na  Na4  1  0.10483200  0.64070200  0.50441300  1
  Na  Na5  1  0.89516800  0.35929800  0.49558700  1
  Na  Na6  1  0.60483200  0.35929800  0.99558700  1
  Na  Na7  1  0.39516800  0.64070200  0.00441300  1
  P  P8  1  0.37041800  0.67870900  0.51526100  1
  P  P9  1  0.62958200  0.32129100  0.48473900  1
  P  P10  1  0.87041800  0.32129100  0.98473900  1
  P  P11  1  0.12958200  0.67870900  0.01526100  1
  P  P12  1  0.87338300  0.84432500  0.64231100  1
  P  P13  1  0.12661700  0.15567500  0.35768900  1
  P  P14  1  0.37338300  0.15567500  0.85768900  1
  P  P15  1  0.62661700  0.84432500  0.14231100  1
  O  O16  1  0.27235800  0.58486100  0.56893000  1
  O  O17  1  0.72764200  0.41513900  0.43107000  1
  O  O18  1  0.77235800  0.41513900  0.93107000  1
  O  O19  1  0.22764200  0.58486100  0.06893000  1
  O  O20  1  0.44414900  0.66578000  0.67297000  1
  O  O21  1  0.55585100  0.33422000  0.32703000  1
  O  O22  1  0.94414900  0.33422000  0.82703000  1
  O  O23  1  0.05585100  0.66578000  0.17297000  1
  O  O24  1  0.09963700  0.57048500  0.84243900  1
  O  O25  1  0.90036300  0.42951500  0.15756100  1
  O  O26  1  0.59963700  0.42951500  0.65756100  1
  O  O27  1  0.40036300  0.57048500  0.34243900  1
  O  O28  1  0.94601600  0.89538000  0.79787000  1
  O  O29  1  0.05398400  0.10462000  0.20213000  1
  O  O30  1  0.44601600  0.10462000  0.70213000  1
  O  O31  1  0.55398400  0.89538000  0.29787000  1
  O  O32  1  0.92635100  0.69295000  0.53285400  1
  O  O33  1  0.07364900  0.30705000  0.46714600  1
  O  O34  1  0.42635100  0.30705000  0.96714600  1
  O  O35  1  0.57364900  0.69295000  0.03285400  1
  O  O36  1  0.77552100  0.77715500  0.72222000  1
  O  O37  1  0.22447900  0.22284500  0.27778000  1
  O  O38  1  0.27552100  0.22284500  0.77778000  1
  O  O39  1  0.72447900  0.77715500  0.22222000  1
  O  O40  1  0.14698300  0.88904400  0.96170300  1
  O  O41  1  0.85301700  0.11095600  0.03829700  1
  O  O42  1  0.64698300  0.11095600  0.53829700  1
  O  O43  1  0.35301700  0.88904400  0.46170300  1
  O  O44  1  0.35355600  0.97868300  0.98289000  1
  O  O45  1  0.64644400  0.02131700  0.01711000  1
  O  O46  1  0.85355600  0.02131700  0.51711000  1
  O  O47  1  0.14644400  0.97868300  0.48289000  1
