# generated using pymatgen
data_Nd2PdO4
_symmetry_space_group_name_H-M   'P 1'
_cell_length_a   7.02076424
_cell_length_b   7.02076424
_cell_length_c   7.02076424
_cell_angle_alpha   60.00000000
_cell_angle_beta   60.00000000
_cell_angle_gamma   60.00000000
_symmetry_Int_Tables_number   1
_chemical_formula_structural   Nd2PdO4
_chemical_formula_sum   'Nd4 Pd2 O8'
_cell_volume   244.70236674
_cell_formula_units_Z   2
loop_
 _symmetry_equiv_pos_site_id
 _symmetry_equiv_pos_as_xyz
  1  'x, y, z'
loop_
 _atom_site_type_symbol
 _atom_site_label
 _atom_site_symmetry_multiplicity
 _atom_site_fract_x
 _atom_site_fract_y
 _atom_site_fract_z
 _atom_site_occupancy
  Nd  Nd0  1  0.62500000  0.12500000  0.12500000  1
  Nd  Nd1  1  0.12500000  0.62500000  0.12500000  1
  Nd  Nd2  1  0.12500000  0.12500000  0.62500000  1
  Nd  Nd3  1  0.12500000  0.12500000  0.12500000  1
  Pd  Pd4  1  0.75000000  0.75000000  0.75000000  1
  Pd  Pd5  1  0.50000000  0.50000000  0.50000000  1
  O  O6  1  0.88430800  0.88430800  0.88430800  1
  O  O7  1  0.88430800  0.88430800  0.34707600  1
  O  O8  1  0.90292400  0.36569200  0.36569200  1
  O  O9  1  0.36569200  0.36569200  0.36569200  1
  O  O10  1  0.36569200  0.90292400  0.36569200  1
  O  O11  1  0.36569200  0.36569200  0.90292400  1
  O  O12  1  0.34707600  0.88430800  0.88430800  1
  O  O13  1  0.88430800  0.34707600  0.88430800  1
