# generated using pymatgen
data_Sm2Se3O20
_symmetry_space_group_name_H-M   'P 1'
_cell_length_a   6.79147500
_cell_length_b   7.79312032
_cell_length_c   20.37622783
_cell_angle_alpha   102.61778166
_cell_angle_beta   90.00000000
_cell_angle_gamma   115.83209451
_symmetry_Int_Tables_number   1
_chemical_formula_structural   Sm2Se3O20
_chemical_formula_sum   'Sm4 Se6 O40'
_cell_volume   941.66250432
_cell_formula_units_Z   2
loop_
 _symmetry_equiv_pos_site_id
 _symmetry_equiv_pos_as_xyz
  1  'x, y, z'
loop_
 _atom_site_type_symbol
 _atom_site_label
 _atom_site_symmetry_multiplicity
 _atom_site_fract_x
 _atom_site_fract_y
 _atom_site_fract_z
 _atom_site_occupancy
  Sm  Sm0  1  0.83858700  0.71319800  0.60993700  1
  Sm  Sm1  1  0.16141300  0.28680200  0.39006300  1
  Sm  Sm2  1  0.12538900  0.28680200  0.89006300  1
  Sm  Sm3  1  0.87461100  0.71319800  0.10993700  1
  Se  Se4  1  0.76627300  0.57826100  0.91642700  1
  Se  Se5  1  0.23372700  0.42173900  0.08357300  1
  Se  Se6  1  0.18801200  0.42173900  0.58357300  1
  Se  Se7  1  0.81198800  0.57826100  0.41642700  1
  Se  Se8  1  0.72834100  0.00000000  0.75000000  1
  Se  Se9  1  0.27165900  0.00000000  0.25000000  1
  O  O10  1  0.30596300  0.63584300  0.84809600  1
  O  O11  1  0.69403700  0.36415700  0.15190400  1
  O  O12  1  0.67012000  0.36415700  0.65190400  1
  O  O13  1  0.32988000  0.63584300  0.34809600  1
  O  O14  1  0.37135600  0.73823300  0.90668400  1
  O  O15  1  0.62864400  0.26176700  0.09331600  1
  O  O16  1  0.63312400  0.26176700  0.59331600  1
  O  O17  1  0.36687600  0.73823300  0.40668400  1
  O  O18  1  0.50788700  0.40929400  0.88850700  1
  O  O19  1  0.49211300  0.59070600  0.11149300  1
  O  O20  1  0.09859200  0.59070600  0.61149300  1
  O  O21  1  0.90140800  0.40929400  0.38850700  1
  O  O22  1  0.78243000  0.69710900  0.99678500  1
  O  O23  1  0.21757000  0.30289100  0.00321500  1
  O  O24  1  0.08532100  0.30289100  0.50321500  1
  O  O25  1  0.91467900  0.69710900  0.49678500  1
  O  O26  1  0.56915900  0.97221500  0.81391100  1
  O  O27  1  0.43084100  0.02778500  0.18608900  1
  O  O28  1  0.59694300  0.02778500  0.68608900  1
  O  O29  1  0.40305700  0.97221500  0.31391100  1
  O  O30  1  0.83879700  0.73352900  0.86410000  1
  O  O31  1  0.16120300  0.26647100  0.13590000  1
  O  O32  1  0.10526800  0.26647100  0.63590000  1
  O  O33  1  0.89473200  0.73352900  0.36410000  1
  O  O34  1  0.46113200  0.53679000  0.58438300  1
  O  O35  1  0.53886800  0.46321000  0.41561700  1
  O  O36  1  0.92434200  0.46321000  0.91561700  1
  O  O37  1  0.07565800  0.53679000  0.08438300  1
  O  O38  1  0.16751100  0.98058300  0.87650900  1
  O  O39  1  0.83248900  0.01941700  0.12349100  1
  O  O40  1  0.18692900  0.01941700  0.62349100  1
  O  O41  1  0.81307100  0.98058300  0.37650900  1
  O  O42  1  0.75742400  0.97543800  0.59528300  1
  O  O43  1  0.24257600  0.02456200  0.40471700  1
  O  O44  1  0.78198700  0.02456200  0.90471700  1
  O  O45  1  0.21801300  0.97543800  0.09528300  1
  O  O46  1  0.78153600  0.80586000  0.72061800  1
  O  O47  1  0.21846400  0.19414000  0.27938200  1
  O  O48  1  0.97567600  0.19414000  0.77938200  1
  O  O49  1  0.02432400  0.80586000  0.22061800  1
