# generated using pymatgen
data_NaMnH2C3O7
_symmetry_space_group_name_H-M   'P 1'
_cell_length_a   6.01195465
_cell_length_b   7.47519343
_cell_length_c   16.05380200
_cell_angle_alpha   90.00000000
_cell_angle_beta   90.00000000
_cell_angle_gamma   101.09691416
_symmetry_Int_Tables_number   1
_chemical_formula_structural   NaMnH2C3O7
_chemical_formula_sum   'Na4 Mn4 H8 C12 O28'
_cell_volume   707.97703984
_cell_formula_units_Z   4
loop_
 _symmetry_equiv_pos_site_id
 _symmetry_equiv_pos_as_xyz
  1  'x, y, z'
loop_
 _atom_site_type_symbol
 _atom_site_label
 _atom_site_symmetry_multiplicity
 _atom_site_fract_x
 _atom_site_fract_y
 _atom_site_fract_z
 _atom_site_occupancy
  Na  Na0  1  0.96791100  0.79641800  0.32072800  1
  Na  Na1  1  0.03208900  0.20358200  0.67927200  1
  Na  Na2  1  0.03208900  0.70358200  0.82072800  1
  Na  Na3  1  0.96791100  0.29641800  0.17927200  1
  Mn  Mn4  1  0.22693500  0.78837400  0.60331300  1
  Mn  Mn5  1  0.77306500  0.21162600  0.39668700  1
  Mn  Mn6  1  0.77306500  0.71162600  0.10331300  1
  Mn  Mn7  1  0.22693500  0.28837400  0.89668700  1
  H  H8  1  0.45212700  0.64637500  0.88578100  1
  H  H9  1  0.54787300  0.35362500  0.11421900  1
  H  H10  1  0.54787300  0.85362500  0.38578100  1
  H  H11  1  0.45212700  0.14637500  0.61421900  1
  H  H12  1  0.67753900  0.86127400  0.47463000  1
  H  H13  1  0.32246100  0.13872600  0.52537000  1
  H  H14  1  0.32246100  0.63872600  0.97463000  1
  H  H15  1  0.67753900  0.36127400  0.02537000  1
  C  C16  1  0.55637400  0.75243700  0.73701000  1
  C  C17  1  0.44362600  0.24756300  0.26299000  1
  C  C18  1  0.44362600  0.74756300  0.23701000  1
  C  C19  1  0.55637400  0.25243700  0.76299000  1
  C  C20  1  0.70634100  0.79578700  0.65738700  1
  C  C21  1  0.29365900  0.20421300  0.34261300  1
  C  C22  1  0.29365900  0.70421300  0.15738700  1
  C  C23  1  0.70634100  0.29578700  0.84261300  1
  C  C24  1  0.99566700  0.93064100  0.96404200  1
  C  C25  1  0.00433300  0.06935900  0.03595800  1
  C  C26  1  0.00433300  0.56935900  0.46404200  1
  C  C27  1  0.99566700  0.43064100  0.53595800  1
  O  O28  1  0.68800500  0.90967100  0.41714700  1
  O  O29  1  0.31199500  0.09032900  0.58285300  1
  O  O30  1  0.31199500  0.59032900  0.91714700  1
  O  O31  1  0.68800500  0.40967100  0.08285300  1
  O  O32  1  0.91949700  0.83493100  0.66820300  1
  O  O33  1  0.08050300  0.16506900  0.33179700  1
  O  O34  1  0.08050300  0.66506900  0.16820300  1
  O  O35  1  0.91949700  0.33493100  0.83179700  1
  O  O36  1  0.89400800  0.76809800  0.97734300  1
  O  O37  1  0.10599200  0.23190200  0.02265700  1
  O  O38  1  0.10599200  0.73190200  0.47734300  1
  O  O39  1  0.89400800  0.26809800  0.52265700  1
  O  O40  1  0.90792900  0.51116400  0.39635800  1
  O  O41  1  0.09207100  0.48883600  0.60364200  1
  O  O42  1  0.09207100  0.98883600  0.89635800  1
  O  O43  1  0.90792900  0.01116400  0.10364200  1
  O  O44  1  0.34842300  0.76295600  0.72840900  1
  O  O45  1  0.65157700  0.23704400  0.27159100  1
  O  O46  1  0.65157700  0.73704400  0.22840900  1
  O  O47  1  0.34842300  0.26295600  0.77159100  1
  O  O48  1  0.64631100  0.70915500  0.80305000  1
  O  O49  1  0.35368900  0.29084500  0.19695000  1
  O  O50  1  0.35368900  0.79084500  0.30305000  1
  O  O51  1  0.64631100  0.20915500  0.69695000  1
  O  O52  1  0.60111100  0.78873700  0.58846600  1
  O  O53  1  0.39888900  0.21126300  0.41153400  1
  O  O54  1  0.39888900  0.71126300  0.08846600  1
  O  O55  1  0.60111100  0.28873700  0.91153400  1
