# generated using pymatgen
data_NaCu2(SeO5)2
_symmetry_space_group_name_H-M   'P 1'
_cell_length_a   5.63485292
_cell_length_b   5.63485292
_cell_length_c   8.39373628
_cell_angle_alpha   63.53894136
_cell_angle_beta   63.53894136
_cell_angle_gamma   66.60805793
_symmetry_Int_Tables_number   1
_chemical_formula_structural   NaCu2(SeO5)2
_chemical_formula_sum   'Na1 Cu2 Se2 O10'
_cell_volume   206.94491218
_cell_formula_units_Z   1
loop_
 _symmetry_equiv_pos_site_id
 _symmetry_equiv_pos_as_xyz
  1  'x, y, z'
loop_
 _atom_site_type_symbol
 _atom_site_label
 _atom_site_symmetry_multiplicity
 _atom_site_fract_x
 _atom_site_fract_y
 _atom_site_fract_z
 _atom_site_occupancy
  Na  Na0  1  0.00000000  0.00000000  0.00000000  1
  Cu  Cu1  1  0.50000000  0.00000000  0.50000000  1
  Cu  Cu2  1  0.00000000  0.50000000  0.50000000  1
  Se  Se3  1  0.58417900  0.58417900  0.20857800  1
  Se  Se4  1  0.41582100  0.41582100  0.79142200  1
  O  O5  1  0.28912500  0.28912500  0.02104000  1
  O  O6  1  0.71087500  0.71087500  0.97896000  1
  O  O7  1  0.68942900  0.68942900  0.31651700  1
  O  O8  1  0.31057100  0.31057100  0.68348300  1
  O  O9  1  0.68778700  0.23292700  0.26852900  1
  O  O10  1  0.31221300  0.76707300  0.73147100  1
  O  O11  1  0.76707300  0.31221300  0.73147100  1
  O  O12  1  0.23292700  0.68778700  0.26852900  1
  O  O13  1  0.82025400  0.82025400  0.54635800  1
  O  O14  1  0.17974600  0.17974600  0.45364200  1
