# generated using pymatgen
data_Na5PrO6
_symmetry_space_group_name_H-M   'P 1'
_cell_length_a   6.02729042
_cell_length_b   6.02729042
_cell_length_c   11.36384490
_cell_angle_alpha   94.75957838
_cell_angle_beta   94.75957838
_cell_angle_gamma   120.27332728
_symmetry_Int_Tables_number   1
_chemical_formula_structural   Na5PrO6
_chemical_formula_sum   'Na10 Pr2 O12'
_cell_volume   351.54610052
_cell_formula_units_Z   2
loop_
 _symmetry_equiv_pos_site_id
 _symmetry_equiv_pos_as_xyz
  1  'x, y, z'
loop_
 _atom_site_type_symbol
 _atom_site_label
 _atom_site_symmetry_multiplicity
 _atom_site_fract_x
 _atom_site_fract_y
 _atom_site_fract_z
 _atom_site_occupancy
  Na  Na0  1  0.58007800  0.41992200  0.75000000  1
  Na  Na1  1  0.41992200  0.58007800  0.25000000  1
  Na  Na2  1  0.91610400  0.08389600  0.75000000  1
  Na  Na3  1  0.08389600  0.91610400  0.25000000  1
  Na  Na4  1  0.50000000  0.00000000  0.50000000  1
  Na  Na5  1  0.00000000  0.50000000  0.00000000  1
  Na  Na6  1  0.67374000  0.82577100  0.99768200  1
  Na  Na7  1  0.32626000  0.17422900  0.00231800  1
  Na  Na8  1  0.17422900  0.32626000  0.50231800  1
  Na  Na9  1  0.82577100  0.67374000  0.49768200  1
  Pr  Pr10  1  0.24748000  0.75252000  0.75000000  1
  Pr  Pr11  1  0.75252000  0.24748000  0.25000000  1
  O  O12  1  0.59968000  0.10615300  0.86875000  1
  O  O13  1  0.40032000  0.89384700  0.13125000  1
  O  O14  1  0.89384700  0.40032000  0.63125000  1
  O  O15  1  0.10615300  0.59968000  0.36875000  1
  O  O16  1  0.52201700  0.71103500  0.63031900  1
  O  O17  1  0.47798300  0.28896500  0.36968100  1
  O  O18  1  0.28896500  0.47798300  0.86968100  1
  O  O19  1  0.71103500  0.52201700  0.13031900  1
  O  O20  1  0.79229900  0.97430200  0.37118500  1
  O  O21  1  0.20770100  0.02569800  0.62881500  1
  O  O22  1  0.02569800  0.20770100  0.12881500  1
  O  O23  1  0.97430200  0.79229900  0.87118500  1
