# generated using pymatgen
data_Na3MoO4
_symmetry_space_group_name_H-M   'P 1'
_cell_length_a   5.66421000
_cell_length_b   6.21681100
_cell_length_c   7.46588000
_cell_angle_alpha   90.00000000
_cell_angle_beta   90.00000000
_cell_angle_gamma   90.00000000
_symmetry_Int_Tables_number   1
_chemical_formula_structural   Na3MoO4
_chemical_formula_sum   'Na6 Mo2 O8'
_cell_volume   262.89844418
_cell_formula_units_Z   2
loop_
 _symmetry_equiv_pos_site_id
 _symmetry_equiv_pos_as_xyz
  1  'x, y, z'
loop_
 _atom_site_type_symbol
 _atom_site_label
 _atom_site_symmetry_multiplicity
 _atom_site_fract_x
 _atom_site_fract_y
 _atom_site_fract_z
 _atom_site_occupancy
  Na  Na0  1  0.50416600  0.82817100  0.25580400  1
  Na  Na1  1  0.00416600  0.17182900  0.24419600  1
  Na  Na2  1  0.00416600  0.17182900  0.75580400  1
  Na  Na3  1  0.50416600  0.82817100  0.74419600  1
  Na  Na4  1  0.49974300  0.34081600  0.00000000  1
  Na  Na5  1  0.99974300  0.65918400  0.50000000  1
  Mo  Mo6  1  0.01450300  0.67521200  0.00000000  1
  Mo  Mo7  1  0.51450300  0.32478800  0.50000000  1
  O  O8  1  0.92016800  0.80464800  0.21535800  1
  O  O9  1  0.42016800  0.19535200  0.28464200  1
  O  O10  1  0.42016800  0.19535200  0.71535800  1
  O  O11  1  0.92016800  0.80464800  0.78464200  1
  O  O12  1  0.34442700  0.69202600  0.00000000  1
  O  O13  1  0.84442700  0.30797400  0.50000000  1
  O  O14  1  0.90556000  0.39008500  0.00000000  1
  O  O15  1  0.40556000  0.60991600  0.50000000  1
