# generated using pymatgen
data_Rb2Be2Cu(O3F4)2
_symmetry_space_group_name_H-M   'P 1'
_cell_length_a   6.17706443
_cell_length_b   8.44563323
_cell_length_c   11.68037600
_cell_angle_alpha   90.00000000
_cell_angle_beta   90.00000000
_cell_angle_gamma   102.85635057
_symmetry_Int_Tables_number   1
_chemical_formula_structural   Rb2Be2Cu(O3F4)2
_chemical_formula_sum   'Rb4 Be4 Cu2 O12 F16'
_cell_volume   594.08015753
_cell_formula_units_Z   2
loop_
 _symmetry_equiv_pos_site_id
 _symmetry_equiv_pos_as_xyz
  1  'x, y, z'
loop_
 _atom_site_type_symbol
 _atom_site_label
 _atom_site_symmetry_multiplicity
 _atom_site_fract_x
 _atom_site_fract_y
 _atom_site_fract_z
 _atom_site_occupancy
  Rb  Rb0  1  0.83916900  0.60745400  0.14420300  1
  Rb  Rb1  1  0.16083100  0.39254600  0.85579700  1
  Rb  Rb2  1  0.16083100  0.89254600  0.64420300  1
  Rb  Rb3  1  0.83916900  0.10745400  0.35579700  1
  Be  Be4  1  0.74552200  0.60523300  0.84329200  1
  Be  Be5  1  0.25447800  0.39476700  0.15670800  1
  Be  Be6  1  0.25447800  0.89476700  0.34329200  1
  Be  Be7  1  0.74552200  0.10523300  0.65670800  1
  Cu  Cu8  1  0.50000000  0.00000000  0.00000000  1
  Cu  Cu9  1  0.50000000  0.50000000  0.50000000  1
  O  O10  1  0.34121700  0.86182800  0.89570200  1
  O  O11  1  0.65878300  0.13817200  0.10429800  1
  O  O12  1  0.65878300  0.63817200  0.39570200  1
  O  O13  1  0.34121700  0.36182800  0.60429800  1
  O  O14  1  0.41157300  0.61524700  0.61597000  1
  O  O15  1  0.58842700  0.38475300  0.38403000  1
  O  O16  1  0.58842700  0.88475300  0.11597000  1
  O  O17  1  0.41157300  0.11524700  0.88403000  1
  O  O18  1  0.83051100  0.99447200  0.92752400  1
  O  O19  1  0.16948900  0.00552800  0.07247600  1
  O  O20  1  0.16948900  0.50552800  0.42752400  1
  O  O21  1  0.83051100  0.49447200  0.57247600  1
  F  F22  1  0.52585300  0.64305100  0.79952000  1
  F  F23  1  0.47414700  0.35694900  0.20048000  1
  F  F24  1  0.47414700  0.85694900  0.29952000  1
  F  F25  1  0.52585300  0.14305100  0.70048000  1
  F  F26  1  0.72078700  0.95707900  0.57859900  1
  F  F27  1  0.27921300  0.04292100  0.42140100  1
  F  F28  1  0.27921300  0.54292100  0.07859900  1
  F  F29  1  0.72078700  0.45707900  0.92140100  1
  F  F30  1  0.87640100  0.75777500  0.91950200  1
  F  F31  1  0.12359900  0.24222500  0.08049800  1
  F  F32  1  0.12359900  0.74222500  0.41950200  1
  F  F33  1  0.87640100  0.25777500  0.58049800  1
  F  F34  1  0.90558900  0.59162200  0.73891000  1
  F  F35  1  0.09441100  0.40837800  0.26109000  1
  F  F36  1  0.09441100  0.90837800  0.23891000  1
  F  F37  1  0.90558900  0.09162200  0.76109000  1
