# generated using pymatgen
data_Na3Sr2Ti3(Si2O9)2
_symmetry_space_group_name_H-M   'P 1'
_cell_length_a   10.55960300
_cell_length_b   10.55960300
_cell_length_c   5.43256419
_cell_angle_alpha   83.52939375
_cell_angle_beta   83.52939375
_cell_angle_gamma   39.65210266
_symmetry_Int_Tables_number   1
_chemical_formula_structural   Na3Sr2Ti3(Si2O9)2
_chemical_formula_sum   'Na3 Sr2 Ti3 Si4 O18'
_cell_volume   383.76611688
_cell_formula_units_Z   1
loop_
 _symmetry_equiv_pos_site_id
 _symmetry_equiv_pos_as_xyz
  1  'x, y, z'
loop_
 _atom_site_type_symbol
 _atom_site_label
 _atom_site_symmetry_multiplicity
 _atom_site_fract_x
 _atom_site_fract_y
 _atom_site_fract_z
 _atom_site_occupancy
  Na  Na0  1  0.75810800  0.24189200  0.50000000  1
  Na  Na1  1  0.24189200  0.75810800  0.50000000  1
  Na  Na2  1  0.50000000  0.50000000  0.00000000  1
  Sr  Sr3  1  0.78359000  0.78359000  0.73915100  1
  Sr  Sr4  1  0.21641000  0.21641000  0.26084900  1
  Ti  Ti5  1  0.64905900  0.64905900  0.29442800  1
  Ti  Ti6  1  0.35094100  0.35094100  0.70557200  1
  Ti  Ti7  1  0.00000000  0.00000000  0.00000000  1
  Si  Si8  1  0.64159000  0.07398700  0.20124000  1
  Si  Si9  1  0.35841000  0.92601300  0.79876000  1
  Si  Si10  1  0.92601300  0.35841000  0.79876000  1
  Si  Si11  1  0.07398700  0.64159000  0.20124000  1
  O  O12  1  0.51578200  0.13397300  0.46551200  1
  O  O13  1  0.48421800  0.86602700  0.53448800  1
  O  O14  1  0.86602700  0.48421800  0.53448800  1
  O  O15  1  0.13397300  0.51578200  0.46551200  1
  O  O16  1  0.73044100  0.14874000  0.17021500  1
  O  O17  1  0.26955900  0.85126000  0.82978500  1
  O  O18  1  0.85126000  0.26955900  0.82978500  1
  O  O19  1  0.14874000  0.73044100  0.17021500  1
  O  O20  1  0.48759500  0.86577600  0.02857800  1
  O  O21  1  0.51240500  0.13422400  0.97142200  1
  O  O22  1  0.13422400  0.51240500  0.97142200  1
  O  O23  1  0.86577600  0.48759500  0.02857800  1
  O  O24  1  0.56373600  0.56373600  0.32672700  1
  O  O25  1  0.43626400  0.43626400  0.67327300  1
  O  O26  1  0.94400000  0.94400000  0.75206700  1
  O  O27  1  0.05600000  0.05600000  0.24793300  1
  O  O28  1  0.82423600  0.82423600  0.21875500  1
  O  O29  1  0.17576400  0.17576400  0.78124500  1
