# generated using pymatgen
data_PrZr6(PO4)9
_symmetry_space_group_name_H-M   'P 1'
_cell_length_a   8.91792560
_cell_length_b   8.91792560
_cell_length_c   23.38825200
_cell_angle_alpha   90.00000000
_cell_angle_beta   90.00000000
_cell_angle_gamma   119.99999701
_symmetry_Int_Tables_number   1
_chemical_formula_structural   PrZr6(PO4)9
_chemical_formula_sum   'Pr2 Zr12 P18 O72'
_cell_volume   1610.85369898
_cell_formula_units_Z   2
loop_
 _symmetry_equiv_pos_site_id
 _symmetry_equiv_pos_as_xyz
  1  'x, y, z'
loop_
 _atom_site_type_symbol
 _atom_site_label
 _atom_site_symmetry_multiplicity
 _atom_site_fract_x
 _atom_site_fract_y
 _atom_site_fract_z
 _atom_site_occupancy
  Pr  Pr0  1  0.00000000  0.00000000  0.50000000  1
  Pr  Pr1  1  0.00000000  0.00000000  0.00000000  1
  Zr  Zr2  1  0.33333300  0.66666700  0.52488000  1
  Zr  Zr3  1  0.66666700  0.33333300  0.47512000  1
  Zr  Zr4  1  0.66666700  0.33333300  0.97512000  1
  Zr  Zr5  1  0.33333300  0.66666700  0.02488000  1
  Zr  Zr6  1  0.00000000  0.00000000  0.65069300  1
  Zr  Zr7  1  0.00000000  0.00000000  0.34930700  1
  Zr  Zr8  1  0.00000000  0.00000000  0.84930700  1
  Zr  Zr9  1  0.00000000  0.00000000  0.15069300  1
  Zr  Zr10  1  0.33333300  0.66666700  0.81305400  1
  Zr  Zr11  1  0.66666700  0.33333300  0.18694600  1
  Zr  Zr12  1  0.66666700  0.33333300  0.68694600  1
  Zr  Zr13  1  0.33333300  0.66666700  0.31305400  1
  P  P14  1  0.37482200  0.32288700  0.57977100  1
  P  P15  1  0.62517800  0.67711300  0.42022900  1
  P  P16  1  0.67711300  0.05193500  0.57977100  1
  P  P17  1  0.32288700  0.37482200  0.92022900  1
  P  P18  1  0.32288700  0.94806600  0.42022900  1
  P  P19  1  0.67711300  0.62517800  0.07977100  1
  P  P20  1  0.94806600  0.62517800  0.57977100  1
  P  P21  1  0.05193500  0.67711300  0.92022900  1
  P  P22  1  0.05193500  0.37482200  0.42022900  1
  P  P23  1  0.94806600  0.32288700  0.07977100  1
  P  P24  1  0.62517800  0.94806600  0.92022900  1
  P  P25  1  0.37482200  0.05193500  0.07977100  1
  P  P26  1  0.29234900  0.00000000  0.75000000  1
  P  P27  1  0.70765100  0.00000000  0.25000000  1
  P  P28  1  0.00000000  0.29234900  0.75000000  1
  P  P29  1  0.00000000  0.70765100  0.25000000  1
  P  P30  1  0.70765100  0.70765100  0.75000000  1
  P  P31  1  0.29234900  0.29234900  0.25000000  1
  O  O32  1  0.44999600  0.27819100  0.52739500  1
  O  O33  1  0.55000400  0.72180900  0.47260500  1
  O  O34  1  0.72180900  0.17180500  0.52739500  1
  O  O35  1  0.27819100  0.44999600  0.97260500  1
  O  O36  1  0.27819100  0.82819500  0.47260500  1
  O  O37  1  0.72180900  0.55000400  0.02739500  1
  O  O38  1  0.82819500  0.55000400  0.52739500  1
  O  O39  1  0.17180500  0.72180900  0.97260500  1
  O  O40  1  0.17180500  0.44999600  0.47260500  1
  O  O41  1  0.82819500  0.27819100  0.02739500  1
  O  O42  1  0.55000400  0.82819500  0.97260500  1
  O  O43  1  0.44999600  0.17180500  0.02739500  1
  O  O44  1  0.37832100  0.49569800  0.57138800  1
  O  O45  1  0.62167900  0.50430200  0.42861200  1
  O  O46  1  0.50430200  0.88262300  0.57138800  1
  O  O47  1  0.49569800  0.37832100  0.92861200  1
  O  O48  1  0.49569800  0.11737700  0.42861200  1
  O  O49  1  0.50430200  0.62167900  0.07138800  1
  O  O50  1  0.11737700  0.62167900  0.57138800  1
  O  O51  1  0.88262300  0.50430200  0.92861200  1
  O  O52  1  0.88262300  0.37832100  0.42861200  1
  O  O53  1  0.11737700  0.49569800  0.07138800  1
  O  O54  1  0.62167900  0.11737700  0.92861200  1
  O  O55  1  0.37832100  0.88262300  0.07138800  1
  O  O56  1  0.17830600  0.17370900  0.58245400  1
  O  O57  1  0.82169400  0.82629100  0.41754600  1
  O  O58  1  0.82629100  0.00459600  0.58245400  1
  O  O59  1  0.17370900  0.17830600  0.91754600  1
  O  O60  1  0.17370900  0.99540400  0.41754600  1
  O  O61  1  0.82629100  0.82169400  0.08245400  1
  O  O62  1  0.99540400  0.82169400  0.58245400  1
  O  O63  1  0.00459600  0.82629100  0.91754600  1
  O  O64  1  0.00459600  0.17830600  0.41754600  1
  O  O65  1  0.99540400  0.17370900  0.08245400  1
  O  O66  1  0.82169400  0.99540400  0.91754600  1
  O  O67  1  0.17830600  0.00459600  0.08245400  1
  O  O68  1  0.03030500  0.20515300  0.69692800  1
  O  O69  1  0.96969500  0.79484700  0.30307200  1
  O  O70  1  0.79484700  0.82515200  0.69692800  1
  O  O71  1  0.20515300  0.03030500  0.80307200  1
  O  O72  1  0.20515300  0.17484800  0.30307200  1
  O  O73  1  0.79484700  0.96969500  0.19692800  1
  O  O74  1  0.17484800  0.96969500  0.69692800  1
  O  O75  1  0.82515200  0.79484700  0.80307200  1
  O  O76  1  0.82515200  0.03030500  0.30307200  1
  O  O77  1  0.17484800  0.20515300  0.19692800  1
  O  O78  1  0.96969500  0.17484800  0.80307200  1
  O  O79  1  0.03030500  0.82515200  0.19692800  1
  O  O80  1  0.46931800  0.32784600  0.63478600  1
  O  O81  1  0.53068200  0.67215400  0.36521400  1
  O  O82  1  0.67215400  0.14147300  0.63478600  1
  O  O83  1  0.32784600  0.46931800  0.86521400  1
  O  O84  1  0.32784600  0.85852700  0.36521400  1
  O  O85  1  0.67215400  0.53068200  0.13478600  1
  O  O86  1  0.85852700  0.53068200  0.63478600  1
  O  O87  1  0.14147300  0.67215400  0.86521400  1
  O  O88  1  0.14147300  0.46931800  0.36521400  1
  O  O89  1  0.85852700  0.32784600  0.13478600  1
  O  O90  1  0.53068200  0.85852700  0.86521400  1
  O  O91  1  0.46931800  0.14147300  0.13478600  1
  O  O92  1  0.46919300  0.15946600  0.73958200  1
  O  O93  1  0.53080700  0.84053400  0.26041800  1
  O  O94  1  0.84053400  0.30972700  0.73958200  1
  O  O95  1  0.15946600  0.46919300  0.76041800  1
  O  O96  1  0.15946600  0.69027300  0.26041800  1
  O  O97  1  0.84053400  0.53080700  0.23958200  1
  O  O98  1  0.69027300  0.53080700  0.73958200  1
  O  O99  1  0.30972700  0.84053400  0.76041800  1
  O  O100  1  0.30972700  0.46919300  0.26041800  1
  O  O101  1  0.69027300  0.15946600  0.23958200  1
  O  O102  1  0.53080700  0.69027300  0.76041800  1
  O  O103  1  0.46919300  0.30972700  0.23958200  1
