# generated using pymatgen
data_Na8Al12SO28
_symmetry_space_group_name_H-M   'P 1'
_cell_length_a   9.48772700
_cell_length_b   9.48772700
_cell_length_c   9.48772700
_cell_angle_alpha   90.00000000
_cell_angle_beta   90.00000000
_cell_angle_gamma   90.00000000
_symmetry_Int_Tables_number   1
_chemical_formula_structural   Na8Al12SO28
_chemical_formula_sum   'Na8 Al12 S1 O28'
_cell_volume   854.05637626
_cell_formula_units_Z   1
loop_
 _symmetry_equiv_pos_site_id
 _symmetry_equiv_pos_as_xyz
  1  'x, y, z'
loop_
 _atom_site_type_symbol
 _atom_site_label
 _atom_site_symmetry_multiplicity
 _atom_site_fract_x
 _atom_site_fract_y
 _atom_site_fract_z
 _atom_site_occupancy
  Na  Na0  1  0.79717500  0.79717500  0.79717500  1
  Na  Na1  1  0.20282500  0.20282500  0.79717500  1
  Na  Na2  1  0.20282500  0.79717500  0.20282500  1
  Na  Na3  1  0.79717500  0.20282500  0.20282500  1
  Na  Na4  1  0.23310800  0.23310800  0.23310800  1
  Na  Na5  1  0.76689200  0.76689200  0.23310800  1
  Na  Na6  1  0.76689200  0.23310800  0.76689200  1
  Na  Na7  1  0.23310800  0.76689200  0.76689200  1
  Al  Al8  1  0.25101300  0.50000000  0.00000000  1
  Al  Al9  1  0.74898700  0.50000000  0.00000000  1
  Al  Al10  1  0.00000000  0.25101300  0.50000000  1
  Al  Al11  1  0.50000000  0.25101300  0.00000000  1
  Al  Al12  1  0.00000000  0.74898700  0.50000000  1
  Al  Al13  1  0.50000000  0.74898700  0.00000000  1
  Al  Al14  1  0.50000000  0.00000000  0.25101300  1
  Al  Al15  1  0.25101300  0.00000000  0.50000000  1
  Al  Al16  1  0.50000000  0.00000000  0.74898700  1
  Al  Al17  1  0.74898700  0.00000000  0.50000000  1
  Al  Al18  1  0.00000000  0.50000000  0.25101300  1
  Al  Al19  1  0.00000000  0.50000000  0.74898700  1
  S  S20  1  0.00000000  0.00000000  0.00000000  1
  O  O21  1  0.09085100  0.09085100  0.09085100  1
  O  O22  1  0.90914900  0.90914900  0.09085100  1
  O  O23  1  0.90914900  0.09085100  0.90914900  1
  O  O24  1  0.09085100  0.90914900  0.90914900  1
  O  O25  1  0.34932800  0.34932800  0.04091300  1
  O  O26  1  0.65067200  0.65067200  0.04091300  1
  O  O27  1  0.65067200  0.34932800  0.95908700  1
  O  O28  1  0.04091300  0.34932800  0.34932800  1
  O  O29  1  0.34932800  0.65067200  0.95908700  1
  O  O30  1  0.04091300  0.65067200  0.65067200  1
  O  O31  1  0.95908700  0.65067200  0.34932800  1
  O  O32  1  0.95908700  0.34932800  0.65067200  1
  O  O33  1  0.34932800  0.04091300  0.34932800  1
  O  O34  1  0.34932800  0.95908700  0.65067200  1
  O  O35  1  0.65067200  0.95908700  0.34932800  1
  O  O36  1  0.65067200  0.04091300  0.65067200  1
  O  O37  1  0.14589300  0.14589300  0.54342600  1
  O  O38  1  0.85410700  0.85410700  0.54342600  1
  O  O39  1  0.85410700  0.14589300  0.45657400  1
  O  O40  1  0.54342600  0.14589300  0.14589300  1
  O  O41  1  0.14589300  0.85410700  0.45657400  1
  O  O42  1  0.54342600  0.85410700  0.85410700  1
  O  O43  1  0.45657400  0.85410700  0.14589300  1
  O  O44  1  0.45657400  0.14589300  0.85410700  1
  O  O45  1  0.14589300  0.54342600  0.14589300  1
  O  O46  1  0.14589300  0.45657400  0.85410700  1
  O  O47  1  0.85410700  0.45657400  0.14589300  1
  O  O48  1  0.85410700  0.54342600  0.85410700  1
