# generated using pymatgen
data_RbNa3W2O17
_symmetry_space_group_name_H-M   'P 1'
_cell_length_a   8.78004474
_cell_length_b   8.78004474
_cell_length_c   10.92145800
_cell_angle_alpha   90.00000000
_cell_angle_beta   90.00000000
_cell_angle_gamma   120.00000554
_symmetry_Int_Tables_number   1
_chemical_formula_structural   RbNa3W2O17
_chemical_formula_sum   'Rb2 Na6 W4 O34'
_cell_volume   729.12952524
_cell_formula_units_Z   2
loop_
 _symmetry_equiv_pos_site_id
 _symmetry_equiv_pos_as_xyz
  1  'x, y, z'
loop_
 _atom_site_type_symbol
 _atom_site_label
 _atom_site_symmetry_multiplicity
 _atom_site_fract_x
 _atom_site_fract_y
 _atom_site_fract_z
 _atom_site_occupancy
  Rb  Rb0  1  0.00000000  0.00000000  0.75000000  1
  Rb  Rb1  1  0.00000000  0.00000000  0.25000000  1
  Na  Na2  1  0.63031300  0.09349200  0.75000000  1
  Na  Na3  1  0.36968700  0.90650800  0.25000000  1
  Na  Na4  1  0.46317900  0.36968700  0.75000000  1
  Na  Na5  1  0.53682100  0.63031300  0.25000000  1
  Na  Na6  1  0.90650800  0.53682100  0.75000000  1
  Na  Na7  1  0.09349200  0.46317900  0.25000000  1
  W  W8  1  0.66666700  0.33333300  0.45199200  1
  W  W9  1  0.33333300  0.66666700  0.54800800  1
  W  W10  1  0.33333300  0.66666700  0.95199200  1
  W  W11  1  0.66666700  0.33333300  0.04800800  1
  O  O12  1  0.95660300  0.30329500  0.75000000  1
  O  O13  1  0.04339700  0.69670500  0.25000000  1
  O  O14  1  0.34669100  0.04339700  0.75000000  1
  O  O15  1  0.65330900  0.95660300  0.25000000  1
  O  O16  1  0.69670500  0.65330900  0.75000000  1
  O  O17  1  0.30329500  0.34669100  0.25000000  1
  O  O18  1  0.81475000  0.05865000  0.95822000  1
  O  O19  1  0.18525000  0.94135000  0.04178000  1
  O  O20  1  0.24390000  0.18525000  0.95822000  1
  O  O21  1  0.18525000  0.94135000  0.45822000  1
  O  O22  1  0.75610000  0.81475000  0.04178000  1
  O  O23  1  0.81475000  0.05865000  0.54178000  1
  O  O24  1  0.94135000  0.75610000  0.95822000  1
  O  O25  1  0.75610000  0.81475000  0.45822000  1
  O  O26  1  0.05865000  0.24390000  0.04178000  1
  O  O27  1  0.24390000  0.18525000  0.54178000  1
  O  O28  1  0.05865000  0.24390000  0.45822000  1
  O  O29  1  0.94135000  0.75610000  0.54178000  1
  O  O30  1  0.53821200  0.68744100  0.89550000  1
  O  O31  1  0.46178800  0.31255900  0.10450000  1
  O  O32  1  0.14922900  0.46178800  0.89550000  1
  O  O33  1  0.46178800  0.31255900  0.39550000  1
  O  O34  1  0.85077100  0.53821200  0.10450000  1
  O  O35  1  0.53821200  0.68744100  0.60450000  1
  O  O36  1  0.31255900  0.85077100  0.89550000  1
  O  O37  1  0.85077100  0.53821200  0.39550000  1
  O  O38  1  0.68744100  0.14922900  0.10450000  1
  O  O39  1  0.14922900  0.46178800  0.60450000  1
  O  O40  1  0.68744100  0.14922900  0.39550000  1
  O  O41  1  0.31255900  0.85077100  0.60450000  1
  O  O42  1  0.66666700  0.33333300  0.88199400  1
  O  O43  1  0.33333300  0.66666700  0.11800600  1
  O  O44  1  0.33333300  0.66666700  0.38199400  1
  O  O45  1  0.66666700  0.33333300  0.61800600  1
