# generated using pymatgen
data_Ni(PO5)2
_symmetry_space_group_name_H-M   'P 1'
_cell_length_a   9.55345500
_cell_length_b   5.18169600
_cell_length_c   8.57377695
_cell_angle_alpha   56.20746678
_cell_angle_beta   90.00000000
_cell_angle_gamma   90.00000000
_symmetry_Int_Tables_number   1
_chemical_formula_structural   Ni(PO5)2
_chemical_formula_sum   'Ni2 P4 O20'
_cell_volume   352.72428678
_cell_formula_units_Z   2
loop_
 _symmetry_equiv_pos_site_id
 _symmetry_equiv_pos_as_xyz
  1  'x, y, z'
loop_
 _atom_site_type_symbol
 _atom_site_label
 _atom_site_symmetry_multiplicity
 _atom_site_fract_x
 _atom_site_fract_y
 _atom_site_fract_z
 _atom_site_occupancy
  Ni  Ni0  1  0.00000000  0.00000000  0.00000000  1
  Ni  Ni1  1  0.50000000  0.00000000  0.50000000  1
  P  P2  1  0.79194000  0.59716900  0.67092100  1
  P  P3  1  0.20806000  0.40283100  0.32907900  1
  P  P4  1  0.29194000  0.40283100  0.82907900  1
  P  P5  1  0.70806000  0.59716900  0.17092100  1
  O  O6  1  0.34432500  0.11231600  0.83662100  1
  O  O7  1  0.65567500  0.88768400  0.16337900  1
  O  O8  1  0.84432500  0.88768400  0.66337900  1
  O  O9  1  0.15567500  0.11231600  0.33662100  1
  O  O10  1  0.35804900  0.40455800  0.99360900  1
  O  O11  1  0.64195100  0.59544200  0.00639100  1
  O  O12  1  0.85804900  0.59544200  0.50639100  1
  O  O13  1  0.14195100  0.40455800  0.49360900  1
  O  O14  1  0.33532700  0.71283200  0.65277100  1
  O  O15  1  0.66467300  0.28716800  0.34722900  1
  O  O16  1  0.83532700  0.28716800  0.84722900  1
  O  O17  1  0.16467300  0.71283200  0.15277100  1
  O  O18  1  0.03576400  0.93631300  0.79514500  1
  O  O19  1  0.96423600  0.06368700  0.20485500  1
  O  O20  1  0.53576400  0.06368700  0.70485500  1
  O  O21  1  0.46423600  0.93631300  0.29514500  1
  O  O22  1  0.63260400  0.62518000  0.63984900  1
  O  O23  1  0.36739600  0.37482000  0.36015100  1
  O  O24  1  0.13260400  0.37482000  0.86015100  1
  O  O25  1  0.86739600  0.62518000  0.13984900  1
