# generated using pymatgen
data_Nb3Zn2Bi3O14
_symmetry_space_group_name_H-M   'P 1'
_cell_length_a   10.66818600
_cell_length_b   10.66818600
_cell_length_c   10.66818600
_cell_angle_alpha   90.00000000
_cell_angle_beta   90.00000000
_cell_angle_gamma   90.00000000
_symmetry_Int_Tables_number   1
_chemical_formula_structural   Nb3Zn2Bi3O14
_chemical_formula_sum   'Nb12 Zn8 Bi12 O56'
_cell_volume   1214.14830261
_cell_formula_units_Z   4
loop_
 _symmetry_equiv_pos_site_id
 _symmetry_equiv_pos_as_xyz
  1  'x, y, z'
loop_
 _atom_site_type_symbol
 _atom_site_label
 _atom_site_symmetry_multiplicity
 _atom_site_fract_x
 _atom_site_fract_y
 _atom_site_fract_z
 _atom_site_occupancy
  Nb  Nb0  1  0.12500000  0.87437300  0.12437300  1
  Nb  Nb1  1  0.37500000  0.12562700  0.62437300  1
  Nb  Nb2  1  0.87500000  0.37437300  0.37562700  1
  Nb  Nb3  1  0.12437300  0.12500000  0.87437300  1
  Nb  Nb4  1  0.62437300  0.37500000  0.12562700  1
  Nb  Nb5  1  0.62500000  0.62562700  0.87562700  1
  Nb  Nb6  1  0.87562700  0.62500000  0.62562700  1
  Nb  Nb7  1  0.37562700  0.87500000  0.37437300  1
  Nb  Nb8  1  0.87437300  0.12437300  0.12500000  1
  Nb  Nb9  1  0.37437300  0.37562700  0.87500000  1
  Nb  Nb10  1  0.62562700  0.87562700  0.62500000  1
  Nb  Nb11  1  0.12562700  0.62437300  0.37500000  1
  Zn  Zn12  1  0.87500000  0.87500000  0.87500000  1
  Zn  Zn13  1  0.62500000  0.12500000  0.37500000  1
  Zn  Zn14  1  0.12500000  0.37500000  0.62500000  1
  Zn  Zn15  1  0.37500000  0.62500000  0.12500000  1
  Zn  Zn16  1  0.37500000  0.37500000  0.37500000  1
  Zn  Zn17  1  0.12500000  0.62500000  0.87500000  1
  Zn  Zn18  1  0.62500000  0.87500000  0.12500000  1
  Zn  Zn19  1  0.87500000  0.12500000  0.62500000  1
  Bi  Bi20  1  0.12500000  0.15433300  0.40433300  1
  Bi  Bi21  1  0.37500000  0.84566700  0.90433300  1
  Bi  Bi22  1  0.87500000  0.65433300  0.09566700  1
  Bi  Bi23  1  0.40433300  0.12500000  0.15433300  1
  Bi  Bi24  1  0.90433300  0.37500000  0.84566700  1
  Bi  Bi25  1  0.62500000  0.34566700  0.59566700  1
  Bi  Bi26  1  0.59566700  0.62500000  0.34566700  1
  Bi  Bi27  1  0.09566700  0.87500000  0.65433300  1
  Bi  Bi28  1  0.15433300  0.40433300  0.12500000  1
  Bi  Bi29  1  0.65433300  0.09566700  0.87500000  1
  Bi  Bi30  1  0.34566700  0.59566700  0.62500000  1
  Bi  Bi31  1  0.84566700  0.90433300  0.37500000  1
  O  O32  1  0.00422400  0.29805800  0.48953600  1
  O  O33  1  0.49577600  0.70194200  0.98953600  1
  O  O34  1  0.99577600  0.79805800  0.01046400  1
  O  O35  1  0.48953600  0.00422400  0.29805800  1
  O  O36  1  0.04805800  0.25422400  0.76046400  1
  O  O37  1  0.50422400  0.20194200  0.51046400  1
  O  O38  1  0.98953600  0.49577600  0.70194200  1
  O  O39  1  0.45194200  0.74577600  0.26046400  1
  O  O40  1  0.01046400  0.99577600  0.79805800  1
  O  O41  1  0.54805800  0.24577600  0.23953600  1
  O  O42  1  0.51046400  0.50422400  0.20194200  1
  O  O43  1  0.95194200  0.75422400  0.73953600  1
  O  O44  1  0.29805800  0.48953600  0.00422400  1
  O  O45  1  0.75422400  0.73953600  0.95194200  1
  O  O46  1  0.79805800  0.01046400  0.99577600  1
  O  O47  1  0.74577600  0.26046400  0.45194200  1
  O  O48  1  0.20194200  0.51046400  0.50422400  1
  O  O49  1  0.25422400  0.76046400  0.04805800  1
  O  O50  1  0.70194200  0.98953600  0.49577600  1
  O  O51  1  0.24577600  0.23953600  0.54805800  1
  O  O52  1  0.76046400  0.04805800  0.25422400  1
  O  O53  1  0.26046400  0.45194200  0.74577600  1
  O  O54  1  0.73953600  0.95194200  0.75422400  1
  O  O55  1  0.23953600  0.54805800  0.24577600  1
  O  O56  1  0.27091900  0.27091900  0.27091900  1
  O  O57  1  0.22908100  0.72908100  0.77091900  1
  O  O58  1  0.72908100  0.77091900  0.22908100  1
  O  O59  1  0.02091900  0.52091900  0.97908100  1
  O  O60  1  0.77091900  0.22908100  0.72908100  1
  O  O61  1  0.47908100  0.47908100  0.47908100  1
  O  O62  1  0.52091900  0.97908100  0.02091900  1
  O  O63  1  0.97908100  0.02091900  0.52091900  1
  O  O64  1  0.99926200  0.99961900  0.19002800  1
  O  O65  1  0.50073800  0.00038100  0.69002800  1
  O  O66  1  0.00073800  0.49961900  0.30997200  1
  O  O67  1  0.19002800  0.99926200  0.99961900  1
  O  O68  1  0.74961900  0.24926200  0.05997200  1
  O  O69  1  0.49926200  0.50038100  0.80997200  1
  O  O70  1  0.69002800  0.50073800  0.00038100  1
  O  O71  1  0.75038100  0.75073800  0.55997200  1
  O  O72  1  0.30997200  0.00073800  0.49961900  1
  O  O73  1  0.24961900  0.25073800  0.94002800  1
  O  O74  1  0.80997200  0.49926200  0.50038100  1
  O  O75  1  0.25038100  0.74926200  0.44002800  1
  O  O76  1  0.99961900  0.19002800  0.99926200  1
  O  O77  1  0.74926200  0.44002800  0.25038100  1
  O  O78  1  0.49961900  0.30997200  0.00073800  1
  O  O79  1  0.75073800  0.55997200  0.75038100  1
  O  O80  1  0.50038100  0.80997200  0.49926200  1
  O  O81  1  0.24926200  0.05997200  0.74961900  1
  O  O82  1  0.00038100  0.69002800  0.50073800  1
  O  O83  1  0.25073800  0.94002800  0.24961900  1
  O  O84  1  0.05997200  0.74961900  0.24926200  1
  O  O85  1  0.55997200  0.75038100  0.75073800  1
  O  O86  1  0.44002800  0.25038100  0.74926200  1
  O  O87  1  0.94002800  0.24961900  0.25073800  1
