# generated using pymatgen
data_Na4Al3Si3SO16
_symmetry_space_group_name_H-M   'P 1'
_cell_length_a   9.21462300
_cell_length_b   9.21462300
_cell_length_c   9.21462300
_cell_angle_alpha   90.00000000
_cell_angle_beta   90.00000000
_cell_angle_gamma   90.00000000
_symmetry_Int_Tables_number   1
_chemical_formula_structural   Na4Al3Si3SO16
_chemical_formula_sum   'Na8 Al6 Si6 S2 O32'
_cell_volume   782.40697705
_cell_formula_units_Z   2
loop_
 _symmetry_equiv_pos_site_id
 _symmetry_equiv_pos_as_xyz
  1  'x, y, z'
loop_
 _atom_site_type_symbol
 _atom_site_label
 _atom_site_symmetry_multiplicity
 _atom_site_fract_x
 _atom_site_fract_y
 _atom_site_fract_z
 _atom_site_occupancy
  Na  Na0  1  0.27337400  0.27337400  0.27337400  1
  Na  Na1  1  0.72662600  0.72662600  0.27337400  1
  Na  Na2  1  0.72662600  0.27337400  0.72662600  1
  Na  Na3  1  0.77337400  0.77337400  0.77337400  1
  Na  Na4  1  0.27337400  0.72662600  0.72662600  1
  Na  Na5  1  0.22662600  0.22662600  0.77337400  1
  Na  Na6  1  0.77337400  0.22662600  0.22662600  1
  Na  Na7  1  0.22662600  0.77337400  0.22662600  1
  Al  Al8  1  0.25000000  0.00000000  0.50000000  1
  Al  Al9  1  0.75000000  0.00000000  0.50000000  1
  Al  Al10  1  0.50000000  0.25000000  0.00000000  1
  Al  Al11  1  0.50000000  0.75000000  0.00000000  1
  Al  Al12  1  0.00000000  0.50000000  0.25000000  1
  Al  Al13  1  0.00000000  0.50000000  0.75000000  1
  Si  Si14  1  0.25000000  0.50000000  0.00000000  1
  Si  Si15  1  0.75000000  0.50000000  0.00000000  1
  Si  Si16  1  0.00000000  0.25000000  0.50000000  1
  Si  Si17  1  0.00000000  0.75000000  0.50000000  1
  Si  Si18  1  0.50000000  0.00000000  0.25000000  1
  Si  Si19  1  0.50000000  0.00000000  0.75000000  1
  S  S20  1  0.00000000  0.00000000  0.00000000  1
  S  S21  1  0.50000000  0.50000000  0.50000000  1
  O  O22  1  0.09333900  0.09333900  0.09333900  1
  O  O23  1  0.90666100  0.90666100  0.09333900  1
  O  O24  1  0.90666100  0.09333900  0.90666100  1
  O  O25  1  0.59333900  0.59333900  0.59333900  1
  O  O26  1  0.09333900  0.90666100  0.90666100  1
  O  O27  1  0.40666100  0.40666100  0.59333900  1
  O  O28  1  0.59333900  0.40666100  0.40666100  1
  O  O29  1  0.40666100  0.59333900  0.40666100  1
  O  O30  1  0.03439100  0.34583300  0.35511700  1
  O  O31  1  0.96560900  0.65416700  0.35511700  1
  O  O32  1  0.96560900  0.34583300  0.64488300  1
  O  O33  1  0.35511700  0.03439100  0.34583300  1
  O  O34  1  0.84583300  0.53439100  0.85511700  1
  O  O35  1  0.03439100  0.65416700  0.64488300  1
  O  O36  1  0.35511700  0.96560900  0.65416700  1
  O  O37  1  0.15416700  0.46560900  0.85511700  1
  O  O38  1  0.64488300  0.96560900  0.34583300  1
  O  O39  1  0.84583300  0.46560900  0.14488300  1
  O  O40  1  0.64488300  0.03439100  0.65416700  1
  O  O41  1  0.15416700  0.53439100  0.14488300  1
  O  O42  1  0.34583300  0.35511700  0.03439100  1
  O  O43  1  0.53439100  0.85511700  0.84583300  1
  O  O44  1  0.34583300  0.64488300  0.96560900  1
  O  O45  1  0.46560900  0.14488300  0.84583300  1
  O  O46  1  0.65416700  0.64488300  0.03439100  1
  O  O47  1  0.53439100  0.14488300  0.15416700  1
  O  O48  1  0.65416700  0.35511700  0.96560900  1
  O  O49  1  0.46560900  0.85511700  0.15416700  1
  O  O50  1  0.85511700  0.84583300  0.53439100  1
  O  O51  1  0.85511700  0.15416700  0.46560900  1
  O  O52  1  0.14488300  0.15416700  0.53439100  1
  O  O53  1  0.14488300  0.84583300  0.46560900  1
