# generated using pymatgen
data_Na5Mn4(SiO3)6
_symmetry_space_group_name_H-M   'P 1'
_cell_length_a   7.50376400
_cell_length_b   10.42415100
_cell_length_c   10.45880600
_cell_angle_alpha   90.00000000
_cell_angle_beta   90.00000000
_cell_angle_gamma   90.00000000
_symmetry_Int_Tables_number   1
_chemical_formula_structural   Na5Mn4(SiO3)6
_chemical_formula_sum   'Na10 Mn8 Si12 O36'
_cell_volume   818.09166467
_cell_formula_units_Z   2
loop_
 _symmetry_equiv_pos_site_id
 _symmetry_equiv_pos_as_xyz
  1  'x, y, z'
loop_
 _atom_site_type_symbol
 _atom_site_label
 _atom_site_symmetry_multiplicity
 _atom_site_fract_x
 _atom_site_fract_y
 _atom_site_fract_z
 _atom_site_occupancy
  Na  Na0  1  0.24966000  0.30254200  0.00000000  1
  Na  Na1  1  0.75034000  0.80254200  0.50000000  1
  Na  Na2  1  0.27295000  0.53131700  0.26462100  1
  Na  Na3  1  0.72705000  0.03131700  0.23537900  1
  Na  Na4  1  0.72705000  0.03131700  0.76462100  1
  Na  Na5  1  0.27295000  0.53131700  0.73537900  1
  Na  Na6  1  0.23138300  0.06255800  0.26199600  1
  Na  Na7  1  0.76861700  0.56255800  0.23800400  1
  Na  Na8  1  0.76861700  0.56255800  0.76199600  1
  Na  Na9  1  0.23138300  0.06255800  0.73800400  1
  Mn  Mn10  1  0.49001500  0.03880600  0.00000000  1
  Mn  Mn11  1  0.50998500  0.53880600  0.50000000  1
  Mn  Mn12  1  0.74519300  0.79770700  0.00000000  1
  Mn  Mn13  1  0.25480700  0.29770800  0.50000000  1
  Mn  Mn14  1  0.22967700  0.79477000  0.00000000  1
  Mn  Mn15  1  0.77032300  0.29477000  0.50000000  1
  Mn  Mn16  1  0.00490800  0.55257500  0.00000000  1
  Mn  Mn17  1  0.99509200  0.05257500  0.50000000  1
  Si  Si18  1  0.99553300  0.07474100  0.00000000  1
  Si  Si19  1  0.00446700  0.57474100  0.50000000  1
  Si  Si20  1  0.03009700  0.79177600  0.27459600  1
  Si  Si21  1  0.96990300  0.29177600  0.22540400  1
  Si  Si22  1  0.96990300  0.29177600  0.77459600  1
  Si  Si23  1  0.03009700  0.79177600  0.72540400  1
  Si  Si24  1  0.53308000  0.30514600  0.22647500  1
  Si  Si25  1  0.46692000  0.80514600  0.27352500  1
  Si  Si26  1  0.46692000  0.80514600  0.72647500  1
  Si  Si27  1  0.53308000  0.30514600  0.77352500  1
  Si  Si28  1  0.50357200  0.52121000  0.00000000  1
  Si  Si29  1  0.49642800  0.02121000  0.50000000  1
  O  O30  1  0.46524400  0.17077300  0.16426400  1
  O  O31  1  0.53475600  0.67077300  0.33573600  1
  O  O32  1  0.53475600  0.67077300  0.66426400  1
  O  O33  1  0.46524400  0.17077300  0.83573600  1
  O  O34  1  0.31617600  0.60327900  0.00000000  1
  O  O35  1  0.68382400  0.10327900  0.50000000  1
  O  O36  1  0.80196200  0.00620200  0.00000000  1
  O  O37  1  0.19803800  0.50620200  0.50000000  1
  O  O38  1  0.75156100  0.30059500  0.24764300  1
  O  O39  1  0.24843900  0.80059500  0.25235700  1
  O  O40  1  0.24843900  0.80059500  0.74764300  1
  O  O41  1  0.75156100  0.30059500  0.75235700  1
  O  O42  1  0.04163800  0.42298600  0.16048700  1
  O  O43  1  0.95836200  0.92298600  0.33951300  1
  O  O44  1  0.95836200  0.92298600  0.66048700  1
  O  O45  1  0.04163800  0.42298600  0.83951300  1
  O  O46  1  0.18314600  0.99267600  0.00000000  1
  O  O47  1  0.81685400  0.49267600  0.50000000  1
  O  O48  1  0.04075800  0.24322100  0.36517600  1
  O  O49  1  0.95924200  0.74322100  0.13482400  1
  O  O50  1  0.95924200  0.74322100  0.86517600  1
  O  O51  1  0.04075800  0.24322100  0.63482400  1
  O  O52  1  0.45986400  0.35777800  0.36337400  1
  O  O53  1  0.54013600  0.85777800  0.13662600  1
  O  O54  1  0.54013600  0.85777800  0.86337400  1
  O  O55  1  0.45986400  0.35777800  0.63662600  1
  O  O56  1  0.69735500  0.58953300  0.00000000  1
  O  O57  1  0.30264500  0.08953300  0.50000000  1
  O  O58  1  0.01131700  0.16967600  0.12715300  1
  O  O59  1  0.98868300  0.66967600  0.37284700  1
  O  O60  1  0.98868300  0.66967600  0.62715300  1
  O  O61  1  0.01131700  0.16967600  0.87284700  1
  O  O62  1  0.48859600  0.42430100  0.12561800  1
  O  O63  1  0.51140400  0.92430100  0.37438200  1
  O  O64  1  0.51140400  0.92430100  0.62561800  1
  O  O65  1  0.48859600  0.42430100  0.87438200  1
