# generated using pymatgen
data_NaIn2
_symmetry_space_group_name_H-M   'P 1'
_cell_length_a   8.06006837
_cell_length_b   8.06006837
_cell_length_c   8.06006837
_cell_angle_alpha   60.00000000
_cell_angle_beta   60.00000000
_cell_angle_gamma   60.00000000
_symmetry_Int_Tables_number   1
_chemical_formula_structural   NaIn2
_chemical_formula_sum   'Na4 In8'
_cell_volume   370.25521066
_cell_formula_units_Z   4
loop_
 _symmetry_equiv_pos_site_id
 _symmetry_equiv_pos_as_xyz
  1  'x, y, z'
loop_
 _atom_site_type_symbol
 _atom_site_label
 _atom_site_symmetry_multiplicity
 _atom_site_fract_x
 _atom_site_fract_y
 _atom_site_fract_z
 _atom_site_occupancy
  Na  Na0  1  0.12500000  0.12500000  0.12500000  1
  Na  Na1  1  0.12500000  0.12500000  0.62500000  1
  Na  Na2  1  0.12500000  0.62500000  0.12500000  1
  Na  Na3  1  0.62500000  0.12500000  0.12500000  1
  In  In4  1  0.40263600  0.40263600  0.40263600  1
  In  In5  1  0.40263600  0.40263600  0.79209200  1
  In  In6  1  0.40263600  0.79209200  0.40263600  1
  In  In7  1  0.84736400  0.84736400  0.45790800  1
  In  In8  1  0.84736400  0.84736400  0.84736400  1
  In  In9  1  0.79209200  0.40263600  0.40263600  1
  In  In10  1  0.84736400  0.45790800  0.84736400  1
  In  In11  1  0.45790800  0.84736400  0.84736400  1
