# generated using pymatgen
data_PH17C4S2(N2O)4
_symmetry_space_group_name_H-M   'P 1'
_cell_length_a   7.67571028
_cell_length_b   8.09828613
_cell_length_c   13.62227089
_cell_angle_alpha   71.01202311
_cell_angle_beta   73.42238949
_cell_angle_gamma   86.07516005
_symmetry_Int_Tables_number   1
_chemical_formula_structural   PH17C4S2(N2O)4
_chemical_formula_sum   'P2 H34 C8 S4 N16 O8'
_cell_volume   767.12767988
_cell_formula_units_Z   2
loop_
 _symmetry_equiv_pos_site_id
 _symmetry_equiv_pos_as_xyz
  1  'x, y, z'
loop_
 _atom_site_type_symbol
 _atom_site_label
 _atom_site_symmetry_multiplicity
 _atom_site_fract_x
 _atom_site_fract_y
 _atom_site_fract_z
 _atom_site_occupancy
  P  P0  1  0.63913400  0.35446500  0.34794200  1
  P  P1  1  0.36086600  0.64553500  0.65205800  1
  H  H2  1  0.96331300  0.16233000  0.10990400  1
  H  H3  1  0.03668700  0.83767000  0.89009600  1
  H  H4  1  0.55104300  0.65614300  0.19914200  1
  H  H5  1  0.44895700  0.34385700  0.80085800  1
  H  H6  1  0.23476400  0.34816800  0.35057700  1
  H  H7  1  0.76523600  0.65183200  0.64942300  1
  H  H8  1  0.47468600  0.84016300  0.11087400  1
  H  H9  1  0.52531400  0.15983700  0.88912600  1
  H  H10  1  0.19340200  0.31074700  0.64581300  1
  H  H11  1  0.80659800  0.68925300  0.35418700  1
  H  H12  1  0.28734700  0.55139200  0.05661600  1
  H  H13  1  0.71265300  0.44860800  0.94338400  1
  H  H14  1  0.56883000  0.36222600  0.45464300  1
  H  H15  1  0.43117000  0.63777400  0.54535700  1
  H  H16  1  0.15863300  0.39058600  0.82744800  1
  H  H17  1  0.84136700  0.60941400  0.17255200  1
  H  H18  1  0.00314200  0.33789700  0.35204700  1
  H  H19  1  0.99685800  0.66210300  0.64795300  1
  H  H20  1  0.27578700  0.10400500  0.63461900  1
  H  H21  1  0.72421300  0.89599500  0.36538100  1
  H  H22  1  0.43487800  0.24488200  0.12368900  1
  H  H23  1  0.56512200  0.75511800  0.87631100  1
  H  H24  1  0.49696500  0.36373600  0.18353500  1
  H  H25  1  0.50303500  0.63626400  0.81646500  1
  H  H26  1  0.41836200  0.10041000  0.36132400  1
  H  H27  1  0.58163800  0.89959000  0.63867600  1
  H  H28  1  0.68658300  0.09223500  0.63822800  1
  H  H29  1  0.31341700  0.90776500  0.36177200  1
  H  H30  1  0.10041200  0.51375600  0.17322900  1
  H  H31  1  0.89958800  0.48624400  0.82677100  1
  H  H32  1  0.87926200  0.08987100  0.36231400  1
  H  H33  1  0.12073800  0.91012900  0.63768600  1
  H  H34  1  0.74283300  0.26029700  0.10436700  1
  H  H35  1  0.25716700  0.73970300  0.89563300  1
  C  C36  1  0.14840300  0.11075800  0.36056700  1
  C  C37  1  0.85159700  0.88924200  0.63943300  1
  C  C38  1  0.00699000  0.14805900  0.64105000  1
  C  C39  1  0.99301000  0.85194100  0.35895000  1
  C  C40  1  0.26028000  0.20843800  0.94514200  1
  C  C41  1  0.73972000  0.79156200  0.05485800  1
  C  C42  1  0.05261900  0.67541000  0.03436800  1
  C  C43  1  0.94738100  0.32459000  0.96563200  1
  S  S44  1  0.23443500  0.06268500  0.07085900  1
  S  S45  1  0.76556500  0.93731500  0.92914100  1
  S  S46  1  0.16479400  0.71192800  0.35065000  1
  S  S47  1  0.83520600  0.28807200  0.64935000  1
  N  N48  1  0.12397400  0.30972900  0.90986100  1
  N  N49  1  0.87602600  0.69027100  0.09013800  1
  N  N50  1  0.17467500  0.19263500  0.63742300  1
  N  N51  1  0.82532500  0.80736500  0.36257700  1
  N  N52  1  0.30754900  0.03592800  0.36183000  1
  N  N53  1  0.69245100  0.96407200  0.63817000  1
  N  N54  1  0.15518800  0.57154900  0.09249100  1
  N  N55  1  0.84481200  0.42845100  0.90750900  1
  N  N56  1  0.12341900  0.27609800  0.35842700  1
  N  N57  1  0.87658100  0.72390200  0.64157300  1
  N  N58  1  0.58025100  0.76622900  0.13091700  1
  N  N59  1  0.41974900  0.23377100  0.86908300  1
  N  N60  1  0.00242000  0.02016000  0.36257500  1
  N  N61  1  0.99758000  0.97984000  0.63742500  1
  N  N62  1  0.87990500  0.24611200  0.07054500  1
  N  N63  1  0.12009500  0.75388800  0.92945500  1
  O  O64  1  0.67815200  0.16183000  0.35718800  1
  O  O65  1  0.32184800  0.83817000  0.64281200  1
  O  O66  1  0.18787400  0.52552700  0.70252300  1
  O  O67  1  0.81212600  0.47447300  0.29747600  1
  O  O68  1  0.51729700  0.34059100  0.11270000  1
  O  O69  1  0.48270300  0.65940900  0.88730000  1
  O  O70  1  0.48930300  0.42436800  0.29046400  1
  O  O71  1  0.51069700  0.57563200  0.70953600  1
