# generated using pymatgen
data_Rb2UH2(SeO5)2
_symmetry_space_group_name_H-M   'P 1'
_cell_length_a   7.93122800
_cell_length_b   11.73806000
_cell_length_c   13.91377900
_cell_angle_alpha   90.00000000
_cell_angle_beta   90.00000000
_cell_angle_gamma   90.00000000
_symmetry_Int_Tables_number   1
_chemical_formula_structural   Rb2UH2(SeO5)2
_chemical_formula_sum   'Rb8 U4 H8 Se8 O40'
_cell_volume   1295.33428565
_cell_formula_units_Z   4
loop_
 _symmetry_equiv_pos_site_id
 _symmetry_equiv_pos_as_xyz
  1  'x, y, z'
loop_
 _atom_site_type_symbol
 _atom_site_label
 _atom_site_symmetry_multiplicity
 _atom_site_fract_x
 _atom_site_fract_y
 _atom_site_fract_z
 _atom_site_occupancy
  Rb  Rb0  1  0.32394400  0.88361900  0.02931500  1
  Rb  Rb1  1  0.82394400  0.11638100  0.97068500  1
  Rb  Rb2  1  0.32394400  0.61638100  0.52931500  1
  Rb  Rb3  1  0.82394400  0.38361900  0.47068500  1
  Rb  Rb4  1  0.80174000  0.84415100  0.44195800  1
  Rb  Rb5  1  0.30174000  0.15584900  0.55804200  1
  Rb  Rb6  1  0.80174000  0.65584900  0.94195800  1
  Rb  Rb7  1  0.30174000  0.34415100  0.05804200  1
  U  U8  1  0.00646800  0.59651600  0.24543400  1
  U  U9  1  0.50646800  0.40348400  0.75456600  1
  U  U10  1  0.00646800  0.90348400  0.74543400  1
  U  U11  1  0.50646800  0.09651600  0.25456600  1
  H  H12  1  0.44516300  0.59439700  0.06463900  1
  H  H13  1  0.94516300  0.40560300  0.93536100  1
  H  H14  1  0.44516300  0.90560300  0.56463900  1
  H  H15  1  0.94516300  0.09439700  0.43536100  1
  H  H16  1  0.66659500  0.59679500  0.26570700  1
  H  H17  1  0.16659500  0.40320500  0.73429300  1
  H  H18  1  0.66659500  0.90320500  0.76570700  1
  H  H19  1  0.16659500  0.09679500  0.23429300  1
  Se  Se20  1  0.81273800  0.31553600  0.18514700  1
  Se  Se21  1  0.31273800  0.68446400  0.81485300  1
  Se  Se22  1  0.81273800  0.18446400  0.68514700  1
  Se  Se23  1  0.31273800  0.81553600  0.31485300  1
  Se  Se24  1  0.82111100  0.88139600  0.16575800  1
  Se  Se25  1  0.32111100  0.11860400  0.83424200  1
  Se  Se26  1  0.82111100  0.61860400  0.66575800  1
  Se  Se27  1  0.32111100  0.38139600  0.33424200  1
  O  O28  1  0.48311100  0.75767700  0.36231400  1
  O  O29  1  0.98311100  0.24232300  0.63768600  1
  O  O30  1  0.48311100  0.74232300  0.86231400  1
  O  O31  1  0.98311100  0.25767700  0.13768600  1
  O  O32  1  0.86528800  0.42615200  0.26012000  1
  O  O33  1  0.36528800  0.57384800  0.73988000  1
  O  O34  1  0.86528800  0.07384800  0.76012000  1
  O  O35  1  0.36528800  0.92615200  0.23988000  1
  O  O36  1  0.99572400  0.93881100  0.12413000  1
  O  O37  1  0.49572400  0.06118900  0.87587000  1
  O  O38  1  0.99572400  0.56118900  0.62413000  1
  O  O39  1  0.49572400  0.43881100  0.37587000  1
  O  O40  1  0.99784200  0.60694000  0.37636400  1
  O  O41  1  0.49784200  0.39306000  0.62363600  1
  O  O42  1  0.99784200  0.89306000  0.87636400  1
  O  O43  1  0.49784200  0.10694000  0.12363600  1
  O  O44  1  0.86122400  0.76700700  0.23851300  1
  O  O45  1  0.36122400  0.23299300  0.76148700  1
  O  O46  1  0.86122400  0.73299300  0.73851300  1
  O  O47  1  0.36122400  0.26700700  0.26148700  1
  O  O48  1  0.68685600  0.84482100  0.08028400  1
  O  O49  1  0.18685600  0.15517900  0.91971600  1
  O  O50  1  0.68685600  0.65517900  0.58028400  1
  O  O51  1  0.18685600  0.34482100  0.41971600  1
  O  O52  1  0.73198200  0.97254600  0.24707300  1
  O  O53  1  0.23198200  0.02745400  0.75292700  1
  O  O54  1  0.73198200  0.52745400  0.74707300  1
  O  O55  1  0.23198200  0.47254600  0.25292700  1
  O  O56  1  0.67329200  0.35578000  0.10443700  1
  O  O57  1  0.17329200  0.64422000  0.89556300  1
  O  O58  1  0.67329200  0.14422000  0.60443700  1
  O  O59  1  0.17329200  0.85578000  0.39556300  1
  O  O60  1  0.99887300  0.58302200  0.11495400  1
  O  O61  1  0.49887300  0.41697800  0.88504600  1
  O  O62  1  0.99887300  0.91697800  0.61495400  1
  O  O63  1  0.49887300  0.08302200  0.38504600  1
  O  O64  1  0.22778800  0.72234000  0.23332900  1
  O  O65  1  0.72778800  0.27766000  0.76667100  1
  O  O66  1  0.22778800  0.77766000  0.73332900  1
  O  O67  1  0.72778800  0.22234000  0.26667100  1
