# generated using pymatgen
data_NaCa6Ti(Si2O9)2
_symmetry_space_group_name_H-M   'P 1'
_cell_length_a   5.70757700
_cell_length_b   7.60241813
_cell_length_c   9.81435611
_cell_angle_alpha   101.56228114
_cell_angle_beta   100.40040257
_cell_angle_gamma   89.72569222
_symmetry_Int_Tables_number   1
_chemical_formula_structural   NaCa6Ti(Si2O9)2
_chemical_formula_sum   'Na1 Ca6 Ti1 Si4 O18'
_cell_volume   410.14409592
_cell_formula_units_Z   1
loop_
 _symmetry_equiv_pos_site_id
 _symmetry_equiv_pos_as_xyz
  1  'x, y, z'
loop_
 _atom_site_type_symbol
 _atom_site_label
 _atom_site_symmetry_multiplicity
 _atom_site_fract_x
 _atom_site_fract_y
 _atom_site_fract_z
 _atom_site_occupancy
  Na  Na0  1  0.00000000  0.00000000  0.00000000  1
  Ca  Ca1  1  0.80400200  0.09717400  0.37524900  1
  Ca  Ca2  1  0.19599800  0.90282600  0.62475100  1
  Ca  Ca3  1  0.50487600  0.29888300  0.01262700  1
  Ca  Ca4  1  0.49512400  0.70111700  0.98737300  1
  Ca  Ca5  1  0.21286000  0.41193900  0.64164800  1
  Ca  Ca6  1  0.78714000  0.58806100  0.35835200  1
  Ti  Ti7  1  0.00000000  0.50000000  0.00000000  1
  Si  Si8  1  0.25566100  0.85300300  0.27943300  1
  Si  Si9  1  0.74433900  0.14699700  0.72056700  1
  Si  Si10  1  0.24615700  0.27729100  0.27290900  1
  Si  Si11  1  0.75384300  0.72270900  0.72709100  1
  O  O12  1  0.16260500  0.32549900  0.11485100  1
  O  O13  1  0.83739500  0.67450100  0.88514900  1
  O  O14  1  0.53394100  0.31319400  0.31658500  1
  O  O15  1  0.46605900  0.68680600  0.68341500  1
  O  O16  1  0.19716100  0.71221800  0.12519500  1
  O  O17  1  0.80283900  0.28778200  0.87480500  1
  O  O18  1  0.07478000  0.82874900  0.38670700  1
  O  O19  1  0.92522000  0.17125100  0.61329300  1
  O  O20  1  0.60144300  0.00962200  0.05121600  1
  O  O21  1  0.39855700  0.99037800  0.94878400  1
  O  O22  1  0.17425800  0.05425200  0.23857400  1
  O  O23  1  0.82574200  0.94574800  0.76142600  1
  O  O24  1  0.75450700  0.53575800  0.11089100  1
  O  O25  1  0.24549300  0.46424200  0.88910900  1
  O  O26  1  0.46170400  0.14722700  0.65722100  1
  O  O27  1  0.53829600  0.85277300  0.34277900  1
  O  O28  1  0.08327200  0.36286200  0.38790900  1
  O  O29  1  0.91672800  0.63713800  0.61209100  1
