# generated using pymatgen
data_Rb5Nd2W(NO3)11
_symmetry_space_group_name_H-M   'P 1'
_cell_length_a   11.19167536
_cell_length_b   11.19167536
_cell_length_c   14.49124169
_cell_angle_alpha   76.48002875
_cell_angle_beta   76.48002875
_cell_angle_gamma   85.42615541
_symmetry_Int_Tables_number   1
_chemical_formula_structural   Rb5Nd2W(NO3)11
_chemical_formula_sum   'Rb10 Nd4 W2 N22 O66'
_cell_volume   1715.27239926
_cell_formula_units_Z   2
loop_
 _symmetry_equiv_pos_site_id
 _symmetry_equiv_pos_as_xyz
  1  'x, y, z'
loop_
 _atom_site_type_symbol
 _atom_site_label
 _atom_site_symmetry_multiplicity
 _atom_site_fract_x
 _atom_site_fract_y
 _atom_site_fract_z
 _atom_site_occupancy
  Rb  Rb0  1  0.38789800  0.61210200  0.25000000  1
  Rb  Rb1  1  0.61210200  0.38789800  0.75000000  1
  Rb  Rb2  1  0.27479200  0.13272800  0.23354200  1
  Rb  Rb3  1  0.72520800  0.86727200  0.76645800  1
  Rb  Rb4  1  0.86727200  0.72520800  0.26645800  1
  Rb  Rb5  1  0.13272800  0.27479200  0.73354200  1
  Rb  Rb6  1  0.55839600  0.78851800  0.52858700  1
  Rb  Rb7  1  0.44160400  0.21148200  0.47141300  1
  Rb  Rb8  1  0.21148200  0.44160400  0.97141300  1
  Rb  Rb9  1  0.78851800  0.55839600  0.02858700  1
  Nd  Nd10  1  0.70931300  0.11126500  0.11687100  1
  Nd  Nd11  1  0.29068700  0.88873500  0.88312900  1
  Nd  Nd12  1  0.88873500  0.29068700  0.38312900  1
  Nd  Nd13  1  0.11126500  0.70931300  0.61687100  1
  W  W14  1  0.14982100  0.85017900  0.25000000  1
  W  W15  1  0.85017900  0.14982100  0.75000000  1
  N  N16  1  0.73688200  0.07802000  0.52376200  1
  N  N17  1  0.26311800  0.92198000  0.47623800  1
  N  N18  1  0.92198000  0.26311800  0.97623800  1
  N  N19  1  0.07802000  0.73688200  0.02376200  1
  N  N20  1  0.46564200  0.74982000  0.00790000  1
  N  N21  1  0.53435800  0.25018000  0.99210000  1
  N  N22  1  0.25018000  0.53435800  0.49210000  1
  N  N23  1  0.74982000  0.46564200  0.50790000  1
  N  N24  1  0.22937000  0.08990500  0.99492700  1
  N  N25  1  0.77063000  0.91009500  0.00507300  1
  N  N26  1  0.91009500  0.77063000  0.50507300  1
  N  N27  1  0.08990500  0.22937000  0.49492700  1
  N  N28  1  0.53030200  0.28930700  0.21990900  1
  N  N29  1  0.46969800  0.71069300  0.78009100  1
  N  N30  1  0.71069300  0.46969800  0.28009100  1
  N  N31  1  0.28930700  0.53030200  0.71990900  1
  N  N32  1  0.57349000  0.89003800  0.26497200  1
  N  N33  1  0.42651000  0.10996200  0.73502800  1
  N  N34  1  0.10996200  0.42651000  0.23502800  1
  N  N35  1  0.89003800  0.57349000  0.76497200  1
  N  N36  1  0.89887200  0.10112800  0.25000000  1
  N  N37  1  0.10112800  0.89887200  0.75000000  1
  O  O38  1  0.79612700  0.90049900  0.08866600  1
  O  O39  1  0.20387300  0.09950100  0.91133400  1
  O  O40  1  0.09950100  0.20387300  0.41133400  1
  O  O41  1  0.90049900  0.79612700  0.58866600  1
  O  O42  1  0.29482400  0.99628100  0.02433500  1
  O  O43  1  0.70517600  0.00371900  0.97566500  1
  O  O44  1  0.00371900  0.70517600  0.47566500  1
  O  O45  1  0.99628100  0.29482400  0.52433500  1
  O  O46  1  0.90793400  0.02985200  0.19259100  1
  O  O47  1  0.09206600  0.97014800  0.80740900  1
  O  O48  1  0.97014800  0.09206600  0.30740900  1
  O  O49  1  0.02985200  0.90793400  0.69259100  1
  O  O50  1  0.53706000  0.17334500  0.25631900  1
  O  O51  1  0.46294000  0.82665500  0.74368100  1
  O  O52  1  0.82665500  0.46294000  0.24368100  1
  O  O53  1  0.17334500  0.53706000  0.75631900  1
  O  O54  1  0.49789400  0.17310400  0.07274900  1
  O  O55  1  0.50210600  0.82689600  0.92725100  1
  O  O56  1  0.82689600  0.50210600  0.42725100  1
  O  O57  1  0.17310400  0.49789400  0.57274900  1
  O  O58  1  0.19009800  0.16701700  0.04499200  1
  O  O59  1  0.80990200  0.83298300  0.95500800  1
  O  O60  1  0.83298300  0.80990200  0.45500800  1
  O  O61  1  0.16701700  0.19009800  0.54499200  1
  O  O62  1  0.34982700  0.73645500  0.03831000  1
  O  O63  1  0.65017300  0.26354500  0.96169000  1
  O  O64  1  0.26354500  0.65017300  0.46169000  1
  O  O65  1  0.73645500  0.34982700  0.53831000  1
  O  O66  1  0.33725500  0.99660600  0.41710600  1
  O  O67  1  0.66274500  0.00339400  0.58289400  1
  O  O68  1  0.00339400  0.66274500  0.08289400  1
  O  O69  1  0.99660600  0.33725500  0.91710600  1
  O  O70  1  0.70887200  0.14116700  0.44497400  1
  O  O71  1  0.29112800  0.85883300  0.55502600  1
  O  O72  1  0.85883300  0.29112800  0.05502600  1
  O  O73  1  0.14116700  0.70887200  0.94497400  1
  O  O74  1  0.54002200  0.69058000  0.05464200  1
  O  O75  1  0.45997800  0.30942000  0.94535800  1
  O  O76  1  0.30942000  0.45997800  0.44535800  1
  O  O77  1  0.69058000  0.54002200  0.55464200  1
  O  O78  1  0.66915500  0.93468800  0.27813900  1
  O  O79  1  0.33084500  0.06531200  0.72186100  1
  O  O80  1  0.06531200  0.33084500  0.22186100  1
  O  O81  1  0.93468800  0.66915500  0.77813900  1
  O  O82  1  0.81469500  0.18530500  0.25000000  1
  O  O83  1  0.18530500  0.81469500  0.75000000  1
  O  O84  1  0.61485000  0.33434300  0.14762800  1
  O  O85  1  0.38515000  0.66565700  0.85237200  1
  O  O86  1  0.66565700  0.38515000  0.35237200  1
  O  O87  1  0.33434300  0.61485000  0.64762800  1
  O  O88  1  0.52393300  0.79737000  0.32360100  1
  O  O89  1  0.47606700  0.20263000  0.67639900  1
  O  O90  1  0.20263000  0.47606700  0.17639900  1
  O  O91  1  0.79737000  0.52393300  0.82360100  1
  O  O92  1  0.44156100  0.35271700  0.25478000  1
  O  O93  1  0.55843900  0.64728300  0.74522000  1
  O  O94  1  0.64728300  0.55843900  0.24522000  1
  O  O95  1  0.35271700  0.44156100  0.75478000  1
  O  O96  1  0.53306700  0.94319300  0.19015900  1
  O  O97  1  0.46693300  0.05680700  0.80984100  1
  O  O98  1  0.05680700  0.46693300  0.30984100  1
  O  O99  1  0.94319300  0.53306700  0.69015900  1
  O  O100  1  0.84051500  0.09700900  0.53860700  1
  O  O101  1  0.15948500  0.90299100  0.46139300  1
  O  O102  1  0.90299100  0.15948500  0.96139300  1
  O  O103  1  0.09700900  0.84051500  0.03860700  1
