# generated using pymatgen
data_NiAg4P6(HO3)6
_symmetry_space_group_name_H-M   'P 1'
_cell_length_a   6.69141800
_cell_length_b   8.04793788
_cell_length_c   9.15957489
_cell_angle_alpha   98.40930260
_cell_angle_beta   106.04702779
_cell_angle_gamma   89.20799405
_symmetry_Int_Tables_number   1
_chemical_formula_structural   NiAg4P6(HO3)6
_chemical_formula_sum   'Ni1 Ag4 P6 H6 O18'
_cell_volume   468.76233339
_cell_formula_units_Z   1
loop_
 _symmetry_equiv_pos_site_id
 _symmetry_equiv_pos_as_xyz
  1  'x, y, z'
loop_
 _atom_site_type_symbol
 _atom_site_label
 _atom_site_symmetry_multiplicity
 _atom_site_fract_x
 _atom_site_fract_y
 _atom_site_fract_z
 _atom_site_occupancy
  Ni  Ni0  1  0.00000000  0.00000000  0.00000000  1
  Ag  Ag1  1  0.37254700  0.72452900  0.57494300  1
  Ag  Ag2  1  0.62745300  0.27547100  0.42505700  1
  Ag  Ag3  1  0.18866300  0.38987900  0.14191000  1
  Ag  Ag4  1  0.81133700  0.61012100  0.85809000  1
  P  P5  1  0.71304400  0.55588700  0.19931200  1
  P  P6  1  0.28695600  0.44411300  0.80068800  1
  P  P7  1  0.84752800  0.73239400  0.51542400  1
  P  P8  1  0.15247200  0.26760600  0.48457600  1
  P  P9  1  0.50933100  0.85697200  0.28782600  1
  P  P10  1  0.49066900  0.14302800  0.71217400  1
  H  H11  1  0.91469300  0.99032000  0.14278300  1
  H  H12  1  0.08530700  0.00968000  0.85721700  1
  H  H13  1  0.95072600  0.09090900  0.15120600  1
  H  H14  1  0.04927400  0.90909100  0.84879400  1
  H  H15  1  0.91210000  0.81660000  0.96373900  1
  H  H16  1  0.08790000  0.18340000  0.03626100  1
  O  O17  1  0.60361300  0.73151500  0.16594500  1
  O  O18  1  0.39638700  0.26848500  0.83405500  1
  O  O19  1  0.71361000  0.64776400  0.59635900  1
  O  O20  1  0.28639000  0.35223600  0.40364100  1
  O  O21  1  0.93989500  0.20852600  0.38772600  1
  O  O22  1  0.06010500  0.79147400  0.61227400  1
  O  O23  1  0.87665600  0.60651200  0.36860100  1
  O  O24  1  0.12334400  0.39348800  0.63139900  1
  O  O25  1  0.71911100  0.88204600  0.43779000  1
  O  O26  1  0.28088900  0.11795400  0.56221000  1
  O  O27  1  0.34440700  0.75995400  0.32715100  1
  O  O28  1  0.65559300  0.24004600  0.67284900  1
  O  O29  1  0.84134700  0.51162800  0.08841700  1
  O  O30  1  0.15865300  0.48837200  0.91158300  1
  O  O31  1  0.56003700  0.42635700  0.21193100  1
  O  O32  1  0.43996300  0.57364300  0.78806900  1
  O  O33  1  0.53098800  0.97809900  0.76725900  1
  O  O34  1  0.46901200  0.02190100  0.23274100  1
