# generated using pymatgen
data_Si3H
_symmetry_space_group_name_H-M   'P 1'
_cell_length_a   11.42907258
_cell_length_b   11.42907258
_cell_length_c   11.42907292
_cell_angle_alpha   19.52761338
_cell_angle_beta   19.52761338
_cell_angle_gamma   19.52761315
_symmetry_Int_Tables_number   1
_chemical_formula_structural   Si3H
_chemical_formula_sum   'Si6 H2'
_cell_volume   145.85389043
_cell_formula_units_Z   2
loop_
 _symmetry_equiv_pos_site_id
 _symmetry_equiv_pos_as_xyz
  1  'x, y, z'
loop_
 _atom_site_type_symbol
 _atom_site_label
 _atom_site_symmetry_multiplicity
 _atom_site_fract_x
 _atom_site_fract_y
 _atom_site_fract_z
 _atom_site_occupancy
  Si  Si0  1  0.58379700  0.58379700  0.58379700  1
  Si  Si1  1  0.41620300  0.41620300  0.41620300  1
  Si  Si2  1  0.65493200  0.65493200  0.65493200  1
  Si  Si3  1  0.34506800  0.34506800  0.34506800  1
  Si  Si4  1  0.22789600  0.22789600  0.22789600  1
  Si  Si5  1  0.77210400  0.77210400  0.77210400  1
  H  H6  1  0.18317800  0.18317800  0.18317800  1
  H  H7  1  0.81682200  0.81682200  0.81682200  1
