# generated using pymatgen
data_NaCo(PO3)3
_symmetry_space_group_name_H-M   'P 1'
_cell_length_a   12.79676376
_cell_length_b   12.79676376
_cell_length_c   12.79676376
_cell_angle_alpha   109.47122063
_cell_angle_beta   109.47122063
_cell_angle_gamma   109.47122063
_symmetry_Int_Tables_number   1
_chemical_formula_structural   NaCo(PO3)3
_chemical_formula_sum   'Na8 Co8 P24 O72'
_cell_volume   1613.16416735
_cell_formula_units_Z   8
loop_
 _symmetry_equiv_pos_site_id
 _symmetry_equiv_pos_as_xyz
  1  'x, y, z'
loop_
 _atom_site_type_symbol
 _atom_site_label
 _atom_site_symmetry_multiplicity
 _atom_site_fract_x
 _atom_site_fract_y
 _atom_site_fract_z
 _atom_site_occupancy
  Na  Na0  1  0.21956200  0.21956200  0.21956200  1
  Na  Na1  1  0.28043800  0.50000000  0.00000000  1
  Na  Na2  1  0.00000000  0.28043800  0.50000000  1
  Na  Na3  1  0.71956200  0.71956200  0.71956200  1
  Na  Na4  1  0.50000000  0.00000000  0.28043800  1
  Na  Na5  1  0.78043800  0.50000000  0.00000000  1
  Na  Na6  1  0.50000000  0.00000000  0.78043800  1
  Na  Na7  1  0.00000000  0.78043800  0.50000000  1
  Co  Co8  1  0.46979800  0.46979800  0.46979800  1
  Co  Co9  1  0.03020200  0.50000000  0.00000000  1
  Co  Co10  1  0.00000000  0.03020200  0.50000000  1
  Co  Co11  1  0.96979800  0.96979800  0.96979800  1
  Co  Co12  1  0.50000000  0.00000000  0.03020200  1
  Co  Co13  1  0.53020200  0.50000000  0.00000000  1
  Co  Co14  1  0.50000000  0.00000000  0.53020200  1
  Co  Co15  1  0.00000000  0.53020200  0.50000000  1
  P  P16  1  0.00509500  0.21948500  0.94197700  1
  P  P17  1  0.49490500  0.43688200  0.21439000  1
  P  P18  1  0.72249100  0.28051500  0.28561000  1
  P  P19  1  0.21948500  0.94197700  0.00509500  1
  P  P20  1  0.50509500  0.44197700  0.71948500  1
  P  P21  1  0.77750900  0.06311800  0.55802300  1
  P  P22  1  0.43688200  0.21439000  0.49490500  1
  P  P23  1  0.99490500  0.71439000  0.93688200  1
  P  P24  1  0.28051500  0.28561000  0.72249100  1
  P  P25  1  0.22249100  0.78561000  0.78051500  1
  P  P26  1  0.06311800  0.55802300  0.77750900  1
  P  P27  1  0.27750900  0.05802300  0.56311800  1
  P  P28  1  0.94197700  0.00509500  0.21948500  1
  P  P29  1  0.71948500  0.50509500  0.44197700  1
  P  P30  1  0.28561000  0.72249100  0.28051500  1
  P  P31  1  0.78051500  0.22249100  0.78561000  1
  P  P32  1  0.55802300  0.77750900  0.06311800  1
  P  P33  1  0.56311800  0.27750900  0.05802300  1
  P  P34  1  0.21439000  0.49490500  0.43688200  1
  P  P35  1  0.93688200  0.99490500  0.71439000  1
  P  P36  1  0.44197700  0.71948500  0.50509500  1
  P  P37  1  0.71439000  0.93688200  0.99490500  1
  P  P38  1  0.05802300  0.56311800  0.27750900  1
  P  P39  1  0.78561000  0.78051500  0.22249100  1
  O  O40  1  0.08562900  0.35972900  0.99303300  1
  O  O41  1  0.41437100  0.40740500  0.27410000  1
  O  O42  1  0.63330500  0.14027100  0.22590000  1
  O  O43  1  0.35972900  0.99303300  0.08562900  1
  O  O44  1  0.58562900  0.49303300  0.85972900  1
  O  O45  1  0.86669500  0.09259500  0.50696700  1
  O  O46  1  0.40740500  0.27410000  0.41437100  1
  O  O47  1  0.91437100  0.77410000  0.90740500  1
  O  O48  1  0.14027100  0.22590000  0.63330500  1
  O  O49  1  0.13330500  0.72590000  0.64027100  1
  O  O50  1  0.09259500  0.50696700  0.86669500  1
  O  O51  1  0.36669500  0.00696700  0.59259500  1
  O  O52  1  0.99303300  0.08562900  0.35972900  1
  O  O53  1  0.85972900  0.58562900  0.49303300  1
  O  O54  1  0.22590000  0.63330500  0.14027100  1
  O  O55  1  0.64027100  0.13330500  0.72590000  1
  O  O56  1  0.50696700  0.86669500  0.09259500  1
  O  O57  1  0.59259500  0.36669500  0.00696700  1
  O  O58  1  0.27410000  0.41437100  0.40740500  1
  O  O59  1  0.90740500  0.91437100  0.77410000  1
  O  O60  1  0.49303300  0.85972900  0.58562900  1
  O  O61  1  0.77410000  0.90740500  0.91437100  1
  O  O62  1  0.00696700  0.59259500  0.36669500  1
  O  O63  1  0.72590000  0.64027100  0.13330500  1
  O  O64  1  0.02000900  0.14522300  0.82178700  1
  O  O65  1  0.47999100  0.30177900  0.12521500  1
  O  O66  1  0.67656400  0.35477700  0.37478500  1
  O  O67  1  0.14522300  0.82178700  0.02000900  1
  O  O68  1  0.52000900  0.32178700  0.64522300  1
  O  O69  1  0.82343600  0.19822100  0.67821300  1
  O  O70  1  0.30177900  0.12521500  0.47999100  1
  O  O71  1  0.97999100  0.62521500  0.80177900  1
  O  O72  1  0.35477700  0.37478500  0.67656400  1
  O  O73  1  0.17656400  0.87478500  0.85477700  1
  O  O74  1  0.19822100  0.67821300  0.82343600  1
  O  O75  1  0.32343600  0.17821300  0.69822100  1
  O  O76  1  0.82178700  0.02000900  0.14522300  1
  O  O77  1  0.64522300  0.52000900  0.32178700  1
  O  O78  1  0.37478500  0.67656400  0.35477700  1
  O  O79  1  0.85477700  0.17656400  0.87478500  1
  O  O80  1  0.67821300  0.82343600  0.19822100  1
  O  O81  1  0.69822100  0.32343600  0.17821300  1
  O  O82  1  0.12521500  0.47999100  0.30177900  1
  O  O83  1  0.80177900  0.97999100  0.62521500  1
  O  O84  1  0.32178700  0.64522300  0.52000900  1
  O  O85  1  0.62521500  0.80177900  0.97999100  1
  O  O86  1  0.17821300  0.69822100  0.32343600  1
  O  O87  1  0.87478500  0.85477700  0.17656400  1
  O  O88  1  0.16542400  0.02937300  0.02809300  1
  O  O89  1  0.33457600  0.36266900  0.86394900  1
  O  O90  1  0.99872000  0.47062700  0.63605100  1
  O  O91  1  0.02937300  0.02809300  0.16542400  1
  O  O92  1  0.66542400  0.52809300  0.52937300  1
  O  O93  1  0.50128000  0.13733100  0.47190700  1
  O  O94  1  0.36266900  0.86394900  0.33457600  1
  O  O95  1  0.83457600  0.36394900  0.86266900  1
  O  O96  1  0.47062700  0.63605100  0.99872000  1
  O  O97  1  0.49872000  0.13605100  0.97062700  1
  O  O98  1  0.13733100  0.47190700  0.50128000  1
  O  O99  1  0.00128000  0.97190700  0.63733100  1
  O  O100  1  0.02809300  0.16542400  0.02937300  1
  O  O101  1  0.52937300  0.66542400  0.52809300  1
  O  O102  1  0.63605100  0.99872000  0.47062700  1
  O  O103  1  0.97062700  0.49872000  0.13605100  1
  O  O104  1  0.47190700  0.50128000  0.13733100  1
  O  O105  1  0.63733100  0.00128000  0.97190700  1
  O  O106  1  0.86394900  0.33457600  0.36266900  1
  O  O107  1  0.86266900  0.83457600  0.36394900  1
  O  O108  1  0.52809300  0.52937300  0.66542400  1
  O  O109  1  0.36394900  0.86266900  0.83457600  1
  O  O110  1  0.97190700  0.63733100  0.00128000  1
  O  O111  1  0.13605100  0.97062700  0.49872000  1
