# generated using pymatgen
data_Na2ZnFe2(PO4)3
_symmetry_space_group_name_H-M   'P 1'
_cell_length_a   8.67493557
_cell_length_b   8.67493557
_cell_length_c   6.58659704
_cell_angle_alpha   73.88247110
_cell_angle_beta   73.88247110
_cell_angle_gamma   93.43907240
_symmetry_Int_Tables_number   1
_chemical_formula_structural   Na2ZnFe2(PO4)3
_chemical_formula_sum   'Na4 Zn2 Fe4 P6 O24'
_cell_volume   452.39935634
_cell_formula_units_Z   2
loop_
 _symmetry_equiv_pos_site_id
 _symmetry_equiv_pos_as_xyz
  1  'x, y, z'
loop_
 _atom_site_type_symbol
 _atom_site_label
 _atom_site_symmetry_multiplicity
 _atom_site_fract_x
 _atom_site_fract_y
 _atom_site_fract_z
 _atom_site_occupancy
  Na  Na0  1  0.98554800  0.01445200  0.25000000  1
  Na  Na1  1  0.01445200  0.98554800  0.75000000  1
  Na  Na2  1  0.50000000  0.50000000  0.00000000  1
  Na  Na3  1  0.50000000  0.50000000  0.50000000  1
  Zn  Zn4  1  0.26932300  0.73067700  0.25000000  1
  Zn  Zn5  1  0.73067700  0.26932300  0.75000000  1
  Fe  Fe6  1  0.38142700  0.05695300  0.37350700  1
  Fe  Fe7  1  0.61857300  0.94304700  0.62649300  1
  Fe  Fe8  1  0.94304700  0.61857300  0.12649300  1
  Fe  Fe9  1  0.05695300  0.38142700  0.87350700  1
  P  P10  1  0.71108100  0.28891900  0.25000000  1
  P  P11  1  0.28891900  0.71108100  0.75000000  1
  P  P12  1  0.65602200  0.87443200  0.11907700  1
  P  P13  1  0.34397800  0.12556800  0.88092300  1
  P  P14  1  0.12556800  0.34397800  0.38092300  1
  P  P15  1  0.87443200  0.65602200  0.61907700  1
  O  O16  1  0.53307500  0.26212200  0.25289400  1
  O  O17  1  0.46692500  0.73787800  0.74710600  1
  O  O18  1  0.73787800  0.46692500  0.24710600  1
  O  O19  1  0.26212200  0.53307500  0.75289400  1
  O  O20  1  0.52443200  0.72911300  0.16853100  1
  O  O21  1  0.47556800  0.27088700  0.83146900  1
  O  O22  1  0.27088700  0.47556800  0.33146900  1
  O  O23  1  0.72911300  0.52443200  0.66853100  1
  O  O24  1  0.74205100  0.17665800  0.46203500  1
  O  O25  1  0.25794900  0.82334200  0.53796500  1
  O  O26  1  0.82334200  0.25794900  0.03796500  1
  O  O27  1  0.17665800  0.74205100  0.96203500  1
  O  O28  1  0.60379700  0.95495400  0.30761000  1
  O  O29  1  0.39620300  0.04504600  0.69239000  1
  O  O30  1  0.04504600  0.39620300  0.19239000  1
  O  O31  1  0.95495400  0.60379700  0.80761000  1
  O  O32  1  0.82694300  0.82540500  0.10801400  1
  O  O33  1  0.17305700  0.17459500  0.89198600  1
  O  O34  1  0.17459500  0.17305700  0.39198600  1
  O  O35  1  0.82540500  0.82694300  0.60801400  1
  O  O36  1  0.32448300  0.99593100  0.11048100  1
  O  O37  1  0.67551700  0.00406900  0.88951900  1
  O  O38  1  0.00406900  0.67551700  0.38951900  1
  O  O39  1  0.99593100  0.32448300  0.61048100  1
