# generated using pymatgen
data_Na3Zn2(WO4)3
_symmetry_space_group_name_H-M   'P 1'
_cell_length_a   9.32191935
_cell_length_b   9.32191935
_cell_length_c   7.38881530
_cell_angle_alpha   74.47123438
_cell_angle_beta   74.47123438
_cell_angle_gamma   98.39691740
_symmetry_Int_Tables_number   1
_chemical_formula_structural   Na3Zn2(WO4)3
_chemical_formula_sum   'Na6 Zn4 W6 O24'
_cell_volume   579.43154460
_cell_formula_units_Z   2
loop_
 _symmetry_equiv_pos_site_id
 _symmetry_equiv_pos_as_xyz
  1  'x, y, z'
loop_
 _atom_site_type_symbol
 _atom_site_label
 _atom_site_symmetry_multiplicity
 _atom_site_fract_x
 _atom_site_fract_y
 _atom_site_fract_z
 _atom_site_occupancy
  Na  Na0  1  0.23477900  0.76522100  0.25000000  1
  Na  Na1  1  0.76522100  0.23477900  0.75000000  1
  Na  Na2  1  0.00000000  0.00000000  0.00000000  1
  Na  Na3  1  0.00000000  0.00000000  0.50000000  1
  Na  Na4  1  0.52388700  0.47611300  0.25000000  1
  Na  Na5  1  0.47611300  0.52388700  0.75000000  1
  Zn  Zn6  1  0.55781900  0.86433200  0.36978600  1
  Zn  Zn7  1  0.44218100  0.13566800  0.63021400  1
  Zn  Zn8  1  0.13566800  0.44218100  0.13021400  1
  Zn  Zn9  1  0.86433200  0.55781900  0.86978600  1
  W  W10  1  0.77622300  0.22377700  0.25000000  1
  W  W11  1  0.22377700  0.77622300  0.75000000  1
  W  W12  1  0.38134700  0.16805800  0.12107700  1
  W  W13  1  0.61865300  0.83194200  0.87892300  1
  W  W14  1  0.83194200  0.61865300  0.37892300  1
  W  W15  1  0.16805800  0.38134700  0.62107700  1
  O  O16  1  0.46325500  0.11670500  0.32200300  1
  O  O17  1  0.53674500  0.88329500  0.67799700  1
  O  O18  1  0.88329500  0.53674500  0.17799700  1
  O  O19  1  0.11670500  0.46325500  0.82200300  1
  O  O20  1  0.50424100  0.84007600  0.11634900  1
  O  O21  1  0.49575900  0.15992400  0.88365100  1
  O  O22  1  0.15992400  0.49575900  0.38365100  1
  O  O23  1  0.84007600  0.50424100  0.61634900  1
  O  O24  1  0.20038500  0.03695600  0.19580800  1
  O  O25  1  0.79961500  0.96304400  0.80419200  1
  O  O26  1  0.96304400  0.79961500  0.30419200  1
  O  O27  1  0.03695600  0.20038500  0.69580800  1
  O  O28  1  0.75186500  0.02271300  0.23250100  1
  O  O29  1  0.24813500  0.97728700  0.76749900  1
  O  O30  1  0.97728700  0.24813500  0.26749900  1
  O  O31  1  0.02271300  0.75186500  0.73250100  1
  O  O32  1  0.65675300  0.25930900  0.47972300  1
  O  O33  1  0.34324700  0.74069100  0.52027700  1
  O  O34  1  0.74069100  0.34324700  0.02027700  1
  O  O35  1  0.25930900  0.65675300  0.97972300  1
  O  O36  1  0.63865000  0.65300200  0.41281100  1
  O  O37  1  0.36135000  0.34699800  0.58718900  1
  O  O38  1  0.34699800  0.36135000  0.08718900  1
  O  O39  1  0.65300200  0.63865000  0.91281100  1
