# generated using pymatgen
data_Na4Ca4Ti4Si4O22F3
_symmetry_space_group_name_H-M   'P 1'
_cell_length_a   7.24305669
_cell_length_b   7.24305669
_cell_length_c   20.56257606
_cell_angle_alpha   84.91607445
_cell_angle_beta   84.91607445
_cell_angle_gamma   90.00019018
_symmetry_Int_Tables_number   1
_chemical_formula_structural   Na4Ca4Ti4Si4O22F3
_chemical_formula_sum   'Na8 Ca8 Ti8 Si8 O44 F6'
_cell_volume   1070.24665122
_cell_formula_units_Z   2
loop_
 _symmetry_equiv_pos_site_id
 _symmetry_equiv_pos_as_xyz
  1  'x, y, z'
loop_
 _atom_site_type_symbol
 _atom_site_label
 _atom_site_symmetry_multiplicity
 _atom_site_fract_x
 _atom_site_fract_y
 _atom_site_fract_z
 _atom_site_occupancy
  Na  Na0  1  0.44590800  0.32550600  0.69621300  1
  Na  Na1  1  0.55409200  0.67449400  0.30378700  1
  Na  Na2  1  0.67449400  0.55409200  0.80378700  1
  Na  Na3  1  0.32550600  0.44590800  0.19621300  1
  Na  Na4  1  0.67460700  0.04456100  0.80397500  1
  Na  Na5  1  0.32539300  0.95543900  0.19602500  1
  Na  Na6  1  0.95543900  0.32539300  0.69602500  1
  Na  Na7  1  0.04456100  0.67460700  0.30397500  1
  Ca  Ca8  1  0.23353500  0.10304500  0.56692800  1
  Ca  Ca9  1  0.76646500  0.89695500  0.43307200  1
  Ca  Ca10  1  0.89695500  0.76646500  0.93307200  1
  Ca  Ca11  1  0.10304500  0.23353500  0.06692800  1
  Ca  Ca12  1  0.23273500  0.61306200  0.56954500  1
  Ca  Ca13  1  0.76726500  0.38693800  0.43045500  1
  Ca  Ca14  1  0.38693800  0.76726500  0.93045500  1
  Ca  Ca15  1  0.61306200  0.23273500  0.06954500  1
  Ti  Ti16  1  0.45166600  0.83021200  0.68509100  1
  Ti  Ti17  1  0.54833400  0.16978800  0.31490900  1
  Ti  Ti18  1  0.16978800  0.54833400  0.81490900  1
  Ti  Ti19  1  0.83021200  0.45166600  0.18509100  1
  Ti  Ti20  1  0.16982100  0.04442200  0.81508500  1
  Ti  Ti21  1  0.83017900  0.95557800  0.18491500  1
  Ti  Ti22  1  0.95557800  0.83017900  0.68491500  1
  Ti  Ti23  1  0.04442200  0.16982100  0.31508500  1
  Si  Si24  1  0.42335600  0.27111000  0.91573400  1
  Si  Si25  1  0.57664400  0.72889000  0.08426600  1
  Si  Si26  1  0.72889000  0.57664400  0.58426600  1
  Si  Si27  1  0.27111000  0.42335600  0.41573400  1
  Si  Si28  1  0.72872900  0.13137700  0.58395000  1
  Si  Si29  1  0.27127100  0.86862300  0.41605000  1
  Si  Si30  1  0.86862300  0.27127100  0.91605000  1
  Si  Si31  1  0.13137700  0.72872900  0.08395000  1
  O  O32  1  0.52900800  0.04367300  0.61728200  1
  O  O33  1  0.47099200  0.95632700  0.38271800  1
  O  O34  1  0.95632700  0.47099200  0.88271800  1
  O  O35  1  0.04367300  0.52900800  0.11728200  1
  O  O36  1  0.74798300  0.12435900  0.50526400  1
  O  O37  1  0.25201700  0.87564100  0.49473600  1
  O  O38  1  0.87564100  0.25201700  0.99473600  1
  O  O39  1  0.12435900  0.74798300  0.00526400  1
  O  O40  1  0.52908800  0.64754600  0.61758600  1
  O  O41  1  0.47091200  0.35245400  0.38241400  1
  O  O42  1  0.35245400  0.47091200  0.88241400  1
  O  O43  1  0.64754600  0.52908800  0.11758600  1
  O  O44  1  0.00202300  0.99797700  0.75000000  1
  O  O45  1  0.99797700  0.00202300  0.25000000  1
  O  O46  1  0.21295300  0.83889000  0.64767500  1
  O  O47  1  0.78704700  0.16111000  0.35232500  1
  O  O48  1  0.16111000  0.78704700  0.85232500  1
  O  O49  1  0.83889000  0.21295300  0.14767500  1
  O  O50  1  0.62370300  0.74835600  0.00528400  1
  O  O51  1  0.37629700  0.25164400  0.99471600  1
  O  O52  1  0.25164400  0.37629700  0.49471600  1
  O  O53  1  0.74835600  0.62370300  0.50528400  1
  O  O54  1  0.37187400  0.62812600  0.75000000  1
  O  O55  1  0.62812600  0.37187400  0.25000000  1
  O  O56  1  0.65088600  0.27545800  0.89690000  1
  O  O57  1  0.34911400  0.72454200  0.10310000  1
  O  O58  1  0.72454200  0.34911400  0.60310000  1
  O  O59  1  0.27545800  0.65088600  0.39690000  1
  O  O60  1  0.37195800  0.99798800  0.75010700  1
  O  O61  1  0.62804200  0.00201200  0.24989300  1
  O  O62  1  0.00201200  0.62804200  0.74989300  1
  O  O63  1  0.99798800  0.37195800  0.25010700  1
  O  O64  1  0.69616000  0.82249700  0.71409900  1
  O  O65  1  0.30384000  0.17750300  0.28590100  1
  O  O66  1  0.17750300  0.30384000  0.78590100  1
  O  O67  1  0.82249700  0.69616000  0.21409900  1
  O  O68  1  0.35222400  0.08805300  0.88255400  1
  O  O69  1  0.64777600  0.91194700  0.11744600  1
  O  O70  1  0.91194700  0.64777600  0.61744600  1
  O  O71  1  0.08805300  0.35222400  0.38255400  1
  O  O72  1  0.91228300  0.04340800  0.61703900  1
  O  O73  1  0.08771700  0.95659200  0.38296100  1
  O  O74  1  0.95659200  0.08771700  0.88296100  1
  O  O75  1  0.04340800  0.91228300  0.11703900  1
  F  F76  1  0.68723900  0.31276100  0.75000000  1
  F  F77  1  0.31276100  0.68723900  0.25000000  1
  F  F78  1  0.65934800  0.78257300  0.86931000  1
  F  F79  1  0.34065200  0.21742700  0.13069000  1
  F  F80  1  0.21742700  0.34065200  0.63069000  1
  F  F81  1  0.78257300  0.65934800  0.36931000  1
