# generated using pymatgen
data_Na3YN4
_symmetry_space_group_name_H-M   'P 1'
_cell_length_a   6.98311105
_cell_length_b   6.98311105
_cell_length_c   12.79671098
_cell_angle_alpha   105.08108410
_cell_angle_beta   105.08108410
_cell_angle_gamma   92.65989830
_symmetry_Int_Tables_number   1
_chemical_formula_structural   Na3YN4
_chemical_formula_sum   'Na12 Y4 N16'
_cell_volume   577.39926952
_cell_formula_units_Z   4
loop_
 _symmetry_equiv_pos_site_id
 _symmetry_equiv_pos_as_xyz
  1  'x, y, z'
loop_
 _atom_site_type_symbol
 _atom_site_label
 _atom_site_symmetry_multiplicity
 _atom_site_fract_x
 _atom_site_fract_y
 _atom_site_fract_z
 _atom_site_occupancy
  Na  Na0  1  0.52884700  0.77224000  0.46117500  1
  Na  Na1  1  0.93232800  0.68893500  0.46117500  1
  Na  Na2  1  0.22776000  0.47115300  0.53882500  1
  Na  Na3  1  0.72115300  0.97776000  0.03882500  1
  Na  Na4  1  0.31106500  0.06767200  0.53882500  1
  Na  Na5  1  0.31767200  0.06106500  0.03882500  1
  Na  Na6  1  0.02224000  0.27884700  0.96117500  1
  Na  Na7  1  0.93893500  0.68232800  0.96117500  1
  Na  Na8  1  0.12500000  0.37500000  0.75000000  1
  Na  Na9  1  0.62500000  0.37500000  0.75000000  1
  Na  Na10  1  0.62500000  0.87500000  0.25000000  1
  Na  Na11  1  0.62500000  0.37500000  0.25000000  1
  Y  Y12  1  0.62500000  0.87500000  0.75000000  1
  Y  Y13  1  0.12500000  0.87500000  0.75000000  1
  Y  Y14  1  0.12500000  0.37500000  0.25000000  1
  Y  Y15  1  0.12500000  0.87500000  0.25000000  1
  N  N16  1  0.50724000  0.73250800  0.87522000  1
  N  N17  1  0.36798000  0.14271300  0.87522000  1
  N  N18  1  0.26749200  0.49276000  0.12478000  1
  N  N19  1  0.74276000  0.01749200  0.62478000  1
  N  N20  1  0.85728700  0.63202000  0.12478000  1
  N  N21  1  0.88202000  0.60728700  0.62478000  1
  N  N22  1  0.98250800  0.25724000  0.37522000  1
  N  N23  1  0.39271300  0.11798000  0.37522000  1
  N  N24  1  0.40015200  0.12203800  0.77893900  1
  N  N25  1  0.37878700  0.65690100  0.77893900  1
  N  N26  1  0.87796200  0.59984800  0.22106100  1
  N  N27  1  0.84984800  0.62796200  0.72106100  1
  N  N28  1  0.34309900  0.62121300  0.22106100  1
  N  N29  1  0.87121300  0.09309900  0.72106100  1
  N  N30  1  0.37203800  0.15015200  0.27893900  1
  N  N31  1  0.90690100  0.12878700  0.27893900  1
