# generated using pymatgen
data_NaMo3NO10
_symmetry_space_group_name_H-M   'P 1'
_cell_length_a   7.68175800
_cell_length_b   8.79396000
_cell_length_c   14.97697700
_cell_angle_alpha   90.00000000
_cell_angle_beta   90.00000000
_cell_angle_gamma   90.00000000
_symmetry_Int_Tables_number   1
_chemical_formula_structural   NaMo3NO10
_chemical_formula_sum   'Na4 Mo12 N4 O40'
_cell_volume   1011.74081434
_cell_formula_units_Z   4
loop_
 _symmetry_equiv_pos_site_id
 _symmetry_equiv_pos_as_xyz
  1  'x, y, z'
loop_
 _atom_site_type_symbol
 _atom_site_label
 _atom_site_symmetry_multiplicity
 _atom_site_fract_x
 _atom_site_fract_y
 _atom_site_fract_z
 _atom_site_occupancy
  Na  Na0  1  0.25000000  0.97142900  0.81158400  1
  Na  Na1  1  0.75000000  0.02857100  0.18841600  1
  Na  Na2  1  0.75000000  0.52857100  0.31158400  1
  Na  Na3  1  0.25000000  0.47142900  0.68841600  1
  Mo  Mo4  1  0.50046600  0.61728200  0.89198300  1
  Mo  Mo5  1  0.49953400  0.38271800  0.10801700  1
  Mo  Mo6  1  0.49953400  0.88271800  0.39198300  1
  Mo  Mo7  1  0.00046600  0.38271800  0.10801700  1
  Mo  Mo8  1  0.50046600  0.11728200  0.60801700  1
  Mo  Mo9  1  0.99953400  0.61728200  0.89198300  1
  Mo  Mo10  1  0.99953400  0.11728200  0.60801700  1
  Mo  Mo11  1  0.00046600  0.88271800  0.39198300  1
  Mo  Mo12  1  0.25000000  0.80034300  0.57445700  1
  Mo  Mo13  1  0.75000000  0.19965700  0.42554300  1
  Mo  Mo14  1  0.75000000  0.69965700  0.07445700  1
  Mo  Mo15  1  0.25000000  0.30034300  0.92554300  1
  N  N16  1  0.25000000  0.85847900  0.10402200  1
  N  N17  1  0.75000000  0.14152100  0.89597800  1
  N  N18  1  0.75000000  0.64152100  0.60402200  1
  N  N19  1  0.25000000  0.35847900  0.39597800  1
  O  O20  1  0.03842500  0.81060700  0.88314300  1
  O  O21  1  0.96157500  0.18939300  0.11685700  1
  O  O22  1  0.96157500  0.68939300  0.38314300  1
  O  O23  1  0.53842500  0.18939300  0.11685700  1
  O  O24  1  0.03842500  0.31060700  0.61685700  1
  O  O25  1  0.46157500  0.81060700  0.88314300  1
  O  O26  1  0.46157500  0.31060700  0.61685700  1
  O  O27  1  0.53842500  0.68939300  0.38314300  1
  O  O28  1  0.25000000  0.88233600  0.42577000  1
  O  O29  1  0.75000000  0.11766400  0.57423000  1
  O  O30  1  0.75000000  0.61766400  0.92577000  1
  O  O31  1  0.25000000  0.38233600  0.07423000  1
  O  O32  1  0.25000000  0.78113600  0.69081900  1
  O  O33  1  0.75000000  0.21886400  0.30918100  1
  O  O34  1  0.75000000  0.71886400  0.19081900  1
  O  O35  1  0.25000000  0.28113600  0.80918100  1
  O  O36  1  0.25000000  0.61359900  0.53860600  1
  O  O37  1  0.75000000  0.38640100  0.46139400  1
  O  O38  1  0.75000000  0.88640100  0.03860600  1
  O  O39  1  0.25000000  0.11359900  0.96139400  1
  O  O40  1  0.01513900  0.87802800  0.54707400  1
  O  O41  1  0.98486100  0.12197200  0.45292600  1
  O  O42  1  0.98486100  0.62197200  0.04707400  1
  O  O43  1  0.51513900  0.12197200  0.45292600  1
  O  O44  1  0.01513900  0.37802800  0.95292600  1
  O  O45  1  0.48486100  0.87802800  0.54707400  1
  O  O46  1  0.48486100  0.37802800  0.95292600  1
  O  O47  1  0.51513900  0.62197200  0.04707400  1
  O  O48  1  0.52257200  0.55423600  0.78320300  1
  O  O49  1  0.47742800  0.44576400  0.21679700  1
  O  O50  1  0.47742800  0.94576400  0.28320300  1
  O  O51  1  0.02257200  0.44576400  0.21679700  1
  O  O52  1  0.52257200  0.05423600  0.71679700  1
  O  O53  1  0.97742800  0.55423600  0.78320300  1
  O  O54  1  0.97742800  0.05423600  0.71679700  1
  O  O55  1  0.02257200  0.94576400  0.28320300  1
  O  O56  1  0.25000000  0.56431500  0.90833600  1
  O  O57  1  0.75000000  0.43568500  0.09166400  1
  O  O58  1  0.75000000  0.93568500  0.40833600  1
  O  O59  1  0.25000000  0.06431500  0.59166400  1
