# generated using pymatgen
data_NaMgH2SO5
_symmetry_space_group_name_H-M   'P 1'
_cell_length_a   6.51612051
_cell_length_b   7.85689876
_cell_length_c   6.08009200
_cell_angle_alpha   90.00000000
_cell_angle_beta   90.00000000
_cell_angle_gamma   120.90900270
_symmetry_Int_Tables_number   1
_chemical_formula_structural   NaMgH2SO5
_chemical_formula_sum   'Na2 Mg2 H4 S2 O10'
_cell_volume   267.07282980
_cell_formula_units_Z   2
loop_
 _symmetry_equiv_pos_site_id
 _symmetry_equiv_pos_as_xyz
  1  'x, y, z'
loop_
 _atom_site_type_symbol
 _atom_site_label
 _atom_site_symmetry_multiplicity
 _atom_site_fract_x
 _atom_site_fract_y
 _atom_site_fract_z
 _atom_site_occupancy
  Na  Na0  1  0.37180500  0.27460000  0.75000000  1
  Na  Na1  1  0.62819500  0.72540000  0.25000000  1
  Mg  Mg2  1  0.00000000  0.50000000  0.00000000  1
  Mg  Mg3  1  0.00000000  0.50000000  0.50000000  1
  H  H4  1  0.67899500  0.09606400  0.87324700  1
  H  H5  1  0.32100500  0.90393600  0.12675300  1
  H  H6  1  0.32100500  0.90393600  0.37324700  1
  H  H7  1  0.67899500  0.09606400  0.62675300  1
  S  S8  1  0.82945300  0.76058700  0.75000000  1
  S  S9  1  0.17054700  0.23941300  0.25000000  1
  O  O10  1  0.07478500  0.93226300  0.75000000  1
  O  O11  1  0.92521500  0.06773700  0.25000000  1
  O  O12  1  0.64165100  0.81179000  0.75000000  1
  O  O13  1  0.35834900  0.18821000  0.25000000  1
  O  O14  1  0.79334400  0.63015700  0.95038800  1
  O  O15  1  0.20665600  0.36984300  0.04961200  1
  O  O16  1  0.20665600  0.36984300  0.45038800  1
  O  O17  1  0.79334400  0.63015700  0.54961200  1
  O  O18  1  0.67165600  0.17411400  0.75000000  1
  O  O19  1  0.32834400  0.82588600  0.25000000  1
