# generated using pymatgen
data_SmGa6
_symmetry_space_group_name_H-M   'P 1'
_cell_length_a   17.85154700
_cell_length_b   17.85154700
_cell_length_c   13.10684000
_cell_angle_alpha   90.00000000
_cell_angle_beta   90.00000000
_cell_angle_gamma   90.00000000
_symmetry_Int_Tables_number   1
_chemical_formula_structural   SmGa6
_chemical_formula_sum   'Sm2 Ga12'
_cell_volume   4176.85802252
_cell_formula_units_Z   2
loop_
 _symmetry_equiv_pos_site_id
 _symmetry_equiv_pos_as_xyz
  1  'x, y, z'
loop_
 _atom_site_type_symbol
 _atom_site_label
 _atom_site_symmetry_multiplicity
 _atom_site_fract_x
 _atom_site_fract_y
 _atom_site_fract_z
 _atom_site_occupancy
  Sm  Sm0  1  0.00000000  0.50000000  0.00000000  1
  Sm  Sm1  1  0.50000000  0.00000000  0.00000000  1
  Ga  Ga2  1  0.00000000  0.89215600  0.40277400  1
  Ga  Ga3  1  0.00000000  0.10784400  0.40277400  1
  Ga  Ga4  1  0.89215600  0.00000000  0.40277400  1
  Ga  Ga5  1  0.10784400  0.00000000  0.59722600  1
  Ga  Ga6  1  0.00000000  0.10784400  0.59722600  1
  Ga  Ga7  1  0.10784400  0.00000000  0.40277400  1
  Ga  Ga8  1  0.89215600  0.00000000  0.59722600  1
  Ga  Ga9  1  0.00000000  0.89215600  0.59722600  1
  Ga  Ga10  1  0.50000000  0.00000000  0.21880000  1
  Ga  Ga11  1  0.00000000  0.50000000  0.21880000  1
  Ga  Ga12  1  0.00000000  0.50000000  0.78120000  1
  Ga  Ga13  1  0.50000000  0.00000000  0.78120000  1
