# generated using pymatgen
data_Na2Fe2F7
_symmetry_space_group_name_H-M   'P 1'
_cell_length_a   7.55510660
_cell_length_b   7.55510660
_cell_length_c   7.55510660
_cell_angle_alpha   121.56465055
_cell_angle_beta   118.94659221
_cell_angle_gamma   89.57288687
_symmetry_Int_Tables_number   1
_chemical_formula_structural   Na2Fe2F7
_chemical_formula_sum   'Na4 Fe4 F14'
_cell_volume   303.54728292
_cell_formula_units_Z   2
loop_
 _symmetry_equiv_pos_site_id
 _symmetry_equiv_pos_as_xyz
  1  'x, y, z'
loop_
 _atom_site_type_symbol
 _atom_site_label
 _atom_site_symmetry_multiplicity
 _atom_site_fract_x
 _atom_site_fract_y
 _atom_site_fract_z
 _atom_site_occupancy
  Na  Na0  1  0.11070100  0.24762500  0.86307600  1
  Na  Na1  1  0.61545100  0.75237500  0.86307600  1
  Na  Na2  1  0.61225700  0.25086700  0.86312400  1
  Na  Na3  1  0.61225700  0.74913300  0.36139000  1
  Fe  Fe4  1  0.61130500  0.24918400  0.36212000  1
  Fe  Fe5  1  0.11293600  0.75081600  0.36212000  1
  Fe  Fe6  1  0.11220800  0.25043900  0.36264700  1
  Fe  Fe7  1  0.11220800  0.74956100  0.86176800  1
  F  F8  1  0.47155500  0.33883600  0.13271900  1
  F  F9  1  0.79388300  0.66116400  0.13271900  1
  F  F10  1  0.78744200  0.55799600  0.61952300  1
  F  F11  1  0.06152700  0.44200400  0.22944500  1
  F  F12  1  0.06152700  0.83208100  0.61952300  1
  F  F13  1  0.78744200  0.16791900  0.22944500  1
  F  F14  1  0.43719000  0.33233500  0.49504800  1
  F  F15  1  0.16271300  0.66766500  0.10485600  1
  F  F16  1  0.16271300  0.05785700  0.49504800  1
  F  F17  1  0.43719000  0.94214300  0.10485600  1
  F  F18  1  0.00500700  0.00000000  0.00500700  1
  F  F19  1  0.75110200  0.15975400  0.59134800  1
  F  F20  1  0.43159400  0.84024600  0.59134800  1
  F  F21  1  0.21929300  0.50000000  0.71929300  1
