# generated using pymatgen
data_NpH16C3N4O11
_symmetry_space_group_name_H-M   'P 1'
_cell_length_a   7.30527333
_cell_length_b   7.30527333
_cell_length_c   13.02708929
_cell_angle_alpha   87.43786131
_cell_angle_beta   87.43786131
_cell_angle_gamma   78.98552145
_symmetry_Int_Tables_number   1
_chemical_formula_structural   NpH16C3N4O11
_chemical_formula_sum   'Np2 H32 C6 N8 O22'
_cell_volume   681.26437421
_cell_formula_units_Z   2
loop_
 _symmetry_equiv_pos_site_id
 _symmetry_equiv_pos_as_xyz
  1  'x, y, z'
loop_
 _atom_site_type_symbol
 _atom_site_label
 _atom_site_symmetry_multiplicity
 _atom_site_fract_x
 _atom_site_fract_y
 _atom_site_fract_z
 _atom_site_occupancy
  Np  Np0  1  0.19272800  0.80727200  0.75000000  1
  Np  Np1  1  0.80727200  0.19272800  0.25000000  1
  H  H2  1  0.37858800  0.70440800  0.52639400  1
  H  H3  1  0.62141200  0.29559200  0.47360600  1
  H  H4  1  0.29559200  0.62141200  0.97360600  1
  H  H5  1  0.70440800  0.37858800  0.02639400  1
  H  H6  1  0.64680500  0.13517200  0.83400000  1
  H  H7  1  0.35319500  0.86482800  0.16600000  1
  H  H8  1  0.86482800  0.35319500  0.66600000  1
  H  H9  1  0.13517200  0.64680500  0.33400000  1
  H  H10  1  0.34310500  0.91090800  0.46079500  1
  H  H11  1  0.65689500  0.08909200  0.53920500  1
  H  H12  1  0.08909200  0.65689500  0.03920500  1
  H  H13  1  0.91090800  0.34310500  0.96079500  1
  H  H14  1  0.52765500  0.95814300  0.86067300  1
  H  H15  1  0.47234500  0.04185700  0.13932700  1
  H  H16  1  0.04185700  0.47234500  0.63932700  1
  H  H17  1  0.95814300  0.52765500  0.36067300  1
  H  H18  1  0.73921600  0.94319600  0.91083900  1
  H  H19  1  0.26078400  0.05680400  0.08916100  1
  H  H20  1  0.05680400  0.26078400  0.58916100  1
  H  H21  1  0.94319600  0.73921600  0.41083900  1
  H  H22  1  0.72636500  0.93575900  0.78148800  1
  H  H23  1  0.27363500  0.06424100  0.21851200  1
  H  H24  1  0.06424100  0.27363500  0.71851200  1
  H  H25  1  0.93575900  0.72636500  0.28148800  1
  H  H26  1  0.43677200  0.19837800  0.51015700  1
  H  H27  1  0.56322800  0.80162200  0.48984300  1
  H  H28  1  0.80162200  0.56322800  0.98984300  1
  H  H29  1  0.19837800  0.43677200  0.01015700  1
  H  H30  1  0.71045000  0.44897600  0.90050100  1
  H  H31  1  0.28955000  0.55102400  0.09949900  1
  H  H32  1  0.55102400  0.28955000  0.59949900  1
  H  H33  1  0.44897600  0.71045000  0.40050100  1
  C  C34  1  0.15652900  0.08112700  0.90775500  1
  C  C35  1  0.84347100  0.91887300  0.09224500  1
  C  C36  1  0.91887300  0.84347100  0.59224500  1
  C  C37  1  0.08112700  0.15652900  0.40775500  1
  C  C38  1  0.50368200  0.49631800  0.75000000  1
  C  C39  1  0.49631800  0.50368200  0.25000000  1
  N  N40  1  0.65887100  0.99230400  0.84763100  1
  N  N41  1  0.34112900  0.00769600  0.15236900  1
  N  N42  1  0.00769600  0.34112900  0.65236900  1
  N  N43  1  0.99230400  0.65887100  0.34763100  1
  N  N44  1  0.56624100  0.21902800  0.53152600  1
  N  N45  1  0.43375900  0.78097200  0.46847400  1
  N  N46  1  0.78097200  0.43375900  0.96847400  1
  N  N47  1  0.21902800  0.56624100  0.03152600  1
  O  O48  1  0.33753700  0.94890100  0.67853500  1
  O  O49  1  0.66246300  0.05109900  0.32146500  1
  O  O50  1  0.05109900  0.66246300  0.82146500  1
  O  O51  1  0.94890100  0.33753700  0.17853500  1
  O  O52  1  0.28833900  0.93171400  0.90777700  1
  O  O53  1  0.71166100  0.06828600  0.09222300  1
  O  O54  1  0.06828600  0.71166100  0.59222300  1
  O  O55  1  0.93171400  0.28833900  0.40777700  1
  O  O56  1  0.19912300  0.13801900  0.47869900  1
  O  O57  1  0.80087700  0.86198100  0.52130100  1
  O  O58  1  0.86198100  0.80087700  0.02130100  1
  O  O59  1  0.13801900  0.19912300  0.97869900  1
  O  O60  1  0.09925000  0.04392600  0.33168500  1
  O  O61  1  0.90075000  0.95607400  0.66831500  1
  O  O62  1  0.95607400  0.90075000  0.16831500  1
  O  O63  1  0.04392600  0.09925000  0.83168500  1
  O  O64  1  0.46318800  0.60495900  0.82817400  1
  O  O65  1  0.53681200  0.39504100  0.17182600  1
  O  O66  1  0.39504100  0.53681200  0.67182600  1
  O  O67  1  0.60495900  0.46318800  0.32817400  1
  O  O68  1  0.64127400  0.35872600  0.75000000  1
  O  O69  1  0.35872600  0.64127400  0.25000000  1
