# generated using pymatgen
data_NaH10C6(NO)7
_symmetry_space_group_name_H-M   'P 1'
_cell_length_a   7.01901219
_cell_length_b   9.04372408
_cell_length_c   11.61248773
_cell_angle_alpha   68.99034954
_cell_angle_beta   86.62616369
_cell_angle_gamma   65.46954866
_symmetry_Int_Tables_number   1
_chemical_formula_structural   NaH10C6(NO)7
_chemical_formula_sum   'Na2 H20 C12 N14 O14'
_cell_volume   622.49709996
_cell_formula_units_Z   2
loop_
 _symmetry_equiv_pos_site_id
 _symmetry_equiv_pos_as_xyz
  1  'x, y, z'
loop_
 _atom_site_type_symbol
 _atom_site_label
 _atom_site_symmetry_multiplicity
 _atom_site_fract_x
 _atom_site_fract_y
 _atom_site_fract_z
 _atom_site_occupancy
  Na  Na0  1  0.22766900  0.31270000  0.05185600  1
  Na  Na1  1  0.77233100  0.68730000  0.94814400  1
  H  H2  1  0.58324100  0.20028500  0.33953100  1
  H  H3  1  0.41675900  0.79971500  0.66046900  1
  H  H4  1  0.17524400  0.00121700  0.09498400  1
  H  H5  1  0.82475600  0.99878300  0.90501600  1
  H  H6  1  0.32042500  0.00315500  0.99176600  1
  H  H7  1  0.67957500  0.99684500  0.00823400  1
  H  H8  1  0.12647300  0.63406000  0.11776500  1
  H  H9  1  0.87352700  0.36594000  0.88223500  1
  H  H10  1  0.20949200  0.65678000  0.98778800  1
  H  H11  1  0.79050800  0.34322000  0.01221200  1
  H  H12  1  0.55449300  0.55846100  0.15482900  1
  H  H13  1  0.44550700  0.44153900  0.84517100  1
  H  H14  1  0.52206200  0.16748700  0.74659200  1
  H  H15  1  0.47793800  0.83251300  0.25340800  1
  H  H16  1  0.76817800  0.50655100  0.22370100  1
  H  H17  1  0.23182200  0.49344900  0.77629900  1
  H  H18  1  0.58498600  0.12059900  0.62651800  1
  H  H19  1  0.41501400  0.87940100  0.37348200  1
  H  H20  1  0.33043800  0.41744400  0.55648400  1
  H  H21  1  0.66956200  0.58255600  0.44351600  1
  C  C22  1  0.08426200  0.66564000  0.50863600  1
  C  C23  1  0.91573800  0.33436000  0.49136400  1
  C  C24  1  0.10144100  0.19717500  0.35895800  1
  C  C25  1  0.89855900  0.80282500  0.64104200  1
  C  C26  1  0.19123500  0.04843600  0.57109800  1
  C  C27  1  0.80876500  0.95156400  0.42890200  1
  C  C28  1  0.26507800  0.53171000  0.36224300  1
  C  C29  1  0.73492200  0.46829000  0.63775700  1
  C  C30  1  0.72438700  0.09583200  0.20518400  1
  C  C31  1  0.27561300  0.90416800  0.79481600  1
  C  C32  1  0.00838200  0.18721900  0.71750800  1
  C  C33  1  0.99161800  0.81278100  0.28249200  1
  N  N34  1  0.03840600  0.19029600  0.59425300  1
  N  N35  1  0.96159400  0.80970400  0.40574700  1
  N  N36  1  0.22330100  0.04747600  0.45929300  1
  N  N37  1  0.77669900  0.95252400  0.54070700  1
  N  N38  1  0.69604700  0.09038500  0.32707800  1
  N  N39  1  0.30395300  0.90961500  0.67292200  1
  N  N40  1  0.13752400  0.67376100  0.26488900  1
  N  N41  1  0.86247600  0.32623900  0.73511100  1
  N  N42  1  0.23334800  0.53108600  0.48311400  1
  N  N43  1  0.76665200  0.46891400  0.51688600  1
  N  N44  1  0.05672800  0.65934400  0.62217100  1
  N  N45  1  0.94327200  0.34065600  0.37782900  1
  N  N46  1  0.12388200  0.04562500  0.81319400  1
  N  N47  1  0.87611800  0.95437500  0.18680600  1
  O  O48  1  0.48575600  0.21015800  0.65668300  1
  O  O49  1  0.51424400  0.78984200  0.34331700  1
  O  O50  1  0.30766200  0.01074400  0.07397800  1
  O  O51  1  0.69233800  0.98925600  0.92602200  1
  O  O52  1  0.40812500  0.40235300  0.34921300  1
  O  O53  1  0.59187500  0.59764700  0.65078700  1
  O  O54  1  0.12151500  0.60757600  0.04238300  1
  O  O55  1  0.87848500  0.39242400  0.95761700  1
  O  O56  1  0.60952700  0.23033100  0.11840200  1
  O  O57  1  0.39047300  0.76966900  0.88159800  1
  O  O58  1  0.13323400  0.20056000  0.25216900  1
  O  O59  1  0.86676600  0.79944000  0.74783100  1
  O  O60  1  0.67024200  0.59276600  0.14890400  1
  O  O61  1  0.32975800  0.40723400  0.85109600  1
