# generated using pymatgen
data_Nd2Sn3(PbS4)3
_symmetry_space_group_name_H-M   'P 1'
_cell_length_a   3.98980800
_cell_length_b   11.73732000
_cell_length_c   20.60730000
_cell_angle_alpha   90.00000000
_cell_angle_beta   90.00000000
_cell_angle_gamma   90.00000000
_symmetry_Int_Tables_number   1
_chemical_formula_structural   Nd2Sn3(PbS4)3
_chemical_formula_sum   'Nd4 Sn6 Pb6 S24'
_cell_volume   965.03271310
_cell_formula_units_Z   2
loop_
 _symmetry_equiv_pos_site_id
 _symmetry_equiv_pos_as_xyz
  1  'x, y, z'
loop_
 _atom_site_type_symbol
 _atom_site_label
 _atom_site_symmetry_multiplicity
 _atom_site_fract_x
 _atom_site_fract_y
 _atom_site_fract_z
 _atom_site_occupancy
  Nd  Nd0  1  0.50000000  0.65077600  0.41248600  1
  Nd  Nd1  1  0.50000000  0.15077600  0.58751400  1
  Nd  Nd2  1  0.50000000  0.82465300  0.89450300  1
  Nd  Nd3  1  0.50000000  0.32465300  0.10549700  1
  Sn  Sn4  1  0.00000000  0.00147900  0.74988500  1
  Sn  Sn5  1  0.00000000  0.50147900  0.25011500  1
  Sn  Sn6  1  0.00000000  0.51809800  0.91149100  1
  Sn  Sn7  1  0.00000000  0.01809800  0.08850900  1
  Sn  Sn8  1  0.00000000  0.99466500  0.42405200  1
  Sn  Sn9  1  0.00000000  0.49466500  0.57594800  1
  Pb  Pb10  1  0.50000000  0.40335800  0.74299500  1
  Pb  Pb11  1  0.50000000  0.90335800  0.25700500  1
  Pb  Pb12  1  0.50000000  0.19820900  0.91305000  1
  Pb  Pb13  1  0.50000000  0.69820900  0.08695000  1
  Pb  Pb14  1  0.50000000  0.77081300  0.62322500  1
  Pb  Pb15  1  0.50000000  0.27081300  0.37677500  1
  S  S16  1  0.00000000  0.99659600  0.87433100  1
  S  S17  1  0.00000000  0.49659600  0.12566900  1
  S  S18  1  0.00000000  0.98070900  0.62723100  1
  S  S19  1  0.00000000  0.48070900  0.37276900  1
  S  S20  1  0.00000000  0.68316400  0.51321200  1
  S  S21  1  0.00000000  0.18316400  0.48678800  1
  S  S22  1  0.50000000  0.64484600  0.25735400  1
  S  S23  1  0.50000000  0.14484600  0.74264600  1
  S  S24  1  0.50000000  0.85171400  0.75575700  1
  S  S25  1  0.50000000  0.35171400  0.24424300  1
  S  S26  1  0.50000000  0.59794800  0.84107000  1
  S  S27  1  0.50000000  0.09794800  0.15893000  1
  S  S28  1  0.50000000  0.43959400  0.98128400  1
  S  S29  1  0.50000000  0.93959400  0.01871600  1
  S  S30  1  0.50000000  0.93434800  0.48841300  1
  S  S31  1  0.50000000  0.43434800  0.51158700  1
  S  S32  1  0.00000000  0.33808800  0.84284300  1
  S  S33  1  0.00000000  0.83808800  0.15715700  1
  S  S34  1  0.00000000  0.70922600  0.97129600  1
  S  S35  1  0.00000000  0.20922600  0.02870400  1
  S  S36  1  0.00000000  0.80862700  0.35792000  1
  S  S37  1  0.00000000  0.30862700  0.64208000  1
  S  S38  1  0.00000000  0.60239000  0.67746600  1
  S  S39  1  0.00000000  0.10239000  0.32253400  1
