# generated using pymatgen
data_NaB10H3Pb4O21
_symmetry_space_group_name_H-M   'P 1'
_cell_length_a   6.70539900
_cell_length_b   11.46228300
_cell_length_c   11.56327500
_cell_angle_alpha   90.00000000
_cell_angle_beta   90.00000000
_cell_angle_gamma   90.00000000
_symmetry_Int_Tables_number   1
_chemical_formula_structural   NaB10H3Pb4O21
_chemical_formula_sum   'Na2 B20 H6 Pb8 O42'
_cell_volume   888.74384578
_cell_formula_units_Z   2
loop_
 _symmetry_equiv_pos_site_id
 _symmetry_equiv_pos_as_xyz
  1  'x, y, z'
loop_
 _atom_site_type_symbol
 _atom_site_label
 _atom_site_symmetry_multiplicity
 _atom_site_fract_x
 _atom_site_fract_y
 _atom_site_fract_z
 _atom_site_occupancy
  Na  Na0  1  0.38007700  0.00000000  0.00000000  1
  Na  Na1  1  0.88007700  0.50000000  0.50000000  1
  B  B2  1  0.13034700  0.75976200  0.01335700  1
  B  B3  1  0.13034700  0.24023800  0.98664300  1
  B  B4  1  0.63034700  0.25976200  0.48664300  1
  B  B5  1  0.63034700  0.74023800  0.51335700  1
  B  B6  1  0.35406600  0.20672900  0.15827700  1
  B  B7  1  0.35406600  0.79327100  0.84172300  1
  B  B8  1  0.85406600  0.70672900  0.34172300  1
  B  B9  1  0.85406600  0.29327100  0.65827700  1
  B  B10  1  0.00405300  0.29511500  0.18948600  1
  B  B11  1  0.00405300  0.70488500  0.81051400  1
  B  B12  1  0.50405300  0.79511500  0.31051400  1
  B  B13  1  0.50405300  0.20488500  0.68948600  1
  B  B14  1  0.46241200  0.01947900  0.25860300  1
  B  B15  1  0.46241200  0.98052100  0.74139700  1
  B  B16  1  0.96241200  0.51947900  0.24139700  1
  B  B17  1  0.96241200  0.48052100  0.75860300  1
  B  B18  1  0.18046700  0.69769000  0.23216800  1
  B  B19  1  0.18046700  0.30231000  0.76783200  1
  B  B20  1  0.68046700  0.19769000  0.26783200  1
  B  B21  1  0.68046700  0.80231000  0.73216800  1
  H  H22  1  0.08780300  0.00000000  0.50000000  1
  H  H23  1  0.58780300  0.50000000  0.00000000  1
  H  H24  1  0.16984800  0.50120900  0.03241700  1
  H  H25  1  0.16984800  0.49879100  0.96758300  1
  H  H26  1  0.66984800  0.00120900  0.46758300  1
  H  H27  1  0.66984800  0.99879100  0.53241700  1
  Pb  Pb28  1  0.45020000  0.46641900  0.28501900  1
  Pb  Pb29  1  0.45020000  0.53358100  0.71498100  1
  Pb  Pb30  1  0.95020000  0.96641900  0.21498100  1
  Pb  Pb31  1  0.95020000  0.03358100  0.78501900  1
  Pb  Pb32  1  0.15856800  0.22559500  0.45764900  1
  Pb  Pb33  1  0.15856800  0.77440500  0.54235100  1
  Pb  Pb34  1  0.65856800  0.72559500  0.04235100  1
  Pb  Pb35  1  0.65856800  0.27440500  0.95764900  1
  O  O36  1  0.31382500  0.20645800  0.02933000  1
  O  O37  1  0.31382500  0.79354200  0.97067000  1
  O  O38  1  0.81382500  0.70645800  0.47067000  1
  O  O39  1  0.81382500  0.29354200  0.52933000  1
  O  O40  1  0.22005700  0.28951000  0.21639100  1
  O  O41  1  0.22005700  0.71049000  0.78360900  1
  O  O42  1  0.72005700  0.78951000  0.28360900  1
  O  O43  1  0.72005700  0.21049000  0.71639100  1
  O  O44  1  0.20684100  0.42383400  0.42967700  1
  O  O45  1  0.20684100  0.57616600  0.57032300  1
  O  O46  1  0.70684100  0.92383400  0.07032300  1
  O  O47  1  0.70684100  0.07616600  0.92967700  1
  O  O48  1  0.48008800  0.22677100  0.56045100  1
  O  O49  1  0.48008800  0.77322900  0.43954900  1
  O  O50  1  0.98008800  0.72677100  0.93954900  1
  O  O51  1  0.98008800  0.27322900  0.06045100  1
  O  O52  1  0.59234000  0.26341800  0.36978600  1
  O  O53  1  0.59234000  0.73658200  0.63021400  1
  O  O54  1  0.09234000  0.76341800  0.13021400  1
  O  O55  1  0.09234000  0.23658200  0.86978600  1
  O  O56  1  0.32077600  0.08477600  0.19928000  1
  O  O57  1  0.32077600  0.91522400  0.80072000  1
  O  O58  1  0.82077600  0.58477600  0.30072000  1
  O  O59  1  0.82077600  0.41522400  0.69928000  1
  O  O60  1  0.41282500  0.09218500  0.71599400  1
  O  O61  1  0.41282500  0.90781500  0.28400600  1
  O  O62  1  0.91282500  0.59218500  0.78400600  1
  O  O63  1  0.91282500  0.40781500  0.21599400  1
  O  O64  1  0.14082100  0.57051800  0.21067800  1
  O  O65  1  0.14082100  0.42948200  0.78932200  1
  O  O66  1  0.64082100  0.07051800  0.28932200  1
  O  O67  1  0.64082100  0.92948200  0.71067800  1
  O  O68  1  0.98907200  0.00000000  0.00000000  1
  O  O69  1  0.48907200  0.50000000  0.50000000  1
  O  O70  1  0.39543200  0.70562300  0.24450100  1
  O  O71  1  0.39543200  0.29437700  0.75549900  1
  O  O72  1  0.89543200  0.20562300  0.25549900  1
  O  O73  1  0.89543200  0.79437700  0.74450100  1
  O  O74  1  0.56545900  0.23924900  0.16690400  1
  O  O75  1  0.56545900  0.76075100  0.83309600  1
  O  O76  1  0.06545900  0.73924900  0.33309600  1
  O  O77  1  0.06545900  0.26075100  0.66690400  1
