# generated using pymatgen
data_SmIClO13
_symmetry_space_group_name_H-M   'P 1'
_cell_length_a   7.02643400
_cell_length_b   11.91383900
_cell_length_c   13.94853515
_cell_angle_alpha   79.18006444
_cell_angle_beta   90.00000000
_cell_angle_gamma   90.00000000
_symmetry_Int_Tables_number   1
_chemical_formula_structural   SmIClO13
_chemical_formula_sum   'Sm4 I4 Cl4 O52'
_cell_volume   1146.89841804
_cell_formula_units_Z   4
loop_
 _symmetry_equiv_pos_site_id
 _symmetry_equiv_pos_as_xyz
  1  'x, y, z'
loop_
 _atom_site_type_symbol
 _atom_site_label
 _atom_site_symmetry_multiplicity
 _atom_site_fract_x
 _atom_site_fract_y
 _atom_site_fract_z
 _atom_site_occupancy
  Sm  Sm0  1  0.35782900  0.02299900  0.81225700  1
  Sm  Sm1  1  0.64217100  0.97700100  0.18774300  1
  Sm  Sm2  1  0.85782900  0.97700100  0.68774300  1
  Sm  Sm3  1  0.14217100  0.02299900  0.31225700  1
  I  I4  1  0.86176700  0.92921200  0.94374200  1
  I  I5  1  0.13823300  0.07078800  0.05625800  1
  I  I6  1  0.36176700  0.07078800  0.55625800  1
  I  I7  1  0.63823300  0.92921200  0.44374200  1
  Cl  Cl8  1  0.23467600  0.54729200  0.61636800  1
  Cl  Cl9  1  0.76532400  0.45270800  0.38363200  1
  Cl  Cl10  1  0.73467600  0.45270800  0.88363200  1
  Cl  Cl11  1  0.26532400  0.54729200  0.11636800  1
  O  O12  1  0.81309800  0.78334500  0.70383200  1
  O  O13  1  0.18690200  0.21665500  0.29616800  1
  O  O14  1  0.31309800  0.21665500  0.79616800  1
  O  O15  1  0.68690200  0.78334500  0.20383200  1
  O  O16  1  0.40724200  0.91516100  0.54948300  1
  O  O17  1  0.59275800  0.08483900  0.45051700  1
  O  O18  1  0.90724200  0.08483900  0.95051700  1
  O  O19  1  0.09275800  0.91516100  0.04948300  1
  O  O20  1  0.22045900  0.35069300  0.93656800  1
  O  O21  1  0.77954100  0.64930700  0.06343200  1
  O  O22  1  0.72045900  0.64930700  0.56343200  1
  O  O23  1  0.27954100  0.35069300  0.43656800  1
  O  O24  1  0.68145500  0.96748600  0.84020400  1
  O  O25  1  0.31854500  0.03251400  0.15979600  1
  O  O26  1  0.18145500  0.03251400  0.65979600  1
  O  O27  1  0.81854500  0.96748600  0.34020400  1
  O  O28  1  0.39097000  0.76272700  0.82073300  1
  O  O29  1  0.60903000  0.23727300  0.17926700  1
  O  O30  1  0.89097000  0.23727300  0.67926700  1
  O  O31  1  0.10903000  0.76272700  0.32073300  1
  O  O32  1  0.34485100  0.30926600  0.51638900  1
  O  O33  1  0.65514900  0.69073400  0.48361100  1
  O  O34  1  0.84485100  0.69073400  0.98361100  1
  O  O35  1  0.15514900  0.30926600  0.01638900  1
  O  O36  1  0.40727100  0.49851100  0.66754800  1
  O  O37  1  0.59272900  0.50148900  0.33245200  1
  O  O38  1  0.90727100  0.50148900  0.83245200  1
  O  O39  1  0.09272900  0.49851100  0.16754800  1
  O  O40  1  0.27708700  0.58501600  0.51361400  1
  O  O41  1  0.72291300  0.41498400  0.48638600  1
  O  O42  1  0.77708700  0.41498400  0.98638600  1
  O  O43  1  0.22291300  0.58501600  0.01361400  1
  O  O44  1  0.18162900  0.64455700  0.66199800  1
  O  O45  1  0.81837100  0.35544300  0.33800200  1
  O  O46  1  0.68162900  0.35544300  0.83800200  1
  O  O47  1  0.31837100  0.64455700  0.16199800  1
  O  O48  1  0.83133000  0.91895600  0.54091600  1
  O  O49  1  0.16867000  0.08104400  0.45908400  1
  O  O50  1  0.33133000  0.08104400  0.95908400  1
  O  O51  1  0.66867000  0.91895600  0.04091600  1
  O  O52  1  0.40531400  0.77430600  0.90668200  1
  O  O53  1  0.59468600  0.22569400  0.09331800  1
  O  O54  1  0.90531400  0.22569400  0.59331800  1
  O  O55  1  0.09468600  0.77430600  0.40668200  1
  O  O56  1  0.05009700  0.94250400  0.83432800  1
  O  O57  1  0.94990300  0.05749600  0.16567200  1
  O  O58  1  0.55009700  0.05749600  0.66567200  1
  O  O59  1  0.44990300  0.94250400  0.33432800  1
  O  O60  1  0.08340400  0.46317800  0.62881400  1
  O  O61  1  0.91659600  0.53682200  0.37118600  1
  O  O62  1  0.58340400  0.53682200  0.87118600  1
  O  O63  1  0.41659600  0.46317800  0.12881400  1
