# generated using pymatgen
data_Na2HoTa5O15
_symmetry_space_group_name_H-M   'P 1'
_cell_length_a   12.58478300
_cell_length_b   12.58478300
_cell_length_c   3.92188500
_cell_angle_alpha   90.00000000
_cell_angle_beta   90.00000000
_cell_angle_gamma   90.00000000
_symmetry_Int_Tables_number   1
_chemical_formula_structural   Na2HoTa5O15
_chemical_formula_sum   'Na4 Ho2 Ta10 O30'
_cell_volume   621.13545177
_cell_formula_units_Z   2
loop_
 _symmetry_equiv_pos_site_id
 _symmetry_equiv_pos_as_xyz
  1  'x, y, z'
loop_
 _atom_site_type_symbol
 _atom_site_label
 _atom_site_symmetry_multiplicity
 _atom_site_fract_x
 _atom_site_fract_y
 _atom_site_fract_z
 _atom_site_occupancy
  Na  Na0  1  0.67214100  0.17214100  0.50000000  1
  Na  Na1  1  0.32785900  0.82785900  0.50000000  1
  Na  Na2  1  0.17214100  0.32785900  0.50000000  1
  Na  Na3  1  0.82785900  0.67214100  0.50000000  1
  Ho  Ho4  1  0.00000000  0.00000000  0.50000000  1
  Ho  Ho5  1  0.50000000  0.50000000  0.50000000  1
  Ta  Ta6  1  0.50000000  0.00000000  0.00000000  1
  Ta  Ta7  1  0.00000000  0.50000000  0.00000000  1
  Ta  Ta8  1  0.21128800  0.07872800  0.00000000  1
  Ta  Ta9  1  0.78871200  0.92127200  0.00000000  1
  Ta  Ta10  1  0.07872800  0.78871200  0.00000000  1
  Ta  Ta11  1  0.71128800  0.42127200  0.00000000  1
  Ta  Ta12  1  0.92127200  0.21128800  0.00000000  1
  Ta  Ta13  1  0.28871200  0.57872800  0.00000000  1
  Ta  Ta14  1  0.57872800  0.71128800  0.00000000  1
  Ta  Ta15  1  0.42127200  0.28871200  0.00000000  1
  O  O16  1  0.18691000  0.07990100  0.50000000  1
  O  O17  1  0.81309000  0.92009900  0.50000000  1
  O  O18  1  0.07990100  0.81309000  0.50000000  1
  O  O19  1  0.68691000  0.42009900  0.50000000  1
  O  O20  1  0.92009900  0.18691000  0.50000000  1
  O  O21  1  0.31309000  0.57990100  0.50000000  1
  O  O22  1  0.57990100  0.68691000  0.50000000  1
  O  O23  1  0.42009900  0.31309000  0.50000000  1
  O  O24  1  0.22377600  0.72377600  0.00000000  1
  O  O25  1  0.77622400  0.27622400  0.00000000  1
  O  O26  1  0.72377600  0.77622400  0.00000000  1
  O  O27  1  0.27622400  0.22377600  0.00000000  1
  O  O28  1  0.50000000  0.00000000  0.50000000  1
  O  O29  1  0.00000000  0.50000000  0.50000000  1
  O  O30  1  0.05716700  0.13046800  0.00000000  1
  O  O31  1  0.94283300  0.86953200  0.00000000  1
  O  O32  1  0.13046800  0.94283300  0.00000000  1
  O  O33  1  0.55716700  0.36953200  0.00000000  1
  O  O34  1  0.86953200  0.05716700  0.00000000  1
  O  O35  1  0.44283300  0.63046800  0.00000000  1
  O  O36  1  0.63046800  0.55716700  0.00000000  1
  O  O37  1  0.36953200  0.44283300  0.00000000  1
  O  O38  1  0.34087300  0.99801200  0.00000000  1
  O  O39  1  0.65912700  0.00198800  0.00000000  1
  O  O40  1  0.99801200  0.65912700  0.00000000  1
  O  O41  1  0.84087300  0.50198800  0.00000000  1
  O  O42  1  0.00198800  0.34087300  0.00000000  1
  O  O43  1  0.15912700  0.49801200  0.00000000  1
  O  O44  1  0.49801200  0.84087300  0.00000000  1
  O  O45  1  0.50198800  0.15912700  0.00000000  1
