# generated using pymatgen
data_Ba4Nd2Cd3Se10
_symmetry_space_group_name_H-M   'P 1'
_cell_length_a   9.84893161
_cell_length_b   9.84893161
_cell_length_c   28.05450100
_cell_angle_alpha   90.00000000
_cell_angle_beta   90.00000000
_cell_angle_gamma   154.17070926
_symmetry_Int_Tables_number   1
_chemical_formula_structural   Ba4Nd2Cd3Se10
_chemical_formula_sum   'Ba8 Nd4 Cd6 Se20'
_cell_volume   1185.65867588
_cell_formula_units_Z   2
loop_
 _symmetry_equiv_pos_site_id
 _symmetry_equiv_pos_as_xyz
  1  'x, y, z'
loop_
 _atom_site_type_symbol
 _atom_site_label
 _atom_site_symmetry_multiplicity
 _atom_site_fract_x
 _atom_site_fract_y
 _atom_site_fract_z
 _atom_site_occupancy
  Ba  Ba0  1  0.59423700  0.40576300  0.33893500  1
  Ba  Ba1  1  0.40576300  0.59423700  0.83893500  1
  Ba  Ba2  1  0.57510100  0.42489900  0.15758600  1
  Ba  Ba3  1  0.42489900  0.57510100  0.65758600  1
  Ba  Ba4  1  0.16589900  0.83410100  0.60962500  1
  Ba  Ba5  1  0.83410100  0.16589900  0.10962500  1
  Ba  Ba6  1  0.16556600  0.83443400  0.89216100  1
  Ba  Ba7  1  0.83443400  0.16556600  0.39216100  1
  Nd  Nd8  1  0.50296000  0.49704000  0.49967600  1
  Nd  Nd9  1  0.49704000  0.50296000  0.99967600  1
  Nd  Nd10  1  0.08248200  0.91751800  0.75380000  1
  Nd  Nd11  1  0.91751800  0.08248200  0.25380000  1
  Cd  Cd12  1  0.21467100  0.78532900  0.23142300  1
  Cd  Cd13  1  0.78532900  0.21467100  0.73142300  1
  Cd  Cd14  1  0.15568000  0.84432000  0.46130600  1
  Cd  Cd15  1  0.84432000  0.15568000  0.96130600  1
  Cd  Cd16  1  0.14821800  0.85178200  0.04515000  1
  Cd  Cd17  1  0.85178200  0.14821800  0.54515000  1
  Se  Se18  1  0.42076600  0.57923400  0.32457600  1
  Se  Se19  1  0.57923400  0.42076600  0.82457600  1
  Se  Se20  1  0.40746000  0.59254000  0.18167600  1
  Se  Se21  1  0.59254000  0.40746000  0.68167600  1
  Se  Se22  1  0.34594900  0.65405100  0.49016000  1
  Se  Se23  1  0.65405100  0.34594900  0.99016000  1
  Se  Se24  1  0.34356400  0.65643600  0.01847300  1
  Se  Se25  1  0.65643600  0.34356400  0.51847300  1
  Se  Se26  1  0.23726400  0.76273600  0.76925800  1
  Se  Se27  1  0.76273600  0.23726400  0.26925800  1
  Se  Se28  1  0.20991800  0.79008200  0.37734100  1
  Se  Se29  1  0.79008200  0.20991800  0.87734100  1
  Se  Se30  1  0.20668400  0.79331600  0.13156400  1
  Se  Se31  1  0.79331600  0.20668400  0.63156400  1
  Se  Se32  1  0.07193000  0.92807000  0.24772300  1
  Se  Se33  1  0.92807000  0.07193000  0.74772300  1
  Se  Se34  1  0.01543900  0.98456100  0.42966500  1
  Se  Se35  1  0.98456100  0.01543900  0.92966500  1
  Se  Se36  1  0.99038600  0.00961400  0.57403100  1
  Se  Se37  1  0.00961400  0.99038600  0.07403100  1
