# generated using pymatgen
data_Na2GdTa5O15
_symmetry_space_group_name_H-M   'P 1'
_cell_length_a   12.61211400
_cell_length_b   12.61211400
_cell_length_c   3.92434600
_cell_angle_alpha   90.00000000
_cell_angle_beta   90.00000000
_cell_angle_gamma   90.00000000
_symmetry_Int_Tables_number   1
_chemical_formula_structural   Na2GdTa5O15
_chemical_formula_sum   'Na4 Gd2 Ta10 O30'
_cell_volume   624.22774295
_cell_formula_units_Z   2
loop_
 _symmetry_equiv_pos_site_id
 _symmetry_equiv_pos_as_xyz
  1  'x, y, z'
loop_
 _atom_site_type_symbol
 _atom_site_label
 _atom_site_symmetry_multiplicity
 _atom_site_fract_x
 _atom_site_fract_y
 _atom_site_fract_z
 _atom_site_occupancy
  Na  Na0  1  0.67148300  0.17148300  0.50000000  1
  Na  Na1  1  0.32851700  0.82851700  0.50000000  1
  Na  Na2  1  0.17148300  0.32851700  0.50000000  1
  Na  Na3  1  0.82851700  0.67148300  0.50000000  1
  Gd  Gd4  1  0.00000000  0.00000000  0.50000000  1
  Gd  Gd5  1  0.50000000  0.50000000  0.50000000  1
  Ta  Ta6  1  0.50000000  0.00000000  0.00000000  1
  Ta  Ta7  1  0.00000000  0.50000000  0.00000000  1
  Ta  Ta8  1  0.21206400  0.07854100  0.00000000  1
  Ta  Ta9  1  0.78793600  0.92145900  0.00000000  1
  Ta  Ta10  1  0.07854100  0.78793600  0.00000000  1
  Ta  Ta11  1  0.71206400  0.42145900  0.00000000  1
  Ta  Ta12  1  0.92145900  0.21206400  0.00000000  1
  Ta  Ta13  1  0.28793600  0.57854100  0.00000000  1
  Ta  Ta14  1  0.57854100  0.71206400  0.00000000  1
  Ta  Ta15  1  0.42145900  0.28793600  0.00000000  1
  O  O16  1  0.19010500  0.08062300  0.50000000  1
  O  O17  1  0.80989500  0.91937700  0.50000000  1
  O  O18  1  0.08062300  0.80989500  0.50000000  1
  O  O19  1  0.69010500  0.41937700  0.50000000  1
  O  O20  1  0.91937700  0.19010500  0.50000000  1
  O  O21  1  0.30989500  0.58062300  0.50000000  1
  O  O22  1  0.58062300  0.69010500  0.50000000  1
  O  O23  1  0.41937700  0.30989500  0.50000000  1
  O  O24  1  0.22284700  0.72284700  0.00000000  1
  O  O25  1  0.77715300  0.27715300  0.00000000  1
  O  O26  1  0.72284700  0.77715300  0.00000000  1
  O  O27  1  0.27715300  0.22284700  0.00000000  1
  O  O28  1  0.50000000  0.00000000  0.50000000  1
  O  O29  1  0.00000000  0.50000000  0.50000000  1
  O  O30  1  0.05824700  0.13127600  0.00000000  1
  O  O31  1  0.94175300  0.86872400  0.00000000  1
  O  O32  1  0.13127600  0.94175300  0.00000000  1
  O  O33  1  0.55824700  0.36872400  0.00000000  1
  O  O34  1  0.86872400  0.05824700  0.00000000  1
  O  O35  1  0.44175300  0.63127600  0.00000000  1
  O  O36  1  0.63127600  0.55824700  0.00000000  1
  O  O37  1  0.36872400  0.44175300  0.00000000  1
  O  O38  1  0.34155100  0.99866300  0.00000000  1
  O  O39  1  0.65844900  0.00133700  0.00000000  1
  O  O40  1  0.99866300  0.65844900  0.00000000  1
  O  O41  1  0.84155100  0.50133700  0.00000000  1
  O  O42  1  0.00133700  0.34155100  0.00000000  1
  O  O43  1  0.15844900  0.49866300  0.00000000  1
  O  O44  1  0.49866300  0.84155100  0.00000000  1
  O  O45  1  0.50133700  0.15844900  0.00000000  1
