# generated using pymatgen
data_NaSbO12
_symmetry_space_group_name_H-M   'P 1'
_cell_length_a   8.96926202
_cell_length_b   8.96926202
_cell_length_c   8.96926202
_cell_angle_alpha   60.00000000
_cell_angle_beta   60.00000000
_cell_angle_gamma   60.00000000
_symmetry_Int_Tables_number   1
_chemical_formula_structural   NaSbO12
_chemical_formula_sum   'Na2 Sb2 O24'
_cell_volume   510.21724895
_cell_formula_units_Z   2
loop_
 _symmetry_equiv_pos_site_id
 _symmetry_equiv_pos_as_xyz
  1  'x, y, z'
loop_
 _atom_site_type_symbol
 _atom_site_label
 _atom_site_symmetry_multiplicity
 _atom_site_fract_x
 _atom_site_fract_y
 _atom_site_fract_z
 _atom_site_occupancy
  Na  Na0  1  0.00000000  0.00000000  0.00000000  1
  Na  Na1  1  0.25000000  0.25000000  0.25000000  1
  Sb  Sb2  1  0.50000000  0.50000000  0.50000000  1
  Sb  Sb3  1  0.75000000  0.75000000  0.75000000  1
  O  O4  1  0.92770300  0.30090800  0.30090800  1
  O  O5  1  0.30090800  0.92770300  0.47048200  1
  O  O6  1  0.30090800  0.47048200  0.92770300  1
  O  O7  1  0.30090800  0.92770300  0.30090800  1
  O  O8  1  0.32229700  0.94909200  0.77951800  1
  O  O9  1  0.32229700  0.94909200  0.94909200  1
  O  O10  1  0.47048200  0.30090800  0.30090800  1
  O  O11  1  0.47048200  0.30090800  0.92770300  1
  O  O12  1  0.94909200  0.32229700  0.94909200  1
  O  O13  1  0.94909200  0.32229700  0.77951800  1
  O  O14  1  0.92770300  0.30090800  0.47048200  1
  O  O15  1  0.94909200  0.77951800  0.94909200  1
  O  O16  1  0.94909200  0.77951800  0.32229700  1
  O  O17  1  0.30090800  0.47048200  0.30090800  1
  O  O18  1  0.77951800  0.94909200  0.32229700  1
  O  O19  1  0.77951800  0.94909200  0.94909200  1
  O  O20  1  0.30090800  0.30090800  0.92770300  1
  O  O21  1  0.47048200  0.92770300  0.30090800  1
  O  O22  1  0.30090800  0.30090800  0.47048200  1
  O  O23  1  0.92770300  0.47048200  0.30090800  1
  O  O24  1  0.77951800  0.32229700  0.94909200  1
  O  O25  1  0.94909200  0.94909200  0.32229700  1
  O  O26  1  0.32229700  0.77951800  0.94909200  1
  O  O27  1  0.94909200  0.94909200  0.77951800  1
