# generated using pymatgen
data_PH4IN4
_symmetry_space_group_name_H-M   'P 1'
_cell_length_a   14.38979000
_cell_length_b   14.38979000
_cell_length_c   5.49719700
_cell_angle_alpha   90.00000000
_cell_angle_beta   90.00000000
_cell_angle_gamma   90.00000000
_symmetry_Int_Tables_number   1
_chemical_formula_structural   PH4IN4
_chemical_formula_sum   'P4 H16 I4 N16'
_cell_volume   1138.28290319
_cell_formula_units_Z   4
loop_
 _symmetry_equiv_pos_site_id
 _symmetry_equiv_pos_as_xyz
  1  'x, y, z'
loop_
 _atom_site_type_symbol
 _atom_site_label
 _atom_site_symmetry_multiplicity
 _atom_site_fract_x
 _atom_site_fract_y
 _atom_site_fract_z
 _atom_site_occupancy
  P  P0  1  0.25000000  0.75000000  0.50000000  1
  P  P1  1  0.75000000  0.25000000  0.50000000  1
  P  P2  1  0.75000000  0.75000000  0.50000000  1
  P  P3  1  0.25000000  0.25000000  0.50000000  1
  H  H4  1  0.55571600  0.09256000  0.30653400  1
  H  H5  1  0.44428400  0.90744000  0.30653400  1
  H  H6  1  0.09256000  0.44428400  0.30653400  1
  H  H7  1  0.55571600  0.90744000  0.69346600  1
  H  H8  1  0.94428400  0.40744000  0.69346600  1
  H  H9  1  0.90744000  0.55571600  0.30653400  1
  H  H10  1  0.44428400  0.09256000  0.69346600  1
  H  H11  1  0.05571600  0.59256000  0.69346600  1
  H  H12  1  0.09256000  0.55571600  0.69346600  1
  H  H13  1  0.40744000  0.05571600  0.69346600  1
  H  H14  1  0.90744000  0.44428400  0.69346600  1
  H  H15  1  0.59256000  0.94428400  0.69346600  1
  H  H16  1  0.94428400  0.59256000  0.30653400  1
  H  H17  1  0.05571600  0.40744000  0.30653400  1
  H  H18  1  0.59256000  0.05571600  0.30653400  1
  H  H19  1  0.40744000  0.94428400  0.30653400  1
  I  I20  1  0.25000000  0.25000000  0.00000000  1
  I  I21  1  0.75000000  0.75000000  0.00000000  1
  I  I22  1  0.25000000  0.75000000  0.00000000  1
  I  I23  1  0.75000000  0.25000000  0.00000000  1
  N  N24  1  0.34132000  0.60594700  0.46754200  1
  N  N25  1  0.65868000  0.39405300  0.46754200  1
  N  N26  1  0.60594700  0.65868000  0.46754200  1
  N  N27  1  0.34132000  0.39405300  0.53245800  1
  N  N28  1  0.15868000  0.89405300  0.53245800  1
  N  N29  1  0.39405300  0.34132000  0.46754200  1
  N  N30  1  0.65868000  0.60594700  0.53245800  1
  N  N31  1  0.84132000  0.10594700  0.53245800  1
  N  N32  1  0.60594700  0.34132000  0.53245800  1
  N  N33  1  0.89405300  0.84132000  0.53245800  1
  N  N34  1  0.39405300  0.65868000  0.53245800  1
  N  N35  1  0.10594700  0.15868000  0.53245800  1
  N  N36  1  0.15868000  0.10594700  0.46754200  1
  N  N37  1  0.84132000  0.89405300  0.46754200  1
  N  N38  1  0.10594700  0.84132000  0.46754200  1
  N  N39  1  0.89405300  0.15868000  0.46754200  1
