# generated using pymatgen
data_Na2HoNb5O15
_symmetry_space_group_name_H-M   'P 1'
_cell_length_a   12.65070200
_cell_length_b   12.65070200
_cell_length_c   3.93660400
_cell_angle_alpha   90.00000000
_cell_angle_beta   90.00000000
_cell_angle_gamma   90.00000000
_symmetry_Int_Tables_number   1
_chemical_formula_structural   Na2HoNb5O15
_chemical_formula_sum   'Na4 Ho2 Nb10 O30'
_cell_volume   630.01513198
_cell_formula_units_Z   2
loop_
 _symmetry_equiv_pos_site_id
 _symmetry_equiv_pos_as_xyz
  1  'x, y, z'
loop_
 _atom_site_type_symbol
 _atom_site_label
 _atom_site_symmetry_multiplicity
 _atom_site_fract_x
 _atom_site_fract_y
 _atom_site_fract_z
 _atom_site_occupancy
  Na  Na0  1  0.67310600  0.17310600  0.50000000  1
  Na  Na1  1  0.32689400  0.82689400  0.50000000  1
  Na  Na2  1  0.17310600  0.32689400  0.50000000  1
  Na  Na3  1  0.82689400  0.67310600  0.50000000  1
  Ho  Ho4  1  0.00000000  0.00000000  0.50000000  1
  Ho  Ho5  1  0.50000000  0.50000000  0.50000000  1
  Nb  Nb6  1  0.50000000  0.00000000  0.00000000  1
  Nb  Nb7  1  0.00000000  0.50000000  0.00000000  1
  Nb  Nb8  1  0.21191200  0.07836300  0.00000000  1
  Nb  Nb9  1  0.78808800  0.92163700  0.00000000  1
  Nb  Nb10  1  0.07836300  0.78808800  0.00000000  1
  Nb  Nb11  1  0.71191200  0.42163700  0.00000000  1
  Nb  Nb12  1  0.92163700  0.21191200  0.00000000  1
  Nb  Nb13  1  0.28808800  0.57836300  0.00000000  1
  Nb  Nb14  1  0.57836300  0.71191200  0.00000000  1
  Nb  Nb15  1  0.42163700  0.28808800  0.00000000  1
  O  O16  1  0.18670500  0.08152100  0.50000000  1
  O  O17  1  0.81329500  0.91847900  0.50000000  1
  O  O18  1  0.08152100  0.81329500  0.50000000  1
  O  O19  1  0.68670500  0.41847900  0.50000000  1
  O  O20  1  0.91847900  0.18670500  0.50000000  1
  O  O21  1  0.31329500  0.58152100  0.50000000  1
  O  O22  1  0.58152100  0.68670500  0.50000000  1
  O  O23  1  0.41847900  0.31329500  0.50000000  1
  O  O24  1  0.22478800  0.72478800  0.00000000  1
  O  O25  1  0.77521200  0.27521200  0.00000000  1
  O  O26  1  0.72478800  0.77521200  0.00000000  1
  O  O27  1  0.27521200  0.22478800  0.00000000  1
  O  O28  1  0.50000000  0.00000000  0.50000000  1
  O  O29  1  0.00000000  0.50000000  0.50000000  1
  O  O30  1  0.05591700  0.12990500  0.00000000  1
  O  O31  1  0.94408300  0.87009500  0.00000000  1
  O  O32  1  0.12990500  0.94408300  0.00000000  1
  O  O33  1  0.55591700  0.37009500  0.00000000  1
  O  O34  1  0.87009500  0.05591700  0.00000000  1
  O  O35  1  0.44408300  0.62990500  0.00000000  1
  O  O36  1  0.62990500  0.55591700  0.00000000  1
  O  O37  1  0.37009500  0.44408300  0.00000000  1
  O  O38  1  0.34075100  0.99763100  0.00000000  1
  O  O39  1  0.65924900  0.00236900  0.00000000  1
  O  O40  1  0.99763100  0.65924900  0.00000000  1
  O  O41  1  0.84075100  0.50236900  0.00000000  1
  O  O42  1  0.00236900  0.34075100  0.00000000  1
  O  O43  1  0.15924900  0.49763100  0.00000000  1
  O  O44  1  0.49763100  0.84075100  0.00000000  1
  O  O45  1  0.50236900  0.15924900  0.00000000  1
