# generated using pymatgen
data_Pr7(BrO6)3
_symmetry_space_group_name_H-M   'P 1'
_cell_length_a   15.91249843
_cell_length_b   15.91249843
_cell_length_c   4.37874700
_cell_angle_alpha   90.00000000
_cell_angle_beta   90.00000000
_cell_angle_gamma   120.00000178
_symmetry_Int_Tables_number   1
_chemical_formula_structural   Pr7(BrO6)3
_chemical_formula_sum   'Pr14 Br6 O36'
_cell_volume   960.19010072
_cell_formula_units_Z   2
loop_
 _symmetry_equiv_pos_site_id
 _symmetry_equiv_pos_as_xyz
  1  'x, y, z'
loop_
 _atom_site_type_symbol
 _atom_site_label
 _atom_site_symmetry_multiplicity
 _atom_site_fract_x
 _atom_site_fract_y
 _atom_site_fract_z
 _atom_site_occupancy
  Pr  Pr0  1  0.65336600  0.54079700  0.75000000  1
  Pr  Pr1  1  0.34663400  0.45920300  0.25000000  1
  Pr  Pr2  1  0.88743000  0.34663400  0.75000000  1
  Pr  Pr3  1  0.11257000  0.65336600  0.25000000  1
  Pr  Pr4  1  0.45920300  0.11257000  0.75000000  1
  Pr  Pr5  1  0.54079700  0.88743000  0.25000000  1
  Pr  Pr6  1  0.74020300  0.89324200  0.75000000  1
  Pr  Pr7  1  0.25979700  0.10675800  0.25000000  1
  Pr  Pr8  1  0.15303800  0.25979700  0.75000000  1
  Pr  Pr9  1  0.84696200  0.74020300  0.25000000  1
  Pr  Pr10  1  0.10675800  0.84696200  0.75000000  1
  Pr  Pr11  1  0.89324200  0.15303800  0.25000000  1
  Pr  Pr12  1  0.33333300  0.66666700  0.75000000  1
  Pr  Pr13  1  0.66666700  0.33333300  0.25000000  1
  Br  Br14  1  0.93795500  0.55581800  0.75000000  1
  Br  Br15  1  0.06204500  0.44418200  0.25000000  1
  Br  Br16  1  0.61786200  0.06204500  0.75000000  1
  Br  Br17  1  0.38213800  0.93795500  0.25000000  1
  Br  Br18  1  0.44418200  0.38213800  0.75000000  1
  Br  Br19  1  0.55581800  0.61786200  0.25000000  1
  O  O20  1  0.47458800  0.83535700  0.75000000  1
  O  O21  1  0.52541200  0.16464300  0.25000000  1
  O  O22  1  0.36076900  0.52541200  0.75000000  1
  O  O23  1  0.63923100  0.47458800  0.25000000  1
  O  O24  1  0.16464300  0.63923100  0.75000000  1
  O  O25  1  0.83535700  0.36076900  0.25000000  1
  O  O26  1  0.74916800  0.72251700  0.75000000  1
  O  O27  1  0.25083200  0.27748300  0.25000000  1
  O  O28  1  0.97334900  0.25083200  0.75000000  1
  O  O29  1  0.02665100  0.74916800  0.25000000  1
  O  O30  1  0.27748300  0.02665100  0.75000000  1
  O  O31  1  0.72251700  0.97334900  0.25000000  1
  O  O32  1  0.84068600  0.81472300  0.75000000  1
  O  O33  1  0.15931400  0.18527700  0.25000000  1
  O  O34  1  0.97403700  0.15931400  0.75000000  1
  O  O35  1  0.02596300  0.84068600  0.25000000  1
  O  O36  1  0.18527700  0.02596300  0.75000000  1
  O  O37  1  0.81472300  0.97403700  0.25000000  1
  O  O38  1  0.56224400  0.82366700  0.75000000  1
  O  O39  1  0.43775600  0.17633300  0.25000000  1
  O  O40  1  0.26142400  0.43775600  0.75000000  1
  O  O41  1  0.73857600  0.56224400  0.25000000  1
  O  O42  1  0.17633300  0.73857600  0.75000000  1
  O  O43  1  0.82366700  0.26142400  0.25000000  1
  O  O44  1  0.92192600  0.73459500  0.75000000  1
  O  O45  1  0.07807400  0.26540500  0.25000000  1
  O  O46  1  0.81266800  0.07807400  0.75000000  1
  O  O47  1  0.18733200  0.92192600  0.25000000  1
  O  O48  1  0.26540500  0.18733200  0.75000000  1
  O  O49  1  0.73459500  0.81266800  0.25000000  1
  O  O50  1  0.71988300  0.42804400  0.75000000  1
  O  O51  1  0.28011700  0.57195600  0.25000000  1
  O  O52  1  0.70816200  0.28011700  0.75000000  1
  O  O53  1  0.29183800  0.71988300  0.25000000  1
  O  O54  1  0.57195600  0.29183800  0.75000000  1
  O  O55  1  0.42804400  0.70816200  0.25000000  1
