# generated using pymatgen
data_Rb2TaAgS2
_symmetry_space_group_name_H-M   'P 1'
_cell_length_a   5.88150900
_cell_length_b   6.84873283
_cell_length_c   23.33243602
_cell_angle_alpha   86.89771323
_cell_angle_beta   82.75934553
_cell_angle_gamma   64.57136242
_symmetry_Int_Tables_number   1
_chemical_formula_structural   Rb2TaAgS2
_chemical_formula_sum   'Rb8 Ta4 Ag4 S8'
_cell_volume   842.03037612
_cell_formula_units_Z   4
loop_
 _symmetry_equiv_pos_site_id
 _symmetry_equiv_pos_as_xyz
  1  'x, y, z'
loop_
 _atom_site_type_symbol
 _atom_site_label
 _atom_site_symmetry_multiplicity
 _atom_site_fract_x
 _atom_site_fract_y
 _atom_site_fract_z
 _atom_site_occupancy
  Rb  Rb0  1  0.50438200  0.27168200  0.60796200  1
  Rb  Rb1  1  0.88765600  0.72831800  0.60796200  1
  Rb  Rb2  1  0.22393600  0.27168200  0.39203800  1
  Rb  Rb3  1  0.24561800  0.22831800  0.89203800  1
  Rb  Rb4  1  0.38402600  0.72831800  0.39203800  1
  Rb  Rb5  1  0.86234400  0.77168200  0.89203800  1
  Rb  Rb6  1  0.52606400  0.22831800  0.10796200  1
  Rb  Rb7  1  0.36597400  0.77168200  0.10796200  1
  Ta  Ta8  1  0.87500000  0.25000000  0.25000000  1
  Ta  Ta9  1  0.87500000  0.75000000  0.25000000  1
  Ta  Ta10  1  0.87500000  0.25000000  0.75000000  1
  Ta  Ta11  1  0.37500000  0.75000000  0.75000000  1
  Ag  Ag12  1  0.37500000  0.25000000  0.25000000  1
  Ag  Ag13  1  0.37500000  0.75000000  0.25000000  1
  Ag  Ag14  1  0.37500000  0.25000000  0.75000000  1
  Ag  Ag15  1  0.87500000  0.75000000  0.75000000  1
  S  S16  1  0.99083600  0.23901000  0.15135000  1
  S  S17  1  0.85781400  0.76099000  0.15135000  1
  S  S18  1  0.77015400  0.23901000  0.84865000  1
  S  S19  1  0.75916400  0.26099000  0.34865000  1
  S  S20  1  0.38119600  0.76099000  0.84865000  1
  S  S21  1  0.89218600  0.73901000  0.34865000  1
  S  S22  1  0.97984600  0.26099000  0.65135000  1
  S  S23  1  0.36880400  0.73901000  0.65135000  1
