# generated using pymatgen
data_PuH16C3N4O11
_symmetry_space_group_name_H-M   'P 1'
_cell_length_a   7.30180613
_cell_length_b   7.30180613
_cell_length_c   13.02072452
_cell_angle_alpha   87.24489509
_cell_angle_beta   87.24489509
_cell_angle_gamma   79.28287255
_symmetry_Int_Tables_number   1
_chemical_formula_structural   PuH16C3N4O11
_chemical_formula_sum   'Pu2 H32 C6 N8 O22'
_cell_volume   680.77857757
_cell_formula_units_Z   2
loop_
 _symmetry_equiv_pos_site_id
 _symmetry_equiv_pos_as_xyz
  1  'x, y, z'
loop_
 _atom_site_type_symbol
 _atom_site_label
 _atom_site_symmetry_multiplicity
 _atom_site_fract_x
 _atom_site_fract_y
 _atom_site_fract_z
 _atom_site_occupancy
  Pu  Pu0  1  0.19288500  0.80711500  0.75000000  1
  Pu  Pu1  1  0.80711500  0.19288500  0.25000000  1
  H  H2  1  0.64876600  0.13280300  0.84029300  1
  H  H3  1  0.35123400  0.86719700  0.15970700  1
  H  H4  1  0.86719700  0.35123400  0.65970700  1
  H  H5  1  0.13280300  0.64876600  0.34029300  1
  H  H6  1  0.56061700  0.27961700  0.60478100  1
  H  H7  1  0.43938300  0.72038300  0.39521900  1
  H  H8  1  0.72038300  0.43938300  0.89521900  1
  H  H9  1  0.27961700  0.56061700  0.10478100  1
  H  H10  1  0.34017200  0.91625700  0.46152600  1
  H  H11  1  0.65982800  0.08374300  0.53847400  1
  H  H12  1  0.08374300  0.65982800  0.03847400  1
  H  H13  1  0.91625700  0.34017200  0.96152600  1
  H  H14  1  0.37418600  0.70381500  0.52168200  1
  H  H15  1  0.62581400  0.29618500  0.47831800  1
  H  H16  1  0.29618500  0.62581400  0.97831800  1
  H  H17  1  0.70381500  0.37418600  0.02168200  1
  H  H18  1  0.73892900  0.93679800  0.91463600  1
  H  H19  1  0.26107100  0.06320200  0.08536400  1
  H  H20  1  0.06320200  0.26107100  0.58536400  1
  H  H21  1  0.93679800  0.73892900  0.41463600  1
  H  H22  1  0.72542700  0.93510800  0.78482700  1
  H  H23  1  0.27457300  0.06489200  0.21517300  1
  H  H24  1  0.06489200  0.27457300  0.71517300  1
  H  H25  1  0.93510800  0.72542700  0.28482700  1
  H  H26  1  0.52619000  0.95805100  0.86379300  1
  H  H27  1  0.47381000  0.04194900  0.13620700  1
  H  H28  1  0.04194900  0.47381000  0.63620700  1
  H  H29  1  0.95805100  0.52619000  0.36379300  1
  H  H30  1  0.43967400  0.20043000  0.51365900  1
  H  H31  1  0.56032600  0.79957000  0.48634100  1
  H  H32  1  0.79957000  0.56032600  0.98634100  1
  H  H33  1  0.20043000  0.43967400  0.01365900  1
  C  C34  1  0.49993200  0.50006800  0.75000000  1
  C  C35  1  0.50006800  0.49993200  0.25000000  1
  C  C36  1  0.15944000  0.08024700  0.90718000  1
  C  C37  1  0.84056000  0.91975300  0.09282000  1
  C  C38  1  0.91975300  0.84056000  0.59282000  1
  C  C39  1  0.08024700  0.15944000  0.40718000  1
  N  N40  1  0.57085900  0.21573000  0.53474500  1
  N  N41  1  0.42914100  0.78427000  0.46525500  1
  N  N42  1  0.78427000  0.42914100  0.96525500  1
  N  N43  1  0.21573000  0.57085900  0.03474500  1
  N  N44  1  0.65894900  0.99000400  0.85156000  1
  N  N45  1  0.34105000  0.00999600  0.14844000  1
  N  N46  1  0.00999600  0.34105000  0.64844000  1
  N  N47  1  0.99000400  0.65894900  0.35156000  1
  O  O48  1  0.19955800  0.13947100  0.47764300  1
  O  O49  1  0.80044200  0.86052900  0.52235700  1
  O  O50  1  0.86052900  0.80044200  0.02235700  1
  O  O51  1  0.13947100  0.19955800  0.97764300  1
  O  O52  1  0.63710600  0.36289400  0.75000000  1
  O  O53  1  0.36289400  0.63710600  0.25000000  1
  O  O54  1  0.29010800  0.93058300  0.90908100  1
  O  O55  1  0.70989200  0.06941700  0.09091900  1
  O  O56  1  0.06941700  0.70989200  0.59091900  1
  O  O57  1  0.93058300  0.29010800  0.40908100  1
  O  O58  1  0.09840700  0.04897400  0.33008400  1
  O  O59  1  0.90159300  0.95102600  0.66991600  1
  O  O60  1  0.95102600  0.90159300  0.16991600  1
  O  O61  1  0.04897400  0.09840700  0.83008400  1
  O  O62  1  0.46114100  0.61059300  0.82745500  1
  O  O63  1  0.53885900  0.38940700  0.17254500  1
  O  O64  1  0.38940700  0.53885900  0.67254500  1
  O  O65  1  0.61059300  0.46114100  0.32745500  1
  O  O66  1  0.33551600  0.94795100  0.67732400  1
  O  O67  1  0.66448400  0.05204900  0.32267600  1
  O  O68  1  0.05204900  0.66448400  0.82267600  1
  O  O69  1  0.94795100  0.33551600  0.17732400  1
