# generated using pymatgen
data_Pb(CO3)2
_symmetry_space_group_name_H-M   'P 1'
_cell_length_a   7.86684800
_cell_length_b   8.51749200
_cell_length_c   9.05666400
_cell_angle_alpha   90.00000000
_cell_angle_beta   90.00000000
_cell_angle_gamma   90.00000000
_symmetry_Int_Tables_number   1
_chemical_formula_structural   Pb(CO3)2
_chemical_formula_sum   'Pb4 C8 O24'
_cell_volume   606.84915164
_cell_formula_units_Z   4
loop_
 _symmetry_equiv_pos_site_id
 _symmetry_equiv_pos_as_xyz
  1  'x, y, z'
loop_
 _atom_site_type_symbol
 _atom_site_label
 _atom_site_symmetry_multiplicity
 _atom_site_fract_x
 _atom_site_fract_y
 _atom_site_fract_z
 _atom_site_occupancy
  Pb  Pb0  1  0.25000000  0.01304000  0.10216900  1
  Pb  Pb1  1  0.75000000  0.98696000  0.89783100  1
  Pb  Pb2  1  0.75000000  0.51304000  0.39783100  1
  Pb  Pb3  1  0.25000000  0.48696000  0.60216900  1
  C  C4  1  0.65043400  0.25193300  0.14840200  1
  C  C5  1  0.34956600  0.74806700  0.85159800  1
  C  C6  1  0.34956600  0.75193300  0.35159800  1
  C  C7  1  0.15043400  0.74806700  0.85159800  1
  C  C8  1  0.65043400  0.24806700  0.64840200  1
  C  C9  1  0.84956600  0.25193300  0.14840200  1
  C  C10  1  0.84956600  0.24806700  0.64840200  1
  C  C11  1  0.15043400  0.75193300  0.35159800  1
  O  O12  1  0.57722900  0.14934800  0.06796400  1
  O  O13  1  0.42277100  0.85065200  0.93203600  1
  O  O14  1  0.42277100  0.64934800  0.43203600  1
  O  O15  1  0.07722900  0.85065200  0.93203600  1
  O  O16  1  0.57722900  0.35065200  0.56796400  1
  O  O17  1  0.92277100  0.14934800  0.06796400  1
  O  O18  1  0.92277100  0.35065200  0.56796400  1
  O  O19  1  0.07722900  0.64934800  0.43203600  1
  O  O20  1  0.57550200  0.35120300  0.22855600  1
  O  O21  1  0.42449800  0.64879700  0.77144400  1
  O  O22  1  0.42449800  0.85120300  0.27144400  1
  O  O23  1  0.07550200  0.64879700  0.77144400  1
  O  O24  1  0.57550200  0.14879700  0.72855600  1
  O  O25  1  0.92449800  0.35120300  0.22855600  1
  O  O26  1  0.92449800  0.14879700  0.72855600  1
  O  O27  1  0.07550200  0.85120300  0.27144400  1
  O  O28  1  0.25000000  0.43628500  0.02785100  1
  O  O29  1  0.75000000  0.56371500  0.97214900  1
  O  O30  1  0.75000000  0.93628500  0.47214900  1
  O  O31  1  0.25000000  0.06371500  0.52785100  1
  O  O32  1  0.25000000  0.16372300  0.42943900  1
  O  O33  1  0.75000000  0.83627700  0.57056100  1
  O  O34  1  0.75000000  0.66372300  0.07056100  1
  O  O35  1  0.25000000  0.33627700  0.92943900  1
