# generated using pymatgen
data_Na2Fe2Ni(PO4)3
_symmetry_space_group_name_H-M   'P 1'
_cell_length_a   8.64939929
_cell_length_b   8.64939929
_cell_length_c   6.56066709
_cell_angle_alpha   73.99821010
_cell_angle_beta   73.99821010
_cell_angle_gamma   93.61041802
_symmetry_Int_Tables_number   1
_chemical_formula_structural   Na2Fe2Ni(PO4)3
_chemical_formula_sum   'Na4 Fe4 Ni2 P6 O24'
_cell_volume   448.36068659
_cell_formula_units_Z   2
loop_
 _symmetry_equiv_pos_site_id
 _symmetry_equiv_pos_as_xyz
  1  'x, y, z'
loop_
 _atom_site_type_symbol
 _atom_site_label
 _atom_site_symmetry_multiplicity
 _atom_site_fract_x
 _atom_site_fract_y
 _atom_site_fract_z
 _atom_site_occupancy
  Na  Na0  1  0.98529300  0.01470700  0.25000000  1
  Na  Na1  1  0.01470700  0.98529300  0.75000000  1
  Na  Na2  1  0.50000000  0.50000000  0.00000000  1
  Na  Na3  1  0.50000000  0.50000000  0.50000000  1
  Fe  Fe4  1  0.38059500  0.05596600  0.37454900  1
  Fe  Fe5  1  0.61940500  0.94403400  0.62545100  1
  Fe  Fe6  1  0.94403400  0.61940500  0.12545100  1
  Fe  Fe7  1  0.05596600  0.38059500  0.87454900  1
  Ni  Ni8  1  0.26477200  0.73522800  0.25000000  1
  Ni  Ni9  1  0.73522800  0.26477200  0.75000000  1
  P  P10  1  0.70983100  0.29016900  0.25000000  1
  P  P11  1  0.29016900  0.70983100  0.75000000  1
  P  P12  1  0.65454200  0.87537400  0.11879100  1
  P  P13  1  0.34545800  0.12462600  0.88120900  1
  P  P14  1  0.12462600  0.34545800  0.38120900  1
  P  P15  1  0.87537400  0.65454200  0.61879100  1
  O  O16  1  0.53088900  0.26275200  0.25557400  1
  O  O17  1  0.46911100  0.73724800  0.74442600  1
  O  O18  1  0.73724800  0.46911100  0.24442600  1
  O  O19  1  0.26275200  0.53088900  0.75557400  1
  O  O20  1  0.52079800  0.73234000  0.16643700  1
  O  O21  1  0.47920200  0.26766000  0.83356300  1
  O  O22  1  0.26766000  0.47920200  0.33356300  1
  O  O23  1  0.73234000  0.52079800  0.66643700  1
  O  O24  1  0.74223800  0.17915700  0.46243100  1
  O  O25  1  0.25776200  0.82084300  0.53756900  1
  O  O26  1  0.82084300  0.25776200  0.03756900  1
  O  O27  1  0.17915700  0.74223800  0.96243100  1
  O  O28  1  0.60353400  0.95645100  0.30760300  1
  O  O29  1  0.39646600  0.04354900  0.69239700  1
  O  O30  1  0.04354900  0.39646600  0.19239700  1
  O  O31  1  0.95645100  0.60353400  0.80760300  1
  O  O32  1  0.82522400  0.82496900  0.10920000  1
  O  O33  1  0.17477600  0.17503100  0.89080000  1
  O  O34  1  0.17503100  0.17477600  0.39080000  1
  O  O35  1  0.82496900  0.82522400  0.60920000  1
  O  O36  1  0.32293800  0.99377600  0.11198500  1
  O  O37  1  0.67706200  0.00622400  0.88801500  1
  O  O38  1  0.00622400  0.67706200  0.38801500  1
  O  O39  1  0.99377600  0.32293800  0.61198500  1
