# generated using pymatgen
data_NaCa2ZrSi2O9
_symmetry_space_group_name_H-M   'P 1'
_cell_length_a   10.50741600
_cell_length_b   7.49931600
_cell_length_c   11.02514266
_cell_angle_alpha   69.81574155
_cell_angle_beta   90.00000000
_cell_angle_gamma   90.00000000
_symmetry_Int_Tables_number   1
_chemical_formula_structural   NaCa2ZrSi2O9
_chemical_formula_sum   'Na4 Ca8 Zr4 Si8 O36'
_cell_volume   815.41130583
_cell_formula_units_Z   4
loop_
 _symmetry_equiv_pos_site_id
 _symmetry_equiv_pos_as_xyz
  1  'x, y, z'
loop_
 _atom_site_type_symbol
 _atom_site_label
 _atom_site_symmetry_multiplicity
 _atom_site_fract_x
 _atom_site_fract_y
 _atom_site_fract_z
 _atom_site_occupancy
  Na  Na0  1  0.32738200  0.80831100  0.62903900  1
  Na  Na1  1  0.82738200  0.19168900  0.37096100  1
  Na  Na2  1  0.17034500  0.43389800  0.87091300  1
  Na  Na3  1  0.67034500  0.56610200  0.12908700  1
  Ca  Ca4  1  0.05468500  0.54241800  0.15141700  1
  Ca  Ca5  1  0.55468500  0.45758200  0.84858300  1
  Ca  Ca6  1  0.44825600  0.19912200  0.35312100  1
  Ca  Ca7  1  0.94825600  0.80087800  0.64687900  1
  Ca  Ca8  1  0.67964300  0.04778300  0.12590000  1
  Ca  Ca9  1  0.17964300  0.95221700  0.87410000  1
  Ca  Ca10  1  0.44359800  0.69809500  0.34794800  1
  Ca  Ca11  1  0.94359800  0.30190500  0.65205200  1
  Zr  Zr12  1  0.04677000  0.04191600  0.15447200  1
  Zr  Zr13  1  0.54677000  0.95808400  0.84552800  1
  Zr  Zr14  1  0.81079400  0.68942200  0.37553200  1
  Zr  Zr15  1  0.31079400  0.31057800  0.62446800  1
  Si  Si16  1  0.37405900  0.56068500  0.06269600  1
  Si  Si17  1  0.87405900  0.43931500  0.93730400  1
  Si  Si18  1  0.12727000  0.11579300  0.43330300  1
  Si  Si19  1  0.62727000  0.88420700  0.56669700  1
  Si  Si20  1  0.37358800  0.12641600  0.07130600  1
  Si  Si21  1  0.87358800  0.87358400  0.92869400  1
  Si  Si22  1  0.12789700  0.69758700  0.42568600  1
  Si  Si23  1  0.62789700  0.30241300  0.57431400  1
  O  O24  1  0.39002500  0.36203200  0.02629600  1
  O  O25  1  0.89002500  0.63796800  0.97370400  1
  O  O26  1  0.98763600  0.31227900  0.03283300  1
  O  O27  1  0.48763600  0.68772100  0.96716700  1
  O  O28  1  0.41078800  0.02097100  0.22089900  1
  O  O29  1  0.91078800  0.97902900  0.77910100  1
  O  O30  1  0.25302300  0.56778700  0.47497300  1
  O  O31  1  0.75302300  0.43221300  0.52502700  1
  O  O32  1  0.40671200  0.51594300  0.21325800  1
  O  O33  1  0.90671200  0.48405700  0.78674200  1
  O  O34  1  0.37292800  0.47544300  0.72955700  1
  O  O35  1  0.87292800  0.52455700  0.27044300  1
  O  O36  1  0.48812500  0.08335500  0.98156000  1
  O  O37  1  0.98812500  0.91664500  0.01844000  1
  O  O38  1  0.14540300  0.87930400  0.47833000  1
  O  O39  1  0.64540300  0.12069600  0.52167000  1
  O  O40  1  0.23097400  0.64333800  0.01860800  1
  O  O41  1  0.73097400  0.35666200  0.98139200  1
  O  O42  1  0.12182400  0.77099800  0.26767800  1
  O  O43  1  0.62182400  0.22900200  0.73232200  1
  O  O44  1  0.65226000  0.74035900  0.27124600  1
  O  O45  1  0.15226000  0.25964100  0.72875400  1
  O  O46  1  0.88162000  0.96157400  0.25466500  1
  O  O47  1  0.38162000  0.03842600  0.74533500  1
  O  O48  1  0.99222400  0.60588900  0.49059200  1
  O  O49  1  0.49222400  0.39411100  0.50940800  1
  O  O50  1  0.11251900  0.20047300  0.27386600  1
  O  O51  1  0.61251900  0.79952700  0.72613400  1
  O  O52  1  0.50043000  0.85616700  0.49234500  1
  O  O53  1  0.00043000  0.14383300  0.50765500  1
  O  O54  1  0.26146700  0.18198100  0.47998100  1
  O  O55  1  0.76146700  0.81801900  0.52001900  1
  O  O56  1  0.22782600  0.08714400  0.03496600  1
  O  O57  1  0.72782600  0.91285600  0.96503400  1
  O  O58  1  0.64392900  0.24287100  0.24725600  1
  O  O59  1  0.14392900  0.75712900  0.75274400  1
