# generated using pymatgen
data_Na2Ca5TiSi4(O8F)2
_symmetry_space_group_name_H-M   'P 1'
_cell_length_a   5.77571700
_cell_length_b   7.45322690
_cell_length_c   9.80296424
_cell_angle_alpha   101.18531537
_cell_angle_beta   101.78044304
_cell_angle_gamma   90.08340040
_symmetry_Int_Tables_number   1
_chemical_formula_structural   Na2Ca5TiSi4(O8F)2
_chemical_formula_sum   'Na2 Ca5 Ti1 Si4 O16 F2'
_cell_volume   404.88933670
_cell_formula_units_Z   1
loop_
 _symmetry_equiv_pos_site_id
 _symmetry_equiv_pos_as_xyz
  1  'x, y, z'
loop_
 _atom_site_type_symbol
 _atom_site_label
 _atom_site_symmetry_multiplicity
 _atom_site_fract_x
 _atom_site_fract_y
 _atom_site_fract_z
 _atom_site_occupancy
  Na  Na0  1  0.56028800  0.58864000  0.38063400  1
  Na  Na1  1  0.06232000  0.83033100  0.38424500  1
  Ca  Ca2  1  0.84593900  0.42273100  0.74792300  1
  Ca  Ca3  1  0.56344000  0.09120600  0.39068000  1
  Ca  Ca4  1  0.27594200  0.24161100  0.01752800  1
  Ca  Ca5  1  0.28118000  0.73999700  0.02203900  1
  Ca  Ca6  1  0.84745500  0.92362600  0.74713100  1
  Ti  Ti7  1  0.04476700  0.34242500  0.39861900  1
  Si  Si8  1  0.31882700  0.68409500  0.67074100  1
  Si  Si9  1  0.81576500  0.54805900  0.10837800  1
  Si  Si10  1  0.81489600  0.97951100  0.09915100  1
  Si  Si11  1  0.31105600  0.11546900  0.66370900  1
  O  O12  1  0.99211200  0.47733400  0.00132900  1
  O  O13  1  0.12887300  0.18664800  0.76714400  1
  O  O14  1  0.58906000  0.17163000  0.72432300  1
  O  O15  1  0.53620400  0.00022800  0.03338400  1
  O  O16  1  0.84736300  0.77575800  0.14451800  1
  O  O17  1  0.88807400  0.11828200  0.25726500  1
  O  O18  1  0.53619300  0.49187200  0.04921800  1
  O  O19  1  0.23620300  0.16410300  0.50377500  1
  O  O20  1  0.59487800  0.67070100  0.74447700  1
  O  O21  1  0.99714700  0.99337500  0.99543800  1
  O  O22  1  0.29891600  0.27901200  0.26859800  1
  O  O23  1  0.81082200  0.35239800  0.49521900  1
  O  O24  1  0.89794700  0.50128700  0.26877700  1
  O  O25  1  0.13157300  0.66734700  0.77183100  1
  O  O26  1  0.25244400  0.54545200  0.51277700  1
  O  O27  1  0.27814100  0.88765500  0.62604400  1
  F  F28  1  0.36632800  0.82218100  0.26707100  1
  F  F29  1  0.75664900  0.87423600  0.50193500  1
