# generated using pymatgen
data_NaLu(ReO5)4
_symmetry_space_group_name_H-M   'P 1'
_cell_length_a   12.32530500
_cell_length_b   12.32530500
_cell_length_c   5.92801400
_cell_angle_alpha   90.00000000
_cell_angle_beta   90.00000000
_cell_angle_gamma   90.00000000
_symmetry_Int_Tables_number   1
_chemical_formula_structural   NaLu(ReO5)4
_chemical_formula_sum   'Na2 Lu2 Re8 O40'
_cell_volume   900.54324052
_cell_formula_units_Z   2
loop_
 _symmetry_equiv_pos_site_id
 _symmetry_equiv_pos_as_xyz
  1  'x, y, z'
loop_
 _atom_site_type_symbol
 _atom_site_label
 _atom_site_symmetry_multiplicity
 _atom_site_fract_x
 _atom_site_fract_y
 _atom_site_fract_z
 _atom_site_occupancy
  Na  Na0  1  0.00000000  0.00000000  0.00000000  1
  Na  Na1  1  0.50000000  0.50000000  0.50000000  1
  Lu  Lu2  1  0.00000000  0.50000000  0.25000000  1
  Lu  Lu3  1  0.50000000  0.00000000  0.75000000  1
  Re  Re4  1  0.41586200  0.72381500  0.02953300  1
  Re  Re5  1  0.58413800  0.27618500  0.02953300  1
  Re  Re6  1  0.27618500  0.41586200  0.97046700  1
  Re  Re7  1  0.91586200  0.77618500  0.52953300  1
  Re  Re8  1  0.72381500  0.58413800  0.97046700  1
  Re  Re9  1  0.08413800  0.22381500  0.52953300  1
  Re  Re10  1  0.77618500  0.08413800  0.47046700  1
  Re  Re11  1  0.22381500  0.91586200  0.47046700  1
  O  O12  1  0.18780000  0.95852000  0.20114800  1
  O  O13  1  0.81220000  0.04148000  0.20114800  1
  O  O14  1  0.04148000  0.18780000  0.79885200  1
  O  O15  1  0.68780000  0.54148000  0.70114800  1
  O  O16  1  0.95852000  0.81220000  0.79885200  1
  O  O17  1  0.31220000  0.45852000  0.70114800  1
  O  O18  1  0.54148000  0.31220000  0.29885200  1
  O  O19  1  0.45852000  0.68780000  0.29885200  1
  O  O20  1  0.35943100  0.47745200  0.16939600  1
  O  O21  1  0.64056900  0.52254800  0.16939600  1
  O  O22  1  0.52254800  0.35943100  0.83060400  1
  O  O23  1  0.85943100  0.02254800  0.66939600  1
  O  O24  1  0.47745200  0.64056900  0.83060400  1
  O  O25  1  0.14056900  0.97745200  0.66939600  1
  O  O26  1  0.02254800  0.14056900  0.33060400  1
  O  O27  1  0.97745200  0.85943100  0.33060400  1
  O  O28  1  0.13502300  0.44887000  0.02575700  1
  O  O29  1  0.86497700  0.55113000  0.02575700  1
  O  O30  1  0.55113000  0.13502300  0.97424300  1
  O  O31  1  0.63502300  0.05113000  0.52575700  1
  O  O32  1  0.44887000  0.86497700  0.97424300  1
  O  O33  1  0.36497700  0.94887000  0.52575700  1
  O  O34  1  0.05113000  0.36497700  0.47424300  1
  O  O35  1  0.94887000  0.63502300  0.47424300  1
  O  O36  1  0.20841400  0.77654300  0.49038900  1
  O  O37  1  0.79158600  0.22345700  0.49038900  1
  O  O38  1  0.22345700  0.20841400  0.50961100  1
  O  O39  1  0.70841400  0.72345700  0.99038900  1
  O  O40  1  0.77654300  0.79158600  0.50961100  1
  O  O41  1  0.29158600  0.27654300  0.99038900  1
  O  O42  1  0.72345700  0.29158600  0.00961100  1
  O  O43  1  0.27654300  0.70841400  0.00961100  1
  O  O44  1  0.07305000  0.63082300  0.00482200  1
  O  O45  1  0.92695000  0.36917700  0.00482200  1
  O  O46  1  0.36917700  0.07305000  0.99517800  1
  O  O47  1  0.57305000  0.86917700  0.50482200  1
  O  O48  1  0.63082300  0.92695000  0.99517800  1
  O  O49  1  0.42695000  0.13082300  0.50482200  1
  O  O50  1  0.86917700  0.42695000  0.49517800  1
  O  O51  1  0.13082300  0.57305000  0.49517800  1
