# generated using pymatgen
data_Nd2Co23B3
_symmetry_space_group_name_H-M   'P 1'
_cell_length_a   11.91815500
_cell_length_b   11.91815500
_cell_length_c   11.91815500
_cell_angle_alpha   109.47122063
_cell_angle_beta   109.47122063
_cell_angle_gamma   109.47122063
_symmetry_Int_Tables_number   1
_chemical_formula_structural   Nd2Co23B3
_chemical_formula_sum   'Nd8 Co92 B12'
_cell_volume   1303.18237467
_cell_formula_units_Z   4
loop_
 _symmetry_equiv_pos_site_id
 _symmetry_equiv_pos_as_xyz
  1  'x, y, z'
loop_
 _atom_site_type_symbol
 _atom_site_label
 _atom_site_symmetry_multiplicity
 _atom_site_fract_x
 _atom_site_fract_y
 _atom_site_fract_z
 _atom_site_occupancy
  Nd  Nd0  1  0.11408400  0.11408400  0.11408400  1
  Nd  Nd1  1  0.38591600  0.50000000  0.00000000  1
  Nd  Nd2  1  0.00000000  0.38591600  0.50000000  1
  Nd  Nd3  1  0.61408400  0.61408400  0.61408400  1
  Nd  Nd4  1  0.50000000  0.00000000  0.38591600  1
  Nd  Nd5  1  0.88591600  0.50000000  0.00000000  1
  Nd  Nd6  1  0.50000000  0.00000000  0.88591600  1
  Nd  Nd7  1  0.00000000  0.88591600  0.50000000  1
  Co  Co8  1  0.30518900  0.05651900  0.99314600  1
  Co  Co9  1  0.19481100  0.18795700  0.75133000  1
  Co  Co10  1  0.93662800  0.44348100  0.74867000  1
  Co  Co11  1  0.05651900  0.99314600  0.30518900  1
  Co  Co12  1  0.80518900  0.49314600  0.55651900  1
  Co  Co13  1  0.56337200  0.31204300  0.50685400  1
  Co  Co14  1  0.18795700  0.75133000  0.19481100  1
  Co  Co15  1  0.69481100  0.25133000  0.68795700  1
  Co  Co16  1  0.44348100  0.74867000  0.93662800  1
  Co  Co17  1  0.43662800  0.24867000  0.94348100  1
  Co  Co18  1  0.31204300  0.50685400  0.56337200  1
  Co  Co19  1  0.06337200  0.00685400  0.81204300  1
  Co  Co20  1  0.99314600  0.30518900  0.05651900  1
  Co  Co21  1  0.55651900  0.80518900  0.49314600  1
  Co  Co22  1  0.74867000  0.93662800  0.44348100  1
  Co  Co23  1  0.94348100  0.43662800  0.24867000  1
  Co  Co24  1  0.50685400  0.56337200  0.31204300  1
  Co  Co25  1  0.81204300  0.06337200  0.00685400  1
  Co  Co26  1  0.75133000  0.19481100  0.18795700  1
  Co  Co27  1  0.68795700  0.69481100  0.25133000  1
  Co  Co28  1  0.49314600  0.55651900  0.80518900  1
  Co  Co29  1  0.25133000  0.68795700  0.69481100  1
  Co  Co30  1  0.00685400  0.81204300  0.06337200  1
  Co  Co31  1  0.24867000  0.94348100  0.43662800  1
  Co  Co32  1  0.41873000  0.16873000  0.25000000  1
  Co  Co33  1  0.08127000  0.33127000  0.75000000  1
  Co  Co34  1  0.16873000  0.25000000  0.41873000  1
  Co  Co35  1  0.91873000  0.75000000  0.66873000  1
  Co  Co36  1  0.33127000  0.75000000  0.08127000  1
  Co  Co37  1  0.58127000  0.25000000  0.83127000  1
  Co  Co38  1  0.25000000  0.41873000  0.16873000  1
  Co  Co39  1  0.66873000  0.91873000  0.75000000  1
  Co  Co40  1  0.75000000  0.08127000  0.33127000  1
  Co  Co41  1  0.83127000  0.58127000  0.25000000  1
  Co  Co42  1  0.75000000  0.66873000  0.91873000  1
  Co  Co43  1  0.25000000  0.83127000  0.58127000  1
  Co  Co44  1  0.12325900  0.26225800  0.93013000  1
  Co  Co45  1  0.37674100  0.30687100  0.13900000  1
  Co  Co46  1  0.66787200  0.23774200  0.36100000  1
  Co  Co47  1  0.26225800  0.93013000  0.12325900  1
  Co  Co48  1  0.62325900  0.43013000  0.76225800  1
  Co  Co49  1  0.83212800  0.19312900  0.56987000  1
  Co  Co50  1  0.30687100  0.13900000  0.37674100  1
  Co  Co51  1  0.87674100  0.63900000  0.80687100  1
  Co  Co52  1  0.23774200  0.36100000  0.66787200  1
  Co  Co53  1  0.16787200  0.86100000  0.73774200  1
  Co  Co54  1  0.19312900  0.56987000  0.83212800  1
  Co  Co55  1  0.33212800  0.06987000  0.69312900  1
  Co  Co56  1  0.93013000  0.12325900  0.26225800  1
  Co  Co57  1  0.76225800  0.62325900  0.43013000  1
  Co  Co58  1  0.36100000  0.66787200  0.23774200  1
  Co  Co59  1  0.73774200  0.16787200  0.86100000  1
  Co  Co60  1  0.56987000  0.83212800  0.19312900  1
  Co  Co61  1  0.69312900  0.33212800  0.06987000  1
  Co  Co62  1  0.13900000  0.37674100  0.30687100  1
  Co  Co63  1  0.80687100  0.87674100  0.63900000  1
  Co  Co64  1  0.43013000  0.76225800  0.62325900  1
  Co  Co65  1  0.63900000  0.80687100  0.87674100  1
  Co  Co66  1  0.06987000  0.69312900  0.33212800  1
  Co  Co67  1  0.86100000  0.73774200  0.16787200  1
  Co  Co68  1  0.90356000  0.07970200  0.85438200  1
  Co  Co69  1  0.59644000  0.45082200  0.17614100  1
  Co  Co70  1  0.77468100  0.42029800  0.32385900  1
  Co  Co71  1  0.07970200  0.85438200  0.90356000  1
  Co  Co72  1  0.40356000  0.35438200  0.57970200  1
  Co  Co73  1  0.72531900  0.04917800  0.64561800  1
  Co  Co74  1  0.45082200  0.17614100  0.59644000  1
  Co  Co75  1  0.09644000  0.67614100  0.95082200  1
  Co  Co76  1  0.42029800  0.32385900  0.77468100  1
  Co  Co77  1  0.27468100  0.82385900  0.92029800  1
  Co  Co78  1  0.04917800  0.64561800  0.72531900  1
  Co  Co79  1  0.22531900  0.14561800  0.54917800  1
  Co  Co80  1  0.85438200  0.90356000  0.07970200  1
  Co  Co81  1  0.57970200  0.40356000  0.35438200  1
  Co  Co82  1  0.32385900  0.77468100  0.42029800  1
  Co  Co83  1  0.92029800  0.27468100  0.82385900  1
  Co  Co84  1  0.64561800  0.72531900  0.04917800  1
  Co  Co85  1  0.54917800  0.22531900  0.14561800  1
  Co  Co86  1  0.17614100  0.59644000  0.45082200  1
  Co  Co87  1  0.95082200  0.09644000  0.67614100  1
  Co  Co88  1  0.35438200  0.57970200  0.40356000  1
  Co  Co89  1  0.67614100  0.95082200  0.09644000  1
  Co  Co90  1  0.14561800  0.54917800  0.22531900  1
  Co  Co91  1  0.82385900  0.92029800  0.27468100  1
  Co  Co92  1  0.36539800  0.36539800  0.36539800  1
  Co  Co93  1  0.13460200  0.50000000  0.00000000  1
  Co  Co94  1  0.00000000  0.13460200  0.50000000  1
  Co  Co95  1  0.86539800  0.86539800  0.86539800  1
  Co  Co96  1  0.50000000  0.00000000  0.13460200  1
  Co  Co97  1  0.63460200  0.50000000  0.00000000  1
  Co  Co98  1  0.50000000  0.00000000  0.63460200  1
  Co  Co99  1  0.00000000  0.63460200  0.50000000  1
  B  B100  1  0.18866700  0.93866700  0.25000000  1
  B  B101  1  0.31133300  0.56133300  0.75000000  1
  B  B102  1  0.93866700  0.25000000  0.18866700  1
  B  B103  1  0.68866700  0.75000000  0.43866700  1
  B  B104  1  0.56133300  0.75000000  0.31133300  1
  B  B105  1  0.81133300  0.25000000  0.06133300  1
  B  B106  1  0.25000000  0.18866700  0.93866700  1
  B  B107  1  0.43866700  0.68866700  0.75000000  1
  B  B108  1  0.75000000  0.31133300  0.56133300  1
  B  B109  1  0.06133300  0.81133300  0.25000000  1
  B  B110  1  0.75000000  0.43866700  0.68866700  1
  B  B111  1  0.25000000  0.06133300  0.81133300  1
