# generated using pymatgen
data_Na2Mo(HO2)2
_symmetry_space_group_name_H-M   'P 1'
_cell_length_a   8.70057400
_cell_length_b   10.53860300
_cell_length_c   13.91023700
_cell_angle_alpha   90.00000000
_cell_angle_beta   90.00000000
_cell_angle_gamma   90.00000000
_symmetry_Int_Tables_number   1
_chemical_formula_structural   Na2Mo(HO2)2
_chemical_formula_sum   'Na16 Mo8 H16 O32'
_cell_volume   1275.45599402
_cell_formula_units_Z   8
loop_
 _symmetry_equiv_pos_site_id
 _symmetry_equiv_pos_as_xyz
  1  'x, y, z'
loop_
 _atom_site_type_symbol
 _atom_site_label
 _atom_site_symmetry_multiplicity
 _atom_site_fract_x
 _atom_site_fract_y
 _atom_site_fract_z
 _atom_site_occupancy
  Na  Na0  1  0.16646700  0.00368500  0.43257600  1
  Na  Na1  1  0.83353300  0.99631500  0.56742400  1
  Na  Na2  1  0.33353300  0.99631500  0.93257600  1
  Na  Na3  1  0.83353300  0.50368500  0.06742400  1
  Na  Na4  1  0.66646700  0.00368500  0.06742400  1
  Na  Na5  1  0.16646700  0.49631500  0.93257600  1
  Na  Na6  1  0.66646700  0.49631500  0.56742400  1
  Na  Na7  1  0.33353300  0.50368500  0.43257600  1
  Na  Na8  1  0.25198500  0.44373200  0.13802900  1
  Na  Na9  1  0.74801500  0.55626800  0.86197100  1
  Na  Na10  1  0.24801500  0.55626800  0.63802900  1
  Na  Na11  1  0.74801500  0.94373200  0.36197100  1
  Na  Na12  1  0.75198500  0.44373200  0.36197100  1
  Na  Na13  1  0.25198500  0.05626800  0.63802900  1
  Na  Na14  1  0.75198500  0.05626800  0.86197100  1
  Na  Na15  1  0.24801500  0.94373200  0.13802900  1
  Mo  Mo16  1  0.00829100  0.20129800  0.02492900  1
  Mo  Mo17  1  0.99170900  0.79870200  0.97507100  1
  Mo  Mo18  1  0.49170900  0.79870200  0.52492900  1
  Mo  Mo19  1  0.99170900  0.70129800  0.47507100  1
  Mo  Mo20  1  0.50829100  0.20129800  0.47507100  1
  Mo  Mo21  1  0.00829100  0.29870200  0.52492900  1
  Mo  Mo22  1  0.50829100  0.29870200  0.97507100  1
  Mo  Mo23  1  0.49170900  0.70129800  0.02492900  1
  H  H24  1  0.22309100  0.34674000  0.30198200  1
  H  H25  1  0.77690900  0.65326000  0.69801800  1
  H  H26  1  0.27690900  0.65326000  0.80198200  1
  H  H27  1  0.77690900  0.84674000  0.19801800  1
  H  H28  1  0.72309100  0.34674000  0.19801800  1
  H  H29  1  0.22309100  0.15326000  0.80198200  1
  H  H30  1  0.72309100  0.15326000  0.69801800  1
  H  H31  1  0.27690900  0.84674000  0.30198200  1
  H  H32  1  0.46467800  0.10084100  0.20402100  1
  H  H33  1  0.53532200  0.89915900  0.79597900  1
  H  H34  1  0.03532200  0.89915900  0.70402100  1
  H  H35  1  0.53532200  0.60084100  0.29597900  1
  H  H36  1  0.96467800  0.10084100  0.29597900  1
  H  H37  1  0.46467800  0.39915900  0.70402100  1
  H  H38  1  0.96467800  0.39915900  0.79597900  1
  H  H39  1  0.03532200  0.60084100  0.20402100  1
  O  O40  1  0.45030600  0.31663600  0.09765200  1
  O  O41  1  0.54969400  0.68336400  0.90234800  1
  O  O42  1  0.04969400  0.68336400  0.59765200  1
  O  O43  1  0.54969400  0.81663600  0.40234800  1
  O  O44  1  0.95030600  0.31663600  0.40234800  1
  O  O45  1  0.45030600  0.18336400  0.59765200  1
  O  O46  1  0.95030600  0.18336400  0.90234800  1
  O  O47  1  0.04969400  0.81663600  0.09765200  1
  O  O48  1  0.18043400  0.10913200  0.04199400  1
  O  O49  1  0.81956600  0.89086800  0.95800600  1
  O  O50  1  0.31956600  0.89086800  0.54199400  1
  O  O51  1  0.81956600  0.60913200  0.45800600  1
  O  O52  1  0.68043400  0.10913200  0.45800600  1
  O  O53  1  0.18043400  0.39086800  0.54199400  1
  O  O54  1  0.68043400  0.39086800  0.95800600  1
  O  O55  1  0.31956600  0.60913200  0.04199400  1
  O  O56  1  0.04664800  0.36903100  0.05090600  1
  O  O57  1  0.95335200  0.63096900  0.94909400  1
  O  O58  1  0.45335200  0.63096900  0.55090600  1
  O  O59  1  0.95335200  0.86903100  0.44909400  1
  O  O60  1  0.54664800  0.36903100  0.44909400  1
  O  O61  1  0.04664800  0.13096900  0.55090600  1
  O  O62  1  0.54664800  0.13096900  0.94909400  1
  O  O63  1  0.45335200  0.86903100  0.05090600  1
  O  O64  1  0.36198500  0.14549700  0.39523900  1
  O  O65  1  0.63801500  0.85450300  0.60476100  1
  O  O66  1  0.13801500  0.85450300  0.89523900  1
  O  O67  1  0.63801500  0.64549700  0.10476100  1
  O  O68  1  0.86198500  0.14549700  0.10476100  1
  O  O69  1  0.36198500  0.35450300  0.89523900  1
  O  O70  1  0.86198500  0.35450300  0.60476100  1
  O  O71  1  0.13801500  0.64549700  0.39523900  1
