# generated using pymatgen
data_Na4MnO5
_symmetry_space_group_name_H-M   'P 1'
_cell_length_a   7.47481600
_cell_length_b   9.11081200
_cell_length_c   8.33952000
_cell_angle_alpha   90.00000000
_cell_angle_beta   90.00000000
_cell_angle_gamma   90.00000000
_symmetry_Int_Tables_number   1
_chemical_formula_structural   Na4MnO5
_chemical_formula_sum   'Na16 Mn4 O20'
_cell_volume   567.93501642
_cell_formula_units_Z   4
loop_
 _symmetry_equiv_pos_site_id
 _symmetry_equiv_pos_as_xyz
  1  'x, y, z'
loop_
 _atom_site_type_symbol
 _atom_site_label
 _atom_site_symmetry_multiplicity
 _atom_site_fract_x
 _atom_site_fract_y
 _atom_site_fract_z
 _atom_site_occupancy
  Na  Na0  1  0.49330400  0.86929400  0.64836200  1
  Na  Na1  1  0.50669600  0.13070600  0.35163800  1
  Na  Na2  1  0.50669600  0.63070600  0.14836200  1
  Na  Na3  1  0.99330400  0.13070600  0.35163800  1
  Na  Na4  1  0.49330400  0.36929400  0.85163800  1
  Na  Na5  1  0.00669600  0.86929400  0.64836200  1
  Na  Na6  1  0.00669600  0.36929400  0.85163800  1
  Na  Na7  1  0.99330400  0.63070600  0.14836200  1
  Na  Na8  1  0.75000000  0.86165100  0.27433400  1
  Na  Na9  1  0.25000000  0.13834900  0.72566600  1
  Na  Na10  1  0.25000000  0.63834900  0.77433400  1
  Na  Na11  1  0.75000000  0.36165100  0.22566600  1
  Na  Na12  1  0.00000000  0.00000000  0.00000000  1
  Na  Na13  1  0.00000000  0.50000000  0.50000000  1
  Na  Na14  1  0.50000000  0.00000000  0.00000000  1
  Na  Na15  1  0.50000000  0.50000000  0.50000000  1
  Mn  Mn16  1  0.75000000  0.63823000  0.85153400  1
  Mn  Mn17  1  0.25000000  0.36177000  0.14846600  1
  Mn  Mn18  1  0.25000000  0.86177000  0.35153400  1
  Mn  Mn19  1  0.75000000  0.13823000  0.64846600  1
  O  O20  1  0.75000000  0.60774100  0.33175600  1
  O  O21  1  0.25000000  0.39225900  0.66824400  1
  O  O22  1  0.25000000  0.89225900  0.83175600  1
  O  O23  1  0.75000000  0.10774100  0.16824400  1
  O  O24  1  0.75000000  0.98762500  0.52115900  1
  O  O25  1  0.25000000  0.01237500  0.47884100  1
  O  O26  1  0.25000000  0.51237500  0.02115900  1
  O  O27  1  0.75000000  0.48762500  0.97884100  1
  O  O28  1  0.93881600  0.62785800  0.73743400  1
  O  O29  1  0.06118400  0.37214200  0.26256600  1
  O  O30  1  0.06118400  0.87214200  0.23743400  1
  O  O31  1  0.43881600  0.37214200  0.26256600  1
  O  O32  1  0.93881600  0.12785800  0.76256600  1
  O  O33  1  0.56118400  0.62785800  0.73743400  1
  O  O34  1  0.56118400  0.12785800  0.76256600  1
  O  O35  1  0.43881600  0.87214200  0.23743400  1
  O  O36  1  0.75000000  0.78909200  0.97274500  1
  O  O37  1  0.25000000  0.21090800  0.02725500  1
  O  O38  1  0.25000000  0.71090800  0.47274500  1
  O  O39  1  0.75000000  0.28909200  0.52725500  1
