# generated using pymatgen
data_Nb2FeS4
_symmetry_space_group_name_H-M   'P 1'
_cell_length_a   3.34129800
_cell_length_b   8.75328900
_cell_length_c   18.70533500
_cell_angle_alpha   90.00000000
_cell_angle_beta   90.00000000
_cell_angle_gamma   90.00000000
_symmetry_Int_Tables_number   1
_chemical_formula_structural   Nb2FeS4
_chemical_formula_sum   'Nb8 Fe4 S16'
_cell_volume   547.08142404
_cell_formula_units_Z   4
loop_
 _symmetry_equiv_pos_site_id
 _symmetry_equiv_pos_as_xyz
  1  'x, y, z'
loop_
 _atom_site_type_symbol
 _atom_site_label
 _atom_site_symmetry_multiplicity
 _atom_site_fract_x
 _atom_site_fract_y
 _atom_site_fract_z
 _atom_site_occupancy
  Nb  Nb0  1  0.75000000  0.88210700  0.52870200  1
  Nb  Nb1  1  0.25000000  0.11789300  0.47129800  1
  Nb  Nb2  1  0.25000000  0.61789300  0.02870200  1
  Nb  Nb3  1  0.75000000  0.38210700  0.97129800  1
  Nb  Nb4  1  0.75000000  0.51333900  0.40014400  1
  Nb  Nb5  1  0.25000000  0.48666100  0.59985600  1
  Nb  Nb6  1  0.25000000  0.98666100  0.90014400  1
  Nb  Nb7  1  0.75000000  0.01333900  0.09985600  1
  Fe  Fe8  1  0.75000000  0.76309600  0.85251100  1
  Fe  Fe9  1  0.25000000  0.23690400  0.14748900  1
  Fe  Fe10  1  0.25000000  0.73690400  0.35251100  1
  Fe  Fe11  1  0.75000000  0.26309600  0.64748900  1
  S  S12  1  0.75000000  0.68355800  0.63328900  1
  S  S13  1  0.25000000  0.31644200  0.36671100  1
  S  S14  1  0.25000000  0.81644200  0.13328900  1
  S  S15  1  0.75000000  0.18355800  0.86671100  1
  S  S16  1  0.75000000  0.62891100  0.28635600  1
  S  S17  1  0.25000000  0.37108900  0.71364400  1
  S  S18  1  0.25000000  0.87108900  0.78635600  1
  S  S19  1  0.75000000  0.12891100  0.21364400  1
  S  S20  1  0.75000000  0.96658800  0.40201100  1
  S  S21  1  0.25000000  0.03341200  0.59798900  1
  S  S22  1  0.25000000  0.53341200  0.90201100  1
  S  S23  1  0.75000000  0.46658800  0.09798900  1
  S  S24  1  0.75000000  0.83062600  0.97250000  1
  S  S25  1  0.25000000  0.16937400  0.02750000  1
  S  S26  1  0.25000000  0.66937400  0.47250000  1
  S  S27  1  0.75000000  0.33062600  0.52750000  1
