# generated using pymatgen
data_Mg(H3Cl)2
_symmetry_space_group_name_H-M   'P 1'
_cell_length_a   8.30350521
_cell_length_b   8.30350521
_cell_length_c   3.77470228
_cell_angle_alpha   89.35504235
_cell_angle_beta   89.35504235
_cell_angle_gamma   83.74021693
_symmetry_Int_Tables_number   1
_chemical_formula_structural   Mg(H3Cl)2
_chemical_formula_sum   'Mg1 H6 Cl2'
_cell_volume   258.67763159
_cell_formula_units_Z   1
loop_
 _symmetry_equiv_pos_site_id
 _symmetry_equiv_pos_as_xyz
  1  'x, y, z'
loop_
 _atom_site_type_symbol
 _atom_site_label
 _atom_site_symmetry_multiplicity
 _atom_site_fract_x
 _atom_site_fract_y
 _atom_site_fract_z
 _atom_site_occupancy
  Mg  Mg0  1  0.00000000  0.00000000  0.00000000  1
  H  H1  1  0.24970500  0.24970500  0.60970800  1
  H  H2  1  0.75029500  0.75029500  0.39029200  1
  H  H3  1  0.73702900  0.24546000  0.40501200  1
  H  H4  1  0.26297100  0.75454000  0.59498800  1
  H  H5  1  0.75454000  0.26297100  0.59498800  1
  H  H6  1  0.24546000  0.73702900  0.40501200  1
  Cl  Cl7  1  0.31814100  0.31814100  0.86535100  1
  Cl  Cl8  1  0.68185900  0.68185900  0.13464900  1
