# generated using pymatgen
data_Mg3SiO6
_symmetry_space_group_name_H-M   'P 1'
_cell_length_a   4.80260300
_cell_length_b   8.96590400
_cell_length_c   10.46434400
_cell_angle_alpha   90.00000000
_cell_angle_beta   90.00000000
_cell_angle_gamma   90.00000000
_symmetry_Int_Tables_number   1
_chemical_formula_structural   Mg3SiO6
_chemical_formula_sum   'Mg12 Si4 O24'
_cell_volume   450.59127735
_cell_formula_units_Z   4
loop_
 _symmetry_equiv_pos_site_id
 _symmetry_equiv_pos_as_xyz
  1  'x, y, z'
loop_
 _atom_site_type_symbol
 _atom_site_label
 _atom_site_symmetry_multiplicity
 _atom_site_fract_x
 _atom_site_fract_y
 _atom_site_fract_z
 _atom_site_occupancy
  Mg  Mg0  1  0.49951700  0.75000000  0.59387900  1
  Mg  Mg1  1  0.50048300  0.25000000  0.40612100  1
  Mg  Mg2  1  0.99951700  0.25000000  0.90612100  1
  Mg  Mg3  1  0.00048300  0.75000000  0.09387900  1
  Mg  Mg4  1  0.51218600  0.57025600  0.86583600  1
  Mg  Mg5  1  0.48781400  0.42974400  0.13416400  1
  Mg  Mg6  1  0.01218600  0.42974400  0.63416400  1
  Mg  Mg7  1  0.48781400  0.07025600  0.13416400  1
  Mg  Mg8  1  0.98781400  0.57025600  0.36583600  1
  Mg  Mg9  1  0.51218600  0.92974400  0.86583600  1
  Mg  Mg10  1  0.98781400  0.92974400  0.36583600  1
  Mg  Mg11  1  0.01218600  0.07025600  0.63416400  1
  Si  Si12  1  0.07582100  0.75000000  0.77987000  1
  Si  Si13  1  0.92417900  0.25000000  0.22013000  1
  Si  Si14  1  0.57582100  0.25000000  0.72013000  1
  Si  Si15  1  0.42417900  0.75000000  0.27987000  1
  O  O16  1  0.72577400  0.10551700  0.79186300  1
  O  O17  1  0.27422600  0.89448300  0.20813700  1
  O  O18  1  0.22577400  0.89448300  0.70813700  1
  O  O19  1  0.27422600  0.60551700  0.20813700  1
  O  O20  1  0.77422600  0.10551700  0.29186300  1
  O  O21  1  0.72577400  0.39448300  0.79186300  1
  O  O22  1  0.77422600  0.39448300  0.29186300  1
  O  O23  1  0.22577400  0.60551700  0.70813700  1
  O  O24  1  0.76823300  0.58468600  0.53582600  1
  O  O25  1  0.23176700  0.41531400  0.46417400  1
  O  O26  1  0.26823300  0.41531400  0.96417400  1
  O  O27  1  0.23176700  0.08468600  0.46417400  1
  O  O28  1  0.73176700  0.58468600  0.03582600  1
  O  O29  1  0.76823300  0.91531400  0.53582600  1
  O  O30  1  0.73176700  0.91531400  0.03582600  1
  O  O31  1  0.26823300  0.08468600  0.96417400  1
  O  O32  1  0.73742300  0.75000000  0.77858400  1
  O  O33  1  0.26257700  0.25000000  0.22141600  1
  O  O34  1  0.23742300  0.25000000  0.72141600  1
  O  O35  1  0.76257700  0.75000000  0.27858400  1
  O  O36  1  0.22326500  0.75000000  0.92375800  1
  O  O37  1  0.77673500  0.25000000  0.07624200  1
  O  O38  1  0.72326500  0.25000000  0.57624200  1
  O  O39  1  0.27673500  0.75000000  0.42375800  1
