# generated using pymatgen
data_Na11TiNb2Si4P2(O12F)2
_symmetry_space_group_name_H-M   'P 1'
_cell_length_a   5.61723500
_cell_length_b   7.28603345
_cell_length_c   14.70666405
_cell_angle_alpha   92.80692553
_cell_angle_beta   95.61673149
_cell_angle_gamma   90.65110372
_symmetry_Int_Tables_number   1
_chemical_formula_structural   Na11TiNb2Si4P2(O12F)2
_chemical_formula_sum   'Na11 Ti1 Nb2 Si4 P2 O24 F2'
_cell_volume   598.21741437
_cell_formula_units_Z   1
loop_
 _symmetry_equiv_pos_site_id
 _symmetry_equiv_pos_as_xyz
  1  'x, y, z'
loop_
 _atom_site_type_symbol
 _atom_site_label
 _atom_site_symmetry_multiplicity
 _atom_site_fract_x
 _atom_site_fract_y
 _atom_site_fract_z
 _atom_site_occupancy
  Na  Na0  1  0.24616700  0.73546800  0.07853400  1
  Na  Na1  1  0.75383300  0.26453200  0.92146600  1
  Na  Na2  1  0.28969300  0.01085000  0.26417200  1
  Na  Na3  1  0.71030700  0.98915000  0.73582800  1
  Na  Na4  1  0.81603200  0.01909700  0.10058500  1
  Na  Na5  1  0.18396800  0.98090300  0.89941500  1
  Na  Na6  1  0.00000000  0.50000000  0.50000000  1
  Na  Na7  1  0.80216400  0.49357100  0.13329100  1
  Na  Na8  1  0.19783600  0.50642900  0.86670900  1
  Na  Na9  1  0.49706500  0.24384100  0.50150900  1
  Na  Na10  1  0.50293500  0.75615900  0.49849100  1
  Ti  Ti11  1  0.00000000  0.00000000  0.50000000  1
  Nb  Nb12  1  0.29766000  0.49166400  0.28317600  1
  Nb  Nb13  1  0.70234000  0.50833600  0.71682400  1
  Si  Si14  1  0.18615500  0.21968900  0.69691300  1
  Si  Si15  1  0.81384500  0.78031100  0.30308700  1
  Si  Si16  1  0.79923000  0.20497300  0.31520900  1
  Si  Si17  1  0.20077000  0.79502700  0.68479100  1
  P  P18  1  0.31131200  0.25576100  0.06637100  1
  P  P19  1  0.68868800  0.74423900  0.93362900  1
  O  O20  1  0.01276300  0.31286700  0.27229300  1
  O  O21  1  0.98723700  0.68713300  0.72770700  1
  O  O22  1  0.84175300  0.19570900  0.42621100  1
  O  O23  1  0.15824700  0.80429100  0.57378900  1
  O  O24  1  0.25565600  0.43006500  0.12979100  1
  O  O25  1  0.74434400  0.56993500  0.87020900  1
  O  O26  1  0.20381400  0.00645900  0.73450800  1
  O  O27  1  0.79618600  0.99354100  0.26549200  1
  O  O28  1  0.31787700  0.51550000  0.40657300  1
  O  O29  1  0.68212300  0.48450000  0.59342700  1
  O  O30  1  0.53839100  0.28664400  0.28266700  1
  O  O31  1  0.46160900  0.71335600  0.71733300  1
  O  O32  1  0.56445900  0.67629000  0.25848100  1
  O  O33  1  0.43554100  0.32371000  0.74151900  1
  O  O34  1  0.58399000  0.25696700  0.05643600  1
  O  O35  1  0.41601000  0.74303300  0.94356400  1
  O  O36  1  0.23433600  0.07462600  0.10843100  1
  O  O37  1  0.76566400  0.92537400  0.89156900  1
  O  O38  1  0.16778700  0.27323200  0.97118900  1
  O  O39  1  0.83221300  0.72676800  0.02881100  1
  O  O40  1  0.04622000  0.69616300  0.25531100  1
  O  O41  1  0.95378000  0.30383700  0.74468900  1
  O  O42  1  0.16030700  0.20689300  0.58560000  1
  O  O43  1  0.83969300  0.79310700  0.41440000  1
  F  F44  1  0.27632900  0.00243200  0.42437300  1
  F  F45  1  0.72367100  0.99756800  0.57562700  1
