# generated using pymatgen
data_Na3V4(Bi10O21)2
_symmetry_space_group_name_H-M   'P 1'
_cell_length_a   11.84203016
_cell_length_b   11.84203016
_cell_length_c   12.44605263
_cell_angle_alpha   58.42444034
_cell_angle_beta   58.42444034
_cell_angle_gamma   58.60661622
_symmetry_Int_Tables_number   1
_chemical_formula_structural   Na3V4(Bi10O21)2
_chemical_formula_sum   'Na3 V4 Bi20 O42'
_cell_volume   1191.37362860
_cell_formula_units_Z   1
loop_
 _symmetry_equiv_pos_site_id
 _symmetry_equiv_pos_as_xyz
  1  'x, y, z'
loop_
 _atom_site_type_symbol
 _atom_site_label
 _atom_site_symmetry_multiplicity
 _atom_site_fract_x
 _atom_site_fract_y
 _atom_site_fract_z
 _atom_site_occupancy
  Na  Na0  1  0.67374600  0.32625400  0.50000000  1
  Na  Na1  1  0.32625400  0.67374600  0.50000000  1
  Na  Na2  1  0.00000000  0.00000000  0.50000000  1
  V  V3  1  0.34136300  0.34136300  0.14993000  1
  V  V4  1  0.65863700  0.65863700  0.85007000  1
  V  V5  1  0.99567100  0.99567100  0.18888200  1
  V  V6  1  0.00432900  0.00432900  0.81111800  1
  Bi  Bi7  1  0.64843900  0.64843900  0.51401500  1
  Bi  Bi8  1  0.35156100  0.35156100  0.48598500  1
  Bi  Bi9  1  0.66559500  0.66559500  0.19573200  1
  Bi  Bi10  1  0.33440500  0.33440500  0.80426800  1
  Bi  Bi11  1  0.66237500  0.00303200  0.51984200  1
  Bi  Bi12  1  0.33762500  0.99696800  0.48015800  1
  Bi  Bi13  1  0.99696800  0.33762500  0.48015800  1
  Bi  Bi14  1  0.00303200  0.66237500  0.51984200  1
  Bi  Bi15  1  0.34571800  0.66811900  0.17847400  1
  Bi  Bi16  1  0.65428200  0.33188100  0.82152600  1
  Bi  Bi17  1  0.33188100  0.65428200  0.82152600  1
  Bi  Bi18  1  0.66811900  0.34571800  0.17847400  1
  Bi  Bi19  1  0.67512700  0.99960700  0.17000800  1
  Bi  Bi20  1  0.32487300  0.00039300  0.82999200  1
  Bi  Bi21  1  0.00039300  0.32487300  0.82999200  1
  Bi  Bi22  1  0.99960700  0.67512700  0.17000800  1
  Bi  Bi23  1  0.33532400  0.99345100  0.17881900  1
  Bi  Bi24  1  0.66467600  0.00654900  0.82118100  1
  Bi  Bi25  1  0.00654900  0.66467600  0.82118100  1
  Bi  Bi26  1  0.99345100  0.33532400  0.17881900  1
  O  O27  1  0.90270900  0.90270900  0.21090600  1
  O  O28  1  0.09729100  0.09729100  0.78909400  1
  O  O29  1  0.47394100  0.47394100  0.28823000  1
  O  O30  1  0.52605900  0.52605900  0.71177000  1
  O  O31  1  0.56450800  0.92538900  0.38510100  1
  O  O32  1  0.43549200  0.07461000  0.61489900  1
  O  O33  1  0.07461000  0.43549200  0.61489900  1
  O  O34  1  0.92538900  0.56450800  0.38510100  1
  O  O35  1  0.97238500  0.97238500  0.34616500  1
  O  O36  1  0.02761500  0.02761500  0.65383500  1
  O  O37  1  0.59953200  0.59953200  0.02673000  1
  O  O38  1  0.40046800  0.40046800  0.97327000  1
  O  O39  1  0.17584000  0.92550400  0.10238200  1
  O  O40  1  0.82416000  0.07449600  0.89761800  1
  O  O41  1  0.07449600  0.82416000  0.89761800  1
  O  O42  1  0.92550400  0.17584000  0.10238200  1
  O  O43  1  0.48885100  0.24110800  0.19905700  1
  O  O44  1  0.51114900  0.75889200  0.80094300  1
  O  O45  1  0.75889200  0.51114900  0.80094300  1
  O  O46  1  0.24110800  0.48885100  0.19905700  1
  O  O47  1  0.71773200  0.06878900  0.61003200  1
  O  O48  1  0.28226800  0.93121100  0.38996800  1
  O  O49  1  0.93121100  0.28226800  0.38996800  1
  O  O50  1  0.06878900  0.71773200  0.61003200  1
  O  O51  1  0.54949900  0.97126200  0.11137300  1
  O  O52  1  0.45050100  0.02873800  0.88862700  1
  O  O53  1  0.02873800  0.45050100  0.88862700  1
  O  O54  1  0.97126200  0.54949900  0.11137300  1
  O  O55  1  0.23891600  0.23891600  0.21809900  1
  O  O56  1  0.76108400  0.76108400  0.78190100  1
  O  O57  1  0.42217800  0.76701000  0.21979000  1
  O  O58  1  0.57782200  0.23299000  0.78021000  1
  O  O59  1  0.23299000  0.57782200  0.78021000  1
  O  O60  1  0.76701000  0.42217800  0.21979000  1
  O  O61  1  0.77852200  0.77852200  0.18984100  1
  O  O62  1  0.22147800  0.22147800  0.81015900  1
  O  O63  1  0.61257000  0.21319200  0.38980900  1
  O  O64  1  0.38743000  0.78680800  0.61019100  1
  O  O65  1  0.78680800  0.38743000  0.61019100  1
  O  O66  1  0.21319200  0.61257000  0.38980900  1
  O  O67  1  0.59692200  0.59692200  0.40933500  1
  O  O68  1  0.40307800  0.40307800  0.59066500  1
