# generated using pymatgen
data_Na2CuH2(SO4)2
_symmetry_space_group_name_H-M   'P 1'
_cell_length_a   12.41827000
_cell_length_b   5.30344700
_cell_length_c   5.92355598
_cell_angle_alpha   66.66963372
_cell_angle_beta   90.00000000
_cell_angle_gamma   90.00000000
_symmetry_Int_Tables_number   1
_chemical_formula_structural   Na2CuH2(SO4)2
_chemical_formula_sum   'Na4 Cu2 H4 S4 O16'
_cell_volume   358.22544871
_cell_formula_units_Z   2
loop_
 _symmetry_equiv_pos_site_id
 _symmetry_equiv_pos_as_xyz
  1  'x, y, z'
loop_
 _atom_site_type_symbol
 _atom_site_label
 _atom_site_symmetry_multiplicity
 _atom_site_fract_x
 _atom_site_fract_y
 _atom_site_fract_z
 _atom_site_occupancy
  Na  Na0  1  0.86890200  0.75676000  0.57401900  1
  Na  Na1  1  0.13109800  0.24324000  0.42598100  1
  Na  Na2  1  0.36890200  0.74324000  0.42598100  1
  Na  Na3  1  0.63109800  0.25676000  0.57401900  1
  Cu  Cu4  1  0.00000000  0.00000000  0.00000000  1
  Cu  Cu5  1  0.50000000  0.50000000  0.00000000  1
  H  H6  1  0.38934400  0.47065200  0.12912600  1
  H  H7  1  0.61065600  0.52934800  0.87087400  1
  H  H8  1  0.88934400  0.02934800  0.87087400  1
  H  H9  1  0.11065600  0.97065200  0.12912600  1
  S  S10  1  0.61873500  0.93515500  0.22573400  1
  S  S11  1  0.38126500  0.06484500  0.77426600  1
  S  S12  1  0.11873500  0.56484500  0.77426600  1
  S  S13  1  0.88126500  0.43515500  0.22573400  1
  O  O14  1  0.82764800  0.52681700  0.98839300  1
  O  O15  1  0.17235200  0.47318300  0.01160700  1
  O  O16  1  0.32764800  0.97318300  0.01160700  1
  O  O17  1  0.67235200  0.02681700  0.98839300  1
  O  O18  1  0.95726200  0.66216200  0.24303500  1
  O  O19  1  0.04273800  0.33783800  0.75696500  1
  O  O20  1  0.45726200  0.83783800  0.75696500  1
  O  O21  1  0.54273800  0.16216200  0.24303500  1
  O  O22  1  0.54777000  0.69112300  0.27070900  1
  O  O23  1  0.45223000  0.30887700  0.72929100  1
  O  O24  1  0.04777000  0.80887700  0.72929100  1
  O  O25  1  0.95223000  0.19112300  0.27070900  1
  O  O26  1  0.69138500  0.87214000  0.43807800  1
  O  O27  1  0.30861500  0.12786000  0.56192200  1
  O  O28  1  0.19138500  0.62786000  0.56192200  1
  O  O29  1  0.80861500  0.37214000  0.43807800  1
