# generated using pymatgen
data_NaIn(C2O5)2
_symmetry_space_group_name_H-M   'P 1'
_cell_length_a   8.09029972
_cell_length_b   8.09029972
_cell_length_c   12.99685700
_cell_angle_alpha   90.00000000
_cell_angle_beta   90.00000000
_cell_angle_gamma   119.99999770
_symmetry_Int_Tables_number   1
_chemical_formula_structural   NaIn(C2O5)2
_chemical_formula_sum   'Na3 In3 C12 O30'
_cell_volume   736.71278127
_cell_formula_units_Z   3
loop_
 _symmetry_equiv_pos_site_id
 _symmetry_equiv_pos_as_xyz
  1  'x, y, z'
loop_
 _atom_site_type_symbol
 _atom_site_label
 _atom_site_symmetry_multiplicity
 _atom_site_fract_x
 _atom_site_fract_y
 _atom_site_fract_z
 _atom_site_occupancy
  Na  Na0  1  0.00000000  0.00000000  0.50000000  1
  Na  Na1  1  0.00000000  0.00000000  0.16666700  1
  Na  Na2  1  0.00000000  0.00000000  0.83333300  1
  In  In3  1  0.50000000  0.00000000  0.50000000  1
  In  In4  1  0.00000000  0.50000000  0.16666700  1
  In  In5  1  0.50000000  0.50000000  0.83333300  1
  C  C6  1  0.30666400  0.61332900  0.00000000  1
  C  C7  1  0.38667100  0.69333600  0.66666700  1
  C  C8  1  0.69333600  0.38667100  0.00000000  1
  C  C9  1  0.61332900  0.30666400  0.66666700  1
  C  C10  1  0.30666400  0.69333600  0.33333300  1
  C  C11  1  0.69333600  0.30666400  0.33333300  1
  C  C12  1  0.19546000  0.39092000  0.00000000  1
  C  C13  1  0.60908000  0.80454000  0.66666700  1
  C  C14  1  0.80454000  0.60908000  0.00000000  1
  C  C15  1  0.39092000  0.19546000  0.66666700  1
  C  C16  1  0.19546000  0.80454000  0.33333300  1
  C  C17  1  0.80454000  0.19546000  0.33333300  1
  O  O18  1  0.30850300  0.08365800  0.59238500  1
  O  O19  1  0.91634200  0.22484500  0.25905200  1
  O  O20  1  0.69149700  0.91634200  0.59238500  1
  O  O21  1  0.08365800  0.30850300  0.07428100  1
  O  O22  1  0.77515500  0.69149700  0.92571900  1
  O  O23  1  0.08365800  0.77515500  0.25905200  1
  O  O24  1  0.22484500  0.91634200  0.40761500  1
  O  O25  1  0.91634200  0.69149700  0.07428100  1
  O  O26  1  0.22484500  0.30850300  0.92571900  1
  O  O27  1  0.77515500  0.08365800  0.40761500  1
  O  O28  1  0.69149700  0.77515500  0.74094800  1
  O  O29  1  0.30850300  0.22484500  0.74094800  1
  O  O30  1  0.20322400  0.00000000  0.00000000  1
  O  O31  1  0.00000000  0.20322400  0.66666700  1
  O  O32  1  0.79677600  0.00000000  0.00000000  1
  O  O33  1  0.79677600  0.79677600  0.33333300  1
  O  O34  1  0.00000000  0.79677600  0.66666700  1
  O  O35  1  0.20322400  0.20322400  0.33333300  1
  O  O36  1  0.30549100  0.55719100  0.73023400  1
  O  O37  1  0.44280900  0.74830000  0.39690100  1
  O  O38  1  0.69450900  0.44280900  0.73023400  1
  O  O39  1  0.55719100  0.30549100  0.93643300  1
  O  O40  1  0.25170000  0.69450900  0.06356700  1
  O  O41  1  0.55719100  0.25170000  0.39690100  1
  O  O42  1  0.74830000  0.44280900  0.26976600  1
  O  O43  1  0.44280900  0.69450900  0.93643300  1
  O  O44  1  0.74830000  0.30549100  0.06356700  1
  O  O45  1  0.25170000  0.55719100  0.26976600  1
  O  O46  1  0.69450900  0.25170000  0.60309900  1
  O  O47  1  0.30549100  0.74830000  0.60309900  1
