# generated using pymatgen
data_MgV2P2(H4O7)2
_symmetry_space_group_name_H-M   'P 1'
_cell_length_a   6.35257600
_cell_length_b   6.36683650
_cell_length_c   8.08370309
_cell_angle_alpha   112.81100824
_cell_angle_beta   112.93403217
_cell_angle_gamma   90.35103897
_symmetry_Int_Tables_number   1
_chemical_formula_structural   MgV2P2(H4O7)2
_chemical_formula_sum   'Mg1 V2 P2 H8 O14'
_cell_volume   272.75751840
_cell_formula_units_Z   1
loop_
 _symmetry_equiv_pos_site_id
 _symmetry_equiv_pos_as_xyz
  1  'x, y, z'
loop_
 _atom_site_type_symbol
 _atom_site_label
 _atom_site_symmetry_multiplicity
 _atom_site_fract_x
 _atom_site_fract_y
 _atom_site_fract_z
 _atom_site_occupancy
  Mg  Mg0  1  0.84204000  0.83744200  0.68148600  1
  V  V1  1  0.56477100  0.56556400  0.12776200  1
  V  V2  1  0.11825800  0.12052400  0.23856900  1
  P  P3  1  0.09125900  0.59306000  0.18229000  1
  P  P4  1  0.59097100  0.09380000  0.18397900  1
  H  H5  1  0.53609800  0.72995400  0.80081900  1
  H  H6  1  0.60749200  0.13971200  0.56488200  1
  H  H7  1  0.15728200  0.94731200  0.57278200  1
  H  H8  1  0.41928000  0.60384000  0.56303500  1
  H  H9  1  0.96464600  0.42107300  0.58015200  1
  H  H10  1  0.09820300  0.56121900  0.81644800  1
  H  H11  1  0.26321100  0.07912100  0.80975300  1
  H  H12  1  0.73248900  0.26012400  0.80163400  1
  O  O13  1  0.14224500  0.85622500  0.31885500  1
  O  O14  1  0.53938700  0.83014900  0.04718400  1
  O  O15  1  0.56817700  0.65752400  0.68262800  1
  O  O16  1  0.85524300  0.17893200  0.31966500  1
  O  O17  1  0.82710200  0.50723800  0.04533900  1
  O  O18  1  0.22034400  0.54361300  0.04609400  1
  O  O19  1  0.50422500  0.22197400  0.04734200  1
  O  O20  1  0.03574200  0.57643700  0.68951700  1
  O  O21  1  0.99871800  0.99908100  0.99562300  1
  O  O22  1  0.46335500  0.14442800  0.32117600  1
  O  O23  1  0.17714000  0.46445000  0.31843400  1
  O  O24  1  0.68653800  0.68454700  0.37076700  1
  O  O25  1  0.66226600  0.10983400  0.68413900  1
  O  O26  1  0.11791800  0.02152300  0.68604600  1
