# generated using pymatgen
data_Na2Ni(SO6)2
_symmetry_space_group_name_H-M   'P 1'
_cell_length_a   5.46270939
_cell_length_b   8.21078300
_cell_length_c   11.13610921
_cell_angle_alpha   90.00000000
_cell_angle_beta   97.05753075
_cell_angle_gamma   90.00000000
_symmetry_Int_Tables_number   1
_chemical_formula_structural   Na2Ni(SO6)2
_chemical_formula_sum   'Na4 Ni2 S4 O24'
_cell_volume   495.70476876
_cell_formula_units_Z   2
loop_
 _symmetry_equiv_pos_site_id
 _symmetry_equiv_pos_as_xyz
  1  'x, y, z'
loop_
 _atom_site_type_symbol
 _atom_site_label
 _atom_site_symmetry_multiplicity
 _atom_site_fract_x
 _atom_site_fract_y
 _atom_site_fract_z
 _atom_site_occupancy
  Na  Na0  1  0.10633400  0.06604800  0.35966800  1
  Na  Na1  1  0.89366600  0.93395200  0.64033200  1
  Na  Na2  1  0.89366600  0.56604800  0.14033200  1
  Na  Na3  1  0.10633400  0.43395200  0.85966800  1
  Ni  Ni4  1  0.00000000  0.00000000  0.00000000  1
  Ni  Ni5  1  0.00000000  0.50000000  0.50000000  1
  S  S6  1  0.37744000  0.28737000  0.13845200  1
  S  S7  1  0.62256000  0.71263000  0.86154800  1
  S  S8  1  0.62256000  0.78737000  0.36154800  1
  S  S9  1  0.37744000  0.21263000  0.63845200  1
  O  O10  1  0.32773600  0.27013200  0.26635600  1
  O  O11  1  0.67226400  0.72986800  0.73364400  1
  O  O12  1  0.67226400  0.77013200  0.23364400  1
  O  O13  1  0.32773600  0.22986800  0.76635600  1
  O  O14  1  0.12071100  0.82336400  0.08229500  1
  O  O15  1  0.87928900  0.17663600  0.91770500  1
  O  O16  1  0.87928900  0.32336400  0.41770400  1
  O  O17  1  0.12071100  0.67663600  0.58229500  1
  O  O18  1  0.21773800  0.41377400  0.07518600  1
  O  O19  1  0.78226200  0.58622600  0.92481400  1
  O  O20  1  0.78226200  0.91377400  0.42481400  1
  O  O21  1  0.21773800  0.08622600  0.57518600  1
  O  O22  1  0.63997600  0.33064200  0.13786700  1
  O  O23  1  0.36002400  0.66935800  0.86213300  1
  O  O24  1  0.36002400  0.83064200  0.36213300  1
  O  O25  1  0.63997600  0.16935800  0.63786700  1
  O  O26  1  0.33586800  0.12557400  0.07562300  1
  O  O27  1  0.66413200  0.87442600  0.92437700  1
  O  O28  1  0.66413200  0.62557400  0.42437700  1
  O  O29  1  0.33586800  0.37442600  0.57562300  1
  O  O30  1  0.08070600  0.50859400  0.34727500  1
  O  O31  1  0.91929400  0.49140600  0.65272500  1
  O  O32  1  0.91929400  0.00859400  0.15272500  1
  O  O33  1  0.08070600  0.99140600  0.84727500  1
