# generated using pymatgen
data_Mn4Zn3H10(CO8)2
_symmetry_space_group_name_H-M   'P 1'
_cell_length_a   8.19520198
_cell_length_b   8.19520198
_cell_length_c   16.69499007
_cell_angle_alpha   84.30965160
_cell_angle_beta   84.30965160
_cell_angle_gamma   40.40145290
_symmetry_Int_Tables_number   1
_chemical_formula_structural   Mn4Zn3H10(CO8)2
_chemical_formula_sum   'Mn8 Zn6 H20 C4 O32'
_cell_volume   722.66386006
_cell_formula_units_Z   2
loop_
 _symmetry_equiv_pos_site_id
 _symmetry_equiv_pos_as_xyz
  1  'x, y, z'
loop_
 _atom_site_type_symbol
 _atom_site_label
 _atom_site_symmetry_multiplicity
 _atom_site_fract_x
 _atom_site_fract_y
 _atom_site_fract_z
 _atom_site_occupancy
  Mn  Mn0  1  0.47084900  0.96316700  0.91014300  1
  Mn  Mn1  1  0.52915100  0.03683300  0.08985700  1
  Mn  Mn2  1  0.03683300  0.52915100  0.58985700  1
  Mn  Mn3  1  0.96316700  0.47084900  0.41014300  1
  Mn  Mn4  1  0.56454800  0.04178600  0.68451300  1
  Mn  Mn5  1  0.43545200  0.95821400  0.31548700  1
  Mn  Mn6  1  0.95821400  0.43545200  0.81548700  1
  Mn  Mn7  1  0.04178600  0.56454800  0.18451300  1
  Zn  Zn8  1  0.38360400  0.89021000  0.53850400  1
  Zn  Zn9  1  0.61639600  0.10979000  0.46149600  1
  Zn  Zn10  1  0.10979000  0.61639600  0.96149600  1
  Zn  Zn11  1  0.89021000  0.38360400  0.03850400  1
  Zn  Zn12  1  0.77817400  0.22182600  0.75000000  1
  Zn  Zn13  1  0.22182600  0.77817400  0.25000000  1
  H  H14  1  0.20892600  0.97462600  0.78442000  1
  H  H15  1  0.79107400  0.02537400  0.21558000  1
  H  H16  1  0.02537400  0.79107400  0.71558000  1
  H  H17  1  0.97462600  0.20892600  0.28442000  1
  H  H18  1  0.20442900  0.11607600  0.66577200  1
  H  H19  1  0.79557100  0.88392400  0.33422800  1
  H  H20  1  0.88392400  0.79557100  0.83422800  1
  H  H21  1  0.11607600  0.20442900  0.16577200  1
  H  H22  1  0.90275100  0.93771600  0.56946700  1
  H  H23  1  0.09724900  0.06228400  0.43053300  1
  H  H24  1  0.06228400  0.09724900  0.93053300  1
  H  H25  1  0.93771600  0.90275100  0.06946700  1
  H  H26  1  0.53582900  0.21608100  0.94231400  1
  H  H27  1  0.46417100  0.78391900  0.05768600  1
  H  H28  1  0.78391900  0.46417100  0.55768600  1
  H  H29  1  0.21608100  0.53582900  0.44231400  1
  H  H30  1  0.37865300  0.29439300  0.81385200  1
  H  H31  1  0.62134700  0.70560700  0.18614800  1
  H  H32  1  0.70560700  0.62134700  0.68614800  1
  H  H33  1  0.29439300  0.37865300  0.31385200  1
  C  C34  1  0.39535200  0.55859400  0.62689400  1
  C  C35  1  0.60464800  0.44140600  0.37310600  1
  C  C36  1  0.44140600  0.60464800  0.87310600  1
  C  C37  1  0.55859400  0.39535200  0.12689400  1
  O  O38  1  0.28541800  0.12199500  0.61805800  1
  O  O39  1  0.71458200  0.87800500  0.38194200  1
  O  O40  1  0.87800500  0.71458200  0.88194200  1
  O  O41  1  0.12199500  0.28541800  0.11805800  1
  O  O42  1  0.78383400  0.93762500  0.56588200  1
  O  O43  1  0.21616600  0.06237500  0.43411800  1
  O  O44  1  0.06237500  0.21616600  0.93411800  1
  O  O45  1  0.93762500  0.78383400  0.06588200  1
  O  O46  1  0.53690300  0.40095900  0.84562800  1
  O  O47  1  0.46309700  0.59904100  0.15437200  1
  O  O48  1  0.59904100  0.46309700  0.65437200  1
  O  O49  1  0.40095900  0.53690300  0.34562800  1
  O  O50  1  0.26125600  0.75272500  0.57733000  1
  O  O51  1  0.73874400  0.24727500  0.42267000  1
  O  O52  1  0.24727500  0.73874400  0.92267000  1
  O  O53  1  0.75272500  0.26125600  0.07733000  1
  O  O54  1  0.35677800  0.19881900  0.80011600  1
  O  O55  1  0.64322300  0.80118100  0.19988400  1
  O  O56  1  0.80118100  0.64322300  0.69988400  1
  O  O57  1  0.19881900  0.35677700  0.30011600  1
  O  O58  1  0.53542600  0.67753400  0.85001100  1
  O  O59  1  0.46457400  0.32246600  0.14998900  1
  O  O60  1  0.32246600  0.46457400  0.64998900  1
  O  O61  1  0.67753400  0.53542600  0.35001100  1
  O  O62  1  0.58869100  0.76081400  0.02719200  1
  O  O63  1  0.41130900  0.23918600  0.97280800  1
  O  O64  1  0.23918600  0.41130900  0.47280800  1
  O  O65  1  0.76081400  0.58869100  0.52719200  1
  O  O66  1  0.86579000  0.92649200  0.74506700  1
  O  O67  1  0.13421000  0.07350800  0.25493300  1
  O  O68  1  0.07350800  0.13421000  0.75493300  1
  O  O69  1  0.92649200  0.86579000  0.24506700  1
