# generated using pymatgen
data_NaInH6(SeO4)2
_symmetry_space_group_name_H-M   'P 1'
_cell_length_a   7.16557287
_cell_length_b   7.16822540
_cell_length_c   11.95825899
_cell_angle_alpha   85.90340743
_cell_angle_beta   87.84734493
_cell_angle_gamma   111.85856221
_symmetry_Int_Tables_number   1
_chemical_formula_structural   NaInH6(SeO4)2
_chemical_formula_sum   'Na2 In2 H12 Se4 O16'
_cell_volume   567.24594856
_cell_formula_units_Z   2
loop_
 _symmetry_equiv_pos_site_id
 _symmetry_equiv_pos_as_xyz
  1  'x, y, z'
loop_
 _atom_site_type_symbol
 _atom_site_label
 _atom_site_symmetry_multiplicity
 _atom_site_fract_x
 _atom_site_fract_y
 _atom_site_fract_z
 _atom_site_occupancy
  Na  Na0  1  0.41089500  0.08771700  0.25301200  1
  Na  Na1  1  0.58910500  0.91228300  0.74698800  1
  In  In2  1  0.00000000  0.50000000  0.00000000  1
  In  In3  1  0.00000000  0.50000000  0.50000000  1
  H  H4  1  0.33123000  0.30528800  0.97791900  1
  H  H5  1  0.66877000  0.69471200  0.02208100  1
  H  H6  1  0.84980600  0.28364100  0.07950200  1
  H  H7  1  0.15019400  0.71635900  0.92049800  1
  H  H8  1  0.14335200  0.46348900  0.60385800  1
  H  H9  1  0.85664800  0.53651100  0.39614200  1
  H  H10  1  0.19694200  0.17007100  0.51395500  1
  H  H11  1  0.80305800  0.82992900  0.48604500  1
  H  H12  1  0.03418500  0.35630500  0.89987000  1
  H  H13  1  0.96581500  0.64369500  0.10013000  1
  H  H14  1  0.21695100  0.65229900  0.42392700  1
  H  H15  1  0.78304900  0.34770100  0.57607300  1
  Se  Se16  1  0.43129500  0.59123000  0.16869600  1
  Se  Se17  1  0.56870500  0.40877000  0.83130400  1
  Se  Se18  1  0.90800900  0.06841900  0.33688300  1
  Se  Se19  1  0.09199100  0.93158100  0.66311700  1
  O  O20  1  0.51706500  0.45132600  0.25065800  1
  O  O21  1  0.48293500  0.54867400  0.74934200  1
  O  O22  1  0.32827800  0.73182900  0.22895300  1
  O  O23  1  0.67172200  0.26817100  0.77104700  1
  O  O24  1  0.76974600  0.17204100  0.26895800  1
  O  O25  1  0.23025400  0.82795900  0.73104200  1
  O  O26  1  0.27978900  0.44505100  0.07776700  1
  O  O27  1  0.72021100  0.55494900  0.92223300  1
  O  O28  1  0.04783600  0.97858600  0.26312700  1
  O  O29  1  0.95216400  0.02141400  0.73687300  1
  O  O30  1  0.05603700  0.22650700  0.42419400  1
  O  O31  1  0.94396300  0.77349300  0.57580600  1
  O  O32  1  0.63281600  0.77172300  0.08097400  1
  O  O33  1  0.36718400  0.22827700  0.91902600  1
  O  O34  1  0.27428300  0.12739700  0.57386700  1
  O  O35  1  0.72571700  0.87260300  0.42613300  1
