# generated using pymatgen
data_Lu2Be2SiO7
_symmetry_space_group_name_H-M   'P 1'
_cell_length_a   7.23835900
_cell_length_b   7.23835900
_cell_length_c   4.72447600
_cell_angle_alpha   90.00000000
_cell_angle_beta   90.00000000
_cell_angle_gamma   90.00000000
_symmetry_Int_Tables_number   1
_chemical_formula_structural   Lu2Be2SiO7
_chemical_formula_sum   'Lu4 Be4 Si2 O14'
_cell_volume   247.53344441
_cell_formula_units_Z   2
loop_
 _symmetry_equiv_pos_site_id
 _symmetry_equiv_pos_as_xyz
  1  'x, y, z'
loop_
 _atom_site_type_symbol
 _atom_site_label
 _atom_site_symmetry_multiplicity
 _atom_site_fract_x
 _atom_site_fract_y
 _atom_site_fract_z
 _atom_site_occupancy
  Lu  Lu0  1  0.15727200  0.34272800  0.51238600  1
  Lu  Lu1  1  0.84272800  0.65727200  0.51238600  1
  Lu  Lu2  1  0.65727200  0.15727200  0.48761400  1
  Lu  Lu3  1  0.34272800  0.84272800  0.48761400  1
  Be  Be4  1  0.63728700  0.86271300  0.95568100  1
  Be  Be5  1  0.36271300  0.13728700  0.95568100  1
  Be  Be6  1  0.13728700  0.63728700  0.04431900  1
  Be  Be7  1  0.86271300  0.36271300  0.04431900  1
  Si  Si8  1  0.00000000  0.00000000  0.00000000  1
  Si  Si9  1  0.50000000  0.50000000  0.00000000  1
  O  O10  1  0.00000000  0.50000000  0.19162500  1
  O  O11  1  0.50000000  0.00000000  0.80837500  1
  O  O12  1  0.64068600  0.85931400  0.29278900  1
  O  O13  1  0.35931400  0.14068600  0.29278900  1
  O  O14  1  0.14068600  0.64068600  0.70721100  1
  O  O15  1  0.85931400  0.35931400  0.70721100  1
  O  O16  1  0.08452200  0.83841900  0.20603200  1
  O  O17  1  0.91547800  0.16158100  0.20603200  1
  O  O18  1  0.16158100  0.08452200  0.79396800  1
  O  O19  1  0.41547800  0.33841900  0.79396800  1
  O  O20  1  0.83841900  0.91547800  0.79396800  1
  O  O21  1  0.58452200  0.66158100  0.79396800  1
  O  O22  1  0.33841900  0.58452200  0.20603200  1
  O  O23  1  0.66158100  0.41547800  0.20603200  1
