# generated using pymatgen
data_Na(SiO2)3
_symmetry_space_group_name_H-M   'P 1'
_cell_length_a   12.01560900
_cell_length_b   12.01560900
_cell_length_c   12.01560900
_cell_angle_alpha   90.00000000
_cell_angle_beta   90.00000000
_cell_angle_gamma   90.00000000
_symmetry_Int_Tables_number   1
_chemical_formula_structural   Na(SiO2)3
_chemical_formula_sum   'Na8 Si24 O48'
_cell_volume   1734.75186287
_cell_formula_units_Z   8
loop_
 _symmetry_equiv_pos_site_id
 _symmetry_equiv_pos_as_xyz
  1  'x, y, z'
loop_
 _atom_site_type_symbol
 _atom_site_label
 _atom_site_symmetry_multiplicity
 _atom_site_fract_x
 _atom_site_fract_y
 _atom_site_fract_z
 _atom_site_occupancy
  Na  Na0  1  0.21383600  0.21383600  0.21383600  1
  Na  Na1  1  0.78616400  0.78616400  0.78616400  1
  Na  Na2  1  0.78616400  0.78616400  0.21383600  1
  Na  Na3  1  0.78616400  0.21383600  0.78616400  1
  Na  Na4  1  0.21383600  0.21383600  0.78616400  1
  Na  Na5  1  0.21383600  0.78616400  0.21383600  1
  Na  Na6  1  0.21383600  0.78616400  0.78616400  1
  Na  Na7  1  0.78616400  0.21383600  0.21383600  1
  Si  Si8  1  0.00000000  0.18168500  0.37517100  1
  Si  Si9  1  0.00000000  0.81831500  0.62482900  1
  Si  Si10  1  0.00000000  0.81831500  0.37517100  1
  Si  Si11  1  0.00000000  0.18168500  0.62482900  1
  Si  Si12  1  0.37517100  0.00000000  0.18168500  1
  Si  Si13  1  0.18168500  0.00000000  0.62482900  1
  Si  Si14  1  0.62482900  0.00000000  0.81831500  1
  Si  Si15  1  0.81831500  0.00000000  0.37517100  1
  Si  Si16  1  0.37517100  0.00000000  0.81831500  1
  Si  Si17  1  0.81831500  0.00000000  0.62482900  1
  Si  Si18  1  0.62482900  0.00000000  0.18168500  1
  Si  Si19  1  0.18168500  0.00000000  0.37517100  1
  Si  Si20  1  0.18168500  0.37517100  0.00000000  1
  Si  Si21  1  0.00000000  0.37517100  0.81831500  1
  Si  Si22  1  0.81831500  0.62482900  0.00000000  1
  Si  Si23  1  0.00000000  0.62482900  0.18168500  1
  Si  Si24  1  0.18168500  0.62482900  0.00000000  1
  Si  Si25  1  0.00000000  0.62482900  0.81831500  1
  Si  Si26  1  0.81831500  0.37517100  0.00000000  1
  Si  Si27  1  0.00000000  0.37517100  0.18168500  1
  Si  Si28  1  0.62482900  0.18168500  0.00000000  1
  Si  Si29  1  0.37517100  0.81831500  0.00000000  1
  Si  Si30  1  0.62482900  0.81831500  0.00000000  1
  Si  Si31  1  0.37517100  0.18168500  0.00000000  1
  O  O32  1  0.23605200  0.50000000  0.00000000  1
  O  O33  1  0.76394800  0.50000000  0.00000000  1
  O  O34  1  0.00000000  0.23605200  0.50000000  1
  O  O35  1  0.50000000  0.23605200  0.00000000  1
  O  O36  1  0.00000000  0.76394800  0.50000000  1
  O  O37  1  0.50000000  0.76394800  0.00000000  1
  O  O38  1  0.50000000  0.00000000  0.23605200  1
  O  O39  1  0.23605200  0.00000000  0.50000000  1
  O  O40  1  0.50000000  0.00000000  0.76394800  1
  O  O41  1  0.76394800  0.00000000  0.50000000  1
  O  O42  1  0.00000000  0.50000000  0.23605200  1
  O  O43  1  0.00000000  0.50000000  0.76394800  1
  O  O44  1  0.11651000  0.11651000  0.33945200  1
  O  O45  1  0.88349000  0.88349000  0.66054800  1
  O  O46  1  0.88349000  0.88349000  0.33945200  1
  O  O47  1  0.88349000  0.11651000  0.66054800  1
  O  O48  1  0.33945200  0.11651000  0.11651000  1
  O  O49  1  0.11651000  0.11651000  0.66054800  1
  O  O50  1  0.11651000  0.88349000  0.33945200  1
  O  O51  1  0.66054800  0.88349000  0.88349000  1
  O  O52  1  0.11651000  0.88349000  0.66054800  1
  O  O53  1  0.33945200  0.88349000  0.88349000  1
  O  O54  1  0.88349000  0.11651000  0.33945200  1
  O  O55  1  0.66054800  0.11651000  0.11651000  1
  O  O56  1  0.66054800  0.88349000  0.11651000  1
  O  O57  1  0.33945200  0.11651000  0.88349000  1
  O  O58  1  0.66054800  0.11651000  0.88349000  1
  O  O59  1  0.33945200  0.88349000  0.11651000  1
  O  O60  1  0.11651000  0.33945200  0.11651000  1
  O  O61  1  0.11651000  0.33945200  0.88349000  1
  O  O62  1  0.88349000  0.66054800  0.88349000  1
  O  O63  1  0.88349000  0.66054800  0.11651000  1
  O  O64  1  0.11651000  0.66054800  0.88349000  1
  O  O65  1  0.88349000  0.33945200  0.11651000  1
  O  O66  1  0.11651000  0.66054800  0.11651000  1
  O  O67  1  0.88349000  0.33945200  0.88349000  1
  O  O68  1  0.00000000  0.28902200  0.28902200  1
  O  O69  1  0.00000000  0.71097800  0.71097800  1
  O  O70  1  0.00000000  0.71097800  0.28902200  1
  O  O71  1  0.00000000  0.28902200  0.71097800  1
  O  O72  1  0.28902200  0.00000000  0.28902200  1
  O  O73  1  0.28902200  0.00000000  0.71097800  1
  O  O74  1  0.71097800  0.00000000  0.71097800  1
  O  O75  1  0.71097800  0.00000000  0.28902200  1
  O  O76  1  0.28902200  0.28902200  0.00000000  1
  O  O77  1  0.71097800  0.71097800  0.00000000  1
  O  O78  1  0.28902200  0.71097800  0.00000000  1
  O  O79  1  0.71097800  0.28902200  0.00000000  1
