# generated using pymatgen
data_MnH4NF3
_symmetry_space_group_name_H-M   'P 1'
_cell_length_a   6.01728600
_cell_length_b   6.03883500
_cell_length_c   8.72059600
_cell_angle_alpha   90.00000000
_cell_angle_beta   90.00000000
_cell_angle_gamma   90.00000000
_symmetry_Int_Tables_number   1
_chemical_formula_structural   MnH4NF3
_chemical_formula_sum   'Mn4 H16 N4 F12'
_cell_volume   316.88376156
_cell_formula_units_Z   4
loop_
 _symmetry_equiv_pos_site_id
 _symmetry_equiv_pos_as_xyz
  1  'x, y, z'
loop_
 _atom_site_type_symbol
 _atom_site_label
 _atom_site_symmetry_multiplicity
 _atom_site_fract_x
 _atom_site_fract_y
 _atom_site_fract_z
 _atom_site_occupancy
  Mn  Mn0  1  0.00000000  0.00000000  0.50000000  1
  Mn  Mn1  1  0.50000000  0.50000000  0.50000000  1
  Mn  Mn2  1  0.00000000  0.00000000  0.00000000  1
  Mn  Mn3  1  0.50000000  0.50000000  0.00000000  1
  H  H4  1  0.07134500  0.42257300  0.65309100  1
  H  H5  1  0.92865500  0.57742700  0.34690900  1
  H  H6  1  0.42865500  0.92257300  0.34690900  1
  H  H7  1  0.92865500  0.57742700  0.15309100  1
  H  H8  1  0.57134500  0.07742700  0.65309100  1
  H  H9  1  0.07134500  0.42257300  0.84690900  1
  H  H10  1  0.57134500  0.07742700  0.84690900  1
  H  H11  1  0.42865500  0.92257300  0.15309100  1
  H  H12  1  0.33185600  0.02094800  0.75000000  1
  H  H13  1  0.66814400  0.97905200  0.25000000  1
  H  H14  1  0.16814400  0.52094800  0.25000000  1
  H  H15  1  0.83185600  0.47905200  0.75000000  1
  H  H16  1  0.03578500  0.66541400  0.75000000  1
  H  H17  1  0.96421500  0.33458600  0.25000000  1
  H  H18  1  0.46421500  0.16541400  0.25000000  1
  H  H19  1  0.53578500  0.83458600  0.75000000  1
  N  N20  1  0.50262600  0.00319800  0.75000000  1
  N  N21  1  0.49737400  0.99680200  0.25000000  1
  N  N22  1  0.99737400  0.50319800  0.25000000  1
  N  N23  1  0.00262600  0.49680200  0.75000000  1
  F  F24  1  0.52411600  0.52522400  0.75000000  1
  F  F25  1  0.47588400  0.47477600  0.25000000  1
  F  F26  1  0.97588400  0.02522400  0.25000000  1
  F  F27  1  0.02411600  0.97477600  0.75000000  1
  F  F28  1  0.22434800  0.27633100  0.51269800  1
  F  F29  1  0.77565200  0.72366900  0.48730200  1
  F  F30  1  0.27565200  0.77633100  0.48730200  1
  F  F31  1  0.77565200  0.72366900  0.01269800  1
  F  F32  1  0.72434800  0.22366900  0.51269800  1
  F  F33  1  0.22434800  0.27633100  0.98730200  1
  F  F34  1  0.72434800  0.22366900  0.98730200  1
  F  F35  1  0.27565200  0.77633100  0.01269800  1
