# generated using pymatgen
data_Mn3Co4P6(HO6)4
_symmetry_space_group_name_H-M   'P 1'
_cell_length_a   6.60130246
_cell_length_b   8.04509893
_cell_length_c   9.68495777
_cell_angle_alpha   104.61262484
_cell_angle_beta   108.96788663
_cell_angle_gamma   101.44909531
_symmetry_Int_Tables_number   1
_chemical_formula_structural   Mn3Co4P6(HO6)4
_chemical_formula_sum   'Mn3 Co4 P6 H4 O24'
_cell_volume   448.03057323
_cell_formula_units_Z   1
loop_
 _symmetry_equiv_pos_site_id
 _symmetry_equiv_pos_as_xyz
  1  'x, y, z'
loop_
 _atom_site_type_symbol
 _atom_site_label
 _atom_site_symmetry_multiplicity
 _atom_site_fract_x
 _atom_site_fract_y
 _atom_site_fract_z
 _atom_site_occupancy
  Mn  Mn0  1  0.00000000  0.50000000  0.50000000  1
  Mn  Mn1  1  0.27961500  0.31074600  0.78465600  1
  Mn  Mn2  1  0.72038500  0.68925400  0.21534400  1
  Co  Co3  1  0.61345900  0.04331500  0.39266100  1
  Co  Co4  1  0.38654100  0.95668500  0.60733900  1
  Co  Co5  1  0.05400500  0.20987600  0.01615200  1
  Co  Co6  1  0.94599500  0.79012400  0.98384800  1
  P  P7  1  0.22623800  0.64941400  0.27562700  1
  P  P8  1  0.77376200  0.35058600  0.72437300  1
  P  P9  1  0.09092000  0.08312000  0.32676400  1
  P  P10  1  0.90908000  0.91688000  0.67323600  1
  P  P11  1  0.58641700  0.26132800  0.12933800  1
  P  P12  1  0.41358300  0.73867200  0.87066200  1
  H  H13  1  0.18203000  0.37851700  0.30617100  1
  H  H14  1  0.81797000  0.62148300  0.69382900  1
  H  H15  1  0.36912900  0.91850600  0.06072500  1
  H  H16  1  0.63087100  0.08149400  0.93927500  1
  O  O17  1  0.11939400  0.03051100  0.66267200  1
  O  O18  1  0.88060600  0.96948900  0.33732800  1
  O  O19  1  0.44785700  0.74889400  0.27152200  1
  O  O20  1  0.55214300  0.25110600  0.72847800  1
  O  O21  1  0.12111000  0.28735700  0.39894800  1
  O  O22  1  0.87889000  0.71264300  0.60105200  1
  O  O23  1  0.01929600  0.67416100  0.16015300  1
  O  O24  1  0.98070400  0.32583900  0.83984700  1
  O  O25  1  0.20367100  0.43904200  0.22304800  1
  O  O26  1  0.79632900  0.56095800  0.77695200  1
  O  O27  1  0.05805600  0.04303200  0.15290800  1
  O  O28  1  0.94194400  0.95696800  0.84709200  1
  O  O29  1  0.37800500  0.28540500  0.01318000  1
  O  O30  1  0.62199500  0.71459500  0.98682000  1
  O  O31  1  0.22123300  0.69266200  0.44060400  1
  O  O32  1  0.77876700  0.30733800  0.55939600  1
  O  O33  1  0.52081100  0.10914400  0.18940900  1
  O  O34  1  0.47918900  0.89085600  0.81059100  1
  O  O35  1  0.73456400  0.44121900  0.25984500  1
  O  O36  1  0.26543600  0.55878100  0.74015500  1
  O  O37  1  0.30423200  0.03803300  0.41302200  1
  O  O38  1  0.69576800  0.96196700  0.58697800  1
  O  O39  1  0.72689500  0.20218700  0.02682700  1
  O  O40  1  0.27310500  0.79781300  0.97317300  1
