# generated using pymatgen
data_Mg3Cu2(PO4)3
_symmetry_space_group_name_H-M   'P 1'
_cell_length_a   6.47906606
_cell_length_b   8.65918584
_cell_length_c   8.65918584
_cell_angle_alpha   93.87558345
_cell_angle_beta   108.37849749
_cell_angle_gamma   108.37849749
_symmetry_Int_Tables_number   1
_chemical_formula_structural   Mg3Cu2(PO4)3
_chemical_formula_sum   'Mg6 Cu4 P6 O24'
_cell_volume   429.92796253
_cell_formula_units_Z   2
loop_
 _symmetry_equiv_pos_site_id
 _symmetry_equiv_pos_as_xyz
  1  'x, y, z'
loop_
 _atom_site_type_symbol
 _atom_site_label
 _atom_site_symmetry_multiplicity
 _atom_site_fract_x
 _atom_site_fract_y
 _atom_site_fract_z
 _atom_site_occupancy
  Mg  Mg0  1  0.75000000  0.22961100  0.77038900  1
  Mg  Mg1  1  0.25000000  0.77038900  0.22961100  1
  Mg  Mg2  1  0.63046400  0.55801500  0.87340800  1
  Mg  Mg3  1  0.36953600  0.44198500  0.12659200  1
  Mg  Mg4  1  0.86953600  0.12659200  0.44198500  1
  Mg  Mg5  1  0.13046400  0.87340800  0.55801500  1
  Cu  Cu6  1  0.00000000  0.00000000  0.00000000  1
  Cu  Cu7  1  0.50000000  0.00000000  0.00000000  1
  Cu  Cu8  1  0.75000000  0.50263000  0.49737000  1
  Cu  Cu9  1  0.25000000  0.49737000  0.50263000  1
  P  P10  1  0.75000000  0.80045100  0.19954900  1
  P  P11  1  0.25000000  0.19954900  0.80045100  1
  P  P12  1  0.87299000  0.38191200  0.16310800  1
  P  P13  1  0.12701000  0.61808800  0.83689200  1
  P  P14  1  0.62701000  0.83689200  0.61808800  1
  P  P15  1  0.37299000  0.16310800  0.38191200  1
  O  O16  1  0.77418900  0.78090300  0.02492100  1
  O  O17  1  0.22581100  0.21909700  0.97507900  1
  O  O18  1  0.72581100  0.97507900  0.21909700  1
  O  O19  1  0.27418900  0.02492100  0.78090300  1
  O  O20  1  0.68389900  0.45718100  0.11155400  1
  O  O21  1  0.31610100  0.54281900  0.88844600  1
  O  O22  1  0.81610100  0.88844600  0.54281900  1
  O  O23  1  0.18389900  0.11155400  0.45718100  1
  O  O24  1  0.79915000  0.21933800  0.03594000  1
  O  O25  1  0.20085000  0.78066200  0.96406000  1
  O  O26  1  0.70085000  0.96406000  0.78066200  1
  O  O27  1  0.29915000  0.03594000  0.21933800  1
  O  O28  1  0.89184800  0.49264000  0.83188900  1
  O  O29  1  0.10815200  0.50736000  0.16811100  1
  O  O30  1  0.60815200  0.16811100  0.50736000  1
  O  O31  1  0.39184800  0.83188900  0.49264000  1
  O  O32  1  0.57613000  0.65224200  0.65084500  1
  O  O33  1  0.42387000  0.34775800  0.34915500  1
  O  O34  1  0.92387000  0.34915500  0.34775800  1
  O  O35  1  0.07613000  0.65084500  0.65224200  1
  O  O36  1  0.52998200  0.68478300  0.22202900  1
  O  O37  1  0.47001800  0.31521700  0.77797100  1
  O  O38  1  0.97001800  0.77797100  0.31521700  1
  O  O39  1  0.02998200  0.22202900  0.68478300  1
