# generated using pymatgen
data_Li2NiGeO4
_symmetry_space_group_name_H-M   'P 1'
_cell_length_a   5.05477500
_cell_length_b   6.47074700
_cell_length_c   11.00424900
_cell_angle_alpha   90.00000000
_cell_angle_beta   90.00000000
_cell_angle_gamma   90.00000000
_symmetry_Int_Tables_number   1
_chemical_formula_structural   Li2NiGeO4
_chemical_formula_sum   'Li8 Ni4 Ge4 O16'
_cell_volume   359.92884885
_cell_formula_units_Z   4
loop_
 _symmetry_equiv_pos_site_id
 _symmetry_equiv_pos_as_xyz
  1  'x, y, z'
loop_
 _atom_site_type_symbol
 _atom_site_label
 _atom_site_symmetry_multiplicity
 _atom_site_fract_x
 _atom_site_fract_y
 _atom_site_fract_z
 _atom_site_occupancy
  Li  Li0  1  0.82173300  0.00157000  0.91165700  1
  Li  Li1  1  0.17826700  0.99843000  0.08834300  1
  Li  Li2  1  0.32173300  0.99843000  0.58834300  1
  Li  Li3  1  0.17826700  0.50157000  0.08834300  1
  Li  Li4  1  0.67826700  0.00157000  0.41165700  1
  Li  Li5  1  0.82173300  0.49843000  0.91165700  1
  Li  Li6  1  0.67826700  0.49843000  0.41165700  1
  Li  Li7  1  0.32173300  0.50157000  0.58834300  1
  Ni  Ni8  1  0.81919500  0.75000000  0.66290900  1
  Ni  Ni9  1  0.18080500  0.25000000  0.33709100  1
  Ni  Ni10  1  0.31919500  0.25000000  0.83709100  1
  Ni  Ni11  1  0.68080500  0.75000000  0.16290900  1
  Ge  Ge12  1  0.32913000  0.75000000  0.83537800  1
  Ge  Ge13  1  0.67087000  0.25000000  0.16462200  1
  Ge  Ge14  1  0.82913000  0.25000000  0.66462200  1
  Ge  Ge15  1  0.17087000  0.75000000  0.33537800  1
  O  O16  1  0.71969200  0.47834000  0.59051500  1
  O  O17  1  0.28030800  0.52166000  0.40948400  1
  O  O18  1  0.21969200  0.52166000  0.90948500  1
  O  O19  1  0.28030800  0.97834000  0.40948400  1
  O  O20  1  0.78030800  0.47834000  0.09051500  1
  O  O21  1  0.71969200  0.02166000  0.59051500  1
  O  O22  1  0.78030800  0.02166000  0.09051500  1
  O  O23  1  0.21969200  0.97834000  0.90948500  1
  O  O24  1  0.21355400  0.75000000  0.68182300  1
  O  O25  1  0.78644600  0.25000000  0.31817700  1
  O  O26  1  0.71355400  0.25000000  0.81817700  1
  O  O27  1  0.28644600  0.75000000  0.18182300  1
  O  O28  1  0.68295600  0.75000000  0.83344200  1
  O  O29  1  0.31704400  0.25000000  0.16655800  1
  O  O30  1  0.18295600  0.25000000  0.66655800  1
  O  O31  1  0.81704400  0.75000000  0.33344200  1
