# generated using pymatgen
data_Mn2V3(AgO4)3
_symmetry_space_group_name_H-M   'P 1'
_cell_length_a   10.99514686
_cell_length_b   10.99514686
_cell_length_c   10.99514686
_cell_angle_alpha   109.47122063
_cell_angle_beta   109.47122063
_cell_angle_gamma   109.47122063
_symmetry_Int_Tables_number   1
_chemical_formula_structural   Mn2V3(AgO4)3
_chemical_formula_sum   'Mn8 V12 Ag12 O48'
_cell_volume   1023.24872679
_cell_formula_units_Z   4
loop_
 _symmetry_equiv_pos_site_id
 _symmetry_equiv_pos_as_xyz
  1  'x, y, z'
loop_
 _atom_site_type_symbol
 _atom_site_label
 _atom_site_symmetry_multiplicity
 _atom_site_fract_x
 _atom_site_fract_y
 _atom_site_fract_z
 _atom_site_occupancy
  Mn  Mn0  1  0.00000000  0.00000000  0.00000000  1
  Mn  Mn1  1  0.50000000  0.00000000  0.50000000  1
  Mn  Mn2  1  0.00000000  0.50000000  0.50000000  1
  Mn  Mn3  1  0.50000000  0.00000000  0.00000000  1
  Mn  Mn4  1  0.50000000  0.50000000  0.00000000  1
  Mn  Mn5  1  0.50000000  0.50000000  0.50000000  1
  Mn  Mn6  1  0.00000000  0.00000000  0.50000000  1
  Mn  Mn7  1  0.00000000  0.50000000  0.00000000  1
  V  V8  1  0.25000000  0.62500000  0.37500000  1
  V  V9  1  0.75000000  0.37500000  0.62500000  1
  V  V10  1  0.75000000  0.87500000  0.12500000  1
  V  V11  1  0.37500000  0.25000000  0.62500000  1
  V  V12  1  0.62500000  0.75000000  0.37500000  1
  V  V13  1  0.25000000  0.12500000  0.87500000  1
  V  V14  1  0.12500000  0.75000000  0.87500000  1
  V  V15  1  0.87500000  0.25000000  0.12500000  1
  V  V16  1  0.62500000  0.37500000  0.25000000  1
  V  V17  1  0.37500000  0.62500000  0.75000000  1
  V  V18  1  0.87500000  0.12500000  0.75000000  1
  V  V19  1  0.12500000  0.87500000  0.25000000  1
  Ag  Ag20  1  0.25000000  0.37500000  0.12500000  1
  Ag  Ag21  1  0.75000000  0.62500000  0.87500000  1
  Ag  Ag22  1  0.75000000  0.12500000  0.37500000  1
  Ag  Ag23  1  0.12500000  0.25000000  0.37500000  1
  Ag  Ag24  1  0.37500000  0.75000000  0.12500000  1
  Ag  Ag25  1  0.25000000  0.87500000  0.62500000  1
  Ag  Ag26  1  0.87500000  0.75000000  0.62500000  1
  Ag  Ag27  1  0.62500000  0.25000000  0.87500000  1
  Ag  Ag28  1  0.37500000  0.12500000  0.25000000  1
  Ag  Ag29  1  0.62500000  0.87500000  0.75000000  1
  Ag  Ag30  1  0.12500000  0.37500000  0.75000000  1
  Ag  Ag31  1  0.87500000  0.62500000  0.25000000  1
  O  O32  1  0.49290700  0.39286800  0.30018700  1
  O  O33  1  0.50709300  0.60713200  0.69981300  1
  O  O34  1  0.59268100  0.19272000  0.19981300  1
  O  O35  1  0.90731900  0.10713200  0.60003800  1
  O  O36  1  0.30018700  0.49290700  0.39286800  1
  O  O37  1  0.30728000  0.90731900  0.30018700  1
  O  O38  1  0.40731900  0.80728000  0.80018700  1
  O  O39  1  0.09268100  0.89286800  0.39996200  1
  O  O40  1  0.69981300  0.50709300  0.60713200  1
  O  O41  1  0.69272000  0.09268100  0.69981300  1
  O  O42  1  0.00709300  0.30728000  0.89996200  1
  O  O43  1  0.19981300  0.59268100  0.19272000  1
  O  O44  1  0.10713200  0.00709300  0.19981300  1
  O  O45  1  0.99290700  0.69272000  0.10003800  1
  O  O46  1  0.80018700  0.40731900  0.80728000  1
  O  O47  1  0.89286800  0.99290700  0.80018700  1
  O  O48  1  0.60003800  0.90731900  0.10713200  1
  O  O49  1  0.19272000  0.49290700  0.60003800  1
  O  O50  1  0.39996200  0.09268100  0.89286800  1
  O  O51  1  0.80728000  0.50709300  0.39996200  1
  O  O52  1  0.89996200  0.00709300  0.30728000  1
  O  O53  1  0.39286800  0.59268100  0.89996200  1
  O  O54  1  0.10003800  0.99290700  0.69272000  1
  O  O55  1  0.60713200  0.40731900  0.10003800  1
  O  O56  1  0.39286800  0.30018700  0.49290700  1
  O  O57  1  0.59268100  0.89996200  0.39286800  1
  O  O58  1  0.60713200  0.69981300  0.50709300  1
  O  O59  1  0.40731900  0.10003800  0.60713200  1
  O  O60  1  0.10713200  0.60003800  0.90731900  1
  O  O61  1  0.00709300  0.19981300  0.10713200  1
  O  O62  1  0.89286800  0.39996200  0.09268100  1
  O  O63  1  0.99290700  0.80018700  0.89286800  1
  O  O64  1  0.30728000  0.89996200  0.00709300  1
  O  O65  1  0.90731900  0.30018700  0.30728000  1
  O  O66  1  0.69272000  0.10003800  0.99290700  1
  O  O67  1  0.09268100  0.69981300  0.69272000  1
  O  O68  1  0.19272000  0.19981300  0.59268100  1
  O  O69  1  0.49290700  0.60003800  0.19272000  1
  O  O70  1  0.80728000  0.80018700  0.40731900  1
  O  O71  1  0.50709300  0.39996200  0.80728000  1
  O  O72  1  0.30018700  0.30728000  0.90731900  1
  O  O73  1  0.69981300  0.69272000  0.09268100  1
  O  O74  1  0.19981300  0.10713200  0.00709300  1
  O  O75  1  0.80018700  0.89286800  0.99290700  1
  O  O76  1  0.89996200  0.39286800  0.59268100  1
  O  O77  1  0.10003800  0.60713200  0.40731900  1
  O  O78  1  0.60003800  0.19272000  0.49290700  1
  O  O79  1  0.39996200  0.80728000  0.50709300  1
