# generated using pymatgen
data_Lu2Fe3O7
_symmetry_space_group_name_H-M   'P 1'
_cell_length_a   3.46316040
_cell_length_b   3.46316040
_cell_length_c   28.87116000
_cell_angle_alpha   90.00000000
_cell_angle_beta   90.00000000
_cell_angle_gamma   120.00000765
_symmetry_Int_Tables_number   1
_chemical_formula_structural   Lu2Fe3O7
_chemical_formula_sum   'Lu4 Fe6 O14'
_cell_volume   299.87485126
_cell_formula_units_Z   2
loop_
 _symmetry_equiv_pos_site_id
 _symmetry_equiv_pos_as_xyz
  1  'x, y, z'
loop_
 _atom_site_type_symbol
 _atom_site_label
 _atom_site_symmetry_multiplicity
 _atom_site_fract_x
 _atom_site_fract_y
 _atom_site_fract_z
 _atom_site_occupancy
  Lu  Lu0  1  0.33333300  0.66666700  0.14847300  1
  Lu  Lu1  1  0.66666700  0.33333300  0.85152700  1
  Lu  Lu2  1  0.66666700  0.33333300  0.64847300  1
  Lu  Lu3  1  0.33333300  0.66666700  0.35152700  1
  Fe  Fe4  1  0.33333300  0.66666700  0.54254700  1
  Fe  Fe5  1  0.66666700  0.33333300  0.45745300  1
  Fe  Fe6  1  0.66666700  0.33333300  0.04254700  1
  Fe  Fe7  1  0.33333300  0.66666700  0.95745300  1
  Fe  Fe8  1  0.00000000  0.00000000  0.25000000  1
  Fe  Fe9  1  0.00000000  0.00000000  0.75000000  1
  O  O10  1  0.00000000  0.00000000  0.18045500  1
  O  O11  1  0.00000000  0.00000000  0.81954500  1
  O  O12  1  0.00000000  0.00000000  0.68045500  1
  O  O13  1  0.00000000  0.00000000  0.31954500  1
  O  O14  1  0.33333300  0.66666700  0.03315300  1
  O  O15  1  0.66666700  0.33333300  0.96684700  1
  O  O16  1  0.66666700  0.33333300  0.53315300  1
  O  O17  1  0.33333300  0.66666700  0.46684700  1
  O  O18  1  0.33333300  0.66666700  0.61031100  1
  O  O19  1  0.66666700  0.33333300  0.38968900  1
  O  O20  1  0.66666700  0.33333300  0.11031100  1
  O  O21  1  0.33333300  0.66666700  0.88968900  1
  O  O22  1  0.33333300  0.66666700  0.25000000  1
  O  O23  1  0.66666700  0.33333300  0.75000000  1
