# generated using pymatgen
data_Mg6Te5O16
_symmetry_space_group_name_H-M   'P 1'
_cell_length_a   10.40391600
_cell_length_b   11.22123100
_cell_length_c   13.08913000
_cell_angle_alpha   90.00000000
_cell_angle_beta   90.00000000
_cell_angle_gamma   90.00000000
_symmetry_Int_Tables_number   1
_chemical_formula_structural   Mg6Te5O16
_chemical_formula_sum   'Mg24 Te20 O64'
_cell_volume   1528.08714073
_cell_formula_units_Z   4
loop_
 _symmetry_equiv_pos_site_id
 _symmetry_equiv_pos_as_xyz
  1  'x, y, z'
loop_
 _atom_site_type_symbol
 _atom_site_label
 _atom_site_symmetry_multiplicity
 _atom_site_fract_x
 _atom_site_fract_y
 _atom_site_fract_z
 _atom_site_occupancy
  Mg  Mg0  1  0.06930600  0.74905200  0.50675600  1
  Mg  Mg1  1  0.93069400  0.25094800  0.49324400  1
  Mg  Mg2  1  0.93069400  0.75094800  0.00675600  1
  Mg  Mg3  1  0.56930600  0.25094800  0.49324400  1
  Mg  Mg4  1  0.06930600  0.24905200  0.99324400  1
  Mg  Mg5  1  0.43069400  0.74905200  0.50675600  1
  Mg  Mg6  1  0.43069400  0.24905200  0.99324400  1
  Mg  Mg7  1  0.56930600  0.75094800  0.00675600  1
  Mg  Mg8  1  0.09118200  0.74981600  0.76982200  1
  Mg  Mg9  1  0.90881800  0.25018400  0.23017800  1
  Mg  Mg10  1  0.90881800  0.75018400  0.26982200  1
  Mg  Mg11  1  0.59118200  0.25018400  0.23017800  1
  Mg  Mg12  1  0.09118200  0.24981600  0.73017800  1
  Mg  Mg13  1  0.40881800  0.74981600  0.76982200  1
  Mg  Mg14  1  0.40881800  0.24981600  0.73017800  1
  Mg  Mg15  1  0.59118200  0.75018400  0.26982200  1
  Mg  Mg16  1  0.57453900  0.51567400  0.60633600  1
  Mg  Mg17  1  0.42546100  0.48432600  0.39366400  1
  Mg  Mg18  1  0.42546100  0.98432600  0.10633600  1
  Mg  Mg19  1  0.07453900  0.48432600  0.39366400  1
  Mg  Mg20  1  0.57453900  0.01567400  0.89366400  1
  Mg  Mg21  1  0.92546100  0.51567400  0.60633600  1
  Mg  Mg22  1  0.92546100  0.01567400  0.89366400  1
  Mg  Mg23  1  0.07453900  0.98432600  0.10633600  1
  Te  Te24  1  0.25000000  0.69786000  0.31687400  1
  Te  Te25  1  0.75000000  0.30214000  0.68312600  1
  Te  Te26  1  0.75000000  0.80214000  0.81687400  1
  Te  Te27  1  0.25000000  0.19786000  0.18312600  1
  Te  Te28  1  0.25000000  0.53457600  0.63653800  1
  Te  Te29  1  0.75000000  0.46542400  0.36346200  1
  Te  Te30  1  0.75000000  0.96542400  0.13653800  1
  Te  Te31  1  0.25000000  0.03457600  0.86346200  1
  Te  Te32  1  0.25000000  0.72000700  0.00661800  1
  Te  Te33  1  0.75000000  0.27999300  0.99338200  1
  Te  Te34  1  0.75000000  0.77999300  0.50661800  1
  Te  Te35  1  0.25000000  0.22000700  0.49338200  1
  Te  Te36  1  0.03860100  0.50856800  0.13689700  1
  Te  Te37  1  0.96139900  0.49143200  0.86310300  1
  Te  Te38  1  0.96139900  0.99143200  0.63689700  1
  Te  Te39  1  0.53860100  0.49143200  0.86310300  1
  Te  Te40  1  0.03860100  0.00856800  0.36310300  1
  Te  Te41  1  0.46139900  0.50856800  0.13689700  1
  Te  Te42  1  0.46139900  0.00856800  0.36310300  1
  Te  Te43  1  0.53860100  0.99143200  0.63689700  1
  O  O44  1  0.07940100  0.86303900  0.64362900  1
  O  O45  1  0.92059900  0.13696100  0.35637100  1
  O  O46  1  0.92059900  0.63696100  0.14362900  1
  O  O47  1  0.57940100  0.13696100  0.35637100  1
  O  O48  1  0.07940100  0.36303900  0.85637100  1
  O  O49  1  0.42059900  0.86303900  0.64362900  1
  O  O50  1  0.42059900  0.36303900  0.85637100  1
  O  O51  1  0.57940100  0.63696100  0.14362900  1
  O  O52  1  0.55624400  0.82598200  0.85027500  1
  O  O53  1  0.44375600  0.17401800  0.14972500  1
  O  O54  1  0.44375600  0.67401800  0.35027500  1
  O  O55  1  0.05624400  0.17401800  0.14972500  1
  O  O56  1  0.55624400  0.32598200  0.64972500  1
  O  O57  1  0.94375600  0.82598200  0.85027500  1
  O  O58  1  0.94375600  0.32598200  0.64972500  1
  O  O59  1  0.05624400  0.67401800  0.35027500  1
  O  O60  1  0.25000000  0.28233000  0.05430900  1
  O  O61  1  0.75000000  0.71767000  0.94569100  1
  O  O62  1  0.75000000  0.21767000  0.55430900  1
  O  O63  1  0.25000000  0.78233000  0.44569100  1
  O  O64  1  0.25000000  0.77709600  0.86862400  1
  O  O65  1  0.75000000  0.22290400  0.13137600  1
  O  O66  1  0.75000000  0.72290400  0.36862400  1
  O  O67  1  0.25000000  0.27709600  0.63137600  1
  O  O68  1  0.11083200  0.56011300  0.54176100  1
  O  O69  1  0.88916800  0.43988700  0.45823900  1
  O  O70  1  0.88916800  0.93988700  0.04176100  1
  O  O71  1  0.61083200  0.43988700  0.45823900  1
  O  O72  1  0.11083200  0.06011300  0.95823900  1
  O  O73  1  0.38916800  0.56011300  0.54176100  1
  O  O74  1  0.38916800  0.06011300  0.95823900  1
  O  O75  1  0.61083200  0.93988700  0.04176100  1
  O  O76  1  0.25000000  0.69294900  0.68290500  1
  O  O77  1  0.75000000  0.30705100  0.31709500  1
  O  O78  1  0.75000000  0.80705100  0.18290500  1
  O  O79  1  0.25000000  0.19294900  0.81709500  1
  O  O80  1  0.04312500  0.60374700  0.95110700  1
  O  O81  1  0.95687500  0.39625300  0.04889300  1
  O  O82  1  0.95687500  0.89625300  0.45110700  1
  O  O83  1  0.54312500  0.39625300  0.04889300  1
  O  O84  1  0.04312500  0.10374700  0.54889300  1
  O  O85  1  0.45687500  0.60374700  0.95110700  1
  O  O86  1  0.45687500  0.10374700  0.54889300  1
  O  O87  1  0.54312500  0.89625300  0.45110700  1
  O  O88  1  0.01571900  0.57671800  0.74302400  1
  O  O89  1  0.98428100  0.42328200  0.25697600  1
  O  O90  1  0.98428100  0.92328200  0.24302400  1
  O  O91  1  0.51571900  0.42328200  0.25697600  1
  O  O92  1  0.01571900  0.07671800  0.75697600  1
  O  O93  1  0.48428100  0.57671800  0.74302400  1
  O  O94  1  0.48428100  0.07671800  0.75697600  1
  O  O95  1  0.51571900  0.92328200  0.24302400  1
  O  O96  1  0.61069600  0.68626100  0.55525900  1
  O  O97  1  0.38930400  0.31373900  0.44474100  1
  O  O98  1  0.38930400  0.81373900  0.05525900  1
  O  O99  1  0.11069600  0.31373900  0.44474100  1
  O  O100  1  0.61069600  0.18626100  0.94474100  1
  O  O101  1  0.88930400  0.68626100  0.55525900  1
  O  O102  1  0.88930400  0.18626100  0.94474100  1
  O  O103  1  0.11069600  0.81373900  0.05525900  1
  O  O104  1  0.25000000  0.52673600  0.33343700  1
  O  O105  1  0.75000000  0.47326400  0.66656300  1
  O  O106  1  0.75000000  0.97326400  0.83343700  1
  O  O107  1  0.25000000  0.02673600  0.16656300  1
