# generated using pymatgen
data_MgU(MoO4)4
_symmetry_space_group_name_H-M   'P 1'
_cell_length_a   6.62741900
_cell_length_b   7.98077300
_cell_length_c   14.04670477
_cell_angle_alpha   55.72267063
_cell_angle_beta   90.00000000
_cell_angle_gamma   90.00000000
_symmetry_Int_Tables_number   1
_chemical_formula_structural   MgU(MoO4)4
_chemical_formula_sum   'Mg2 U2 Mo8 O32'
_cell_volume   613.92135249
_cell_formula_units_Z   2
loop_
 _symmetry_equiv_pos_site_id
 _symmetry_equiv_pos_as_xyz
  1  'x, y, z'
loop_
 _atom_site_type_symbol
 _atom_site_label
 _atom_site_symmetry_multiplicity
 _atom_site_fract_x
 _atom_site_fract_y
 _atom_site_fract_z
 _atom_site_occupancy
  Mg  Mg0  1  0.70230400  0.50000000  0.25000000  1
  Mg  Mg1  1  0.29769600  0.50000000  0.75000000  1
  U  U2  1  0.29528700  0.00000000  0.75000000  1
  U  U3  1  0.70471300  0.00000000  0.25000000  1
  Mo  Mo4  1  0.82864300  0.80304700  0.91088700  1
  Mo  Mo5  1  0.17135700  0.19695300  0.08911300  1
  Mo  Mo6  1  0.82864300  0.19695300  0.58911300  1
  Mo  Mo7  1  0.17135700  0.80304700  0.41088700  1
  Mo  Mo8  1  0.82197400  0.31253700  0.90145000  1
  Mo  Mo9  1  0.17802600  0.68746300  0.09855000  1
  Mo  Mo10  1  0.82197400  0.68746300  0.59855000  1
  Mo  Mo11  1  0.17802600  0.31253700  0.40145000  1
  O  O12  1  0.84672700  0.81321200  0.43406600  1
  O  O13  1  0.15327300  0.18678800  0.56593400  1
  O  O14  1  0.84797900  0.91303700  0.59589400  1
  O  O15  1  0.15202100  0.08696300  0.40410600  1
  O  O16  1  0.84324800  0.58954300  0.90361600  1
  O  O17  1  0.15675200  0.41045700  0.09638400  1
  O  O18  1  0.94268200  0.50000000  0.75000000  1
  O  O19  1  0.05731800  0.50000000  0.25000000  1
  O  O20  1  0.29768100  0.76912500  0.74838200  1
  O  O21  1  0.70231900  0.23087500  0.25161800  1
  O  O22  1  0.43330600  0.36919000  0.36794600  1
  O  O23  1  0.56669400  0.63081000  0.63205400  1
  O  O24  1  0.15327300  0.81321200  0.93406600  1
  O  O25  1  0.84672700  0.18678800  0.06593400  1
  O  O26  1  0.29768100  0.23087500  0.75161800  1
  O  O27  1  0.70231900  0.76912500  0.24838200  1
  O  O28  1  0.84239400  0.68289900  0.06760000  1
  O  O29  1  0.15760600  0.31710100  0.93240000  1
  O  O30  1  0.56998200  0.87543800  0.87232800  1
  O  O31  1  0.43001800  0.12456200  0.12767200  1
  O  O32  1  0.56669400  0.36919000  0.86794600  1
  O  O33  1  0.43330600  0.63081000  0.13205400  1
  O  O34  1  0.15675200  0.58954300  0.40361600  1
  O  O35  1  0.84324800  0.41045700  0.59638400  1
  O  O36  1  0.94151600  0.00000000  0.75000000  1
  O  O37  1  0.05848400  0.00000000  0.25000000  1
  O  O38  1  0.56998200  0.12456200  0.62767200  1
  O  O39  1  0.43001800  0.87543800  0.37232800  1
  O  O40  1  0.84797900  0.08696300  0.90410600  1
  O  O41  1  0.15202100  0.91303700  0.09589400  1
  O  O42  1  0.84239400  0.31710100  0.43240000  1
  O  O43  1  0.15760600  0.68289900  0.56760000  1
