# generated using pymatgen
data_NaBeHCO5
_symmetry_space_group_name_H-M   'P 1'
_cell_length_a   5.45177200
_cell_length_b   13.18105400
_cell_length_c   13.18105400
_cell_angle_alpha   90.00000000
_cell_angle_beta   90.00000000
_cell_angle_gamma   90.00000000
_symmetry_Int_Tables_number   1
_chemical_formula_structural   NaBeHCO5
_chemical_formula_sum   'Na8 Be8 H8 C8 O40'
_cell_volume   947.19187341
_cell_formula_units_Z   8
loop_
 _symmetry_equiv_pos_site_id
 _symmetry_equiv_pos_as_xyz
  1  'x, y, z'
loop_
 _atom_site_type_symbol
 _atom_site_label
 _atom_site_symmetry_multiplicity
 _atom_site_fract_x
 _atom_site_fract_y
 _atom_site_fract_z
 _atom_site_occupancy
  Na  Na0  1  0.00000000  0.41250200  0.10090100  1
  Na  Na1  1  0.00000000  0.58749800  0.89909900  1
  Na  Na2  1  0.00000000  0.89909900  0.41250200  1
  Na  Na3  1  0.50000000  0.58749800  0.10090100  1
  Na  Na4  1  0.00000000  0.10090100  0.58749800  1
  Na  Na5  1  0.50000000  0.41250200  0.89909900  1
  Na  Na6  1  0.50000000  0.10090100  0.41250200  1
  Na  Na7  1  0.50000000  0.89909900  0.58749800  1
  Be  Be8  1  0.25000000  0.15717400  0.15717400  1
  Be  Be9  1  0.75000000  0.84282600  0.84282600  1
  Be  Be10  1  0.25000000  0.84282600  0.84282600  1
  Be  Be11  1  0.25000000  0.84282600  0.15717400  1
  Be  Be12  1  0.75000000  0.15717400  0.15717400  1
  Be  Be13  1  0.75000000  0.15717400  0.84282600  1
  Be  Be14  1  0.25000000  0.15717400  0.84282600  1
  Be  Be15  1  0.75000000  0.84282600  0.15717400  1
  H  H16  1  0.00000000  0.11852000  0.02677800  1
  H  H17  1  0.00000000  0.88148000  0.97322200  1
  H  H18  1  0.00000000  0.97322200  0.11852000  1
  H  H19  1  0.50000000  0.88148000  0.02677800  1
  H  H20  1  0.00000000  0.02677800  0.88148000  1
  H  H21  1  0.50000000  0.11852000  0.97322200  1
  H  H22  1  0.50000000  0.02677800  0.11852000  1
  H  H23  1  0.50000000  0.97322200  0.88148000  1
  C  C24  1  0.00000000  0.11901800  0.32439300  1
  C  C25  1  0.00000000  0.88098200  0.67560700  1
  C  C26  1  0.00000000  0.67560700  0.11901800  1
  C  C27  1  0.50000000  0.88098200  0.32439300  1
  C  C28  1  0.00000000  0.32439300  0.88098200  1
  C  C29  1  0.50000000  0.11901800  0.67560700  1
  C  C30  1  0.50000000  0.32439300  0.11901800  1
  C  C31  1  0.50000000  0.67560700  0.88098200  1
  O  O32  1  0.00000000  0.08370200  0.41456200  1
  O  O33  1  0.00000000  0.91629800  0.58543800  1
  O  O34  1  0.00000000  0.58543800  0.08370200  1
  O  O35  1  0.50000000  0.91629800  0.41456200  1
  O  O36  1  0.00000000  0.41456200  0.91629800  1
  O  O37  1  0.50000000  0.08370200  0.58543800  1
  O  O38  1  0.50000000  0.41456200  0.08370200  1
  O  O39  1  0.50000000  0.58543800  0.91629800  1
  O  O40  1  0.20823400  0.13621500  0.27875700  1
  O  O41  1  0.79176600  0.86378500  0.72124300  1
  O  O42  1  0.20823400  0.86378500  0.72124300  1
  O  O43  1  0.20823400  0.72124300  0.13621500  1
  O  O44  1  0.29176600  0.86378500  0.27875700  1
  O  O45  1  0.79176600  0.13621500  0.27875700  1
  O  O46  1  0.79176600  0.27875700  0.86378500  1
  O  O47  1  0.70823400  0.13621500  0.72124300  1
  O  O48  1  0.20823400  0.27875700  0.86378500  1
  O  O49  1  0.29176600  0.13621500  0.72124300  1
  O  O50  1  0.79176600  0.72124300  0.13621500  1
  O  O51  1  0.70823400  0.86378500  0.27875700  1
  O  O52  1  0.29176600  0.27875700  0.13621500  1
  O  O53  1  0.70823400  0.72124300  0.86378500  1
  O  O54  1  0.29176600  0.72124300  0.86378500  1
  O  O55  1  0.70823400  0.27875700  0.13621500  1
  O  O56  1  0.00000000  0.42231400  0.29134300  1
  O  O57  1  0.00000000  0.57768600  0.70865700  1
  O  O58  1  0.00000000  0.70865700  0.42231400  1
  O  O59  1  0.50000000  0.57768600  0.29134300  1
  O  O60  1  0.00000000  0.29134300  0.57768600  1
  O  O61  1  0.50000000  0.42231400  0.70865700  1
  O  O62  1  0.50000000  0.29134300  0.42231400  1
  O  O63  1  0.50000000  0.70865700  0.57768600  1
  O  O64  1  0.00000000  0.11622700  0.10178400  1
  O  O65  1  0.00000000  0.88377300  0.89821600  1
  O  O66  1  0.00000000  0.89821600  0.11622700  1
  O  O67  1  0.50000000  0.88377300  0.10178400  1
  O  O68  1  0.00000000  0.10178400  0.88377300  1
  O  O69  1  0.50000000  0.11622700  0.89821600  1
  O  O70  1  0.50000000  0.10178400  0.11622700  1
  O  O71  1  0.50000000  0.89821600  0.88377300  1
