# generated using pymatgen
data_Na3PrV2O8
_symmetry_space_group_name_H-M   'P 1'
_cell_length_a   5.69751500
_cell_length_b   14.31607500
_cell_length_c   19.75428500
_cell_angle_alpha   90.00000000
_cell_angle_beta   90.00000000
_cell_angle_gamma   90.00000000
_symmetry_Int_Tables_number   1
_chemical_formula_structural   Na3PrV2O8
_chemical_formula_sum   'Na24 Pr8 V16 O64'
_cell_volume   1611.27903859
_cell_formula_units_Z   8
loop_
 _symmetry_equiv_pos_site_id
 _symmetry_equiv_pos_as_xyz
  1  'x, y, z'
loop_
 _atom_site_type_symbol
 _atom_site_label
 _atom_site_symmetry_multiplicity
 _atom_site_fract_x
 _atom_site_fract_y
 _atom_site_fract_z
 _atom_site_occupancy
  Na  Na0  1  0.02271100  0.78333900  0.50654300  1
  Na  Na1  1  0.97728900  0.21666100  0.00654300  1
  Na  Na2  1  0.97728900  0.28333900  0.50654300  1
  Na  Na3  1  0.02271100  0.71666100  0.00654300  1
  Na  Na4  1  0.01752800  0.04825500  0.85285200  1
  Na  Na5  1  0.98247200  0.95174500  0.35285200  1
  Na  Na6  1  0.98247200  0.54825500  0.85285200  1
  Na  Na7  1  0.01752800  0.45174500  0.35285200  1
  Na  Na8  1  0.01205800  0.13637800  0.67326100  1
  Na  Na9  1  0.98794200  0.86362200  0.17326100  1
  Na  Na10  1  0.98794200  0.63637800  0.67326100  1
  Na  Na11  1  0.01205800  0.36362200  0.17326100  1
  Na  Na12  1  0.53140300  0.20181500  0.76721500  1
  Na  Na13  1  0.46859700  0.79818500  0.26721500  1
  Na  Na14  1  0.46859700  0.70181500  0.76721500  1
  Na  Na15  1  0.53140300  0.29818500  0.26721500  1
  Na  Na16  1  0.45745600  0.03229000  0.61128500  1
  Na  Na17  1  0.54254400  0.96771000  0.11128500  1
  Na  Na18  1  0.54254400  0.53229000  0.61128500  1
  Na  Na19  1  0.45745600  0.46771000  0.11128500  1
  Na  Na20  1  0.50587300  0.11670900  0.94794000  1
  Na  Na21  1  0.49412700  0.88329100  0.44794000  1
  Na  Na22  1  0.49412700  0.61670900  0.94794000  1
  Na  Na23  1  0.50587300  0.38329100  0.44794000  1
  Pr  Pr24  1  0.07419500  0.38855900  0.69660700  1
  Pr  Pr25  1  0.92580500  0.61144100  0.19660700  1
  Pr  Pr26  1  0.92580500  0.88855900  0.69660700  1
  Pr  Pr27  1  0.07419500  0.11144100  0.19660700  1
  Pr  Pr28  1  0.43703700  0.36293200  0.92608700  1
  Pr  Pr29  1  0.56296300  0.63706800  0.42608700  1
  Pr  Pr30  1  0.56296300  0.86293200  0.92608700  1
  Pr  Pr31  1  0.43703700  0.13706800  0.42608700  1
  V  V32  1  0.03641200  0.52519400  0.51886600  1
  V  V33  1  0.96358800  0.47480600  0.01886600  1
  V  V34  1  0.96358800  0.02519400  0.51886600  1
  V  V35  1  0.03641200  0.97480600  0.01886600  1
  V  V36  1  0.01523300  0.77344700  0.84728000  1
  V  V37  1  0.98476700  0.22655300  0.34728000  1
  V  V38  1  0.98476700  0.27344700  0.84728000  1
  V  V39  1  0.01523300  0.72655300  0.34728000  1
  V  V40  1  0.52644600  0.47768800  0.77632200  1
  V  V41  1  0.47355400  0.52231200  0.27632200  1
  V  V42  1  0.47355400  0.97768800  0.77632200  1
  V  V43  1  0.52644600  0.02231200  0.27632200  1
  V  V44  1  0.54435000  0.27439900  0.60386300  1
  V  V45  1  0.45565000  0.72560100  0.10386300  1
  V  V46  1  0.45565000  0.77439900  0.60386300  1
  V  V47  1  0.54435000  0.22560100  0.10386300  1
  O  O48  1  0.41460300  0.18817700  0.65201400  1
  O  O49  1  0.58539700  0.81182300  0.15201400  1
  O  O50  1  0.58539700  0.68817700  0.65201400  1
  O  O51  1  0.41460300  0.31182300  0.15201400  1
  O  O52  1  0.29942800  0.53413200  0.73364600  1
  O  O53  1  0.70057200  0.46586800  0.23364600  1
  O  O54  1  0.70057200  0.03413200  0.73364600  1
  O  O55  1  0.29942800  0.96586800  0.23364600  1
  O  O56  1  0.10911400  0.12966400  0.50121700  1
  O  O57  1  0.89088600  0.87033600  0.00121700  1
  O  O58  1  0.89088600  0.62966400  0.50121700  1
  O  O59  1  0.10911400  0.37033600  0.00121700  1
  O  O60  1  0.20428300  0.21593500  0.89207800  1
  O  O61  1  0.79571700  0.78406500  0.39207800  1
  O  O62  1  0.79571700  0.71593500  0.89207800  1
  O  O63  1  0.20428300  0.28406500  0.39207800  1
  O  O64  1  0.33966300  0.53595400  0.50184100  1
  O  O65  1  0.66033700  0.46404600  0.00184100  1
  O  O66  1  0.66033700  0.03595400  0.50184100  1
  O  O67  1  0.33966300  0.96404600  0.00184100  1
  O  O68  1  0.09075800  0.56032300  0.96958500  1
  O  O69  1  0.90924200  0.43967700  0.46958500  1
  O  O70  1  0.90924200  0.06032300  0.96958500  1
  O  O71  1  0.09075800  0.93967700  0.46958500  1
  O  O72  1  0.20440200  0.00494300  0.73897100  1
  O  O73  1  0.79559800  0.99505700  0.23897100  1
  O  O74  1  0.79559800  0.50494300  0.73897100  1
  O  O75  1  0.20440200  0.49505700  0.23897100  1
  O  O76  1  0.39495800  0.37864100  0.62004100  1
  O  O77  1  0.60504200  0.62135900  0.12004100  1
  O  O78  1  0.60504200  0.87864100  0.62004100  1
  O  O79  1  0.39495800  0.12135900  0.12004100  1
  O  O80  1  0.46153300  0.36015800  0.77205200  1
  O  O81  1  0.53846700  0.63984200  0.27205200  1
  O  O82  1  0.53846700  0.86015800  0.77205200  1
  O  O83  1  0.46153300  0.13984200  0.27205200  1
  O  O84  1  0.05455700  0.39048800  0.85162700  1
  O  O85  1  0.94544300  0.60951200  0.35162700  1
  O  O86  1  0.94544300  0.89048800  0.85162700  1
  O  O87  1  0.05455700  0.10951200  0.35162700  1
  O  O88  1  0.15538500  0.78594900  0.62438600  1
  O  O89  1  0.84461500  0.21405100  0.12438600  1
  O  O90  1  0.84461500  0.28594900  0.62438600  1
  O  O91  1  0.15538500  0.71405100  0.12438600  1
  O  O92  1  0.01265100  0.74190500  0.76191500  1
  O  O93  1  0.98734900  0.25809500  0.26191500  1
  O  O94  1  0.98734900  0.24190500  0.76191500  1
  O  O95  1  0.01265100  0.75809500  0.26191500  1
  O  O96  1  0.46808900  0.00861800  0.86170500  1
  O  O97  1  0.53191100  0.99138200  0.36170500  1
  O  O98  1  0.53191100  0.50861800  0.86170500  1
  O  O99  1  0.46808900  0.49138200  0.36170500  1
  O  O100  1  0.01658500  0.00084900  0.60443800  1
  O  O101  1  0.98341500  0.99915100  0.10443800  1
  O  O102  1  0.98341500  0.50084900  0.60443800  1
  O  O103  1  0.01658500  0.49915100  0.10443800  1
  O  O104  1  0.71125400  0.24672500  0.88224500  1
  O  O105  1  0.28874600  0.75327500  0.38224500  1
  O  O106  1  0.28874600  0.74672500  0.88224500  1
  O  O107  1  0.71125400  0.25327500  0.38224500  1
  O  O108  1  0.52905500  0.25013000  0.51751800  1
  O  O109  1  0.47094500  0.74987000  0.01751800  1
  O  O110  1  0.47094500  0.75013000  0.51751800  1
  O  O111  1  0.52905500  0.24987000  0.01751800  1
