# generated using pymatgen
data_Mn(O2F)2
_symmetry_space_group_name_H-M   'P 1'
_cell_length_a   5.48028400
_cell_length_b   6.90035500
_cell_length_c   12.18983700
_cell_angle_alpha   90.00000000
_cell_angle_beta   90.00000000
_cell_angle_gamma   90.00000000
_symmetry_Int_Tables_number   1
_chemical_formula_structural   Mn(O2F)2
_chemical_formula_sum   'Mn4 O16 F8'
_cell_volume   460.96971919
_cell_formula_units_Z   4
loop_
 _symmetry_equiv_pos_site_id
 _symmetry_equiv_pos_as_xyz
  1  'x, y, z'
loop_
 _atom_site_type_symbol
 _atom_site_label
 _atom_site_symmetry_multiplicity
 _atom_site_fract_x
 _atom_site_fract_y
 _atom_site_fract_z
 _atom_site_occupancy
  Mn  Mn0  1  0.25642900  0.18193200  0.14878500  1
  Mn  Mn1  1  0.74357100  0.68193200  0.85121500  1
  Mn  Mn2  1  0.74357100  0.18193200  0.64878500  1
  Mn  Mn3  1  0.25642900  0.68193200  0.35121500  1
  O  O4  1  0.07088500  0.91857700  0.16509600  1
  O  O5  1  0.92911500  0.41857700  0.83490400  1
  O  O6  1  0.92911500  0.91857700  0.66509600  1
  O  O7  1  0.07088500  0.41857700  0.33490400  1
  O  O8  1  0.58360400  0.47095900  0.09726500  1
  O  O9  1  0.41639600  0.97095900  0.90273500  1
  O  O10  1  0.41639600  0.47095900  0.59726500  1
  O  O11  1  0.58360400  0.97095900  0.40273500  1
  O  O12  1  0.59178900  0.13725400  0.43875300  1
  O  O13  1  0.40821100  0.63725400  0.56124700  1
  O  O14  1  0.40821100  0.13725400  0.93875300  1
  O  O15  1  0.59178900  0.63725400  0.06124700  1
  O  O16  1  0.19341400  0.26633100  0.30995100  1
  O  O17  1  0.80658600  0.76633100  0.69004900  1
  O  O18  1  0.80658600  0.26633100  0.80995100  1
  O  O19  1  0.19341400  0.76633100  0.19004900  1
  F  F20  1  0.55099100  0.06378000  0.17636300  1
  F  F21  1  0.44900900  0.56378000  0.82363700  1
  F  F22  1  0.44900900  0.06378000  0.67636300  1
  F  F23  1  0.55099100  0.56378000  0.32363700  1
  F  F24  1  0.04498600  0.34816700  0.08035000  1
  F  F25  1  0.95501400  0.84816700  0.91965000  1
  F  F26  1  0.95501400  0.34816700  0.58035000  1
  F  F27  1  0.04498600  0.84816700  0.41965000  1
