# generated using pymatgen
data_Na2H2WO4
_symmetry_space_group_name_H-M   'P 1'
_cell_length_a   8.62995400
_cell_length_b   10.60706000
_cell_length_c   14.04205900
_cell_angle_alpha   90.00000000
_cell_angle_beta   90.00000000
_cell_angle_gamma   90.00000000
_symmetry_Int_Tables_number   1
_chemical_formula_structural   Na2H2WO4
_chemical_formula_sum   'Na16 H16 W8 O32'
_cell_volume   1285.38817350
_cell_formula_units_Z   8
loop_
 _symmetry_equiv_pos_site_id
 _symmetry_equiv_pos_as_xyz
  1  'x, y, z'
loop_
 _atom_site_type_symbol
 _atom_site_label
 _atom_site_symmetry_multiplicity
 _atom_site_fract_x
 _atom_site_fract_y
 _atom_site_fract_z
 _atom_site_occupancy
  Na  Na0  1  0.26232900  0.43884900  0.14234600  1
  Na  Na1  1  0.73767100  0.56115100  0.85765400  1
  Na  Na2  1  0.23767100  0.56115100  0.64234600  1
  Na  Na3  1  0.73767100  0.93884900  0.35765400  1
  Na  Na4  1  0.76232900  0.43884900  0.35765400  1
  Na  Na5  1  0.26232900  0.06115100  0.64234600  1
  Na  Na6  1  0.76232900  0.06115100  0.85765400  1
  Na  Na7  1  0.23767100  0.93884900  0.14234600  1
  Na  Na8  1  0.16574800  0.00313300  0.43611500  1
  Na  Na9  1  0.83425200  0.99686700  0.56388500  1
  Na  Na10  1  0.33425200  0.99686700  0.93611500  1
  Na  Na11  1  0.83425200  0.50313300  0.06388500  1
  Na  Na12  1  0.66574800  0.00313300  0.06388500  1
  Na  Na13  1  0.16574800  0.49686700  0.93611500  1
  Na  Na14  1  0.66574800  0.49686700  0.56388500  1
  Na  Na15  1  0.33425200  0.50313300  0.43611500  1
  H  H16  1  0.21670700  0.34008600  0.30839500  1
  H  H17  1  0.78329300  0.65991400  0.69160500  1
  H  H18  1  0.28329300  0.65991400  0.80839500  1
  H  H19  1  0.78329300  0.84008600  0.19160500  1
  H  H20  1  0.71670700  0.34008600  0.19160500  1
  H  H21  1  0.21670700  0.15991400  0.80839500  1
  H  H22  1  0.71670700  0.15991400  0.69160500  1
  H  H23  1  0.28329300  0.84008600  0.30839500  1
  H  H24  1  0.46493300  0.10494600  0.20730100  1
  H  H25  1  0.53506700  0.89505400  0.79269900  1
  H  H26  1  0.03506700  0.89505400  0.70730100  1
  H  H27  1  0.53506700  0.60494600  0.29269900  1
  H  H28  1  0.96493300  0.10494600  0.29269900  1
  H  H29  1  0.46493300  0.39505400  0.70730100  1
  H  H30  1  0.96493300  0.39505400  0.79269900  1
  H  H31  1  0.03506700  0.60494600  0.20730100  1
  W  W32  1  0.01258200  0.20173300  0.02764900  1
  W  W33  1  0.98741800  0.79826700  0.97235100  1
  W  W34  1  0.48741800  0.79826700  0.52764900  1
  W  W35  1  0.98741800  0.70173300  0.47235100  1
  W  W36  1  0.51258200  0.20173300  0.47235100  1
  W  W37  1  0.01258200  0.29826700  0.52764900  1
  W  W38  1  0.51258200  0.29826700  0.97235100  1
  W  W39  1  0.48741800  0.70173300  0.02764900  1
  O  O40  1  0.35757500  0.14288200  0.39783900  1
  O  O41  1  0.64242500  0.85711800  0.60216100  1
  O  O42  1  0.14242500  0.85711800  0.89783900  1
  O  O43  1  0.64242500  0.64288200  0.10216100  1
  O  O44  1  0.85757500  0.14288200  0.10216100  1
  O  O45  1  0.35757500  0.35711800  0.89783900  1
  O  O46  1  0.85757500  0.35711800  0.60216100  1
  O  O47  1  0.14242500  0.64288200  0.39783900  1
  O  O48  1  0.18623200  0.10859800  0.04867100  1
  O  O49  1  0.81376800  0.89140200  0.95132900  1
  O  O50  1  0.31376800  0.89140200  0.54867100  1
  O  O51  1  0.81376800  0.60859800  0.45132900  1
  O  O52  1  0.68623200  0.10859800  0.45132900  1
  O  O53  1  0.18623200  0.39140200  0.54867100  1
  O  O54  1  0.68623200  0.39140200  0.95132900  1
  O  O55  1  0.31376800  0.60859800  0.04867100  1
  O  O56  1  0.46095100  0.31388400  0.09664600  1
  O  O57  1  0.53904900  0.68611600  0.90335400  1
  O  O58  1  0.03904900  0.68611600  0.59664600  1
  O  O59  1  0.53904900  0.81388400  0.40335400  1
  O  O60  1  0.96095100  0.31388400  0.40335400  1
  O  O61  1  0.46095100  0.18611600  0.59664600  1
  O  O62  1  0.96095100  0.18611600  0.90335400  1
  O  O63  1  0.03904900  0.81388400  0.09664600  1
  O  O64  1  0.04983800  0.36880400  0.05753000  1
  O  O65  1  0.95016200  0.63119600  0.94247000  1
  O  O66  1  0.45016200  0.63119600  0.55753000  1
  O  O67  1  0.95016200  0.86880400  0.44247000  1
  O  O68  1  0.54983800  0.36880400  0.44247000  1
  O  O69  1  0.04983800  0.13119600  0.55753000  1
  O  O70  1  0.54983800  0.13119600  0.94247000  1
  O  O71  1  0.45016200  0.86880400  0.05753000  1
