# generated using pymatgen
data_Lu3Mg2(SiO4)3
_symmetry_space_group_name_H-M   'P 1'
_cell_length_a   10.44302103
_cell_length_b   10.44302103
_cell_length_c   10.44302103
_cell_angle_alpha   109.47122063
_cell_angle_beta   109.47122063
_cell_angle_gamma   109.47122063
_symmetry_Int_Tables_number   1
_chemical_formula_structural   Lu3Mg2(SiO4)3
_chemical_formula_sum   'Lu12 Mg8 Si12 O48'
_cell_volume   876.71122356
_cell_formula_units_Z   4
loop_
 _symmetry_equiv_pos_site_id
 _symmetry_equiv_pos_as_xyz
  1  'x, y, z'
loop_
 _atom_site_type_symbol
 _atom_site_label
 _atom_site_symmetry_multiplicity
 _atom_site_fract_x
 _atom_site_fract_y
 _atom_site_fract_z
 _atom_site_occupancy
  Lu  Lu0  1  0.25000000  0.37500000  0.12500000  1
  Lu  Lu1  1  0.75000000  0.62500000  0.87500000  1
  Lu  Lu2  1  0.75000000  0.12500000  0.37500000  1
  Lu  Lu3  1  0.12500000  0.25000000  0.37500000  1
  Lu  Lu4  1  0.37500000  0.75000000  0.12500000  1
  Lu  Lu5  1  0.25000000  0.87500000  0.62500000  1
  Lu  Lu6  1  0.87500000  0.75000000  0.62500000  1
  Lu  Lu7  1  0.62500000  0.25000000  0.87500000  1
  Lu  Lu8  1  0.37500000  0.12500000  0.25000000  1
  Lu  Lu9  1  0.62500000  0.87500000  0.75000000  1
  Lu  Lu10  1  0.12500000  0.37500000  0.75000000  1
  Lu  Lu11  1  0.87500000  0.62500000  0.25000000  1
  Mg  Mg12  1  0.00000000  0.00000000  0.00000000  1
  Mg  Mg13  1  0.50000000  0.00000000  0.50000000  1
  Mg  Mg14  1  0.00000000  0.50000000  0.50000000  1
  Mg  Mg15  1  0.50000000  0.00000000  0.00000000  1
  Mg  Mg16  1  0.50000000  0.50000000  0.00000000  1
  Mg  Mg17  1  0.50000000  0.50000000  0.50000000  1
  Mg  Mg18  1  0.00000000  0.00000000  0.50000000  1
  Mg  Mg19  1  0.00000000  0.50000000  0.00000000  1
  Si  Si20  1  0.25000000  0.62500000  0.37500000  1
  Si  Si21  1  0.75000000  0.37500000  0.62500000  1
  Si  Si22  1  0.75000000  0.87500000  0.12500000  1
  Si  Si23  1  0.37500000  0.25000000  0.62500000  1
  Si  Si24  1  0.62500000  0.75000000  0.37500000  1
  Si  Si25  1  0.25000000  0.12500000  0.87500000  1
  Si  Si26  1  0.12500000  0.75000000  0.87500000  1
  Si  Si27  1  0.87500000  0.25000000  0.12500000  1
  Si  Si28  1  0.62500000  0.37500000  0.25000000  1
  Si  Si29  1  0.37500000  0.62500000  0.75000000  1
  Si  Si30  1  0.87500000  0.12500000  0.75000000  1
  Si  Si31  1  0.12500000  0.87500000  0.25000000  1
  O  O32  1  0.48291400  0.37818400  0.28644600  1
  O  O33  1  0.51708600  0.62181600  0.71355400  1
  O  O34  1  0.59173800  0.19646800  0.21355400  1
  O  O35  1  0.90826200  0.12181600  0.60473000  1
  O  O36  1  0.28644600  0.48291400  0.37818400  1
  O  O37  1  0.30353200  0.90826200  0.28644600  1
  O  O38  1  0.40826200  0.80353200  0.78644600  1
  O  O39  1  0.09173800  0.87818400  0.39527000  1
  O  O40  1  0.71355400  0.51708600  0.62181600  1
  O  O41  1  0.69646800  0.09173800  0.71355400  1
  O  O42  1  0.01708600  0.30353200  0.89527000  1
  O  O43  1  0.21355400  0.59173800  0.19646800  1
  O  O44  1  0.12181600  0.01708600  0.21355400  1
  O  O45  1  0.98291400  0.69646800  0.10473000  1
  O  O46  1  0.78644600  0.40826200  0.80353200  1
  O  O47  1  0.87818400  0.98291400  0.78644600  1
  O  O48  1  0.60473000  0.90826200  0.12181600  1
  O  O49  1  0.19646800  0.48291400  0.60473000  1
  O  O50  1  0.39527000  0.09173800  0.87818400  1
  O  O51  1  0.80353200  0.51708600  0.39527000  1
  O  O52  1  0.89527000  0.01708600  0.30353200  1
  O  O53  1  0.37818400  0.59173800  0.89527000  1
  O  O54  1  0.10473000  0.98291400  0.69646800  1
  O  O55  1  0.62181600  0.40826200  0.10473000  1
  O  O56  1  0.37818400  0.28644600  0.48291400  1
  O  O57  1  0.59173800  0.89527000  0.37818400  1
  O  O58  1  0.62181600  0.71355400  0.51708600  1
  O  O59  1  0.40826200  0.10473000  0.62181600  1
  O  O60  1  0.12181600  0.60473000  0.90826200  1
  O  O61  1  0.01708600  0.21355400  0.12181600  1
  O  O62  1  0.87818400  0.39527000  0.09173800  1
  O  O63  1  0.98291400  0.78644600  0.87818400  1
  O  O64  1  0.30353200  0.89527000  0.01708600  1
  O  O65  1  0.90826200  0.28644600  0.30353200  1
  O  O66  1  0.69646800  0.10473000  0.98291400  1
  O  O67  1  0.09173800  0.71355400  0.69646800  1
  O  O68  1  0.19646800  0.21355400  0.59173800  1
  O  O69  1  0.48291400  0.60473000  0.19646800  1
  O  O70  1  0.80353200  0.78644600  0.40826200  1
  O  O71  1  0.51708600  0.39527000  0.80353200  1
  O  O72  1  0.28644600  0.30353200  0.90826200  1
  O  O73  1  0.71355400  0.69646800  0.09173800  1
  O  O74  1  0.21355400  0.12181600  0.01708600  1
  O  O75  1  0.78644600  0.87818400  0.98291400  1
  O  O76  1  0.89527000  0.37818400  0.59173800  1
  O  O77  1  0.10473000  0.62181600  0.40826200  1
  O  O78  1  0.60473000  0.19646800  0.48291400  1
  O  O79  1  0.39527000  0.80353200  0.51708600  1
