# generated using pymatgen
data_Mo6H2N2Cl14O
_symmetry_space_group_name_H-M   'P 1'
_cell_length_a   13.05762633
_cell_length_b   13.05762633
_cell_length_c   9.92025545
_cell_angle_alpha   67.88427935
_cell_angle_beta   67.88427935
_cell_angle_gamma   76.49522331
_symmetry_Int_Tables_number   1
_chemical_formula_structural   Mo6H2N2Cl14O
_chemical_formula_sum   'Mo12 H4 N4 Cl28 O2'
_cell_volume   1443.35827852
_cell_formula_units_Z   2
loop_
 _symmetry_equiv_pos_site_id
 _symmetry_equiv_pos_as_xyz
  1  'x, y, z'
loop_
 _atom_site_type_symbol
 _atom_site_label
 _atom_site_symmetry_multiplicity
 _atom_site_fract_x
 _atom_site_fract_y
 _atom_site_fract_z
 _atom_site_occupancy
  Mo  Mo0  1  0.35324700  0.97233400  0.17537000  1
  Mo  Mo1  1  0.64675300  0.02766600  0.82463000  1
  Mo  Mo2  1  0.02766600  0.64675300  0.32463000  1
  Mo  Mo3  1  0.97233400  0.35324700  0.67537000  1
  Mo  Mo4  1  0.57907000  0.01862200  0.17410600  1
  Mo  Mo5  1  0.42093000  0.98137800  0.82589400  1
  Mo  Mo6  1  0.98137800  0.42093000  0.32589400  1
  Mo  Mo7  1  0.01862200  0.57907000  0.67410600  1
  Mo  Mo8  1  0.56839700  0.81003900  0.06120400  1
  Mo  Mo9  1  0.43160300  0.18996100  0.93879600  1
  Mo  Mo10  1  0.18996100  0.43160300  0.43879600  1
  Mo  Mo11  1  0.81003900  0.56839700  0.56120400  1
  H  H12  1  0.96959900  0.99294100  0.19922500  1
  H  H13  1  0.03040100  0.00705900  0.80077500  1
  H  H14  1  0.00705900  0.03040100  0.30077500  1
  H  H15  1  0.99294100  0.96959900  0.69922500  1
  N  N16  1  0.67555000  0.32445000  0.25000000  1
  N  N17  1  0.32445000  0.67555000  0.75000000  1
  N  N18  1  0.50000000  0.50000000  0.00000000  1
  N  N19  1  0.50000000  0.50000000  0.50000000  1
  Cl  Cl20  1  0.73359000  0.89693600  0.03475500  1
  Cl  Cl21  1  0.26641000  0.10306400  0.96524500  1
  Cl  Cl22  1  0.10306400  0.26641000  0.46524500  1
  Cl  Cl23  1  0.89693600  0.73359000  0.53475500  1
  Cl  Cl24  1  0.39254700  0.13645300  0.22655700  1
  Cl  Cl25  1  0.60745300  0.86354700  0.77344300  1
  Cl  Cl26  1  0.86354700  0.60745300  0.27344300  1
  Cl  Cl27  1  0.13645300  0.39254700  0.72655700  1
  Cl  Cl28  1  0.48636300  0.83995000  0.32568300  1
  Cl  Cl29  1  0.51363700  0.16005000  0.67431700  1
  Cl  Cl30  1  0.16005000  0.51363700  0.17431700  1
  Cl  Cl31  1  0.83995000  0.48636300  0.82568300  1
  Cl  Cl32  1  0.36855300  0.81286200  0.06781100  1
  Cl  Cl33  1  0.63144700  0.18713800  0.93218900  1
  Cl  Cl34  1  0.18713800  0.63144700  0.43218900  1
  Cl  Cl35  1  0.81286200  0.36855300  0.56781100  1
  Cl  Cl36  1  0.66126400  0.03867400  0.33461400  1
  Cl  Cl37  1  0.33873600  0.96132600  0.66538600  1
  Cl  Cl38  1  0.96132600  0.33873600  0.16538600  1
  Cl  Cl39  1  0.03867400  0.66126400  0.83461400  1
  Cl  Cl40  1  0.62991000  0.61835500  0.12789700  1
  Cl  Cl41  1  0.37009000  0.38164500  0.87210300  1
  Cl  Cl42  1  0.38164500  0.37009000  0.37210300  1
  Cl  Cl43  1  0.61835500  0.62991000  0.62789700  1
  Cl  Cl44  1  0.81804100  0.05904500  0.62048000  1
  Cl  Cl45  1  0.18195900  0.94095500  0.37952000  1
  Cl  Cl46  1  0.94095500  0.18195900  0.87952000  1
  Cl  Cl47  1  0.05904500  0.81804100  0.12048000  1
  O  O48  1  0.95122100  0.04877900  0.25000000  1
  O  O49  1  0.04877900  0.95122100  0.75000000  1
