# generated using pymatgen
data_Li2Al2Si3(HO3)4
_symmetry_space_group_name_H-M   'P 1'
_cell_length_a   6.53430900
_cell_length_b   9.58797986
_cell_length_c   9.97481941
_cell_angle_alpha   83.59180815
_cell_angle_beta   70.88045863
_cell_angle_gamma   70.07710836
_symmetry_Int_Tables_number   1
_chemical_formula_structural   Li2Al2Si3(HO3)4
_chemical_formula_sum   'Li4 Al4 Si6 H8 O24'
_cell_volume   555.12007550
_cell_formula_units_Z   2
loop_
 _symmetry_equiv_pos_site_id
 _symmetry_equiv_pos_as_xyz
  1  'x, y, z'
loop_
 _atom_site_type_symbol
 _atom_site_label
 _atom_site_symmetry_multiplicity
 _atom_site_fract_x
 _atom_site_fract_y
 _atom_site_fract_z
 _atom_site_occupancy
  Li  Li0  1  0.54182100  0.56551500  0.07818100  1
  Li  Li1  1  0.18551600  0.43448500  0.92181900  1
  Li  Li2  1  0.37000200  0.06551500  0.42181900  1
  Li  Li3  1  0.85733600  0.93448500  0.57818100  1
  Al  Al4  1  0.32727600  0.92619500  0.18524200  1
  Al  Al5  1  0.43871300  0.07380500  0.81475800  1
  Al  Al6  1  0.26251800  0.42619500  0.31475800  1
  Al  Al7  1  0.00347100  0.57380500  0.68524200  1
  Si  Si8  1  0.31250700  0.70028900  0.42712500  1
  Si  Si9  1  0.43992100  0.29971100  0.57287500  1
  Si  Si10  1  0.48963200  0.20028900  0.07287500  1
  Si  Si11  1  0.76279600  0.79971100  0.92712500  1
  Si  Si12  1  0.99807800  0.00000000  0.00000000  1
  Si  Si13  1  0.74807800  0.50000000  0.50000000  1
  H  H14  1  0.82005200  0.93070600  0.31105600  1
  H  H15  1  0.06181400  0.06929400  0.68894400  1
  H  H16  1  0.88110800  0.43070600  0.18894400  1
  H  H17  1  0.50075800  0.56929400  0.81105600  1
  H  H18  1  0.69576300  0.82185200  0.40645100  1
  H  H19  1  0.92406500  0.17814800  0.59354900  1
  H  H20  1  0.85221300  0.32185200  0.09354900  1
  H  H21  1  0.26761500  0.67814800  0.90645100  1
  O  O22  1  0.54352800  0.65018900  0.47870200  1
  O  O23  1  0.67242000  0.34981100  0.52129800  1
  O  O24  1  0.77223000  0.15018900  0.02129800  1
  O  O25  1  0.94371700  0.84981100  0.97870200  1
  O  O26  1  0.54504200  0.79060300  0.06392900  1
  O  O27  1  0.39957400  0.20939700  0.93607100  1
  O  O28  1  0.35897100  0.29060300  0.43607100  1
  O  O29  1  0.08564500  0.70939700  0.56392900  1
  O  O30  1  0.34995300  0.58245900  0.30798000  1
  O  O31  1  0.24039300  0.41754100  0.69202000  1
  O  O32  1  0.40793300  0.08245900  0.19202000  1
  O  O33  1  0.68241200  0.91754100  0.80798000  1
  O  O34  1  0.96494500  0.47417500  0.35629000  1
  O  O35  1  0.79540900  0.52582500  0.64371000  1
  O  O36  1  0.07123400  0.97417500  0.14371000  1
  O  O37  1  0.18912000  0.02582500  0.85629000  1
  O  O38  1  0.71180300  0.92023700  0.40482800  1
  O  O39  1  0.03686800  0.07976300  0.59517200  1
  O  O40  1  0.86663000  0.42023700  0.09517200  1
  O  O41  1  0.38204000  0.57976300  0.90482800  1
  O  O42  1  0.28484400  0.86558000  0.36107300  1
  O  O43  1  0.51149800  0.13442000  0.63892700  1
  O  O44  1  0.39591700  0.36558000  0.13892700  1
  O  O45  1  0.90042400  0.63442000  0.86107300  1
