# generated using pymatgen
data_NiH36(C5N)12
_symmetry_space_group_name_H-M   'P 1'
_cell_length_a   10.01708300
_cell_length_b   10.38573506
_cell_length_c   10.68766106
_cell_angle_alpha   77.82134692
_cell_angle_beta   80.32646021
_cell_angle_gamma   79.68016938
_symmetry_Int_Tables_number   1
_chemical_formula_structural   NiH36(C5N)12
_chemical_formula_sum   'Ni1 H36 C60 N12'
_cell_volume   1059.43109232
_cell_formula_units_Z   1
loop_
 _symmetry_equiv_pos_site_id
 _symmetry_equiv_pos_as_xyz
  1  'x, y, z'
loop_
 _atom_site_type_symbol
 _atom_site_label
 _atom_site_symmetry_multiplicity
 _atom_site_fract_x
 _atom_site_fract_y
 _atom_site_fract_z
 _atom_site_occupancy
  Ni  Ni0  1  0.50000000  0.00000000  0.00000000  1
  H  H1  1  0.68309700  0.14659500  0.02411400  1
  H  H2  1  0.31690300  0.85340500  0.97588600  1
  H  H3  1  0.97264600  0.05105500  0.07661000  1
  H  H4  1  0.02735400  0.94894500  0.92339000  1
  H  H5  1  0.22867500  0.99859700  0.00709600  1
  H  H6  1  0.77132500  0.00140300  0.99290400  1
  H  H7  1  0.68962100  0.01550600  0.13965600  1
  H  H8  1  0.31037900  0.98449400  0.86034400  1
  H  H9  1  0.62093500  0.74625400  0.08202000  1
  H  H10  1  0.37906500  0.25374600  0.91798000  1
  H  H11  1  0.04397700  0.07612500  0.19397200  1
  H  H12  1  0.95602300  0.92387500  0.80602800  1
  H  H13  1  0.71596100  0.34397100  0.11011700  1
  H  H14  1  0.28403900  0.65602900  0.88988300  1
  H  H15  1  0.46523700  0.25444900  0.03719400  1
  H  H16  1  0.53476300  0.74555100  0.96280600  1
  H  H17  1  0.55729500  0.15211700  0.76151300  1
  H  H18  1  0.44270500  0.84788300  0.23848700  1
  H  H19  1  0.02803200  0.19237900  0.06488400  1
  H  H20  1  0.97196800  0.80762100  0.93511600  1
  H  H21  1  0.62214200  0.43812600  0.00681000  1
  H  H22  1  0.37785800  0.56187400  0.99319000  1
  H  H23  1  0.51924400  0.00923500  0.74250400  1
  H  H24  1  0.48075600  0.99076500  0.25749600  1
  H  H25  1  0.58639500  0.19144900  0.31018000  1
  H  H26  1  0.41360500  0.80855100  0.68982000  1
  H  H27  1  0.69507600  0.06442900  0.36865300  1
  H  H28  1  0.30492400  0.93557100  0.63134700  1
  H  H29  1  0.31325400  0.20543700  0.06729100  1
  H  H30  1  0.68674600  0.79456300  0.93270900  1
  H  H31  1  0.53867300  0.08907500  0.43997700  1
  H  H32  1  0.46132700  0.91092500  0.56002300  1
  H  H33  1  0.67280400  0.01973200  0.77415100  1
  H  H34  1  0.32719600  0.98026800  0.22584900  1
  H  H35  1  0.56311500  0.41286700  0.16130800  1
  H  H36  1  0.43688500  0.58713300  0.83869200  1
  C  C37  1  0.15172500  0.26446400  0.29866700  1
  C  C38  1  0.84827500  0.73553600  0.70133300  1
  C  C39  1  0.86013500  0.32484100  0.31423600  1
  C  C40  1  0.13986500  0.67515900  0.68576400  1
  C  C41  1  0.06580900  0.18640900  0.39841800  1
  C  C42  1  0.93419100  0.81359100  0.60158200  1
  C  C43  1  0.09353200  0.45572000  0.81512700  1
  C  C44  1  0.90646800  0.54428000  0.18487300  1
  C  C45  1  0.29430300  0.26951800  0.58284600  1
  C  C46  1  0.70569700  0.73048200  0.41715400  1
  C  C47  1  0.04772600  0.15365100  0.63646600  1
  C  C48  1  0.95227400  0.84634900  0.36353400  1
  C  C49  1  0.15040300  0.74001800  0.25329600  1
  C  C50  1  0.84959700  0.25998200  0.74670400  1
  C  C51  1  0.21332700  0.39226200  0.74916000  1
  C  C52  1  0.78667300  0.60773800  0.25084000  1
  C  C53  1  0.26773600  0.28152900  0.35441500  1
  C  C54  1  0.73226400  0.71847100  0.64558500  1
  C  C55  1  0.05659500  0.59940700  0.78275500  1
  C  C56  1  0.94340500  0.40059300  0.21724500  1
  C  C57  1  0.21004800  0.26820800  0.70770400  1
  C  C58  1  0.78995200  0.73179200  0.29229600  1
  C  C59  1  0.03108900  0.60271400  0.15781000  1
  C  C60  1  0.96891100  0.39728600  0.84219000  1
  C  C61  1  0.07752500  0.78379600  0.59411700  1
  C  C62  1  0.92247500  0.21620400  0.40588300  1
  C  C63  1  0.32094700  0.40292900  0.31953400  1
  C  C64  1  0.67905300  0.59707100  0.68046600  1
  C  C65  1  0.25411700  0.21380200  0.48832900  1
  C  C66  1  0.74588300  0.78619800  0.51167100  1
  C  C67  1  0.34822700  0.39464400  0.54676900  1
  C  C68  1  0.65177300  0.60535600  0.45323100  1
  C  C69  1  0.14527000  0.49501000  0.17385800  1
  C  C70  1  0.85473000  0.50499000  0.82614200  1
  C  C71  1  0.25848200  0.51138700  0.22752600  1
  C  C72  1  0.74151800  0.48861300  0.77247400  1
  C  C73  1  0.26190600  0.63591700  0.26789800  1
  C  C74  1  0.73809400  0.36408300  0.73210200  1
  C  C75  1  0.32515900  0.60431800  0.38475700  1
  C  C76  1  0.67484100  0.39568200  0.61524300  1
  C  C77  1  0.29825100  0.47020500  0.64937800  1
  C  C78  1  0.70174900  0.52979500  0.35062200  1
  C  C79  1  0.03427200  0.72306100  0.19801700  1
  C  C80  1  0.96572800  0.27693900  0.80198300  1
  C  C81  1  0.26236900  0.61001500  0.61800700  1
  C  C82  1  0.73763100  0.38998500  0.38199300  1
  C  C83  1  0.36134000  0.46040700  0.41689700  1
  C  C84  1  0.63866000  0.53959300  0.58310300  1
  C  C85  1  0.09992100  0.81580900  0.35587200  1
  C  C86  1  0.90007900  0.18419100  0.64412800  1
  C  C87  1  0.12967100  0.15451800  0.51538600  1
  C  C88  1  0.87032900  0.84548200  0.48461400  1
  C  C89  1  0.08850400  0.21186000  0.73346700  1
  C  C90  1  0.91149600  0.78814000  0.26653300  1
  C  C91  1  0.09095000  0.36998500  0.20949700  1
  C  C92  1  0.90905000  0.63001500  0.79050300  1
  C  C93  1  0.27587400  0.67759100  0.48452700  1
  C  C94  1  0.72412600  0.32240900  0.51547300  1
  C  C95  1  0.16180900  0.78481300  0.46948900  1
  C  C96  1  0.83819100  0.21518700  0.53051100  1
  N  N97  1  0.68334700  0.04570000  0.04299800  1
  N  N98  1  0.31665300  0.95430000  0.95700200  1
  N  N99  1  0.05114000  0.09174100  0.09542000  1
  N  N100  1  0.94886000  0.90825900  0.90458000  1
  N  N101  1  0.40350200  0.20169100  0.00585700  1
  N  N102  1  0.59649800  0.79830900  0.99414300  1
  N  N103  1  0.57040400  0.05163200  0.79616500  1
  N  N104  1  0.42959600  0.94836800  0.20383500  1
  N  N105  1  0.59564900  0.09230600  0.35074100  1
  N  N106  1  0.40435100  0.90769400  0.64925900  1
  N  N107  1  0.61744800  0.36646400  0.08883100  1
  N  N108  1  0.38255200  0.63353600  0.91116900  1
