# generated using pymatgen
data_NaAl2H8(ClO2)4
_symmetry_space_group_name_H-M   'P 1'
_cell_length_a   7.99891800
_cell_length_b   10.14602700
_cell_length_c   10.14602700
_cell_angle_alpha   90.00000000
_cell_angle_beta   90.00000000
_cell_angle_gamma   90.00000000
_symmetry_Int_Tables_number   1
_chemical_formula_structural   NaAl2H8(ClO2)4
_chemical_formula_sum   'Na2 Al4 H16 Cl8 O16'
_cell_volume   823.42352798
_cell_formula_units_Z   2
loop_
 _symmetry_equiv_pos_site_id
 _symmetry_equiv_pos_as_xyz
  1  'x, y, z'
loop_
 _atom_site_type_symbol
 _atom_site_label
 _atom_site_symmetry_multiplicity
 _atom_site_fract_x
 _atom_site_fract_y
 _atom_site_fract_z
 _atom_site_occupancy
  Na  Na0  1  0.00000000  0.00000000  0.00000000  1
  Na  Na1  1  0.00000000  0.50000000  0.50000000  1
  Al  Al2  1  0.50000000  0.75000000  0.25000000  1
  Al  Al3  1  0.50000000  0.25000000  0.75000000  1
  Al  Al4  1  0.50000000  0.25000000  0.25000000  1
  Al  Al5  1  0.50000000  0.75000000  0.75000000  1
  H  H6  1  0.78176100  0.12432600  0.03710600  1
  H  H7  1  0.78176100  0.87567400  0.96289400  1
  H  H8  1  0.78176100  0.46289400  0.62432600  1
  H  H9  1  0.21823900  0.37567400  0.53710600  1
  H  H10  1  0.21823900  0.37567400  0.46289400  1
  H  H11  1  0.78176100  0.53710600  0.37567400  1
  H  H12  1  0.21823900  0.62432600  0.46289400  1
  H  H13  1  0.21823900  0.62432600  0.53710600  1
  H  H14  1  0.21823900  0.03710600  0.12432600  1
  H  H15  1  0.21823900  0.03710600  0.87567400  1
  H  H16  1  0.21823900  0.96289400  0.87567400  1
  H  H17  1  0.21823900  0.96289400  0.12432600  1
  H  H18  1  0.78176100  0.12432600  0.96289400  1
  H  H19  1  0.78176100  0.87567400  0.03710600  1
  H  H20  1  0.78176100  0.53710600  0.62432600  1
  H  H21  1  0.78176100  0.46289400  0.37567400  1
  Cl  Cl22  1  0.26259900  0.17953800  0.32046200  1
  Cl  Cl23  1  0.26259900  0.82046200  0.67953800  1
  Cl  Cl24  1  0.26259900  0.17953800  0.67953800  1
  Cl  Cl25  1  0.73740100  0.32046200  0.82046200  1
  Cl  Cl26  1  0.73740100  0.32046200  0.17953800  1
  Cl  Cl27  1  0.26259900  0.82046200  0.32046200  1
  Cl  Cl28  1  0.73740100  0.67953800  0.17953800  1
  Cl  Cl29  1  0.73740100  0.67953800  0.82046200  1
  O  O30  1  0.60831200  0.26384200  0.56466300  1
  O  O31  1  0.60831200  0.73615800  0.43533700  1
  O  O32  1  0.60831200  0.93533700  0.76384200  1
  O  O33  1  0.39168800  0.23615800  0.06466300  1
  O  O34  1  0.39168800  0.23615800  0.93533700  1
  O  O35  1  0.60831200  0.06466300  0.23615800  1
  O  O36  1  0.39168800  0.76384200  0.93533700  1
  O  O37  1  0.39168800  0.76384200  0.06466300  1
  O  O38  1  0.39168800  0.56466300  0.26384200  1
  O  O39  1  0.39168800  0.56466300  0.73615800  1
  O  O40  1  0.39168800  0.43533700  0.73615800  1
  O  O41  1  0.39168800  0.43533700  0.26384200  1
  O  O42  1  0.60831200  0.26384200  0.43533700  1
  O  O43  1  0.60831200  0.73615800  0.56466300  1
  O  O44  1  0.60831200  0.06466300  0.76384200  1
  O  O45  1  0.60831200  0.93533700  0.23615800  1
