# generated using pymatgen
data_Na5Al(HO)8
_symmetry_space_group_name_H-M   'P 1'
_cell_length_a   9.56342200
_cell_length_b   9.56342200
_cell_length_c   9.71887900
_cell_angle_alpha   90.00000000
_cell_angle_beta   90.00000000
_cell_angle_gamma   90.00000000
_symmetry_Int_Tables_number   1
_chemical_formula_structural   Na5Al(HO)8
_chemical_formula_sum   'Na20 Al4 H32 O32'
_cell_volume   888.87934662
_cell_formula_units_Z   4
loop_
 _symmetry_equiv_pos_site_id
 _symmetry_equiv_pos_as_xyz
  1  'x, y, z'
loop_
 _atom_site_type_symbol
 _atom_site_label
 _atom_site_symmetry_multiplicity
 _atom_site_fract_x
 _atom_site_fract_y
 _atom_site_fract_z
 _atom_site_occupancy
  Na  Na0  1  0.62488000  0.62488000  0.00000000  1
  Na  Na1  1  0.37512000  0.37512000  0.50000000  1
  Na  Na2  1  0.87512000  0.12488000  0.25000000  1
  Na  Na3  1  0.12488000  0.87512000  0.75000000  1
  Na  Na4  1  0.11333000  0.37152800  0.27743600  1
  Na  Na5  1  0.88667000  0.62847200  0.77743600  1
  Na  Na6  1  0.12847200  0.61333000  0.52743600  1
  Na  Na7  1  0.38667000  0.87152800  0.97256400  1
  Na  Na8  1  0.87152800  0.38667000  0.02743600  1
  Na  Na9  1  0.61333000  0.12847200  0.47256400  1
  Na  Na10  1  0.37152800  0.11333000  0.72256400  1
  Na  Na11  1  0.62847200  0.88667000  0.22256400  1
  Na  Na12  1  0.37804100  0.13104000  0.23330900  1
  Na  Na13  1  0.62195900  0.86896000  0.73330900  1
  Na  Na14  1  0.36896000  0.87804100  0.48330900  1
  Na  Na15  1  0.12195900  0.63104000  0.01669100  1
  Na  Na16  1  0.63104000  0.12195900  0.98330900  1
  Na  Na17  1  0.87804100  0.36896000  0.51669100  1
  Na  Na18  1  0.13104000  0.37804100  0.76669100  1
  Na  Na19  1  0.86896000  0.62195900  0.26669100  1
  Al  Al20  1  0.12943500  0.12943500  0.00000000  1
  Al  Al21  1  0.87056500  0.87056500  0.50000000  1
  Al  Al22  1  0.37056500  0.62943500  0.25000000  1
  Al  Al23  1  0.62943500  0.37056500  0.75000000  1
  H  H24  1  0.21045400  0.36326800  0.04950200  1
  H  H25  1  0.78954600  0.63673200  0.54950200  1
  H  H26  1  0.13673200  0.71045400  0.29950200  1
  H  H27  1  0.28954600  0.86326800  0.20049800  1
  H  H28  1  0.86326800  0.28954600  0.79950200  1
  H  H29  1  0.71045400  0.13673200  0.70049800  1
  H  H30  1  0.36326800  0.21045400  0.95049800  1
  H  H31  1  0.63673200  0.78954600  0.45049800  1
  H  H32  1  0.44682400  0.38670500  0.20685700  1
  H  H33  1  0.55317600  0.61329500  0.70685700  1
  H  H34  1  0.11329500  0.94682400  0.45685700  1
  H  H35  1  0.05317600  0.88670500  0.04314300  1
  H  H36  1  0.88670500  0.05317600  0.95685700  1
  H  H37  1  0.94682400  0.11329500  0.54314300  1
  H  H38  1  0.38670500  0.44682400  0.79314300  1
  H  H39  1  0.61329500  0.55317600  0.29314300  1
  H  H40  1  0.26701400  0.12783500  0.46189800  1
  H  H41  1  0.73298600  0.87216500  0.96189800  1
  H  H42  1  0.37216500  0.76701400  0.71189800  1
  H  H43  1  0.23298600  0.62783500  0.78810200  1
  H  H44  1  0.62783500  0.23298600  0.21189800  1
  H  H45  1  0.76701400  0.37216500  0.28810200  1
  H  H46  1  0.12783500  0.26701400  0.53810200  1
  H  H47  1  0.87216500  0.73298600  0.03810200  1
  H  H48  1  0.13915800  0.03704400  0.23063400  1
  H  H49  1  0.86084200  0.96295600  0.73063400  1
  H  H50  1  0.46295600  0.63915800  0.48063400  1
  H  H51  1  0.36084200  0.53704400  0.01936600  1
  H  H52  1  0.53704400  0.36084200  0.98063400  1
  H  H53  1  0.63915800  0.46295600  0.51936600  1
  H  H54  1  0.03704400  0.13915800  0.76936600  1
  H  H55  1  0.96295600  0.86084200  0.26936600  1
  O  O56  1  0.12938000  0.13391000  0.20131100  1
  O  O57  1  0.87062000  0.86609000  0.70131100  1
  O  O58  1  0.36609000  0.62938000  0.45131100  1
  O  O59  1  0.37062000  0.63391000  0.04868900  1
  O  O60  1  0.63391000  0.37062000  0.95131100  1
  O  O61  1  0.62938000  0.36609000  0.54868900  1
  O  O62  1  0.13391000  0.12938000  0.79868900  1
  O  O63  1  0.86609000  0.87062000  0.29868900  1
  O  O64  1  0.36689400  0.11976200  0.47639300  1
  O  O65  1  0.63310600  0.88023800  0.97639300  1
  O  O66  1  0.38023800  0.86689400  0.72639300  1
  O  O67  1  0.13310600  0.61976200  0.77360700  1
  O  O68  1  0.61976200  0.13310600  0.22639300  1
  O  O69  1  0.86689400  0.38023800  0.27360700  1
  O  O70  1  0.11976200  0.36689400  0.52360700  1
  O  O71  1  0.88023800  0.63310600  0.02360700  1
  O  O72  1  0.36110800  0.42557200  0.24474300  1
  O  O73  1  0.63889200  0.57442800  0.74474300  1
  O  O74  1  0.07442800  0.86110800  0.49474300  1
  O  O75  1  0.13889200  0.92557200  0.00525700  1
  O  O76  1  0.92557200  0.13889200  0.99474300  1
  O  O77  1  0.86110800  0.07442800  0.50525700  1
  O  O78  1  0.42557200  0.36110800  0.75525700  1
  O  O79  1  0.57442800  0.63889200  0.25525700  1
  O  O80  1  0.12414900  0.33348500  0.00535300  1
  O  O81  1  0.87585100  0.66651500  0.50535300  1
  O  O82  1  0.16651500  0.62414900  0.25535300  1
  O  O83  1  0.37585100  0.83348500  0.24464700  1
  O  O84  1  0.83348500  0.37585100  0.75535300  1
  O  O85  1  0.62414900  0.16651500  0.74464700  1
  O  O86  1  0.33348500  0.12414900  0.99464700  1
  O  O87  1  0.66651500  0.87585100  0.49464700  1
