# generated using pymatgen
data_Th2N7OF15
_symmetry_space_group_name_H-M   'P 1'
_cell_length_a   13.24361600
_cell_length_b   13.24361600
_cell_length_c   13.24361600
_cell_angle_alpha   90.00000000
_cell_angle_beta   90.00000000
_cell_angle_gamma   90.00000000
_symmetry_Int_Tables_number   1
_chemical_formula_structural   Th2N7OF15
_chemical_formula_sum   'Th8 N28 O4 F60'
_cell_volume   2322.84237177
_cell_formula_units_Z   4
loop_
 _symmetry_equiv_pos_site_id
 _symmetry_equiv_pos_as_xyz
  1  'x, y, z'
loop_
 _atom_site_type_symbol
 _atom_site_label
 _atom_site_symmetry_multiplicity
 _atom_site_fract_x
 _atom_site_fract_y
 _atom_site_fract_z
 _atom_site_occupancy
  Th  Th0  1  0.33857000  0.33857000  0.33857000  1
  Th  Th1  1  0.16143000  0.66143000  0.83857000  1
  Th  Th2  1  0.66143000  0.83857000  0.16143000  1
  Th  Th3  1  0.83857000  0.16143000  0.66143000  1
  Th  Th4  1  0.17715100  0.17715100  0.17715100  1
  Th  Th5  1  0.32284900  0.82284900  0.67715100  1
  Th  Th6  1  0.82284900  0.67715100  0.32284900  1
  Th  Th7  1  0.67715100  0.32284900  0.82284900  1
  N  N8  1  0.50942500  0.50942500  0.50942500  1
  N  N9  1  0.99057500  0.49057500  0.00942500  1
  N  N10  1  0.49057500  0.00942500  0.99057500  1
  N  N11  1  0.00942500  0.99057500  0.49057500  1
  N  N12  1  0.15234700  0.58210200  0.21644300  1
  N  N13  1  0.34765300  0.41789800  0.71644300  1
  N  N14  1  0.84765300  0.08210200  0.28355700  1
  N  N15  1  0.21644300  0.15234700  0.58210200  1
  N  N16  1  0.65234700  0.91789800  0.78355700  1
  N  N17  1  0.71644300  0.34765300  0.41789800  1
  N  N18  1  0.28355700  0.84765300  0.08210200  1
  N  N19  1  0.78355700  0.65234700  0.91789800  1
  N  N20  1  0.58210200  0.21644300  0.15234700  1
  N  N21  1  0.08210200  0.28355700  0.84765300  1
  N  N22  1  0.91789800  0.78355700  0.65234700  1
  N  N23  1  0.41789800  0.71644300  0.34765300  1
  N  N24  1  0.04726800  0.44920600  0.42529700  1
  N  N25  1  0.45273200  0.55079400  0.92529700  1
  N  N26  1  0.95273200  0.94920600  0.07470300  1
  N  N27  1  0.42529700  0.04726800  0.44920600  1
  N  N28  1  0.54726800  0.05079400  0.57470300  1
  N  N29  1  0.92529700  0.45273200  0.55079400  1
  N  N30  1  0.07470300  0.95273200  0.94920600  1
  N  N31  1  0.57470300  0.54726800  0.05079400  1
  N  N32  1  0.44920600  0.42529700  0.04726800  1
  N  N33  1  0.94920600  0.07470300  0.95273200  1
  N  N34  1  0.05079400  0.57470300  0.54726800  1
  N  N35  1  0.55079400  0.92529700  0.45273200  1
  O  O36  1  0.96467300  0.96467300  0.96467300  1
  O  O37  1  0.53532700  0.03532700  0.46467300  1
  O  O38  1  0.03532700  0.46467300  0.53532700  1
  O  O39  1  0.46467300  0.53532700  0.03532700  1
  F  F40  1  0.11486000  0.37016000  0.42282000  1
  F  F41  1  0.38514000  0.62984000  0.92282000  1
  F  F42  1  0.88514000  0.87016000  0.07718000  1
  F  F43  1  0.42282000  0.11486000  0.37016000  1
  F  F44  1  0.61486000  0.12984000  0.57718000  1
  F  F45  1  0.92282000  0.38514000  0.62984000  1
  F  F46  1  0.07718000  0.88514000  0.87016000  1
  F  F47  1  0.57718000  0.61486000  0.12984000  1
  F  F48  1  0.37016000  0.42282000  0.11486000  1
  F  F49  1  0.87016000  0.07718000  0.88514000  1
  F  F50  1  0.12984000  0.57718000  0.61486000  1
  F  F51  1  0.62984000  0.92282000  0.38514000  1
  F  F52  1  0.20257800  0.35152400  0.21935000  1
  F  F53  1  0.29742200  0.64847600  0.71935000  1
  F  F54  1  0.79742200  0.85152400  0.28065000  1
  F  F55  1  0.21935000  0.20257800  0.35152400  1
  F  F56  1  0.70257800  0.14847600  0.78065000  1
  F  F57  1  0.71935000  0.29742200  0.64847600  1
  F  F58  1  0.28065000  0.79742200  0.85152400  1
  F  F59  1  0.78065000  0.70257800  0.14847600  1
  F  F60  1  0.35152400  0.21935000  0.20257800  1
  F  F61  1  0.85152400  0.28065000  0.79742200  1
  F  F62  1  0.14847600  0.78065000  0.70257800  1
  F  F63  1  0.64847600  0.71935000  0.29742200  1
  F  F64  1  0.94260200  0.07840300  0.30993100  1
  F  F65  1  0.55739800  0.92159700  0.80993100  1
  F  F66  1  0.05739800  0.57840300  0.19006900  1
  F  F67  1  0.30993100  0.94260200  0.07840300  1
  F  F68  1  0.44260200  0.42159700  0.69006900  1
  F  F69  1  0.80993100  0.55739800  0.92159700  1
  F  F70  1  0.19006900  0.05739800  0.57840300  1
  F  F71  1  0.69006900  0.44260200  0.42159700  1
  F  F72  1  0.07840300  0.30993100  0.94260200  1
  F  F73  1  0.57840300  0.19006900  0.05739800  1
  F  F74  1  0.42159700  0.69006900  0.44260200  1
  F  F75  1  0.92159700  0.80993100  0.55739800  1
  F  F76  1  0.97853300  0.71426400  0.34863200  1
  F  F77  1  0.52146700  0.28573600  0.84863200  1
  F  F78  1  0.02146700  0.21426400  0.15136800  1
  F  F79  1  0.34863200  0.97853300  0.71426400  1
  F  F80  1  0.47853300  0.78573600  0.65136800  1
  F  F81  1  0.84863200  0.52146700  0.28573600  1
  F  F82  1  0.15136800  0.02146700  0.21426400  1
  F  F83  1  0.65136800  0.47853300  0.78573600  1
  F  F84  1  0.71426400  0.34863200  0.97853300  1
  F  F85  1  0.21426400  0.15136800  0.02146700  1
  F  F86  1  0.78573600  0.65136800  0.47853300  1
  F  F87  1  0.28573600  0.84863200  0.52146700  1
  F  F88  1  0.32009700  0.50011100  0.34427900  1
  F  F89  1  0.17990300  0.49988900  0.84427900  1
  F  F90  1  0.67990300  0.00011100  0.15572100  1
  F  F91  1  0.34427900  0.32009700  0.50011100  1
  F  F92  1  0.82009700  0.99988900  0.65572100  1
  F  F93  1  0.84427900  0.17990300  0.49988900  1
  F  F94  1  0.15572100  0.67990300  0.00011100  1
  F  F95  1  0.65572100  0.82009700  0.99988900  1
  F  F96  1  0.50011100  0.34427900  0.32009700  1
  F  F97  1  0.00011100  0.15572100  0.67990300  1
  F  F98  1  0.99988900  0.65572100  0.82009700  1
  F  F99  1  0.49988900  0.84427900  0.17990300  1
