# generated using pymatgen
data_MnAlPH4O7
_symmetry_space_group_name_H-M   'P 1'
_cell_length_a   6.52081841
_cell_length_b   6.52081841
_cell_length_c   13.57492800
_cell_angle_alpha   90.00000000
_cell_angle_beta   90.00000000
_cell_angle_gamma   109.68871772
_symmetry_Int_Tables_number   1
_chemical_formula_structural   MnAlPH4O7
_chemical_formula_sum   'Mn4 Al4 P4 H16 O28'
_cell_volume   543.47440360
_cell_formula_units_Z   4
loop_
 _symmetry_equiv_pos_site_id
 _symmetry_equiv_pos_as_xyz
  1  'x, y, z'
loop_
 _atom_site_type_symbol
 _atom_site_label
 _atom_site_symmetry_multiplicity
 _atom_site_fract_x
 _atom_site_fract_y
 _atom_site_fract_z
 _atom_site_occupancy
  Mn  Mn0  1  0.63039200  0.86960800  0.75000000  1
  Mn  Mn1  1  0.36960800  0.13039200  0.25000000  1
  Mn  Mn2  1  0.86960800  0.63039200  0.25000000  1
  Mn  Mn3  1  0.13039200  0.36960800  0.75000000  1
  Al  Al4  1  0.50000000  0.00000000  0.50000000  1
  Al  Al5  1  0.00000000  0.50000000  0.00000000  1
  Al  Al6  1  0.50000000  0.00000000  0.00000000  1
  Al  Al7  1  0.00000000  0.50000000  0.50000000  1
  P  P8  1  0.13164500  0.86835500  0.83605600  1
  P  P9  1  0.86835500  0.13164500  0.16394400  1
  P  P10  1  0.36835500  0.63164500  0.33605600  1
  P  P11  1  0.63164500  0.36835500  0.66394400  1
  H  H12  1  0.26332100  0.93537700  0.62184900  1
  H  H13  1  0.73667900  0.06462300  0.37815100  1
  H  H14  1  0.23667900  0.56462300  0.12184900  1
  H  H15  1  0.56462300  0.23667900  0.87815100  1
  H  H16  1  0.76332100  0.43537700  0.87815100  1
  H  H17  1  0.43537700  0.76332100  0.12184900  1
  H  H18  1  0.93537700  0.26332100  0.37815100  1
  H  H19  1  0.06462300  0.73667900  0.62184900  1
  H  H20  1  0.69166100  0.77922900  0.57142400  1
  H  H21  1  0.30833900  0.22077100  0.42857600  1
  H  H22  1  0.80833900  0.72077100  0.07142400  1
  H  H23  1  0.72077100  0.80833900  0.92857600  1
  H  H24  1  0.19166100  0.27922900  0.92857600  1
  H  H25  1  0.27922900  0.19166100  0.07142400  1
  H  H26  1  0.77922900  0.69166100  0.42857600  1
  H  H27  1  0.22077100  0.30833900  0.57142400  1
  O  O28  1  0.24528900  0.75471100  0.76567100  1
  O  O29  1  0.75471100  0.24528900  0.23432900  1
  O  O30  1  0.25471100  0.74528900  0.26567100  1
  O  O31  1  0.74528900  0.25471100  0.73432900  1
  O  O32  1  0.46851900  0.19866200  0.59413200  1
  O  O33  1  0.53148100  0.80133800  0.40586800  1
  O  O34  1  0.03148100  0.30133800  0.09413200  1
  O  O35  1  0.30133800  0.03148100  0.90586800  1
  O  O36  1  0.96851900  0.69866200  0.90586800  1
  O  O37  1  0.69866200  0.96851900  0.09413200  1
  O  O38  1  0.19866200  0.46851900  0.40586800  1
  O  O39  1  0.80133800  0.53148100  0.59413200  1
  O  O40  1  0.50698500  0.49301500  0.72172600  1
  O  O41  1  0.49301500  0.50698500  0.27827400  1
  O  O42  1  0.99301500  0.00698500  0.22172600  1
  O  O43  1  0.00698500  0.99301500  0.77827400  1
  O  O44  1  0.17034200  0.82965700  0.57382100  1
  O  O45  1  0.82965800  0.17034200  0.42617900  1
  O  O46  1  0.32965700  0.67034200  0.07382100  1
  O  O47  1  0.67034200  0.32965800  0.92617900  1
  O  O48  1  0.63275200  0.89134500  0.59268900  1
  O  O49  1  0.36724800  0.10865500  0.40731100  1
  O  O50  1  0.86724800  0.60865500  0.09268900  1
  O  O51  1  0.60865500  0.86724800  0.90731100  1
  O  O52  1  0.13275200  0.39134500  0.90731100  1
  O  O53  1  0.39134500  0.13275200  0.09268900  1
  O  O54  1  0.89134500  0.63275200  0.40731100  1
  O  O55  1  0.10865500  0.36724800  0.59268900  1
