# generated using pymatgen
data_KTi4O8
_symmetry_space_group_name_H-M   'P 1'
_cell_length_a   3.00355800
_cell_length_b   7.37159661
_cell_length_c   7.37159661
_cell_angle_alpha   87.62131833
_cell_angle_beta   78.24512424
_cell_angle_gamma   78.24512424
_symmetry_Int_Tables_number   1
_chemical_formula_structural   KTi4O8
_chemical_formula_sum   'K1 Ti4 O8'
_cell_volume   156.44060783
_cell_formula_units_Z   1
loop_
 _symmetry_equiv_pos_site_id
 _symmetry_equiv_pos_as_xyz
  1  'x, y, z'
loop_
 _atom_site_type_symbol
 _atom_site_label
 _atom_site_symmetry_multiplicity
 _atom_site_fract_x
 _atom_site_fract_y
 _atom_site_fract_z
 _atom_site_occupancy
  K  K0  1  0.00000000  0.00000000  0.00000000  1
  Ti  Ti1  1  0.33059200  0.81765900  0.52115700  1
  Ti  Ti2  1  0.66940800  0.18234100  0.47884300  1
  Ti  Ti3  1  0.85174900  0.47884300  0.81765900  1
  Ti  Ti4  1  0.14825100  0.52115700  0.18234100  1
  O  O5  1  0.29996800  0.04607200  0.35399200  1
  O  O6  1  0.70003200  0.95392800  0.64600800  1
  O  O7  1  0.65396000  0.64600800  0.04607200  1
  O  O8  1  0.34604000  0.35399200  0.95392800  1
  O  O9  1  0.04205200  0.29259400  0.62330100  1
  O  O10  1  0.95794800  0.70740600  0.37669900  1
  O  O11  1  0.66535400  0.37669900  0.29259400  1
  O  O12  1  0.33464600  0.62330100  0.70740600  1
