# generated using pymatgen
data_Li4Pt
_symmetry_space_group_name_H-M   'P 1'
_cell_length_a   6.76530070
_cell_length_b   6.76530070
_cell_length_c   6.76530070
_cell_angle_alpha   60.00000000
_cell_angle_beta   60.00000000
_cell_angle_gamma   60.00000000
_symmetry_Int_Tables_number   1
_chemical_formula_structural   Li4Pt
_chemical_formula_sum   'Li8 Pt2'
_cell_volume   218.95068869
_cell_formula_units_Z   2
loop_
 _symmetry_equiv_pos_site_id
 _symmetry_equiv_pos_as_xyz
  1  'x, y, z'
loop_
 _atom_site_type_symbol
 _atom_site_label
 _atom_site_symmetry_multiplicity
 _atom_site_fract_x
 _atom_site_fract_y
 _atom_site_fract_z
 _atom_site_occupancy
  Li  Li0  1  0.60808100  0.60808100  0.60808100  1
  Li  Li1  1  0.17575600  0.60808100  0.60808100  1
  Li  Li2  1  0.60808100  0.17575600  0.60808100  1
  Li  Li3  1  0.57424400  0.14191900  0.14191900  1
  Li  Li4  1  0.14191900  0.14191900  0.14191900  1
  Li  Li5  1  0.60808100  0.60808100  0.17575600  1
  Li  Li6  1  0.14191900  0.57424400  0.14191900  1
  Li  Li7  1  0.14191900  0.14191900  0.57424400  1
  Pt  Pt8  1  0.00000000  0.00000000  0.00000000  1
  Pt  Pt9  1  0.75000000  0.75000000  0.75000000  1
