# generated using pymatgen
data_NaNiBP2O11
_symmetry_space_group_name_H-M   'P 1'
_cell_length_a   9.17515001
_cell_length_b   9.17515001
_cell_length_c   16.19297500
_cell_angle_alpha   90.00000000
_cell_angle_beta   90.00000000
_cell_angle_gamma   120.00000010
_symmetry_Int_Tables_number   1
_chemical_formula_structural   NaNiBP2O11
_chemical_formula_sum   'Na6 Ni6 B6 P12 O66'
_cell_volume   1180.54793009
_cell_formula_units_Z   6
loop_
 _symmetry_equiv_pos_site_id
 _symmetry_equiv_pos_as_xyz
  1  'x, y, z'
loop_
 _atom_site_type_symbol
 _atom_site_label
 _atom_site_symmetry_multiplicity
 _atom_site_fract_x
 _atom_site_fract_y
 _atom_site_fract_z
 _atom_site_occupancy
  Na  Na0  1  0.19591400  0.39182800  0.25000000  1
  Na  Na1  1  0.60817200  0.80408600  0.58333300  1
  Na  Na2  1  0.80408600  0.60817200  0.75000000  1
  Na  Na3  1  0.39182800  0.19591400  0.08333300  1
  Na  Na4  1  0.19591400  0.80408600  0.91666700  1
  Na  Na5  1  0.80408600  0.19591400  0.41666700  1
  Ni  Ni6  1  0.56478500  0.12957000  0.25000000  1
  Ni  Ni7  1  0.87043000  0.43521500  0.58333300  1
  Ni  Ni8  1  0.43521500  0.87043000  0.75000000  1
  Ni  Ni9  1  0.12957000  0.56478500  0.08333300  1
  Ni  Ni10  1  0.56478500  0.43521500  0.91666700  1
  Ni  Ni11  1  0.43521500  0.56478500  0.41666700  1
  B  B12  1  0.84268900  0.68537700  0.25000000  1
  B  B13  1  0.31462300  0.15731100  0.58333300  1
  B  B14  1  0.15731100  0.31462300  0.75000000  1
  B  B15  1  0.68537700  0.84268900  0.08333300  1
  B  B16  1  0.84268900  0.15731100  0.91666700  1
  B  B17  1  0.15731100  0.84268900  0.41666700  1
  P  P18  1  0.39804100  0.17566500  0.41736000  1
  P  P19  1  0.82433500  0.22237600  0.75069400  1
  P  P20  1  0.60195900  0.82433500  0.91736000  1
  P  P21  1  0.17566500  0.39804100  0.91597300  1
  P  P22  1  0.77762400  0.60195900  0.08402700  1
  P  P23  1  0.17566500  0.77762400  0.25069400  1
  P  P24  1  0.22237600  0.82433500  0.58264000  1
  P  P25  1  0.82433500  0.60195900  0.41597300  1
  P  P26  1  0.22237600  0.39804100  0.58402700  1
  P  P27  1  0.77762400  0.17566500  0.08264000  1
  P  P28  1  0.60195900  0.77762400  0.24930600  1
  P  P29  1  0.39804100  0.22237600  0.74930600  1
  O  O30  1  0.42887400  0.18693400  0.51289800  1
  O  O31  1  0.81306600  0.24194100  0.84623200  1
  O  O32  1  0.57112600  0.81306600  0.01289800  1
  O  O33  1  0.18693400  0.42887400  0.82043500  1
  O  O34  1  0.75805900  0.57112600  0.17956500  1
  O  O35  1  0.18693400  0.75805900  0.34623200  1
  O  O36  1  0.24194100  0.81306600  0.48710200  1
  O  O37  1  0.81306600  0.57112600  0.32043500  1
  O  O38  1  0.24194100  0.42887400  0.67956500  1
  O  O39  1  0.75805900  0.18693400  0.98710200  1
  O  O40  1  0.57112600  0.75805900  0.15376800  1
  O  O41  1  0.42887400  0.24194100  0.65376800  1
  O  O42  1  0.26722800  0.46711400  0.10373700  1
  O  O43  1  0.53288600  0.80011400  0.43707100  1
  O  O44  1  0.73277200  0.53288600  0.60373700  1
  O  O45  1  0.46711400  0.26722800  0.22959600  1
  O  O46  1  0.19988600  0.73277200  0.77040400  1
  O  O47  1  0.46711400  0.19988600  0.93707100  1
  O  O48  1  0.80011400  0.53288600  0.89626300  1
  O  O49  1  0.53288600  0.73277200  0.72959600  1
  O  O50  1  0.80011400  0.26722800  0.27040400  1
  O  O51  1  0.19988600  0.46711400  0.39626300  1
  O  O52  1  0.73277200  0.19988600  0.56292900  1
  O  O53  1  0.26722800  0.80011400  0.06292900  1
  O  O54  1  0.61709100  0.15383800  0.12329300  1
  O  O55  1  0.84616200  0.46325300  0.45662700  1
  O  O56  1  0.38290900  0.84616200  0.62329300  1
  O  O57  1  0.15383800  0.61709100  0.21004000  1
  O  O58  1  0.53674700  0.38290900  0.78996000  1
  O  O59  1  0.15383800  0.53674700  0.95662700  1
  O  O60  1  0.46325300  0.84616200  0.87670700  1
  O  O61  1  0.84616200  0.38290900  0.71004000  1
  O  O62  1  0.46325300  0.61709100  0.28996000  1
  O  O63  1  0.53674700  0.15383800  0.37670700  1
  O  O64  1  0.38290900  0.53674700  0.54337300  1
  O  O65  1  0.61709100  0.46325300  0.04337300  1
  O  O66  1  0.22133000  0.02143800  0.39859700  1
  O  O67  1  0.97856200  0.19989200  0.73193100  1
  O  O68  1  0.77867000  0.97856200  0.89859700  1
  O  O69  1  0.02143800  0.22133000  0.93473600  1
  O  O70  1  0.80010800  0.77867000  0.06526400  1
  O  O71  1  0.02143800  0.80010800  0.23193100  1
  O  O72  1  0.19989200  0.97856200  0.60140300  1
  O  O73  1  0.97856200  0.77867000  0.43473600  1
  O  O74  1  0.19989200  0.22133000  0.56526400  1
  O  O75  1  0.80010800  0.02143800  0.10140300  1
  O  O76  1  0.77867000  0.80010800  0.26806900  1
  O  O77  1  0.22133000  0.19989200  0.76806900  1
  O  O78  1  0.39292200  0.32995800  0.38331800  1
  O  O79  1  0.67004200  0.06296300  0.71665100  1
  O  O80  1  0.60707800  0.67004200  0.88331800  1
  O  O81  1  0.32995800  0.39292200  0.95001500  1
  O  O82  1  0.93703700  0.60707800  0.04998500  1
  O  O83  1  0.32995800  0.93703700  0.21665100  1
  O  O84  1  0.06296300  0.67004200  0.61668200  1
  O  O85  1  0.67004200  0.60707800  0.45001500  1
  O  O86  1  0.06296300  0.39292200  0.54998500  1
  O  O87  1  0.93703700  0.32995800  0.11668200  1
  O  O88  1  0.60707800  0.93703700  0.28334900  1
  O  O89  1  0.39292200  0.06296300  0.78334900  1
  O  O90  1  0.16159200  0.00000000  0.00000000  1
  O  O91  1  0.00000000  0.16159200  0.33333300  1
  O  O92  1  0.83840800  0.00000000  0.50000000  1
  O  O93  1  0.83840800  0.83840800  0.66666700  1
  O  O94  1  0.00000000  0.83840800  0.83333300  1
  O  O95  1  0.16159200  0.16159200  0.16666700  1
