# generated using pymatgen
data_MgC2S2(N3O7)2
_symmetry_space_group_name_H-M   'P 1'
_cell_length_a   7.34538800
_cell_length_b   9.77794200
_cell_length_c   12.11477094
_cell_angle_alpha   79.02164750
_cell_angle_beta   90.00000000
_cell_angle_gamma   90.00000000
_symmetry_Int_Tables_number   1
_chemical_formula_structural   MgC2S2(N3O7)2
_chemical_formula_sum   'Mg2 C4 S4 N12 O28'
_cell_volume   854.19267794
_cell_formula_units_Z   2
loop_
 _symmetry_equiv_pos_site_id
 _symmetry_equiv_pos_as_xyz
  1  'x, y, z'
loop_
 _atom_site_type_symbol
 _atom_site_label
 _atom_site_symmetry_multiplicity
 _atom_site_fract_x
 _atom_site_fract_y
 _atom_site_fract_z
 _atom_site_occupancy
  Mg  Mg0  1  0.50000000  0.00000000  0.50000000  1
  Mg  Mg1  1  0.00000000  0.00000000  0.00000000  1
  C  C2  1  0.44779000  0.36096800  0.76604400  1
  C  C3  1  0.55221000  0.63903200  0.23395600  1
  C  C4  1  0.94779000  0.63903200  0.73395600  1
  C  C5  1  0.05221000  0.36096800  0.26604400  1
  S  S6  1  0.43187800  0.75619800  0.87897300  1
  S  S7  1  0.56812200  0.24380200  0.12102700  1
  S  S8  1  0.93187800  0.24380200  0.62102700  1
  S  S9  1  0.06812200  0.75619800  0.37897300  1
  N  N10  1  0.29800700  0.33617100  0.83160500  1
  N  N11  1  0.70199300  0.66382900  0.16839500  1
  N  N12  1  0.79800700  0.66382900  0.66839500  1
  N  N13  1  0.20199300  0.33617100  0.33160500  1
  N  N14  1  0.11042300  0.62142200  0.68633500  1
  N  N15  1  0.88957700  0.37857800  0.31366500  1
  N  N16  1  0.61042300  0.37857800  0.81366500  1
  N  N17  1  0.38957700  0.62142200  0.18633500  1
  N  N18  1  0.43530600  0.36982300  0.65290900  1
  N  N19  1  0.56469400  0.63017700  0.34709100  1
  N  N20  1  0.93530600  0.63017700  0.84709100  1
  N  N21  1  0.06469400  0.36982300  0.15290900  1
  O  O22  1  0.37043800  0.91124500  0.84531200  1
  O  O23  1  0.62956200  0.08875500  0.15468800  1
  O  O24  1  0.87043800  0.08875500  0.65468800  1
  O  O25  1  0.12956200  0.91124500  0.34531200  1
  O  O26  1  0.28703400  0.67344900  0.95113400  1
  O  O27  1  0.71296600  0.32655100  0.04886600  1
  O  O28  1  0.78703400  0.32655100  0.54886600  1
  O  O29  1  0.21296600  0.67344900  0.45113400  1
  O  O30  1  0.08679100  0.93904000  0.85290100  1
  O  O31  1  0.91320900  0.06096000  0.14709900  1
  O  O32  1  0.58679100  0.06096000  0.64709900  1
  O  O33  1  0.41320900  0.93904000  0.35290100  1
  O  O34  1  0.43747300  0.69854700  0.77488600  1
  O  O35  1  0.56252700  0.30145300  0.22511400  1
  O  O36  1  0.93747300  0.30145300  0.72511400  1
  O  O37  1  0.06252700  0.69854700  0.27488600  1
  O  O38  1  0.10699700  0.24508800  0.56540800  1
  O  O39  1  0.89300300  0.75491200  0.43459200  1
  O  O40  1  0.60699700  0.75491200  0.93459200  1
  O  O41  1  0.39300300  0.24508800  0.06540800  1
  O  O42  1  0.72412100  0.02514500  0.00588000  1
  O  O43  1  0.27587900  0.97485500  0.99412000  1
  O  O44  1  0.22412100  0.97485500  0.49412000  1
  O  O45  1  0.77587900  0.02514500  0.50588000  1
  O  O46  1  0.39942500  0.79126600  0.51382500  1
  O  O47  1  0.60057500  0.20873400  0.48617500  1
  O  O48  1  0.89942500  0.20873400  0.98617500  1
  O  O49  1  0.10057500  0.79126600  0.01382500  1
