# generated using pymatgen
data_La2I2O
_symmetry_space_group_name_H-M   'P 1'
_cell_length_a   4.52798300
_cell_length_b   4.52798300
_cell_length_c   15.14114000
_cell_angle_alpha   90.00000000
_cell_angle_beta   90.00000000
_cell_angle_gamma   90.00000000
_symmetry_Int_Tables_number   1
_chemical_formula_structural   La2I2O
_chemical_formula_sum   'La2 I2 O1'
_cell_volume   310.43319193
_cell_formula_units_Z   1
loop_
 _symmetry_equiv_pos_site_id
 _symmetry_equiv_pos_as_xyz
  1  'x, y, z'
loop_
 _atom_site_type_symbol
 _atom_site_label
 _atom_site_symmetry_multiplicity
 _atom_site_fract_x
 _atom_site_fract_y
 _atom_site_fract_z
 _atom_site_occupancy
  La  La0  1  0.50000000  0.50000000  0.13917300  1
  La  La1  1  0.50000000  0.50000000  0.86082700  1
  I  I2  1  0.50000000  0.50000000  0.66385900  1
  I  I3  1  0.50000000  0.50000000  0.33614100  1
  O  O4  1  0.50000000  0.50000000  0.00000000  1
