# generated using pymatgen
data_KHg5Br11
_symmetry_space_group_name_H-M   'P 1'
_cell_length_a   10.15055095
_cell_length_b   10.15055095
_cell_length_c   6.99065279
_cell_angle_alpha   72.22315268
_cell_angle_beta   72.22315268
_cell_angle_gamma   101.12555116
_symmetry_Int_Tables_number   1
_chemical_formula_structural   KHg5Br11
_chemical_formula_sum   'K1 Hg5 Br11'
_cell_volume   619.75451329
_cell_formula_units_Z   1
loop_
 _symmetry_equiv_pos_site_id
 _symmetry_equiv_pos_as_xyz
  1  'x, y, z'
loop_
 _atom_site_type_symbol
 _atom_site_label
 _atom_site_symmetry_multiplicity
 _atom_site_fract_x
 _atom_site_fract_y
 _atom_site_fract_z
 _atom_site_occupancy
  K  K0  1  0.00000000  0.00000000  0.00000000  1
  Hg  Hg1  1  0.34655700  0.01546500  0.31621300  1
  Hg  Hg2  1  0.65344300  0.98453500  0.68378700  1
  Hg  Hg3  1  0.98453500  0.65344300  0.68378700  1
  Hg  Hg4  1  0.01546500  0.34655700  0.31621300  1
  Hg  Hg5  1  0.50000000  0.50000000  0.00000000  1
  Br  Br6  1  0.64780500  0.64780500  0.60976600  1
  Br  Br7  1  0.35219500  0.35219500  0.39023400  1
  Br  Br8  1  0.70391200  0.13983200  0.30139400  1
  Br  Br9  1  0.29608800  0.86016800  0.69860600  1
  Br  Br10  1  0.86016800  0.29608800  0.69860600  1
  Br  Br11  1  0.13983200  0.70391200  0.30139400  1
  Br  Br12  1  0.00000000  0.00000000  0.50000000  1
  Br  Br13  1  0.58167300  0.83091000  0.07296300  1
  Br  Br14  1  0.41832700  0.16909000  0.92703700  1
  Br  Br15  1  0.16909000  0.41832700  0.92703700  1
  Br  Br16  1  0.83091000  0.58167300  0.07296300  1
