# generated using pymatgen
data_KYb(MoO4)2
_symmetry_space_group_name_H-M   'P 1'
_cell_length_a   7.54280123
_cell_length_b   7.54280123
_cell_length_c   7.78947135
_cell_angle_alpha   61.81146953
_cell_angle_beta   61.81146953
_cell_angle_gamma   87.97848077
_symmetry_Int_Tables_number   1
_chemical_formula_structural   KYb(MoO4)2
_chemical_formula_sum   'K2 Yb2 Mo4 O16'
_cell_volume   334.06632060
_cell_formula_units_Z   2
loop_
 _symmetry_equiv_pos_site_id
 _symmetry_equiv_pos_as_xyz
  1  'x, y, z'
loop_
 _atom_site_type_symbol
 _atom_site_label
 _atom_site_symmetry_multiplicity
 _atom_site_fract_x
 _atom_site_fract_y
 _atom_site_fract_z
 _atom_site_occupancy
  K  K0  1  0.19976800  0.80023200  0.75000000  1
  K  K1  1  0.80023200  0.19976800  0.25000000  1
  Yb  Yb2  1  0.77062000  0.22938000  0.75000000  1
  Yb  Yb3  1  0.22938000  0.77062000  0.25000000  1
  Mo  Mo4  1  0.69682900  0.69949600  0.75827900  1
  Mo  Mo5  1  0.30317100  0.30050400  0.24172100  1
  Mo  Mo6  1  0.30050400  0.30317100  0.74172100  1
  Mo  Mo7  1  0.69949600  0.69682900  0.25827900  1
  O  O8  1  0.61394700  0.76878200  0.55805300  1
  O  O9  1  0.38605300  0.23121800  0.44194700  1
  O  O10  1  0.23121800  0.38605300  0.94194700  1
  O  O11  1  0.76878200  0.61394700  0.05805300  1
  O  O12  1  0.38372100  0.06894200  0.87021100  1
  O  O13  1  0.61627900  0.93105800  0.12978900  1
  O  O14  1  0.93105800  0.61627900  0.62978900  1
  O  O15  1  0.06894200  0.38372100  0.37021100  1
  O  O16  1  0.58263500  0.36901300  0.97261000  1
  O  O17  1  0.41736500  0.63098700  0.02739000  1
  O  O18  1  0.63098700  0.41736500  0.52739000  1
  O  O19  1  0.36901300  0.58263500  0.47261000  1
  O  O20  1  0.79267700  0.95195400  0.69120400  1
  O  O21  1  0.20732300  0.04804600  0.30879600  1
  O  O22  1  0.04804600  0.20732300  0.80879600  1
  O  O23  1  0.95195400  0.79267700  0.19120400  1
