# generated using pymatgen
data_NiSn3(ClO)6
_symmetry_space_group_name_H-M   'P 1'
_cell_length_a   8.28313108
_cell_length_b   5.87903746
_cell_length_c   10.70814171
_cell_angle_alpha   77.69670647
_cell_angle_beta   106.69971139
_cell_angle_gamma   134.14311499
_symmetry_Int_Tables_number   1
_chemical_formula_structural   NiSn3(ClO)6
_chemical_formula_sum   'Ni1 Sn3 Cl6 O6'
_cell_volume   358.34989203
_cell_formula_units_Z   1
loop_
 _symmetry_equiv_pos_site_id
 _symmetry_equiv_pos_as_xyz
  1  'x, y, z'
loop_
 _atom_site_type_symbol
 _atom_site_label
 _atom_site_symmetry_multiplicity
 _atom_site_fract_x
 _atom_site_fract_y
 _atom_site_fract_z
 _atom_site_occupancy
  Ni  Ni0  1  0.00000000  0.00000000  0.00000000  1
  Sn  Sn1  1  0.00000000  0.00000000  0.50000000  1
  Sn  Sn2  1  0.50000000  0.50000000  0.00000000  1
  Sn  Sn3  1  0.00000000  0.50000000  0.00000000  1
  Cl  Cl4  1  0.69863100  0.00089100  0.48919900  1
  Cl  Cl5  1  0.30136900  0.99910900  0.51080100  1
  Cl  Cl6  1  0.40005100  0.53684400  0.76552600  1
  Cl  Cl7  1  0.59994900  0.46315600  0.23447400  1
  Cl  Cl8  1  0.80468000  0.53398400  0.69825300  1
  Cl  Cl9  1  0.19532000  0.46601600  0.30174700  1
  O  O10  1  0.98495800  0.50995700  0.79978000  1
  O  O11  1  0.01504200  0.49004300  0.20022000  1
  O  O12  1  0.77667300  0.56455400  0.97871700  1
  O  O13  1  0.22332700  0.43544600  0.02128300  1
  O  O14  1  0.78417800  0.99943300  0.00482500  1
  O  O15  1  0.21582200  0.00056700  0.99517500  1
