# generated using pymatgen
data_NaCu2H3O10
_symmetry_space_group_name_H-M   'P 1'
_cell_length_a   6.21355848
_cell_length_b   6.21355848
_cell_length_c   6.87066560
_cell_angle_alpha   67.01535992
_cell_angle_beta   67.01535992
_cell_angle_gamma   57.02092625
_symmetry_Int_Tables_number   1
_chemical_formula_structural   NaCu2H3O10
_chemical_formula_sum   'Na1 Cu2 H3 O10'
_cell_volume   199.34492415
_cell_formula_units_Z   1
loop_
 _symmetry_equiv_pos_site_id
 _symmetry_equiv_pos_as_xyz
  1  'x, y, z'
loop_
 _atom_site_type_symbol
 _atom_site_label
 _atom_site_symmetry_multiplicity
 _atom_site_fract_x
 _atom_site_fract_y
 _atom_site_fract_z
 _atom_site_occupancy
  Na  Na0  1  0.00000000  0.00000000  0.00000000  1
  Cu  Cu1  1  0.50000000  0.00000000  0.50000000  1
  Cu  Cu2  1  0.00000000  0.50000000  0.50000000  1
  H  H3  1  0.49453500  0.49453500  0.25185300  1
  H  H4  1  0.50546500  0.50546500  0.74814700  1
  H  H5  1  0.50000000  0.50000000  0.50000000  1
  O  O6  1  0.27905000  0.27905000  0.83157000  1
  O  O7  1  0.72095000  0.72095000  0.16843000  1
  O  O8  1  0.42841000  0.42841000  0.40454600  1
  O  O9  1  0.57159000  0.57159000  0.59545400  1
  O  O10  1  0.40863600  0.01971100  0.81786600  1
  O  O11  1  0.59136400  0.98028900  0.18213400  1
  O  O12  1  0.98028900  0.59136400  0.18213400  1
  O  O13  1  0.01971100  0.40863600  0.81786600  1
  O  O14  1  0.14809200  0.14809200  0.52910500  1
  O  O15  1  0.85190800  0.85190800  0.47089500  1
