# generated using pymatgen
data_LaWO2
_symmetry_space_group_name_H-M   'P 1'
_cell_length_a   7.75765991
_cell_length_b   7.75765991
_cell_length_c   7.75765991
_cell_angle_alpha   130.91601494
_cell_angle_beta   130.91601494
_cell_angle_gamma   71.94654767
_symmetry_Int_Tables_number   1
_chemical_formula_structural   LaWO2
_chemical_formula_sum   'La4 W4 O8'
_cell_volume   260.73924330
_cell_formula_units_Z   4
loop_
 _symmetry_equiv_pos_site_id
 _symmetry_equiv_pos_as_xyz
  1  'x, y, z'
loop_
 _atom_site_type_symbol
 _atom_site_label
 _atom_site_symmetry_multiplicity
 _atom_site_fract_x
 _atom_site_fract_y
 _atom_site_fract_z
 _atom_site_occupancy
  La  La0  1  0.87500000  0.62500000  0.25000000  1
  La  La1  1  0.37500000  0.62500000  0.75000000  1
  La  La2  1  0.37500000  0.62500000  0.25000000  1
  La  La3  1  0.37500000  0.12500000  0.75000000  1
  W  W4  1  0.37500000  0.12500000  0.25000000  1
  W  W5  1  0.87500000  0.12500000  0.75000000  1
  W  W6  1  0.87500000  0.12500000  0.25000000  1
  W  W7  1  0.87500000  0.62500000  0.75000000  1
  O  O8  1  0.17862800  0.39213200  0.21350400  1
  O  O9  1  0.17862800  0.96512500  0.78649600  1
  O  O10  1  0.14213200  0.42862800  0.71350400  1
  O  O11  1  0.57137200  0.85786800  0.28649600  1
  O  O12  1  0.71512500  0.42862800  0.28649600  1
  O  O13  1  0.57137200  0.28487500  0.71350400  1
  O  O14  1  0.60786800  0.82137200  0.78649600  1
  O  O15  1  0.03487500  0.82137200  0.21350400  1
