# generated using pymatgen
data_Na3BiF6
_symmetry_space_group_name_H-M   'P 1'
_cell_length_a   6.24227216
_cell_length_b   8.78615043
_cell_length_c   8.60308290
_cell_angle_alpha   79.17877299
_cell_angle_beta   102.75210336
_cell_angle_gamma   131.92157202
_symmetry_Int_Tables_number   1
_chemical_formula_structural   Na3BiF6
_chemical_formula_sum   'Na3 Bi1 F6'
_cell_volume   341.89063053
_cell_formula_units_Z   1
loop_
 _symmetry_equiv_pos_site_id
 _symmetry_equiv_pos_as_xyz
  1  'x, y, z'
loop_
 _atom_site_type_symbol
 _atom_site_label
 _atom_site_symmetry_multiplicity
 _atom_site_fract_x
 _atom_site_fract_y
 _atom_site_fract_z
 _atom_site_occupancy
  Na  Na0  1  0.00000000  0.00000000  0.50000000  1
  Na  Na1  1  0.50000000  0.50000000  0.00000000  1
  Na  Na2  1  0.00000000  0.50000000  0.00000000  1
  Bi  Bi3  1  0.00000000  0.00000000  0.00000000  1
  F  F4  1  0.03043500  0.27987100  0.92997500  1
  F  F5  1  0.96956500  0.72012900  0.07002500  1
  F  F6  1  0.95547100  0.94858900  0.74120800  1
  F  F7  1  0.04452900  0.05141100  0.25879200  1
  F  F8  1  0.49899300  0.74949800  0.98786100  1
  F  F9  1  0.50100700  0.25050200  0.01213900  1
