# generated using pymatgen
data_KPO4
_symmetry_space_group_name_H-M   'P 1'
_cell_length_a   7.68459700
_cell_length_b   7.40539000
_cell_length_c   9.66213716
_cell_angle_alpha   50.36143974
_cell_angle_beta   90.00000000
_cell_angle_gamma   90.00000000
_symmetry_Int_Tables_number   1
_chemical_formula_structural   KPO4
_chemical_formula_sum   'K4 P4 O16'
_cell_volume   423.42878216
_cell_formula_units_Z   4
loop_
 _symmetry_equiv_pos_site_id
 _symmetry_equiv_pos_as_xyz
  1  'x, y, z'
loop_
 _atom_site_type_symbol
 _atom_site_label
 _atom_site_symmetry_multiplicity
 _atom_site_fract_x
 _atom_site_fract_y
 _atom_site_fract_z
 _atom_site_occupancy
  K  K0  1  0.80409800  0.38298700  0.21586200  1
  K  K1  1  0.19590200  0.61701300  0.78413800  1
  K  K2  1  0.30409800  0.61701300  0.28413800  1
  K  K3  1  0.69590200  0.38298700  0.71586200  1
  P  P4  1  0.79955700  0.84922300  0.24537100  1
  P  P5  1  0.20044300  0.15077700  0.75462900  1
  P  P6  1  0.29955700  0.15077700  0.25462900  1
  P  P7  1  0.70044300  0.84922300  0.74537100  1
  O  O8  1  0.21980800  0.90545200  0.39731800  1
  O  O9  1  0.78019200  0.09454800  0.60268200  1
  O  O10  1  0.71980800  0.09454800  0.10268200  1
  O  O11  1  0.28019200  0.90545200  0.89731800  1
  O  O12  1  0.87378900  0.84306200  0.39820900  1
  O  O13  1  0.12621100  0.15693800  0.60179100  1
  O  O14  1  0.37378900  0.15693800  0.10179100  1
  O  O15  1  0.62621100  0.84306200  0.89820900  1
  O  O16  1  0.95074200  0.80189400  0.16697300  1
  O  O17  1  0.04925800  0.19810600  0.83302700  1
  O  O18  1  0.45074200  0.19810600  0.33302700  1
  O  O19  1  0.54925800  0.80189400  0.66697300  1
  O  O20  1  0.66374700  0.65331700  0.32598100  1
  O  O21  1  0.33625300  0.34668300  0.67401900  1
  O  O22  1  0.16374700  0.34668300  0.17401900  1
  O  O23  1  0.83625300  0.65331700  0.82598100  1
