# generated using pymatgen
data_KReO2
_symmetry_space_group_name_H-M   'P 1'
_cell_length_a   7.91196365
_cell_length_b   7.91196365
_cell_length_c   7.91196365
_cell_angle_alpha   133.04796183
_cell_angle_beta   133.04796183
_cell_angle_gamma   68.57883672
_symmetry_Int_Tables_number   1
_chemical_formula_structural   KReO2
_chemical_formula_sum   'K4 Re4 O8'
_cell_volume   259.75389007
_cell_formula_units_Z   4
loop_
 _symmetry_equiv_pos_site_id
 _symmetry_equiv_pos_as_xyz
  1  'x, y, z'
loop_
 _atom_site_type_symbol
 _atom_site_label
 _atom_site_symmetry_multiplicity
 _atom_site_fract_x
 _atom_site_fract_y
 _atom_site_fract_z
 _atom_site_occupancy
  K  K0  1  0.87500000  0.62500000  0.25000000  1
  K  K1  1  0.37500000  0.62500000  0.75000000  1
  K  K2  1  0.37500000  0.62500000  0.25000000  1
  K  K3  1  0.37500000  0.12500000  0.75000000  1
  Re  Re4  1  0.37500000  0.12500000  0.25000000  1
  Re  Re5  1  0.87500000  0.12500000  0.75000000  1
  Re  Re6  1  0.87500000  0.12500000  0.25000000  1
  Re  Re7  1  0.87500000  0.62500000  0.75000000  1
  O  O8  1  0.15447200  0.34112600  0.18665300  1
  O  O9  1  0.15447200  0.96781900  0.81334700  1
  O  O10  1  0.09112600  0.40447200  0.68665300  1
  O  O11  1  0.59552800  0.90887400  0.31334700  1
  O  O12  1  0.71781900  0.40447200  0.31334700  1
  O  O13  1  0.59552800  0.28218100  0.68665300  1
  O  O14  1  0.65887400  0.84552800  0.81334700  1
  O  O15  1  0.03218100  0.84552800  0.18665300  1
