# generated using pymatgen
data_KLiErF5
_symmetry_space_group_name_H-M   'P 1'
_cell_length_a   6.45586802
_cell_length_b   6.30894430
_cell_length_c   11.81239200
_cell_angle_alpha   90.00000000
_cell_angle_beta   90.00000000
_cell_angle_gamma   113.96729899
_symmetry_Int_Tables_number   1
_chemical_formula_structural   KLiErF5
_chemical_formula_sum   'K4 Li4 Er4 F20'
_cell_volume   439.63233115
_cell_formula_units_Z   4
loop_
 _symmetry_equiv_pos_site_id
 _symmetry_equiv_pos_as_xyz
  1  'x, y, z'
loop_
 _atom_site_type_symbol
 _atom_site_label
 _atom_site_symmetry_multiplicity
 _atom_site_fract_x
 _atom_site_fract_y
 _atom_site_fract_z
 _atom_site_occupancy
  K  K0  1  0.94685500  0.96260400  0.35000500  1
  K  K1  1  0.05314500  0.03739600  0.64999500  1
  K  K2  1  0.05314500  0.53739600  0.85000500  1
  K  K3  1  0.94685500  0.46260400  0.14999500  1
  Li  Li4  1  0.55799400  0.96185200  0.74572900  1
  Li  Li5  1  0.44200600  0.03814800  0.25427100  1
  Li  Li6  1  0.44200600  0.53814800  0.24572900  1
  Li  Li7  1  0.55799400  0.46185200  0.75427100  1
  Er  Er8  1  0.68142600  0.81971000  0.99789200  1
  Er  Er9  1  0.31857400  0.18029000  0.00210800  1
  Er  Er10  1  0.31857400  0.68029000  0.49789200  1
  Er  Er11  1  0.68142600  0.31971000  0.50210800  1
  F  F12  1  0.72118200  0.77776200  0.80712400  1
  F  F13  1  0.27881800  0.22223800  0.19287600  1
  F  F14  1  0.27881800  0.72223800  0.30712400  1
  F  F15  1  0.72118200  0.27776200  0.69287600  1
  F  F16  1  0.66441900  0.95303000  0.53110700  1
  F  F17  1  0.33558100  0.04697000  0.46889300  1
  F  F18  1  0.33558100  0.54697000  0.03110700  1
  F  F19  1  0.66441900  0.45303000  0.96889300  1
  F  F20  1  0.95509200  0.67141400  0.50674800  1
  F  F21  1  0.04490800  0.32858600  0.49325200  1
  F  F22  1  0.04490800  0.82858600  0.00674800  1
  F  F23  1  0.95509200  0.17141400  0.99325200  1
  F  F24  1  0.46452700  0.96622800  0.89616000  1
  F  F25  1  0.53547300  0.03377200  0.10384000  1
  F  F26  1  0.53547300  0.53377200  0.39616000  1
  F  F27  1  0.46452700  0.46622800  0.60384000  1
  F  F28  1  0.28624600  0.77617800  0.67309000  1
  F  F29  1  0.71375400  0.22382200  0.32691000  1
  F  F30  1  0.71375400  0.72382200  0.17309000  1
  F  F31  1  0.28624600  0.27617800  0.82691000  1
