# generated using pymatgen
data_K2YbSbO7
_symmetry_space_group_name_H-M   'P 1'
_cell_length_a   8.19137207
_cell_length_b   8.19137207
_cell_length_c   8.19137207
_cell_angle_alpha   120.67330137
_cell_angle_beta   119.16077545
_cell_angle_gamma   90.14873234
_symmetry_Int_Tables_number   1
_chemical_formula_structural   K2YbSbO7
_chemical_formula_sum   'K4 Yb2 Sb2 O14'
_cell_volume   389.04813148
_cell_formula_units_Z   2
loop_
 _symmetry_equiv_pos_site_id
 _symmetry_equiv_pos_as_xyz
  1  'x, y, z'
loop_
 _atom_site_type_symbol
 _atom_site_label
 _atom_site_symmetry_multiplicity
 _atom_site_fract_x
 _atom_site_fract_y
 _atom_site_fract_z
 _atom_site_occupancy
  K  K0  1  0.50000000  0.50000000  0.00000000  1
  K  K1  1  0.00000000  0.00000000  0.00000000  1
  K  K2  1  0.00000000  0.50000000  0.00000000  1
  K  K3  1  0.00000000  0.00000000  0.50000000  1
  Yb  Yb4  1  0.50000000  0.50000000  0.50000000  1
  Yb  Yb5  1  0.50000000  0.00000000  0.00000000  1
  Sb  Sb6  1  0.00000000  0.50000000  0.50000000  1
  Sb  Sb7  1  0.50000000  0.00000000  0.50000000  1
  O  O8  1  0.87647900  0.58408200  0.29239700  1
  O  O9  1  0.20831600  0.91591800  0.29239700  1
  O  O10  1  0.17281400  0.78808700  0.74278800  1
  O  O11  1  0.45470100  0.71191300  0.38472600  1
  O  O12  1  0.45470100  0.06997400  0.74278800  1
  O  O13  1  0.17281400  0.43002600  0.38472600  1
  O  O14  1  0.82718600  0.56997400  0.61527400  1
  O  O15  1  0.54529900  0.93002600  0.25721200  1
  O  O16  1  0.54529900  0.28808700  0.61527400  1
  O  O17  1  0.82718600  0.21191300  0.25721200  1
  O  O18  1  0.38371200  0.25000000  0.13371200  1
  O  O19  1  0.12352100  0.41591800  0.70760300  1
  O  O20  1  0.79168400  0.08408200  0.70760300  1
  O  O21  1  0.61628800  0.75000000  0.86628800  1
