# generated using pymatgen
data_La10Al5I8
_symmetry_space_group_name_H-M   'P 1'
_cell_length_a   10.23426690
_cell_length_b   10.23426690
_cell_length_c   18.21242623
_cell_angle_alpha   84.07358717
_cell_angle_beta   84.07358717
_cell_angle_gamma   24.85353351
_symmetry_Int_Tables_number   1
_chemical_formula_structural   La10Al5I8
_chemical_formula_sum   'La10 Al5 I8'
_cell_volume   797.25951228
_cell_formula_units_Z   1
loop_
 _symmetry_equiv_pos_site_id
 _symmetry_equiv_pos_as_xyz
  1  'x, y, z'
loop_
 _atom_site_type_symbol
 _atom_site_label
 _atom_site_symmetry_multiplicity
 _atom_site_fract_x
 _atom_site_fract_y
 _atom_site_fract_z
 _atom_site_occupancy
  La  La0  1  0.87152500  0.87152500  0.32452300  1
  La  La1  1  0.12847500  0.12847500  0.67547700  1
  La  La2  1  0.53720300  0.53720300  0.38956400  1
  La  La3  1  0.46279700  0.46279700  0.61043600  1
  La  La4  1  0.51555600  0.51555600  0.11150500  1
  La  La5  1  0.48444400  0.48444400  0.88849500  1
  La  La6  1  0.78918700  0.78918700  0.56690500  1
  La  La7  1  0.21081300  0.21081300  0.43309500  1
  La  La8  1  0.85257600  0.85257600  0.04432400  1
  La  La9  1  0.14742400  0.14742400  0.95567600  1
  Al  Al10  1  0.93902200  0.93902200  0.48118000  1
  Al  Al11  1  0.06097800  0.06097800  0.51882000  1
  Al  Al12  1  0.62791800  0.62791800  0.54661600  1
  Al  Al13  1  0.37208200  0.37208200  0.45338400  1
  Al  Al14  1  0.00000000  0.00000000  0.00000000  1
  I  I15  1  0.35398400  0.35398400  0.18000500  1
  I  I16  1  0.64601600  0.64601600  0.81999500  1
  I  I17  1  0.96960300  0.96960300  0.74964200  1
  I  I18  1  0.03039700  0.03039700  0.25035800  1
  I  I19  1  0.70372000  0.70372000  0.30107400  1
  I  I20  1  0.29628000  0.29628000  0.69892600  1
  I  I21  1  0.68218900  0.68218900  0.08079700  1
  I  I22  1  0.31781100  0.31781100  0.91920300  1
