# generated using pymatgen
data_Rb3Cd(NO2)3
_symmetry_space_group_name_H-M   'P 1'
_cell_length_a   11.81447712
_cell_length_b   7.38124804
_cell_length_c   12.74711782
_cell_angle_alpha   107.17323834
_cell_angle_beta   62.34996358
_cell_angle_gamma   129.57309493
_symmetry_Int_Tables_number   1
_chemical_formula_structural   Rb3Cd(NO2)3
_chemical_formula_sum   'Rb3 Cd1 N3 O6'
_cell_volume   758.99687484
_cell_formula_units_Z   1
loop_
 _symmetry_equiv_pos_site_id
 _symmetry_equiv_pos_as_xyz
  1  'x, y, z'
loop_
 _atom_site_type_symbol
 _atom_site_label
 _atom_site_symmetry_multiplicity
 _atom_site_fract_x
 _atom_site_fract_y
 _atom_site_fract_z
 _atom_site_occupancy
  Rb  Rb0  1  0.00994100  0.96804200  0.59732900  1
  Rb  Rb1  1  0.59050300  0.64258400  0.03235200  1
  Rb  Rb2  1  0.95803200  0.42107800  0.01643300  1
  Cd  Cd3  1  0.03213500  0.99131000  0.99502500  1
  N  N4  1  0.62947300  0.78752400  0.79254800  1
  N  N5  1  0.98957000  0.38725500  0.77010500  1
  N  N6  1  0.61867100  0.80507400  0.67733400  1
  O  O7  1  0.71821500  0.73814300  0.78428800  1
  O  O8  1  0.84212000  0.00323000  0.07806700  1
  O  O9  1  0.04893700  0.29923500  0.78137400  1
  O  O10  1  0.54279500  0.81732000  0.89034000  1
  O  O11  1  0.98220200  0.36075600  0.67099800  1
  O  O12  1  0.71201600  0.77845000  0.58841800  1
