# generated using pymatgen
data_K2YSbO7
_symmetry_space_group_name_H-M   'P 1'
_cell_length_a   8.16112729
_cell_length_b   8.16112729
_cell_length_c   8.16112729
_cell_angle_alpha   120.39944591
_cell_angle_beta   117.81636864
_cell_angle_gamma   91.56638916
_symmetry_Int_Tables_number   1
_chemical_formula_structural   K2YSbO7
_chemical_formula_sum   'K4 Y2 Sb2 O14'
_cell_volume   389.14354797
_cell_formula_units_Z   2
loop_
 _symmetry_equiv_pos_site_id
 _symmetry_equiv_pos_as_xyz
  1  'x, y, z'
loop_
 _atom_site_type_symbol
 _atom_site_label
 _atom_site_symmetry_multiplicity
 _atom_site_fract_x
 _atom_site_fract_y
 _atom_site_fract_z
 _atom_site_occupancy
  K  K0  1  0.00000000  0.00000000  0.00000000  1
  K  K1  1  0.50000000  0.50000000  0.00000000  1
  K  K2  1  0.50000000  0.00000000  0.00000000  1
  K  K3  1  0.50000000  0.50000000  0.50000000  1
  Y  Y4  1  0.00000000  0.00000000  0.50000000  1
  Y  Y5  1  0.00000000  0.50000000  0.00000000  1
  Sb  Sb6  1  0.50000000  0.00000000  0.50000000  1
  Sb  Sb7  1  0.00000000  0.50000000  0.50000000  1
  O  O8  1  0.37916000  0.08392800  0.29523300  1
  O  O9  1  0.71130500  0.41607200  0.29523300  1
  O  O10  1  0.67951600  0.28748100  0.74404000  1
  O  O11  1  0.95655900  0.21251900  0.39203600  1
  O  O12  1  0.95655900  0.56452300  0.74404000  1
  O  O13  1  0.67951600  0.93547700  0.39203600  1
  O  O14  1  0.32048400  0.06452300  0.60796400  1
  O  O15  1  0.04344100  0.43547700  0.25596000  1
  O  O16  1  0.04344100  0.78748100  0.60796400  1
  O  O17  1  0.32048400  0.71251900  0.25596000  1
  O  O18  1  0.88627600  0.75000000  0.13627600  1
  O  O19  1  0.62084000  0.91607200  0.70476700  1
  O  O20  1  0.28869500  0.58392800  0.70476700  1
  O  O21  1  0.11372400  0.25000000  0.86372400  1
