# generated using pymatgen
data_Na2CoPO4F
_symmetry_space_group_name_H-M   'P 1'
_cell_length_a   5.29693200
_cell_length_b   11.79895100
_cell_length_c   13.93876000
_cell_angle_alpha   90.00000000
_cell_angle_beta   90.00000000
_cell_angle_gamma   90.00000000
_symmetry_Int_Tables_number   1
_chemical_formula_structural   Na2CoPO4F
_chemical_formula_sum   'Na16 Co8 P8 O32 F8'
_cell_volume   871.14798337
_cell_formula_units_Z   8
loop_
 _symmetry_equiv_pos_site_id
 _symmetry_equiv_pos_as_xyz
  1  'x, y, z'
loop_
 _atom_site_type_symbol
 _atom_site_label
 _atom_site_symmetry_multiplicity
 _atom_site_fract_x
 _atom_site_fract_y
 _atom_site_fract_z
 _atom_site_occupancy
  Na  Na0  1  0.73646800  0.82870500  0.74572400  1
  Na  Na1  1  0.23646800  0.17129500  0.75427600  1
  Na  Na2  1  0.76353200  0.32870500  0.75427600  1
  Na  Na3  1  0.26353200  0.67129500  0.74572400  1
  Na  Na4  1  0.26353200  0.17129500  0.25427600  1
  Na  Na5  1  0.76353200  0.82870500  0.24572400  1
  Na  Na6  1  0.23646800  0.67129500  0.24572400  1
  Na  Na7  1  0.73646800  0.32870500  0.25427600  1
  Na  Na8  1  0.75745600  0.08352800  0.37600300  1
  Na  Na9  1  0.25745600  0.91647200  0.12399700  1
  Na  Na10  1  0.74254400  0.58352800  0.12399700  1
  Na  Na11  1  0.24254400  0.41647200  0.37600300  1
  Na  Na12  1  0.24254400  0.91647200  0.62399700  1
  Na  Na13  1  0.74254400  0.08352800  0.87600300  1
  Na  Na14  1  0.25745600  0.41647200  0.87600300  1
  Na  Na15  1  0.75745600  0.58352800  0.62399700  1
  Co  Co16  1  0.78004300  0.82657900  0.51119300  1
  Co  Co17  1  0.28004300  0.17342100  0.98880700  1
  Co  Co18  1  0.71995700  0.32657900  0.98880700  1
  Co  Co19  1  0.21995700  0.67342100  0.51119300  1
  Co  Co20  1  0.21995700  0.17342100  0.48880700  1
  Co  Co21  1  0.71995700  0.82657900  0.01119300  1
  Co  Co22  1  0.28004300  0.67342100  0.01119300  1
  Co  Co23  1  0.78004300  0.32657900  0.48880700  1
  P  P24  1  0.29335900  0.91194700  0.38229700  1
  P  P25  1  0.79335900  0.08805300  0.11770300  1
  P  P26  1  0.20664100  0.41194700  0.11770300  1
  P  P27  1  0.70664100  0.58805300  0.38229700  1
  P  P28  1  0.70664100  0.08805300  0.61770300  1
  P  P29  1  0.20664100  0.91194700  0.88229700  1
  P  P30  1  0.79335900  0.58805300  0.88229700  1
  P  P31  1  0.29335900  0.41194700  0.61770300  1
  O  O32  1  0.76948000  0.95940900  0.60968000  1
  O  O33  1  0.26948000  0.04059100  0.89032000  1
  O  O34  1  0.73052000  0.45940900  0.89032000  1
  O  O35  1  0.23052000  0.54059100  0.60968000  1
  O  O36  1  0.23052000  0.04059100  0.39032000  1
  O  O37  1  0.73052000  0.95940900  0.10968000  1
  O  O38  1  0.26948000  0.54059100  0.10968000  1
  O  O39  1  0.76948000  0.45940900  0.39032000  1
  O  O40  1  0.58563200  0.89438800  0.39611200  1
  O  O41  1  0.08563200  0.10561200  0.10388800  1
  O  O42  1  0.91436800  0.39438800  0.10388800  1
  O  O43  1  0.41436800  0.60561200  0.39611200  1
  O  O44  1  0.41436800  0.10561200  0.60388800  1
  O  O45  1  0.91436800  0.89438800  0.89611200  1
  O  O46  1  0.08563200  0.60561200  0.89611200  1
  O  O47  1  0.58563200  0.39438800  0.60388800  1
  O  O48  1  0.20923500  0.86766900  0.28376900  1
  O  O49  1  0.70923500  0.13233100  0.21623100  1
  O  O50  1  0.29076500  0.36766900  0.21623100  1
  O  O51  1  0.79076500  0.63233100  0.28376900  1
  O  O52  1  0.79076500  0.13233100  0.71623100  1
  O  O53  1  0.29076500  0.86766900  0.78376900  1
  O  O54  1  0.70923500  0.63233100  0.78376900  1
  O  O55  1  0.20923500  0.36766900  0.71623100  1
  O  O56  1  0.15474600  0.84646500  0.46487800  1
  O  O57  1  0.65474600  0.15353500  0.03512200  1
  O  O58  1  0.34525400  0.34646500  0.03512200  1
  O  O59  1  0.84525400  0.65353500  0.46487800  1
  O  O60  1  0.84525400  0.15353500  0.53512200  1
  O  O61  1  0.34525400  0.84646500  0.96487800  1
  O  O62  1  0.65474600  0.65353500  0.96487800  1
  O  O63  1  0.15474600  0.34646500  0.53512200  1
  F  F64  1  0.50000000  0.25000000  0.87331400  1
  F  F65  1  0.00000000  0.75000000  0.62668600  1
  F  F66  1  0.50000000  0.75000000  0.12668600  1
  F  F67  1  0.00000000  0.25000000  0.37331400  1
  F  F68  1  0.00000000  0.25000000  0.90527600  1
  F  F69  1  0.50000000  0.75000000  0.59472400  1
  F  F70  1  0.00000000  0.75000000  0.09472400  1
  F  F71  1  0.50000000  0.25000000  0.40527600  1
