# generated using pymatgen
data_La2NbNiO6
_symmetry_space_group_name_H-M   'P 1'
_cell_length_a   5.69930500
_cell_length_b   5.71293700
_cell_length_c   9.82860507
_cell_angle_alpha   54.54248658
_cell_angle_beta   90.00000000
_cell_angle_gamma   90.00000000
_symmetry_Int_Tables_number   1
_chemical_formula_structural   La2NbNiO6
_chemical_formula_sum   'La4 Nb2 Ni2 O12'
_cell_volume   260.66863793
_cell_formula_units_Z   2
loop_
 _symmetry_equiv_pos_site_id
 _symmetry_equiv_pos_as_xyz
  1  'x, y, z'
loop_
 _atom_site_type_symbol
 _atom_site_label
 _atom_site_symmetry_multiplicity
 _atom_site_fract_x
 _atom_site_fract_y
 _atom_site_fract_z
 _atom_site_occupancy
  La  La0  1  0.44368300  0.75979100  0.25005600  1
  La  La1  1  0.55631700  0.24020900  0.74994400  1
  La  La2  1  0.94368300  0.24020900  0.24994400  1
  La  La3  1  0.05631700  0.75979100  0.75005600  1
  Nb  Nb4  1  0.00000000  0.50000000  0.50000000  1
  Nb  Nb5  1  0.50000000  0.50000000  0.00000000  1
  Ni  Ni6  1  0.00000000  0.00000000  0.00000000  1
  Ni  Ni7  1  0.50000000  0.00000000  0.50000000  1
  O  O8  1  0.01469900  0.65456700  0.25131900  1
  O  O9  1  0.98530100  0.34543300  0.74868100  1
  O  O10  1  0.51469900  0.34543300  0.24868100  1
  O  O11  1  0.48530100  0.65456700  0.75131900  1
  O  O12  1  0.69728300  0.15866500  0.04382600  1
  O  O13  1  0.30271700  0.84133500  0.95617400  1
  O  O14  1  0.19728300  0.84133500  0.45617400  1
  O  O15  1  0.80271700  0.15866500  0.54382600  1
  O  O16  1  0.20794200  0.24033500  0.05543500  1
  O  O17  1  0.79205800  0.75966500  0.94456500  1
  O  O18  1  0.70794200  0.75966500  0.44456500  1
  O  O19  1  0.29205800  0.24033500  0.55543500  1
