# generated using pymatgen
data_KZnH2Cl3
_symmetry_space_group_name_H-M   'P 1'
_cell_length_a   6.32165295
_cell_length_b   11.23026000
_cell_length_c   11.62545322
_cell_angle_alpha   90.00000000
_cell_angle_beta   108.37770101
_cell_angle_gamma   90.00000000
_symmetry_Int_Tables_number   1
_chemical_formula_structural   KZnH2Cl3
_chemical_formula_sum   'K4 Zn4 H8 Cl12'
_cell_volume   783.24207921
_cell_formula_units_Z   4
loop_
 _symmetry_equiv_pos_site_id
 _symmetry_equiv_pos_as_xyz
  1  'x, y, z'
loop_
 _atom_site_type_symbol
 _atom_site_label
 _atom_site_symmetry_multiplicity
 _atom_site_fract_x
 _atom_site_fract_y
 _atom_site_fract_z
 _atom_site_occupancy
  K  K0  1  0.76675000  0.86314700  0.13496400  1
  K  K1  1  0.23325000  0.13685300  0.86503600  1
  K  K2  1  0.73325000  0.36314700  0.36503600  1
  K  K3  1  0.26675000  0.63685300  0.63496400  1
  Zn  Zn4  1  0.27772100  0.62293400  0.30372300  1
  Zn  Zn5  1  0.72227900  0.37706600  0.69627700  1
  Zn  Zn6  1  0.22227900  0.12293400  0.19627700  1
  Zn  Zn7  1  0.77772100  0.87706600  0.80372300  1
  H  H8  1  0.78932000  0.38423700  0.07011300  1
  H  H9  1  0.21068000  0.61576300  0.92988700  1
  H  H10  1  0.71068000  0.88423700  0.42988700  1
  H  H11  1  0.28932000  0.11576300  0.57011300  1
  H  H12  1  0.08381900  0.61145700  0.16427800  1
  H  H13  1  0.91618100  0.38854300  0.83572200  1
  H  H14  1  0.41618100  0.11145700  0.33572200  1
  H  H15  1  0.58381900  0.88854300  0.66427800  1
  Cl  Cl16  1  0.22487600  0.45311300  0.39540800  1
  Cl  Cl17  1  0.77512400  0.54688700  0.60459200  1
  Cl  Cl18  1  0.27512400  0.95311300  0.10459200  1
  Cl  Cl19  1  0.72487600  0.04688700  0.89540800  1
  Cl  Cl20  1  0.57375400  0.62342400  0.23985400  1
  Cl  Cl21  1  0.42624600  0.37657600  0.76014600  1
  Cl  Cl22  1  0.92624600  0.12342400  0.26014600  1
  Cl  Cl23  1  0.07375400  0.87657600  0.73985400  1
  Cl  Cl24  1  0.16650400  0.78503400  0.37983900  1
  Cl  Cl25  1  0.83349600  0.21496600  0.62016100  1
  Cl  Cl26  1  0.33349600  0.28503400  0.12016100  1
  Cl  Cl27  1  0.66650400  0.71496600  0.87983900  1
