# generated using pymatgen
data_KV3O7
_symmetry_space_group_name_H-M   'P 1'
_cell_length_a   3.79229800
_cell_length_b   8.45506468
_cell_length_c   9.95332901
_cell_angle_alpha   83.76338800
_cell_angle_beta   79.01780142
_cell_angle_gamma   77.04052006
_symmetry_Int_Tables_number   1
_chemical_formula_structural   KV3O7
_chemical_formula_sum   'K2 V6 O14'
_cell_volume   304.59451246
_cell_formula_units_Z   2
loop_
 _symmetry_equiv_pos_site_id
 _symmetry_equiv_pos_as_xyz
  1  'x, y, z'
loop_
 _atom_site_type_symbol
 _atom_site_label
 _atom_site_symmetry_multiplicity
 _atom_site_fract_x
 _atom_site_fract_y
 _atom_site_fract_z
 _atom_site_occupancy
  K  K0  1  0.83168600  0.75494400  0.58168400  1
  K  K1  1  0.16831400  0.24505600  0.41831600  1
  V  V2  1  0.79211200  0.36331500  0.05246200  1
  V  V3  1  0.20788800  0.63668500  0.94753800  1
  V  V4  1  0.55723100  0.65577200  0.22976600  1
  V  V5  1  0.44276900  0.34422800  0.77023400  1
  V  V6  1  0.94245500  0.94222100  0.17287000  1
  V  V7  1  0.05754500  0.05777900  0.82713000  1
  O  O8  1  0.47508500  0.88894300  0.16088700  1
  O  O9  1  0.52491500  0.11105700  0.83911300  1
  O  O10  1  0.30057800  0.39600300  0.00284100  1
  O  O11  1  0.69942200  0.60399700  0.99715900  1
  O  O12  1  0.68533100  0.40601300  0.22332600  1
  O  O13  1  0.31466900  0.59398700  0.77667500  1
  O  O14  1  0.93056100  0.30906600  0.82981200  1
  O  O15  1  0.06943900  0.69093400  0.17018800  1
  O  O16  1  0.47053300  0.65961400  0.39932100  1
  O  O17  1  0.52946700  0.34038600  0.60067900  1
  O  O18  1  0.89845700  0.12874900  0.07433700  1
  O  O19  1  0.10154300  0.87125100  0.92566300  1
  O  O20  1  0.83576000  0.99536900  0.33311200  1
  O  O21  1  0.16424000  0.00463100  0.66688800  1
