# generated using pymatgen
data_NdP2H2(WO3)2
_symmetry_space_group_name_H-M   'P 1'
_cell_length_a   6.67694000
_cell_length_b   7.21743500
_cell_length_c   19.19751600
_cell_angle_alpha   90.00000000
_cell_angle_beta   90.00000000
_cell_angle_gamma   90.00000000
_symmetry_Int_Tables_number   1
_chemical_formula_structural   NdP2H2(WO3)2
_chemical_formula_sum   'Nd4 P8 H8 W8 O24'
_cell_volume   925.13559971
_cell_formula_units_Z   4
loop_
 _symmetry_equiv_pos_site_id
 _symmetry_equiv_pos_as_xyz
  1  'x, y, z'
loop_
 _atom_site_type_symbol
 _atom_site_label
 _atom_site_symmetry_multiplicity
 _atom_site_fract_x
 _atom_site_fract_y
 _atom_site_fract_z
 _atom_site_occupancy
  Nd  Nd0  1  0.13719200  0.06948300  0.24281100  1
  Nd  Nd1  1  0.36280800  0.93051700  0.74281100  1
  Nd  Nd2  1  0.86280800  0.56948300  0.25718900  1
  Nd  Nd3  1  0.63719200  0.43051700  0.75718900  1
  P  P4  1  0.07141200  0.33934200  0.40720700  1
  P  P5  1  0.42858800  0.66065800  0.90720700  1
  P  P6  1  0.92858800  0.83934200  0.09279300  1
  P  P7  1  0.57141200  0.16065800  0.59279300  1
  P  P8  1  0.32584900  0.57783000  0.23735000  1
  P  P9  1  0.17415100  0.42217000  0.73735000  1
  P  P10  1  0.67415100  0.07783000  0.26265000  1
  P  P11  1  0.82584900  0.92217000  0.76265000  1
  H  H12  1  0.27102900  0.40160100  0.40024300  1
  H  H13  1  0.22897100  0.59839900  0.90024300  1
  H  H14  1  0.72897100  0.90160100  0.09975700  1
  H  H15  1  0.77102900  0.09839900  0.59975700  1
  H  H16  1  0.62822000  0.10890300  0.33400600  1
  H  H17  1  0.87178000  0.89109700  0.83400600  1
  H  H18  1  0.37178000  0.60890300  0.16599400  1
  H  H19  1  0.12822000  0.39109700  0.66599400  1
  W  W20  1  0.99057700  0.40606000  0.05324900  1
  W  W21  1  0.50942300  0.59394000  0.55324900  1
  W  W22  1  0.00942300  0.90606000  0.44675100  1
  W  W23  1  0.49057700  0.09394000  0.94675100  1
  W  W24  1  0.49518800  0.42929000  0.04779500  1
  W  W25  1  0.00481200  0.57071000  0.54779500  1
  W  W26  1  0.50481200  0.92929000  0.45220500  1
  W  W27  1  0.99518800  0.07071000  0.95220500  1
  O  O28  1  0.06472800  0.14216200  0.37202700  1
  O  O29  1  0.43527200  0.85783800  0.87202700  1
  O  O30  1  0.93527200  0.64216200  0.12797300  1
  O  O31  1  0.56472800  0.35783800  0.62797300  1
  O  O32  1  0.02615000  0.32372300  0.48550300  1
  O  O33  1  0.47385000  0.67627700  0.98550300  1
  O  O34  1  0.97385000  0.82372300  0.01449700  1
  O  O35  1  0.52615000  0.17627700  0.51449700  1
  O  O36  1  0.19046000  0.73953600  0.26246100  1
  O  O37  1  0.30954000  0.26046400  0.76246100  1
  O  O38  1  0.80954000  0.23953600  0.23753900  1
  O  O39  1  0.69046000  0.76046400  0.73753900  1
  O  O40  1  0.43483500  0.02401600  0.63131000  1
  O  O41  1  0.06516500  0.97598400  0.13131000  1
  O  O42  1  0.56516500  0.52401600  0.86869000  1
  O  O43  1  0.93483500  0.47598400  0.36869000  1
  O  O44  1  0.47976500  0.05728600  0.22257100  1
  O  O45  1  0.02023500  0.94271400  0.72257100  1
  O  O46  1  0.52023500  0.55728600  0.27742900  1
  O  O47  1  0.97976500  0.44271400  0.77742900  1
  O  O48  1  0.19058900  0.40252400  0.23888300  1
  O  O49  1  0.30941100  0.59747600  0.73888300  1
  O  O50  1  0.80941100  0.90252400  0.26111700  1
  O  O51  1  0.69058900  0.09747600  0.76111700  1
