# generated using pymatgen
data_KHCN4O5
_symmetry_space_group_name_H-M   'P 1'
_cell_length_a   7.66085466
_cell_length_b   7.66085466
_cell_length_c   9.83737571
_cell_angle_alpha   50.47678892
_cell_angle_beta   50.47678892
_cell_angle_gamma   47.28241703
_symmetry_Int_Tables_number   1
_chemical_formula_structural   KHCN4O5
_chemical_formula_sum   'K2 H2 C2 N8 O10'
_cell_volume   305.11343958
_cell_formula_units_Z   2
loop_
 _symmetry_equiv_pos_site_id
 _symmetry_equiv_pos_as_xyz
  1  'x, y, z'
loop_
 _atom_site_type_symbol
 _atom_site_label
 _atom_site_symmetry_multiplicity
 _atom_site_fract_x
 _atom_site_fract_y
 _atom_site_fract_z
 _atom_site_occupancy
  K  K0  1  0.26647600  0.36588800  0.77374800  1
  K  K1  1  0.36588800  0.26647600  0.27374800  1
  H  H2  1  0.60333500  0.87777000  0.62602800  1
  H  H3  1  0.87777000  0.60333500  0.12602800  1
  C  C4  1  0.31878800  0.75138500  0.83591500  1
  C  C5  1  0.75138500  0.31878800  0.33591500  1
  N  N6  1  0.55155200  0.74557700  0.67865500  1
  N  N7  1  0.74557700  0.55155200  0.17865500  1
  N  N8  1  0.75160300  0.54002000  0.62172800  1
  N  N9  1  0.54002000  0.75160300  0.12172800  1
  N  N10  1  0.98134400  0.18940700  0.35049200  1
  N  N11  1  0.18940700  0.98134400  0.85049200  1
  N  N12  1  0.97245900  0.02753400  0.99995800  1
  N  N13  1  0.02753400  0.97245900  0.49995800  1
  O  O14  1  0.86466300  0.89583600  0.63986000  1
  O  O15  1  0.89583600  0.86466300  0.13986000  1
  O  O16  1  0.26336300  0.57654700  0.92823100  1
  O  O17  1  0.57654700  0.26336300  0.42823100  1
  O  O18  1  0.71231400  0.37511000  0.66538500  1
  O  O19  1  0.37511000  0.71231400  0.16538500  1
  O  O20  1  0.84727500  0.25349100  0.99411000  1
  O  O21  1  0.25349100  0.84727500  0.49411000  1
  O  O22  1  0.96122600  0.54061900  0.52419000  1
  O  O23  1  0.54061900  0.96122600  0.02419000  1
