# generated using pymatgen
data_LiEr6B3O14
_symmetry_space_group_name_H-M   'P 1'
_cell_length_a   8.35087540
_cell_length_b   8.80311982
_cell_length_c   15.48419400
_cell_angle_alpha   90.00000000
_cell_angle_beta   90.00000000
_cell_angle_gamma   91.74673903
_symmetry_Int_Tables_number   1
_chemical_formula_structural   LiEr6B3O14
_chemical_formula_sum   'Li4 Er24 B12 O56'
_cell_volume   1137.77233376
_cell_formula_units_Z   4
loop_
 _symmetry_equiv_pos_site_id
 _symmetry_equiv_pos_as_xyz
  1  'x, y, z'
loop_
 _atom_site_type_symbol
 _atom_site_label
 _atom_site_symmetry_multiplicity
 _atom_site_fract_x
 _atom_site_fract_y
 _atom_site_fract_z
 _atom_site_occupancy
  Li  Li0  1  0.68051100  0.56049500  0.39609300  1
  Li  Li1  1  0.31948900  0.43950500  0.60390700  1
  Li  Li2  1  0.81948900  0.93950500  0.89609300  1
  Li  Li3  1  0.18051100  0.06049500  0.10390700  1
  Er  Er4  1  0.14256200  0.69275000  0.17780600  1
  Er  Er5  1  0.85743800  0.30725000  0.82219400  1
  Er  Er6  1  0.35743800  0.80725000  0.67780600  1
  Er  Er7  1  0.64256200  0.19275000  0.32219400  1
  Er  Er8  1  0.96023200  0.94443900  0.67397000  1
  Er  Er9  1  0.03976800  0.05556100  0.32603000  1
  Er  Er10  1  0.53976800  0.55556100  0.17397000  1
  Er  Er11  1  0.46023200  0.44443900  0.82603000  1
  Er  Er12  1  0.72701400  0.57529000  0.64393700  1
  Er  Er13  1  0.27298600  0.42471000  0.35606300  1
  Er  Er14  1  0.77298600  0.92471000  0.14393700  1
  Er  Er15  1  0.22701400  0.07529000  0.85606300  1
  Er  Er16  1  0.05197800  0.71759500  0.48680400  1
  Er  Er17  1  0.94802200  0.28240500  0.51319600  1
  Er  Er18  1  0.44802200  0.78240500  0.98680400  1
  Er  Er19  1  0.55197800  0.21759500  0.01319600  1
  Er  Er20  1  0.69966800  0.93877700  0.49609700  1
  Er  Er21  1  0.30033200  0.06122300  0.50390300  1
  Er  Er22  1  0.80033200  0.56122300  0.99609700  1
  Er  Er23  1  0.19966800  0.43877700  0.00390300  1
  Er  Er24  1  0.42187000  0.83435500  0.33411800  1
  Er  Er25  1  0.57813000  0.16564500  0.66588200  1
  Er  Er26  1  0.07813000  0.66564500  0.83411800  1
  Er  Er27  1  0.92187000  0.33435500  0.16588200  1
  B  B28  1  0.42884200  0.97270900  0.17300100  1
  B  B29  1  0.57115800  0.02729100  0.82699900  1
  B  B30  1  0.07115800  0.52729100  0.67300100  1
  B  B31  1  0.92884200  0.47270900  0.32699900  1
  B  B32  1  0.06410000  0.85470400  0.00054400  1
  B  B33  1  0.93590000  0.14529600  0.99945600  1
  B  B34  1  0.43590000  0.64529600  0.50054400  1
  B  B35  1  0.56410000  0.35470400  0.49945600  1
  B  B36  1  0.82029800  0.77851700  0.30699300  1
  B  B37  1  0.17970200  0.22148300  0.69300700  1
  B  B38  1  0.67970200  0.72148300  0.80699300  1
  B  B39  1  0.32029800  0.27851700  0.19300700  1
  O  O40  1  0.94049900  0.82274100  0.24832200  1
  O  O41  1  0.05950100  0.17725900  0.75167800  1
  O  O42  1  0.55950100  0.67725900  0.74832200  1
  O  O43  1  0.44049900  0.32274100  0.25167800  1
  O  O44  1  0.71100200  0.40680900  0.53357600  1
  O  O45  1  0.28899800  0.59319100  0.46642400  1
  O  O46  1  0.78899800  0.09319100  0.03357600  1
  O  O47  1  0.21100200  0.90680900  0.96642400  1
  O  O48  1  0.84395800  0.77894300  0.57934100  1
  O  O49  1  0.15604200  0.22105700  0.42065900  1
  O  O50  1  0.65604200  0.72105700  0.07934100  1
  O  O51  1  0.34395800  0.27894300  0.92065900  1
  O  O52  1  0.02804700  0.88174000  0.08611900  1
  O  O53  1  0.97195300  0.11826000  0.91388100  1
  O  O54  1  0.47195300  0.61826000  0.58611900  1
  O  O55  1  0.52804700  0.38174000  0.41388100  1
  O  O56  1  0.46619800  0.99099300  0.08689700  1
  O  O57  1  0.53380200  0.00900700  0.91310300  1
  O  O58  1  0.03380200  0.50900700  0.58689700  1
  O  O59  1  0.96619800  0.49099300  0.41310300  1
  O  O60  1  0.28174200  0.92282400  0.20490300  1
  O  O61  1  0.71825800  0.07717600  0.79509700  1
  O  O62  1  0.21825800  0.57717600  0.70490300  1
  O  O63  1  0.78174200  0.42282400  0.29509700  1
  O  O64  1  0.45641500  0.27752900  0.55179600  1
  O  O65  1  0.54358500  0.72247200  0.44820400  1
  O  O66  1  0.04358500  0.22247100  0.05179600  1
  O  O67  1  0.95641500  0.77752800  0.94820400  1
  O  O68  1  0.19254400  0.89463200  0.40177200  1
  O  O69  1  0.80745600  0.10536800  0.59822800  1
  O  O70  1  0.30745600  0.60536800  0.90177200  1
  O  O71  1  0.69254400  0.39463200  0.09822800  1
  O  O72  1  0.00880400  0.53588200  0.08962400  1
  O  O73  1  0.99119600  0.46411800  0.91037600  1
  O  O74  1  0.49119600  0.96411800  0.58962400  1
  O  O75  1  0.50880400  0.03588200  0.41037600  1
  O  O76  1  0.16237700  0.87582300  0.58545100  1
  O  O77  1  0.83762300  0.12417700  0.41454900  1
  O  O78  1  0.33762300  0.62417700  0.08545100  1
  O  O79  1  0.66237700  0.37582300  0.91454900  1
  O  O80  1  0.15404900  0.87763200  0.76835000  1
  O  O81  1  0.84595100  0.12236800  0.23165000  1
  O  O82  1  0.34595100  0.62236800  0.26835000  1
  O  O83  1  0.65404900  0.37763200  0.73165000  1
  O  O84  1  0.82650500  0.77216200  0.77462400  1
  O  O85  1  0.17349500  0.22783800  0.22537600  1
  O  O86  1  0.67349500  0.72783800  0.27462400  1
  O  O87  1  0.32650500  0.27216200  0.72537600  1
  O  O88  1  0.85162600  0.79951400  0.39399300  1
  O  O89  1  0.14837400  0.20048600  0.60600700  1
  O  O90  1  0.64837400  0.70048600  0.89399300  1
  O  O91  1  0.35162600  0.29951400  0.10600700  1
  O  O92  1  0.55055900  0.99683200  0.23284700  1
  O  O93  1  0.44944100  0.00316800  0.76715300  1
  O  O94  1  0.94944100  0.50316800  0.73284700  1
  O  O95  1  0.05055900  0.49683200  0.26715300  1
