# generated using pymatgen
data_La3CrS6
_symmetry_space_group_name_H-M   'P 1'
_cell_length_a   3.98109400
_cell_length_b   13.78389800
_cell_length_c   16.54122200
_cell_angle_alpha   90.00000000
_cell_angle_beta   90.00000000
_cell_angle_gamma   90.00000000
_symmetry_Int_Tables_number   1
_chemical_formula_structural   La3CrS6
_chemical_formula_sum   'La12 Cr4 S24'
_cell_volume   907.69945179
_cell_formula_units_Z   4
loop_
 _symmetry_equiv_pos_site_id
 _symmetry_equiv_pos_as_xyz
  1  'x, y, z'
loop_
 _atom_site_type_symbol
 _atom_site_label
 _atom_site_symmetry_multiplicity
 _atom_site_fract_x
 _atom_site_fract_y
 _atom_site_fract_z
 _atom_site_occupancy
  La  La0  1  0.00000000  0.55012200  0.28469800  1
  La  La1  1  0.00000000  0.44987800  0.71530200  1
  La  La2  1  0.50000000  0.94987800  0.78469800  1
  La  La3  1  0.50000000  0.05012200  0.21530200  1
  La  La4  1  0.00000000  0.75533700  0.09668400  1
  La  La5  1  0.00000000  0.24466300  0.90331600  1
  La  La6  1  0.50000000  0.74466300  0.59668400  1
  La  La7  1  0.50000000  0.25533700  0.40331600  1
  La  La8  1  0.00000000  0.31972200  0.14830400  1
  La  La9  1  0.00000000  0.68027800  0.85169600  1
  La  La10  1  0.50000000  0.18027800  0.64830400  1
  La  La11  1  0.50000000  0.81972200  0.35169600  1
  Cr  Cr12  1  0.00000000  0.00000000  0.50000000  1
  Cr  Cr13  1  0.50000000  0.50000000  0.00000000  1
  Cr  Cr14  1  0.00000000  0.00000000  0.00000000  1
  Cr  Cr15  1  0.50000000  0.50000000  0.50000000  1
  S  S16  1  0.00000000  0.12084300  0.10112900  1
  S  S17  1  0.00000000  0.87915700  0.89887100  1
  S  S18  1  0.50000000  0.37915700  0.60112900  1
  S  S19  1  0.50000000  0.62084300  0.39887100  1
  S  S20  1  0.00000000  0.18526400  0.28960400  1
  S  S21  1  0.00000000  0.81473600  0.71039600  1
  S  S22  1  0.50000000  0.31473600  0.78960400  1
  S  S23  1  0.50000000  0.68526400  0.21039600  1
  S  S24  1  0.00000000  0.17501000  0.52095000  1
  S  S25  1  0.00000000  0.82499000  0.47905000  1
  S  S26  1  0.50000000  0.32499000  0.02095000  1
  S  S27  1  0.50000000  0.67501000  0.97905000  1
  S  S28  1  0.00000000  0.52435200  0.09336400  1
  S  S29  1  0.00000000  0.47564800  0.90663600  1
  S  S30  1  0.50000000  0.97564800  0.59336400  1
  S  S31  1  0.50000000  0.02435200  0.40663600  1
  S  S32  1  0.00000000  0.10188300  0.75454900  1
  S  S33  1  0.00000000  0.89811700  0.24545100  1
  S  S34  1  0.50000000  0.39811700  0.25454900  1
  S  S35  1  0.50000000  0.60188300  0.74545100  1
  S  S36  1  0.00000000  0.41939300  0.43044800  1
  S  S37  1  0.00000000  0.58060700  0.56955200  1
  S  S38  1  0.50000000  0.08060700  0.93044800  1
  S  S39  1  0.50000000  0.91939300  0.06955200  1
