# generated using pymatgen
data_KRb(SO4)2
_symmetry_space_group_name_H-M   'P 1'
_cell_length_a   7.29519105
_cell_length_b   8.42501021
_cell_length_c   14.61126100
_cell_angle_alpha   90.00000000
_cell_angle_beta   90.00000000
_cell_angle_gamma   103.26873213
_symmetry_Int_Tables_number   1
_chemical_formula_structural   KRb(SO4)2
_chemical_formula_sum   'K4 Rb4 S8 O32'
_cell_volume   874.06440326
_cell_formula_units_Z   4
loop_
 _symmetry_equiv_pos_site_id
 _symmetry_equiv_pos_as_xyz
  1  'x, y, z'
loop_
 _atom_site_type_symbol
 _atom_site_label
 _atom_site_symmetry_multiplicity
 _atom_site_fract_x
 _atom_site_fract_y
 _atom_site_fract_z
 _atom_site_occupancy
  K  K0  1  0.59018300  0.77550500  0.95600300  1
  K  K1  1  0.40981700  0.22449500  0.04399700  1
  K  K2  1  0.40981700  0.72449500  0.45600300  1
  K  K3  1  0.59018300  0.27550500  0.54399700  1
  Rb  Rb4  1  0.96566200  0.65233100  0.71240500  1
  Rb  Rb5  1  0.03433800  0.34766900  0.28759500  1
  Rb  Rb6  1  0.03433800  0.84766900  0.21240500  1
  Rb  Rb7  1  0.96566200  0.15233100  0.78759500  1
  S  S8  1  0.91803300  0.73329300  0.46185200  1
  S  S9  1  0.08196700  0.26670700  0.53814800  1
  S  S10  1  0.08196700  0.76670700  0.96185200  1
  S  S11  1  0.91803300  0.23329300  0.03814800  1
  S  S12  1  0.50297400  0.85333200  0.69310500  1
  S  S13  1  0.49702600  0.14666800  0.30689500  1
  S  S14  1  0.49702600  0.64666800  0.19310500  1
  S  S15  1  0.50297400  0.35333200  0.80689500  1
  O  O16  1  0.56256800  0.96137000  0.61437600  1
  O  O17  1  0.43743200  0.03863000  0.38562400  1
  O  O18  1  0.43743200  0.53863000  0.11437600  1
  O  O19  1  0.56256800  0.46137000  0.88562400  1
  O  O20  1  0.34065800  0.89595500  0.74328600  1
  O  O21  1  0.65934200  0.10404500  0.25671400  1
  O  O22  1  0.65934200  0.60404500  0.24328600  1
  O  O23  1  0.34065800  0.39595500  0.75671400  1
  O  O24  1  0.41415900  0.68375200  0.65957300  1
  O  O25  1  0.58584100  0.31624800  0.34042700  1
  O  O26  1  0.58584100  0.81624800  0.15957300  1
  O  O27  1  0.41415900  0.18375200  0.84042700  1
  O  O28  1  0.98980200  0.85438600  0.89368800  1
  O  O29  1  0.01019800  0.14561400  0.10631200  1
  O  O30  1  0.01019800  0.64561400  0.39368800  1
  O  O31  1  0.98980200  0.35438600  0.60631200  1
  O  O32  1  0.75746500  0.62213900  0.50842500  1
  O  O33  1  0.24253500  0.37786100  0.49157500  1
  O  O34  1  0.24253500  0.87786100  0.00842500  1
  O  O35  1  0.75746500  0.12213900  0.99157500  1
  O  O36  1  0.93980600  0.18833300  0.46998800  1
  O  O37  1  0.06019400  0.81166700  0.53001200  1
  O  O38  1  0.06019400  0.31166700  0.96998800  1
  O  O39  1  0.93980600  0.68833300  0.03001200  1
  O  O40  1  0.84399600  0.85947800  0.41086900  1
  O  O41  1  0.15600400  0.14052200  0.58913100  1
  O  O42  1  0.15600400  0.64052200  0.91086900  1
  O  O43  1  0.84399600  0.35947800  0.08913100  1
  O  O44  1  0.65957700  0.85195700  0.75623100  1
  O  O45  1  0.34042300  0.14804300  0.24376900  1
  O  O46  1  0.34042300  0.64804300  0.25623100  1
  O  O47  1  0.65957700  0.35195700  0.74376900  1
