# generated using pymatgen
data_K2PrNb5O15
_symmetry_space_group_name_H-M   'P 1'
_cell_length_a   12.79386400
_cell_length_b   12.79386400
_cell_length_c   3.96860500
_cell_angle_alpha   90.00000000
_cell_angle_beta   90.00000000
_cell_angle_gamma   90.00000000
_symmetry_Int_Tables_number   1
_chemical_formula_structural   K2PrNb5O15
_chemical_formula_sum   'K4 Pr2 Nb10 O30'
_cell_volume   649.59299780
_cell_formula_units_Z   2
loop_
 _symmetry_equiv_pos_site_id
 _symmetry_equiv_pos_as_xyz
  1  'x, y, z'
loop_
 _atom_site_type_symbol
 _atom_site_label
 _atom_site_symmetry_multiplicity
 _atom_site_fract_x
 _atom_site_fract_y
 _atom_site_fract_z
 _atom_site_occupancy
  K  K0  1  0.67014300  0.17014300  0.50000000  1
  K  K1  1  0.32985700  0.82985700  0.50000000  1
  K  K2  1  0.17014300  0.32985700  0.50000000  1
  K  K3  1  0.82985700  0.67014300  0.50000000  1
  Pr  Pr4  1  0.00000000  0.00000000  0.50000000  1
  Pr  Pr5  1  0.50000000  0.50000000  0.50000000  1
  Nb  Nb6  1  0.50000000  0.00000000  0.00000000  1
  Nb  Nb7  1  0.00000000  0.50000000  0.00000000  1
  Nb  Nb8  1  0.21345300  0.07666700  0.00000000  1
  Nb  Nb9  1  0.78654700  0.92333300  0.00000000  1
  Nb  Nb10  1  0.07666700  0.78654700  0.00000000  1
  Nb  Nb11  1  0.71345300  0.42333300  0.00000000  1
  Nb  Nb12  1  0.92333300  0.21345300  0.00000000  1
  Nb  Nb13  1  0.28654700  0.57666700  0.00000000  1
  Nb  Nb14  1  0.57666700  0.71345300  0.00000000  1
  Nb  Nb15  1  0.42333300  0.28654700  0.00000000  1
  O  O16  1  0.19127800  0.07959500  0.50000000  1
  O  O17  1  0.80872200  0.92040500  0.50000000  1
  O  O18  1  0.07959500  0.80872200  0.50000000  1
  O  O19  1  0.69127800  0.42040500  0.50000000  1
  O  O20  1  0.92040500  0.19127800  0.50000000  1
  O  O21  1  0.30872200  0.57959500  0.50000000  1
  O  O22  1  0.57959500  0.69127800  0.50000000  1
  O  O23  1  0.42040500  0.30872200  0.50000000  1
  O  O24  1  0.21756200  0.71756200  0.00000000  1
  O  O25  1  0.78243800  0.28243800  0.00000000  1
  O  O26  1  0.71756200  0.78243800  0.00000000  1
  O  O27  1  0.28243800  0.21756200  0.00000000  1
  O  O28  1  0.50000000  0.00000000  0.50000000  1
  O  O29  1  0.00000000  0.50000000  0.50000000  1
  O  O30  1  0.05874300  0.13221100  0.00000000  1
  O  O31  1  0.94125700  0.86778900  0.00000000  1
  O  O32  1  0.13221100  0.94125700  0.00000000  1
  O  O33  1  0.55874300  0.36778900  0.00000000  1
  O  O34  1  0.86778900  0.05874300  0.00000000  1
  O  O35  1  0.44125700  0.63221100  0.00000000  1
  O  O36  1  0.63221100  0.55874300  0.00000000  1
  O  O37  1  0.36778900  0.44125700  0.00000000  1
  O  O38  1  0.34271900  0.99949700  0.00000000  1
  O  O39  1  0.65728100  0.00050300  0.00000000  1
  O  O40  1  0.99949700  0.65728100  0.00000000  1
  O  O41  1  0.84271900  0.50050300  0.00000000  1
  O  O42  1  0.00050300  0.34271900  0.00000000  1
  O  O43  1  0.15728100  0.49949700  0.00000000  1
  O  O44  1  0.49949700  0.84271900  0.00000000  1
  O  O45  1  0.50050300  0.15728100  0.00000000  1
