# generated using pymatgen
data_MnH7C4N3O7
_symmetry_space_group_name_H-M   'P 1'
_cell_length_a   6.95982800
_cell_length_b   10.93267000
_cell_length_c   13.96818269
_cell_angle_alpha   59.18082141
_cell_angle_beta   90.00000000
_cell_angle_gamma   90.00000000
_symmetry_Int_Tables_number   1
_chemical_formula_structural   MnH7C4N3O7
_chemical_formula_sum   'Mn4 H28 C16 N12 O28'
_cell_volume   912.74791376
_cell_formula_units_Z   4
loop_
 _symmetry_equiv_pos_site_id
 _symmetry_equiv_pos_as_xyz
  1  'x, y, z'
loop_
 _atom_site_type_symbol
 _atom_site_label
 _atom_site_symmetry_multiplicity
 _atom_site_fract_x
 _atom_site_fract_y
 _atom_site_fract_z
 _atom_site_occupancy
  Mn  Mn0  1  0.81562500  0.78038800  0.04974500  1
  Mn  Mn1  1  0.18437500  0.21961200  0.95025500  1
  Mn  Mn2  1  0.31562500  0.21961200  0.45025500  1
  Mn  Mn3  1  0.68437500  0.78038800  0.54974500  1
  H  H4  1  0.38162500  0.89301700  0.39311500  1
  H  H5  1  0.61837500  0.10698300  0.60688500  1
  H  H6  1  0.88162500  0.10698300  0.10688500  1
  H  H7  1  0.11837500  0.89301700  0.89311500  1
  H  H8  1  0.15969500  0.93852900  0.10883200  1
  H  H9  1  0.84030500  0.06147100  0.89116800  1
  H  H10  1  0.65969500  0.06147100  0.39116800  1
  H  H11  1  0.34030500  0.93852900  0.60883200  1
  H  H12  1  0.81440600  0.98450400  0.35518800  1
  H  H13  1  0.18559400  0.01549600  0.64481200  1
  H  H14  1  0.31440600  0.01549600  0.14481200  1
  H  H15  1  0.68559400  0.98450400  0.85518800  1
  H  H16  1  0.43989600  0.85209500  0.07008800  1
  H  H17  1  0.56010400  0.14790500  0.92991200  1
  H  H18  1  0.93989600  0.14790500  0.42991200  1
  H  H19  1  0.06010400  0.85209500  0.57008800  1
  H  H20  1  0.47035200  0.72419300  0.19106500  1
  H  H21  1  0.52964800  0.27580700  0.80893500  1
  H  H22  1  0.97035200  0.27580700  0.30893500  1
  H  H23  1  0.02964800  0.72419300  0.69106500  1
  H  H24  1  0.86129200  0.54783800  0.29381400  1
  H  H25  1  0.13870800  0.45216200  0.70618600  1
  H  H26  1  0.36129200  0.45216200  0.20618600  1
  H  H27  1  0.63870800  0.54783800  0.79381400  1
  H  H28  1  0.81629400  0.26281900  0.01283500  1
  H  H29  1  0.18370600  0.73718100  0.98716500  1
  H  H30  1  0.31629400  0.73718100  0.48716500  1
  H  H31  1  0.68370600  0.26281900  0.51283500  1
  C  C32  1  0.83289700  0.69581800  0.35294800  1
  C  C33  1  0.16710300  0.30418200  0.64705200  1
  C  C34  1  0.33289700  0.30418200  0.14705200  1
  C  C35  1  0.66710300  0.69581800  0.85294800  1
  C  C36  1  0.83312000  0.46449700  0.13108000  1
  C  C37  1  0.16688000  0.53550300  0.86892000  1
  C  C38  1  0.33312000  0.53550300  0.36892000  1
  C  C39  1  0.66688000  0.46449700  0.63108000  1
  C  C40  1  0.89124700  0.83392100  0.25150700  1
  C  C41  1  0.10875300  0.16607900  0.74849300  1
  C  C42  1  0.39124700  0.16607900  0.24849300  1
  C  C43  1  0.60875300  0.83392100  0.75150700  1
  C  C44  1  0.76014500  0.53260500  0.01335400  1
  C  C45  1  0.23985500  0.46739500  0.98664600  1
  C  C46  1  0.26014500  0.46739500  0.48664600  1
  C  C47  1  0.73985500  0.53260500  0.51335400  1
  N  N48  1  0.77314100  0.46438400  0.45836300  1
  N  N49  1  0.22685900  0.53561600  0.54163700  1
  N  N50  1  0.27314100  0.53561600  0.04163700  1
  N  N51  1  0.72685900  0.46438400  0.95836300  1
  N  N52  1  0.83288400  0.56876300  0.35777700  1
  N  N53  1  0.16711600  0.43123700  0.64222300  1
  N  N54  1  0.33288400  0.43123700  0.14222300  1
  N  N55  1  0.66711600  0.56876300  0.85777700  1
  N  N56  1  0.77463200  0.67502200  0.45135200  1
  N  N57  1  0.22536800  0.32497800  0.54864800  1
  N  N58  1  0.27463200  0.32497800  0.04864800  1
  N  N59  1  0.72536800  0.67502200  0.95135200  1
  O  O60  1  0.38708800  0.82272200  0.47406100  1
  O  O61  1  0.61291200  0.17727800  0.52593900  1
  O  O62  1  0.88708800  0.17727800  0.02593900  1
  O  O63  1  0.11291200  0.82272200  0.97406100  1
  O  O64  1  0.86653100  0.33353300  0.18417700  1
  O  O65  1  0.13346900  0.66646700  0.81582300  1
  O  O66  1  0.36653100  0.66646700  0.31582300  1
  O  O67  1  0.63346900  0.33353300  0.68417700  1
  O  O68  1  0.94959300  0.82527000  0.16829800  1
  O  O69  1  0.05040700  0.17473000  0.83170200  1
  O  O70  1  0.44959300  0.17473000  0.33170200  1
  O  O71  1  0.55040700  0.82527000  0.66829800  1
  O  O72  1  0.85742400  0.55196300  0.16590200  1
  O  O73  1  0.14257600  0.44803700  0.83409800  1
  O  O74  1  0.35742400  0.44803700  0.33409800  1
  O  O75  1  0.64257600  0.55196300  0.66590200  1
  O  O76  1  0.77023100  0.99461100  0.41892300  1
  O  O77  1  0.22976900  0.00538900  0.58107700  1
  O  O78  1  0.27023100  0.00538900  0.08107700  1
  O  O79  1  0.72976900  0.99461100  0.91892300  1
  O  O80  1  0.52064000  0.76770800  0.11270500  1
  O  O81  1  0.47936000  0.23229200  0.88729500  1
  O  O82  1  0.02064000  0.23229200  0.38729500  1
  O  O83  1  0.97936000  0.76770800  0.61270500  1
  O  O84  1  0.88314800  0.94708100  0.25406300  1
  O  O85  1  0.11685200  0.05291900  0.74593700  1
  O  O86  1  0.38314800  0.05291900  0.24593700  1
  O  O87  1  0.61685200  0.94708100  0.75406300  1
