# generated using pymatgen
data_KSmS2O9
_symmetry_space_group_name_H-M   'P 1'
_cell_length_a   8.80152200
_cell_length_b   10.00712000
_cell_length_c   10.34439816
_cell_angle_alpha   62.60315553
_cell_angle_beta   90.00000000
_cell_angle_gamma   90.00000000
_symmetry_Int_Tables_number   1
_chemical_formula_structural   KSmS2O9
_chemical_formula_sum   'K4 Sm4 S8 O36'
_cell_volume   808.92299057
_cell_formula_units_Z   4
loop_
 _symmetry_equiv_pos_site_id
 _symmetry_equiv_pos_as_xyz
  1  'x, y, z'
loop_
 _atom_site_type_symbol
 _atom_site_label
 _atom_site_symmetry_multiplicity
 _atom_site_fract_x
 _atom_site_fract_y
 _atom_site_fract_z
 _atom_site_occupancy
  K  K0  1  0.30305100  0.27324800  0.69834900  1
  K  K1  1  0.69694900  0.72675200  0.30165100  1
  K  K2  1  0.80305100  0.72675200  0.80165100  1
  K  K3  1  0.19694900  0.27324800  0.19834900  1
  Sm  Sm4  1  0.35832000  0.76220100  0.97386200  1
  Sm  Sm5  1  0.64168000  0.23779900  0.02613800  1
  Sm  Sm6  1  0.85832000  0.23779900  0.52613800  1
  Sm  Sm7  1  0.14168000  0.76220100  0.47386200  1
  S  S8  1  0.12602900  0.55699000  0.32049400  1
  S  S9  1  0.87397100  0.44301000  0.67950600  1
  S  S10  1  0.62602900  0.44301000  0.17950600  1
  S  S11  1  0.37397100  0.55699000  0.82049400  1
  S  S12  1  0.18573800  0.97192800  0.62088000  1
  S  S13  1  0.81426200  0.02807200  0.37912000  1
  S  S14  1  0.68573800  0.02807200  0.87912000  1
  S  S15  1  0.31426200  0.97192800  0.12088000  1
  O  O16  1  0.05294600  0.40732600  0.37190100  1
  O  O17  1  0.94705400  0.59267400  0.62809900  1
  O  O18  1  0.55294600  0.59267400  0.12809900  1
  O  O19  1  0.44705400  0.40732600  0.87190100  1
  O  O20  1  0.40905200  0.83237400  0.17235800  1
  O  O21  1  0.59094800  0.16762600  0.82764200  1
  O  O22  1  0.90905200  0.16762600  0.32764200  1
  O  O23  1  0.09094800  0.83237400  0.67235800  1
  O  O24  1  0.01470100  0.67389900  0.30732900  1
  O  O25  1  0.98529900  0.32610100  0.69267100  1
  O  O26  1  0.51470100  0.32610100  0.19267100  1
  O  O27  1  0.48529900  0.67389900  0.80732900  1
  O  O28  1  0.19769300  0.59286700  0.17638900  1
  O  O29  1  0.80230700  0.40713300  0.82361100  1
  O  O30  1  0.69769300  0.40713300  0.32361100  1
  O  O31  1  0.30230700  0.59286700  0.67638900  1
  O  O32  1  0.30730600  0.95223500  0.72692200  1
  O  O33  1  0.69269400  0.04776500  0.27307800  1
  O  O34  1  0.80730600  0.04776500  0.77307800  1
  O  O35  1  0.19269400  0.95223500  0.22692200  1
  O  O36  1  0.59372700  0.89557800  0.90057200  1
  O  O37  1  0.40627300  0.10442200  0.09942800  1
  O  O38  1  0.09372700  0.10442200  0.59942800  1
  O  O39  1  0.90627300  0.89557800  0.40057200  1
  O  O40  1  0.08409600  0.79296900  0.96151600  1
  O  O41  1  0.91590400  0.20703100  0.03848400  1
  O  O42  1  0.58409600  0.20703100  0.53848400  1
  O  O43  1  0.41590400  0.79296900  0.46151600  1
  O  O44  1  0.74954500  0.00281400  0.02320400  1
  O  O45  1  0.25045500  0.99718600  0.97679600  1
  O  O46  1  0.24954500  0.99718600  0.47679600  1
  O  O47  1  0.75045500  0.00281400  0.52320400  1
  O  O48  1  0.24432200  0.55271600  0.42607300  1
  O  O49  1  0.75567800  0.44728400  0.57392700  1
  O  O50  1  0.74432200  0.44728400  0.07392700  1
  O  O51  1  0.25567800  0.55271600  0.92607300  1
