# generated using pymatgen
data_KLu(MoO4)2
_symmetry_space_group_name_H-M   'P 1'
_cell_length_a   5.08572700
_cell_length_b   8.00089300
_cell_length_c   18.47539900
_cell_angle_alpha   90.00000000
_cell_angle_beta   90.00000000
_cell_angle_gamma   90.00000000
_symmetry_Int_Tables_number   1
_chemical_formula_structural   KLu(MoO4)2
_chemical_formula_sum   'K4 Lu4 Mo8 O32'
_cell_volume   751.77059127
_cell_formula_units_Z   4
loop_
 _symmetry_equiv_pos_site_id
 _symmetry_equiv_pos_as_xyz
  1  'x, y, z'
loop_
 _atom_site_type_symbol
 _atom_site_label
 _atom_site_symmetry_multiplicity
 _atom_site_fract_x
 _atom_site_fract_y
 _atom_site_fract_z
 _atom_site_occupancy
  K  K0  1  0.00000000  0.75000000  0.77099900  1
  K  K1  1  0.00000000  0.25000000  0.22900100  1
  K  K2  1  0.50000000  0.25000000  0.72900100  1
  K  K3  1  0.50000000  0.75000000  0.27099900  1
  Lu  Lu4  1  0.00000000  0.75000000  0.00590100  1
  Lu  Lu5  1  0.00000000  0.25000000  0.99409900  1
  Lu  Lu6  1  0.50000000  0.25000000  0.49409900  1
  Lu  Lu7  1  0.50000000  0.75000000  0.50590100  1
  Mo  Mo8  1  0.02250700  0.51543700  0.40022500  1
  Mo  Mo9  1  0.97749300  0.48456300  0.59977500  1
  Mo  Mo10  1  0.47749300  0.01543700  0.09977500  1
  Mo  Mo11  1  0.97749300  0.98456300  0.40022500  1
  Mo  Mo12  1  0.52250700  0.98456300  0.90022500  1
  Mo  Mo13  1  0.02250700  0.01543700  0.59977500  1
  Mo  Mo14  1  0.52250700  0.48456300  0.09977500  1
  Mo  Mo15  1  0.47749300  0.51543700  0.90022500  1
  O  O16  1  0.09937200  0.97656600  0.31153300  1
  O  O17  1  0.90062800  0.02343400  0.68846700  1
  O  O18  1  0.40062800  0.47656600  0.18846700  1
  O  O19  1  0.90062800  0.52343400  0.31153300  1
  O  O20  1  0.59937200  0.52343400  0.81153300  1
  O  O21  1  0.09937200  0.47656600  0.68846700  1
  O  O22  1  0.59937200  0.02343400  0.18846700  1
  O  O23  1  0.40062800  0.97656600  0.81153300  1
  O  O24  1  0.26394600  0.83626000  0.09722600  1
  O  O25  1  0.73605400  0.16374000  0.90277400  1
  O  O26  1  0.23605400  0.33626000  0.40277400  1
  O  O27  1  0.73605400  0.66374000  0.09722600  1
  O  O28  1  0.76394600  0.66374000  0.59722600  1
  O  O29  1  0.26394600  0.33626000  0.90277400  1
  O  O30  1  0.76394600  0.16374000  0.40277400  1
  O  O31  1  0.23605400  0.83626000  0.59722600  1
  O  O32  1  0.24377100  0.50664500  0.03437000  1
  O  O33  1  0.75622900  0.49335500  0.96563000  1
  O  O34  1  0.25622900  0.00664500  0.46563000  1
  O  O35  1  0.75622900  0.99335500  0.03437000  1
  O  O36  1  0.74377100  0.99335500  0.53437000  1
  O  O37  1  0.24377100  0.00664500  0.96563000  1
  O  O38  1  0.74377100  0.49335500  0.46563000  1
  O  O39  1  0.25622900  0.50664500  0.53437000  1
  O  O40  1  0.24557900  0.69259700  0.40959100  1
  O  O41  1  0.75442100  0.30740300  0.59040900  1
  O  O42  1  0.25442100  0.19259700  0.09040900  1
  O  O43  1  0.75442100  0.80740300  0.40959100  1
  O  O44  1  0.74557900  0.80740300  0.90959100  1
  O  O45  1  0.24557900  0.19259700  0.59040900  1
  O  O46  1  0.74557900  0.30740300  0.09040900  1
  O  O47  1  0.25442100  0.69259700  0.90959100  1
