# generated using pymatgen
data_La3TaTi2O11
_symmetry_space_group_name_H-M   'P 1'
_cell_length_a   3.95841300
_cell_length_b   5.62510900
_cell_length_c   20.41340700
_cell_angle_alpha   90.00000000
_cell_angle_beta   90.00000000
_cell_angle_gamma   90.00000000
_symmetry_Int_Tables_number   1
_chemical_formula_structural   La3TaTi2O11
_chemical_formula_sum   'La6 Ta2 Ti4 O22'
_cell_volume   454.53522070
_cell_formula_units_Z   2
loop_
 _symmetry_equiv_pos_site_id
 _symmetry_equiv_pos_as_xyz
  1  'x, y, z'
loop_
 _atom_site_type_symbol
 _atom_site_label
 _atom_site_symmetry_multiplicity
 _atom_site_fract_x
 _atom_site_fract_y
 _atom_site_fract_z
 _atom_site_occupancy
  La  La0  1  0.50000000  0.18593600  0.12729600  1
  La  La1  1  0.50000000  0.68593600  0.87270400  1
  La  La2  1  0.00000000  0.69186900  0.24046400  1
  La  La3  1  0.00000000  0.19186900  0.75953600  1
  La  La4  1  0.00000000  0.72190400  0.56603600  1
  La  La5  1  0.00000000  0.22190400  0.43396400  1
  Ta  Ta6  1  0.00000000  0.73184200  0.06296900  1
  Ta  Ta7  1  0.00000000  0.23184200  0.93703100  1
  Ti  Ti8  1  0.50000000  0.72908900  0.70509900  1
  Ti  Ti9  1  0.50000000  0.22908900  0.29490100  1
  Ti  Ti10  1  0.50000000  0.73100600  0.42344600  1
  Ti  Ti11  1  0.50000000  0.23100600  0.57655400  1
  O  O12  1  0.00000000  0.94325900  0.14544300  1
  O  O13  1  0.00000000  0.44325900  0.85455700  1
  O  O14  1  0.50000000  0.56001800  0.35013400  1
  O  O15  1  0.50000000  0.06001800  0.64986600  1
  O  O16  1  0.00000000  0.07051200  0.02062300  1
  O  O17  1  0.00000000  0.57051200  0.97937700  1
  O  O18  1  0.50000000  0.96631000  0.24215700  1
  O  O19  1  0.50000000  0.46631000  0.75784300  1
  O  O20  1  0.50000000  0.96191400  0.51671100  1
  O  O21  1  0.50000000  0.46191400  0.48328900  1
  O  O22  1  0.50000000  0.76526600  0.06577600  1
  O  O23  1  0.50000000  0.26526600  0.93422400  1
  O  O24  1  0.00000000  0.46265400  0.12118300  1
  O  O25  1  0.00000000  0.96265400  0.87881700  1
  O  O26  1  0.50000000  0.44570200  0.22210600  1
  O  O27  1  0.50000000  0.94570200  0.77789400  1
  O  O28  1  0.00000000  0.26269100  0.30626600  1
  O  O29  1  0.00000000  0.76269100  0.69373400  1
  O  O30  1  0.00000000  0.76417100  0.43820400  1
  O  O31  1  0.00000000  0.26417100  0.56179600  1
  O  O32  1  0.50000000  0.55685600  0.61755700  1
  O  O33  1  0.50000000  0.05685600  0.38244300  1
