# generated using pymatgen
data_KAgTeS3
_symmetry_space_group_name_H-M   'P 1'
_cell_length_a   16.48008000
_cell_length_b   6.38252400
_cell_length_c   8.65934361
_cell_angle_alpha   48.27878305
_cell_angle_beta   90.00000000
_cell_angle_gamma   90.00000000
_symmetry_Int_Tables_number   1
_chemical_formula_structural   KAgTeS3
_chemical_formula_sum   'K4 Ag4 Te4 S12'
_cell_volume   679.83512659
_cell_formula_units_Z   4
loop_
 _symmetry_equiv_pos_site_id
 _symmetry_equiv_pos_as_xyz
  1  'x, y, z'
loop_
 _atom_site_type_symbol
 _atom_site_label
 _atom_site_symmetry_multiplicity
 _atom_site_fract_x
 _atom_site_fract_y
 _atom_site_fract_z
 _atom_site_occupancy
  K  K0  1  0.60291000  0.75444700  0.22545600  1
  K  K1  1  0.39709000  0.24555300  0.77454400  1
  K  K2  1  0.10291000  0.24555300  0.27454400  1
  K  K3  1  0.89709000  0.75444700  0.72545600  1
  Ag  Ag4  1  0.75748000  0.27651900  0.20561400  1
  Ag  Ag5  1  0.24252000  0.72348100  0.79438600  1
  Ag  Ag6  1  0.25748000  0.72348100  0.29438600  1
  Ag  Ag7  1  0.74252000  0.27651900  0.70561400  1
  Te  Te8  1  0.91117700  0.75756600  0.22771900  1
  Te  Te9  1  0.08882300  0.24243400  0.77228100  1
  Te  Te10  1  0.41117700  0.24243400  0.27228100  1
  Te  Te11  1  0.58882300  0.75756600  0.72771900  1
  S  S12  1  0.78640800  0.78302500  0.07694700  1
  S  S13  1  0.21359200  0.21697500  0.92305300  1
  S  S14  1  0.28640800  0.21697500  0.42305300  1
  S  S15  1  0.71359200  0.78302500  0.57694700  1
  S  S16  1  0.61087300  0.36964900  0.08705000  1
  S  S17  1  0.38912700  0.63035100  0.91295000  1
  S  S18  1  0.11087300  0.63035100  0.41295000  1
  S  S19  1  0.88912700  0.36964900  0.58705000  1
  S  S20  1  0.40346200  0.84910600  0.29327800  1
  S  S21  1  0.59653800  0.15089400  0.70672200  1
  S  S22  1  0.90346200  0.15089400  0.20672200  1
  S  S23  1  0.09653800  0.84910600  0.79327800  1
