# generated using pymatgen
data_KNd2Br5
_symmetry_space_group_name_H-M   'P 1'
_cell_length_a   7.58803000
_cell_length_b   9.18063600
_cell_length_c   14.23560395
_cell_angle_alpha   89.85763383
_cell_angle_beta   90.00000000
_cell_angle_gamma   90.00000000
_symmetry_Int_Tables_number   1
_chemical_formula_structural   KNd2Br5
_chemical_formula_sum   'K4 Nd8 Br20'
_cell_volume   991.69098189
_cell_formula_units_Z   4
loop_
 _symmetry_equiv_pos_site_id
 _symmetry_equiv_pos_as_xyz
  1  'x, y, z'
loop_
 _atom_site_type_symbol
 _atom_site_label
 _atom_site_symmetry_multiplicity
 _atom_site_fract_x
 _atom_site_fract_y
 _atom_site_fract_z
 _atom_site_occupancy
  K  K0  1  0.05456500  0.49596100  0.33246200  1
  K  K1  1  0.94543500  0.50403900  0.66753800  1
  K  K2  1  0.55456500  0.50403900  0.16753800  1
  K  K3  1  0.44543500  0.49596100  0.83246200  1
  Nd  Nd4  1  0.10424600  0.99108600  0.34370800  1
  Nd  Nd5  1  0.89575400  0.00891400  0.65629200  1
  Nd  Nd6  1  0.60424600  0.00891400  0.15629200  1
  Nd  Nd7  1  0.39575400  0.99108600  0.84370800  1
  Nd  Nd8  1  0.03272600  0.20358800  0.99890600  1
  Nd  Nd9  1  0.96727400  0.79641200  0.00109400  1
  Nd  Nd10  1  0.53272600  0.79641200  0.50109400  1
  Nd  Nd11  1  0.46727400  0.20358800  0.49890600  1
  Br  Br12  1  0.17306900  0.52619900  0.07898100  1
  Br  Br13  1  0.82693100  0.47380100  0.92101900  1
  Br  Br14  1  0.67306900  0.47380100  0.42101900  1
  Br  Br15  1  0.32693100  0.52619900  0.57898100  1
  Br  Br16  1  0.85141400  0.25265700  0.18397800  1
  Br  Br17  1  0.14858600  0.74734300  0.81602200  1
  Br  Br18  1  0.35141400  0.74734300  0.31602200  1
  Br  Br19  1  0.64858600  0.25265700  0.68397800  1
  Br  Br20  1  0.34010800  0.23952300  0.29413800  1
  Br  Br21  1  0.65989200  0.76047700  0.70586200  1
  Br  Br22  1  0.84010800  0.76047700  0.20586200  1
  Br  Br23  1  0.15989200  0.23952300  0.79413800  1
  Br  Br24  1  0.45269400  0.21146600  0.99895000  1
  Br  Br25  1  0.54730600  0.78853400  0.00105000  1
  Br  Br26  1  0.95269400  0.78853400  0.50105000  1
  Br  Br27  1  0.04730600  0.21146600  0.49895000  1
  Br  Br28  1  0.69288300  0.02422900  0.36636900  1
  Br  Br29  1  0.30711700  0.97577100  0.63363100  1
  Br  Br30  1  0.19288300  0.97577100  0.13363100  1
  Br  Br31  1  0.80711700  0.02422900  0.86636900  1
