# generated using pymatgen
data_Mn(SO6)2
_symmetry_space_group_name_H-M   'P 1'
_cell_length_a   5.69013000
_cell_length_b   9.41476100
_cell_length_c   16.26258500
_cell_angle_alpha   90.00000000
_cell_angle_beta   90.00000000
_cell_angle_gamma   90.00000000
_symmetry_Int_Tables_number   1
_chemical_formula_structural   Mn(SO6)2
_chemical_formula_sum   'Mn4 S8 O48'
_cell_volume   871.20642137
_cell_formula_units_Z   4
loop_
 _symmetry_equiv_pos_site_id
 _symmetry_equiv_pos_as_xyz
  1  'x, y, z'
loop_
 _atom_site_type_symbol
 _atom_site_label
 _atom_site_symmetry_multiplicity
 _atom_site_fract_x
 _atom_site_fract_y
 _atom_site_fract_z
 _atom_site_occupancy
  Mn  Mn0  1  0.00000000  0.00000000  0.00000000  1
  Mn  Mn1  1  0.50000000  0.50000000  0.00000000  1
  Mn  Mn2  1  0.00000000  0.00000000  0.50000000  1
  Mn  Mn3  1  0.50000000  0.50000000  0.50000000  1
  S  S4  1  0.21021400  0.25913700  0.09199600  1
  S  S5  1  0.78978600  0.74086300  0.90800400  1
  S  S6  1  0.71021400  0.24086300  0.90800400  1
  S  S7  1  0.78978600  0.74086300  0.59199600  1
  S  S8  1  0.28978600  0.75913700  0.09199600  1
  S  S9  1  0.21021400  0.25913700  0.40800400  1
  S  S10  1  0.28978600  0.75913700  0.40800400  1
  S  S11  1  0.71021400  0.24086300  0.59199600  1
  O  O12  1  0.59751200  0.59179700  0.25000000  1
  O  O13  1  0.40248800  0.40820300  0.75000000  1
  O  O14  1  0.09751200  0.90820300  0.75000000  1
  O  O15  1  0.90248800  0.09179700  0.25000000  1
  O  O16  1  0.55676800  0.36306300  0.25000000  1
  O  O17  1  0.44323200  0.63693700  0.75000000  1
  O  O18  1  0.05676800  0.13693700  0.75000000  1
  O  O19  1  0.94323200  0.86306300  0.25000000  1
  O  O20  1  0.41650700  0.21277000  0.13738700  1
  O  O21  1  0.58349300  0.78723000  0.86261300  1
  O  O22  1  0.91650700  0.28723000  0.86261300  1
  O  O23  1  0.58349300  0.78723000  0.63738700  1
  O  O24  1  0.08349300  0.71277000  0.13738700  1
  O  O25  1  0.41650700  0.21277000  0.36261300  1
  O  O26  1  0.08349300  0.71277000  0.36261300  1
  O  O27  1  0.91650700  0.28723000  0.63738700  1
  O  O28  1  0.84569300  0.03279300  0.09389900  1
  O  O29  1  0.15430700  0.96720700  0.90610100  1
  O  O30  1  0.34569300  0.46720700  0.90610100  1
  O  O31  1  0.15430700  0.96720700  0.59389900  1
  O  O32  1  0.65430700  0.53279300  0.09389900  1
  O  O33  1  0.84569300  0.03279300  0.40610100  1
  O  O34  1  0.65430700  0.53279300  0.40610100  1
  O  O35  1  0.34569300  0.46720700  0.59389900  1
  O  O36  1  0.17987600  0.17487600  0.01206000  1
  O  O37  1  0.82012400  0.82512400  0.98794000  1
  O  O38  1  0.67987600  0.32512400  0.98794000  1
  O  O39  1  0.82012400  0.82512400  0.51206000  1
  O  O40  1  0.32012400  0.67487600  0.01206000  1
  O  O41  1  0.17987600  0.17487600  0.48794000  1
  O  O42  1  0.32012400  0.67487600  0.48794000  1
  O  O43  1  0.67987600  0.32512400  0.51206000  1
  O  O44  1  0.98720800  0.25014300  0.13933900  1
  O  O45  1  0.01279200  0.74985700  0.86066100  1
  O  O46  1  0.48720800  0.24985700  0.86066100  1
  O  O47  1  0.01279200  0.74985700  0.63933900  1
  O  O48  1  0.51279200  0.75014300  0.13933900  1
  O  O49  1  0.98720800  0.25014300  0.36066100  1
  O  O50  1  0.51279200  0.75014300  0.36066100  1
  O  O51  1  0.48720800  0.24985700  0.63933900  1
  O  O52  1  0.23247800  0.41161200  0.06310000  1
  O  O53  1  0.76752200  0.58838800  0.93690000  1
  O  O54  1  0.73247800  0.08838800  0.93690000  1
  O  O55  1  0.76752200  0.58838800  0.56310000  1
  O  O56  1  0.26752200  0.91161200  0.06310000  1
  O  O57  1  0.23247800  0.41161200  0.43690000  1
  O  O58  1  0.26752200  0.91161200  0.43690000  1
  O  O59  1  0.73247800  0.08838800  0.56310000  1
