# generated using pymatgen
data_MnP3H6NO7
_symmetry_space_group_name_H-M   'P 1'
_cell_length_a   7.64052741
_cell_length_b   9.50117240
_cell_length_c   15.58667400
_cell_angle_alpha   90.00000000
_cell_angle_beta   90.00000000
_cell_angle_gamma   109.05976266
_symmetry_Int_Tables_number   1
_chemical_formula_structural   MnP3H6NO7
_chemical_formula_sum   'Mn4 P12 H24 N4 O28'
_cell_volume   1069.46804282
_cell_formula_units_Z   4
loop_
 _symmetry_equiv_pos_site_id
 _symmetry_equiv_pos_as_xyz
  1  'x, y, z'
loop_
 _atom_site_type_symbol
 _atom_site_label
 _atom_site_symmetry_multiplicity
 _atom_site_fract_x
 _atom_site_fract_y
 _atom_site_fract_z
 _atom_site_occupancy
  Mn  Mn0  1  0.09607500  0.59498800  0.17162400  1
  Mn  Mn1  1  0.90392500  0.40501200  0.82837600  1
  Mn  Mn2  1  0.40392500  0.90501200  0.67162400  1
  Mn  Mn3  1  0.59607500  0.09498800  0.32837600  1
  P  P4  1  0.34870300  0.96205200  0.14829000  1
  P  P5  1  0.65129700  0.03794800  0.85171000  1
  P  P6  1  0.15129700  0.53794800  0.64829000  1
  P  P7  1  0.84870300  0.46205200  0.35171000  1
  P  P8  1  0.80589800  0.73323300  0.06730300  1
  P  P9  1  0.19410200  0.26676700  0.93269700  1
  P  P10  1  0.69410200  0.76676700  0.56730300  1
  P  P11  1  0.30589800  0.23323300  0.43269700  1
  P  P12  1  0.44173400  0.68436000  0.32909300  1
  P  P13  1  0.55826600  0.31564000  0.67090700  1
  P  P14  1  0.05826600  0.81564000  0.82909300  1
  P  P15  1  0.94173400  0.18436000  0.17090700  1
  H  H16  1  0.28640000  0.95555400  0.50371500  1
  H  H17  1  0.71360000  0.04444600  0.49628500  1
  H  H18  1  0.21360000  0.54444600  0.00371500  1
  H  H19  1  0.78640000  0.45555400  0.99628500  1
  H  H20  1  0.98113600  0.80069100  0.31009300  1
  H  H21  1  0.01886400  0.19930900  0.68990700  1
  H  H22  1  0.51886400  0.69930900  0.81009300  1
  H  H23  1  0.48113600  0.30069100  0.18990700  1
  H  H24  1  0.56585900  0.53512700  0.80848200  1
  H  H25  1  0.43414100  0.46487300  0.19151800  1
  H  H26  1  0.93414100  0.96487300  0.30848200  1
  H  H27  1  0.06585900  0.03512700  0.69151800  1
  H  H28  1  0.11354900  0.83551800  0.54503400  1
  H  H29  1  0.88645100  0.16448200  0.45496600  1
  H  H30  1  0.38645100  0.66448200  0.04503400  1
  H  H31  1  0.61354900  0.33551800  0.95496600  1
  H  H32  1  0.92211800  0.86812100  0.40256200  1
  H  H33  1  0.07788200  0.13187900  0.59743800  1
  H  H34  1  0.57788200  0.63187900  0.90256200  1
  H  H35  1  0.42211800  0.36812100  0.09743800  1
  H  H36  1  0.12753600  0.95474000  0.35672300  1
  H  H37  1  0.87246400  0.04526000  0.64327700  1
  H  H38  1  0.37246400  0.54526000  0.85672300  1
  H  H39  1  0.62753600  0.45474000  0.14327700  1
  N  N40  1  0.98974700  0.89670100  0.34382500  1
  N  N41  1  0.01025300  0.10329900  0.65617500  1
  N  N42  1  0.51025300  0.60329900  0.84382500  1
  N  N43  1  0.48974700  0.39670100  0.15617500  1
  O  O44  1  0.84940100  0.58966200  0.09159600  1
  O  O45  1  0.15059900  0.41033800  0.90840400  1
  O  O46  1  0.65059900  0.91033800  0.59159600  1
  O  O47  1  0.34940100  0.08966200  0.40840400  1
  O  O48  1  0.52635300  0.85275700  0.32741400  1
  O  O49  1  0.47364700  0.14724300  0.67258600  1
  O  O50  1  0.97364700  0.64724300  0.82741400  1
  O  O51  1  0.02635300  0.35275700  0.17258600  1
  O  O52  1  0.18453400  0.83867600  0.18517300  1
  O  O53  1  0.81546600  0.16132400  0.81482700  1
  O  O54  1  0.31546600  0.66132400  0.68517300  1
  O  O55  1  0.68453400  0.33867600  0.31482700  1
  O  O56  1  0.14195200  0.88616000  0.74347800  1
  O  O57  1  0.85804800  0.11384000  0.25652200  1
  O  O58  1  0.35804800  0.61384000  0.24347800  1
  O  O59  1  0.64195200  0.38616000  0.75652200  1
  O  O60  1  0.93187800  0.58905900  0.28750900  1
  O  O61  1  0.06812200  0.41094100  0.71249100  1
  O  O62  1  0.56812200  0.91094100  0.78750900  1
  O  O63  1  0.43187800  0.08905900  0.21249100  1
  O  O64  1  0.24916100  0.88226900  0.55053600  1
  O  O65  1  0.75083900  0.11773100  0.44946400  1
  O  O66  1  0.25083900  0.61773100  0.05053600  1
  O  O67  1  0.74916100  0.38226900  0.94946400  1
  O  O68  1  0.86949500  0.80262600  0.51419300  1
  O  O69  1  0.13050500  0.19737400  0.48580700  1
  O  O70  1  0.63050500  0.69737400  0.01419300  1
  O  O71  1  0.36949500  0.30262600  0.98580700  1
