# generated using pymatgen
data_K2SmNb5O15
_symmetry_space_group_name_H-M   'P 1'
_cell_length_a   12.77141300
_cell_length_b   12.77141300
_cell_length_c   3.96380700
_cell_angle_alpha   90.00000000
_cell_angle_beta   90.00000000
_cell_angle_gamma   90.00000000
_symmetry_Int_Tables_number   1
_chemical_formula_structural   K2SmNb5O15
_chemical_formula_sum   'K4 Sm2 Nb10 O30'
_cell_volume   646.53255639
_cell_formula_units_Z   2
loop_
 _symmetry_equiv_pos_site_id
 _symmetry_equiv_pos_as_xyz
  1  'x, y, z'
loop_
 _atom_site_type_symbol
 _atom_site_label
 _atom_site_symmetry_multiplicity
 _atom_site_fract_x
 _atom_site_fract_y
 _atom_site_fract_z
 _atom_site_occupancy
  K  K0  1  0.66990000  0.16990000  0.50000000  1
  K  K1  1  0.33010000  0.83010000  0.50000000  1
  K  K2  1  0.16990000  0.33010000  0.50000000  1
  K  K3  1  0.83010000  0.66990000  0.50000000  1
  Sm  Sm4  1  0.00000000  0.00000000  0.50000000  1
  Sm  Sm5  1  0.50000000  0.50000000  0.50000000  1
  Nb  Nb6  1  0.50000000  0.00000000  0.00000000  1
  Nb  Nb7  1  0.00000000  0.50000000  0.00000000  1
  Nb  Nb8  1  0.21285300  0.07652200  0.00000000  1
  Nb  Nb9  1  0.78714700  0.92347800  0.00000000  1
  Nb  Nb10  1  0.07652200  0.78714700  0.00000000  1
  Nb  Nb11  1  0.71285300  0.42347800  0.00000000  1
  Nb  Nb12  1  0.92347800  0.21285300  0.00000000  1
  Nb  Nb13  1  0.28714700  0.57652200  0.00000000  1
  Nb  Nb14  1  0.57652200  0.71285300  0.00000000  1
  Nb  Nb15  1  0.42347800  0.28714700  0.00000000  1
  O  O16  1  0.18822000  0.07880000  0.50000000  1
  O  O17  1  0.81178000  0.92120000  0.50000000  1
  O  O18  1  0.07880000  0.81178000  0.50000000  1
  O  O19  1  0.68822000  0.42120000  0.50000000  1
  O  O20  1  0.92120000  0.18822000  0.50000000  1
  O  O21  1  0.31178000  0.57880000  0.50000000  1
  O  O22  1  0.57880000  0.68822000  0.50000000  1
  O  O23  1  0.42120000  0.31178000  0.50000000  1
  O  O24  1  0.21803700  0.71803700  0.00000000  1
  O  O25  1  0.78196300  0.28196300  0.00000000  1
  O  O26  1  0.71803700  0.78196300  0.00000000  1
  O  O27  1  0.28196300  0.21803700  0.00000000  1
  O  O28  1  0.50000000  0.00000000  0.50000000  1
  O  O29  1  0.00000000  0.50000000  0.50000000  1
  O  O30  1  0.05782200  0.13079100  0.00000000  1
  O  O31  1  0.94217800  0.86920900  0.00000000  1
  O  O32  1  0.13079100  0.94217800  0.00000000  1
  O  O33  1  0.55782200  0.36920900  0.00000000  1
  O  O34  1  0.86920900  0.05782200  0.00000000  1
  O  O35  1  0.44217800  0.63079100  0.00000000  1
  O  O36  1  0.63079100  0.55782200  0.00000000  1
  O  O37  1  0.36920900  0.44217800  0.00000000  1
  O  O38  1  0.34207200  0.99901400  0.00000000  1
  O  O39  1  0.65792800  0.00098600  0.00000000  1
  O  O40  1  0.99901400  0.65792800  0.00000000  1
  O  O41  1  0.84207200  0.50098600  0.00000000  1
  O  O42  1  0.00098600  0.34207200  0.00000000  1
  O  O43  1  0.15792800  0.49901400  0.00000000  1
  O  O44  1  0.49901400  0.84207200  0.00000000  1
  O  O45  1  0.50098600  0.15792800  0.00000000  1
