# generated using pymatgen
data_La5CoGe3
_symmetry_space_group_name_H-M   'P 1'
_cell_length_a   9.05948735
_cell_length_b   9.05948735
_cell_length_c   7.15458300
_cell_angle_alpha   90.00000000
_cell_angle_beta   90.00000000
_cell_angle_gamma   119.99999524
_symmetry_Int_Tables_number   1
_chemical_formula_structural   La5CoGe3
_chemical_formula_sum   'La10 Co2 Ge6'
_cell_volume   508.53661093
_cell_formula_units_Z   2
loop_
 _symmetry_equiv_pos_site_id
 _symmetry_equiv_pos_as_xyz
  1  'x, y, z'
loop_
 _atom_site_type_symbol
 _atom_site_label
 _atom_site_symmetry_multiplicity
 _atom_site_fract_x
 _atom_site_fract_y
 _atom_site_fract_z
 _atom_site_occupancy
  La  La0  1  0.23832400  0.00000000  0.25000000  1
  La  La1  1  0.76167600  0.00000000  0.75000000  1
  La  La2  1  0.00000000  0.23832400  0.25000000  1
  La  La3  1  0.00000000  0.76167600  0.75000000  1
  La  La4  1  0.76167600  0.76167600  0.25000000  1
  La  La5  1  0.23832400  0.23832400  0.75000000  1
  La  La6  1  0.33333300  0.66666700  0.00000000  1
  La  La7  1  0.66666700  0.33333300  0.00000000  1
  La  La8  1  0.66666700  0.33333300  0.50000000  1
  La  La9  1  0.33333300  0.66666700  0.50000000  1
  Co  Co10  1  0.00000000  0.00000000  0.00000000  1
  Co  Co11  1  0.00000000  0.00000000  0.50000000  1
  Ge  Ge12  1  0.59083200  0.00000000  0.25000000  1
  Ge  Ge13  1  0.40916800  0.00000000  0.75000000  1
  Ge  Ge14  1  0.00000000  0.59083200  0.25000000  1
  Ge  Ge15  1  0.00000000  0.40916800  0.75000000  1
  Ge  Ge16  1  0.40916800  0.40916800  0.25000000  1
  Ge  Ge17  1  0.59083200  0.59083200  0.75000000  1
