# generated using pymatgen
data_PtRhBr4N5Cl
_symmetry_space_group_name_H-M   'P 1'
_cell_length_a   9.67187000
_cell_length_b   16.55894100
_cell_length_c   7.70261000
_cell_angle_alpha   90.00000000
_cell_angle_beta   90.00000000
_cell_angle_gamma   90.00000000
_symmetry_Int_Tables_number   1
_chemical_formula_structural   PtRhBr4N5Cl
_chemical_formula_sum   'Pt4 Rh4 Br16 N20 Cl4'
_cell_volume   1233.61862707
_cell_formula_units_Z   4
loop_
 _symmetry_equiv_pos_site_id
 _symmetry_equiv_pos_as_xyz
  1  'x, y, z'
loop_
 _atom_site_type_symbol
 _atom_site_label
 _atom_site_symmetry_multiplicity
 _atom_site_fract_x
 _atom_site_fract_y
 _atom_site_fract_z
 _atom_site_occupancy
  Pt  Pt0  1  0.75000000  0.74774300  0.41147300  1
  Pt  Pt1  1  0.25000000  0.25225700  0.58852700  1
  Pt  Pt2  1  0.25000000  0.75225700  0.91147300  1
  Pt  Pt3  1  0.75000000  0.24774300  0.08852700  1
  Rh  Rh4  1  0.75000000  0.85603200  0.81801900  1
  Rh  Rh5  1  0.25000000  0.14396800  0.18198100  1
  Rh  Rh6  1  0.25000000  0.64396800  0.31801900  1
  Rh  Rh7  1  0.75000000  0.35603200  0.68198100  1
  Br  Br8  1  0.75000000  0.98519900  0.57246300  1
  Br  Br9  1  0.25000000  0.01480100  0.42753700  1
  Br  Br10  1  0.25000000  0.51480100  0.07246300  1
  Br  Br11  1  0.75000000  0.48519900  0.92753700  1
  Br  Br12  1  0.99877700  0.72331400  0.84715000  1
  Br  Br13  1  0.00122300  0.27668600  0.15285000  1
  Br  Br14  1  0.00122300  0.77668600  0.34715000  1
  Br  Br15  1  0.49877700  0.27668600  0.15285000  1
  Br  Br16  1  0.99877700  0.22331400  0.65285000  1
  Br  Br17  1  0.50122300  0.72331400  0.84715000  1
  Br  Br18  1  0.50122300  0.22331400  0.65285000  1
  Br  Br19  1  0.49877700  0.77668600  0.34715000  1
  Br  Br20  1  0.75000000  0.65231700  0.17118900  1
  Br  Br21  1  0.25000000  0.34768300  0.82881100  1
  Br  Br22  1  0.25000000  0.84768300  0.67118900  1
  Br  Br23  1  0.75000000  0.15231700  0.32881100  1
  N  N24  1  0.91313300  0.81821400  0.93040400  1
  N  N25  1  0.08686700  0.18178600  0.06959600  1
  N  N26  1  0.08686700  0.68178600  0.43040400  1
  N  N27  1  0.41313300  0.18178600  0.06959600  1
  N  N28  1  0.91313300  0.31821400  0.56959600  1
  N  N29  1  0.58686700  0.81821400  0.93040400  1
  N  N30  1  0.58686700  0.31821400  0.56959600  1
  N  N31  1  0.41313300  0.68178600  0.43040400  1
  N  N32  1  0.89165900  0.93744000  0.66572700  1
  N  N33  1  0.10834100  0.06256000  0.33427300  1
  N  N34  1  0.10834100  0.56256000  0.16572700  1
  N  N35  1  0.39165900  0.06256000  0.33427300  1
  N  N36  1  0.89165900  0.43744000  0.83427300  1
  N  N37  1  0.60834100  0.93744000  0.66572700  1
  N  N38  1  0.60834100  0.43744000  0.83427300  1
  N  N39  1  0.39165900  0.56256000  0.16572700  1
  N  N40  1  0.75000000  0.78289400  0.63474000  1
  N  N41  1  0.25000000  0.21710600  0.36526000  1
  N  N42  1  0.25000000  0.71710600  0.13474000  1
  N  N43  1  0.75000000  0.28289400  0.86526000  1
  Cl  Cl44  1  0.75000000  0.45706400  0.46127200  1
  Cl  Cl45  1  0.25000000  0.54293600  0.53872900  1
  Cl  Cl46  1  0.25000000  0.04293600  0.96127100  1
  Cl  Cl47  1  0.75000000  0.95706400  0.03872800  1
