# generated using pymatgen
data_LuIO9
_symmetry_space_group_name_H-M   'P 1'
_cell_length_a   10.78708000
_cell_length_b   7.25841400
_cell_length_c   10.48991812
_cell_angle_alpha   56.36035685
_cell_angle_beta   90.00000000
_cell_angle_gamma   90.00000000
_symmetry_Int_Tables_number   1
_chemical_formula_structural   LuIO9
_chemical_formula_sum   'Lu4 I4 O36'
_cell_volume   683.78863108
_cell_formula_units_Z   4
loop_
 _symmetry_equiv_pos_site_id
 _symmetry_equiv_pos_as_xyz
  1  'x, y, z'
loop_
 _atom_site_type_symbol
 _atom_site_label
 _atom_site_symmetry_multiplicity
 _atom_site_fract_x
 _atom_site_fract_y
 _atom_site_fract_z
 _atom_site_occupancy
  Lu  Lu0  1  0.59108300  0.82531000  0.18041200  1
  Lu  Lu1  1  0.40891700  0.17469000  0.81958800  1
  Lu  Lu2  1  0.09108300  0.17469000  0.31958800  1
  Lu  Lu3  1  0.90891700  0.82531000  0.68041200  1
  I  I4  1  0.81513700  0.02639100  0.26614200  1
  I  I5  1  0.18486300  0.97360900  0.73385800  1
  I  I6  1  0.31513700  0.97360900  0.23385800  1
  I  I7  1  0.68486300  0.02639100  0.76614200  1
  O  O8  1  0.92768900  0.92477800  0.43857400  1
  O  O9  1  0.07231100  0.07522200  0.56142600  1
  O  O10  1  0.42768900  0.07522200  0.06142600  1
  O  O11  1  0.57231100  0.92477800  0.93857400  1
  O  O12  1  0.22886100  0.91168000  0.40667100  1
  O  O13  1  0.77113900  0.08832000  0.59332900  1
  O  O14  1  0.72886100  0.08832000  0.09332900  1
  O  O15  1  0.27113900  0.91168000  0.90667100  1
  O  O16  1  0.72654900  0.52659800  0.19569900  1
  O  O17  1  0.27345100  0.47340200  0.80430100  1
  O  O18  1  0.22654900  0.47340200  0.30430100  1
  O  O19  1  0.77345100  0.52659800  0.69569900  1
  O  O20  1  0.72878200  0.75863100  0.37192000  1
  O  O21  1  0.27121800  0.24136900  0.62808000  1
  O  O22  1  0.22878200  0.24136900  0.12808000  1
  O  O23  1  0.77121800  0.75863100  0.87192000  1
  O  O24  1  0.53001300  0.46261400  0.29011900  1
  O  O25  1  0.46998700  0.53738600  0.70988100  1
  O  O26  1  0.03001300  0.53738600  0.20988100  1
  O  O27  1  0.96998700  0.46261400  0.79011900  1
  O  O28  1  0.45421200  0.38451300  0.23322600  1
  O  O29  1  0.54578800  0.61548700  0.76677400  1
  O  O30  1  0.95421200  0.61548700  0.26677400  1
  O  O31  1  0.04578800  0.38451300  0.73322600  1
  O  O32  1  0.21296700  0.80690200  0.19088000  1
  O  O33  1  0.78703300  0.19309800  0.80912000  1
  O  O34  1  0.71296700  0.19309800  0.30912000  1
  O  O35  1  0.28703300  0.80690200  0.69088000  1
  O  O36  1  0.44588900  0.78742500  0.34420200  1
  O  O37  1  0.55411100  0.21257500  0.65579800  1
  O  O38  1  0.94588900  0.21257500  0.15579800  1
  O  O39  1  0.05411100  0.78742500  0.84420200  1
  O  O40  1  0.94458700  0.83274200  0.17878500  1
  O  O41  1  0.05541300  0.16725800  0.82121500  1
  O  O42  1  0.44458700  0.16725800  0.32121500  1
  O  O43  1  0.55541300  0.83274200  0.67878500  1
