# generated using pymatgen
data_KIn(PSe3)2
_symmetry_space_group_name_H-M   'P 1'
_cell_length_a   6.61888400
_cell_length_b   7.74793600
_cell_length_c   23.39561612
_cell_angle_alpha   79.15200364
_cell_angle_beta   90.00000000
_cell_angle_gamma   90.00000000
_symmetry_Int_Tables_number   1
_chemical_formula_structural   KIn(PSe3)2
_chemical_formula_sum   'K4 In4 P8 Se24'
_cell_volume   1178.34979572
_cell_formula_units_Z   4
loop_
 _symmetry_equiv_pos_site_id
 _symmetry_equiv_pos_as_xyz
  1  'x, y, z'
loop_
 _atom_site_type_symbol
 _atom_site_label
 _atom_site_symmetry_multiplicity
 _atom_site_fract_x
 _atom_site_fract_y
 _atom_site_fract_z
 _atom_site_occupancy
  K  K0  1  0.51274400  0.67357600  0.28138400  1
  K  K1  1  0.48725600  0.32642400  0.71861600  1
  K  K2  1  0.01274400  0.32642400  0.21861600  1
  K  K3  1  0.98725600  0.67357600  0.78138400  1
  In  In4  1  0.25128200  0.90867600  0.04611500  1
  In  In5  1  0.74871800  0.09132400  0.95388500  1
  In  In6  1  0.75128200  0.09132400  0.45388500  1
  In  In7  1  0.24871800  0.90867600  0.54611500  1
  P  P8  1  0.75609300  0.90454300  0.13245000  1
  P  P9  1  0.24390700  0.09545700  0.86755000  1
  P  P10  1  0.25609300  0.09545700  0.36755000  1
  P  P11  1  0.74390700  0.90454300  0.63245000  1
  P  P12  1  0.74805500  0.65894200  0.09166400  1
  P  P13  1  0.25194500  0.34105800  0.90833600  1
  P  P14  1  0.24805500  0.34105800  0.40833600  1
  P  P15  1  0.75194500  0.65894200  0.59166400  1
  Se  Se16  1  0.56826400  0.41300100  0.42007400  1
  Se  Se17  1  0.43173600  0.58699900  0.57992600  1
  Se  Se18  1  0.06826400  0.58699900  0.07992600  1
  Se  Se19  1  0.93173600  0.41300100  0.92007400  1
  Se  Se20  1  0.41545900  0.88795700  0.43307700  1
  Se  Se21  1  0.58454100  0.11204300  0.56692300  1
  Se  Se22  1  0.91545900  0.11204300  0.06692300  1
  Se  Se23  1  0.08454100  0.88795700  0.93307700  1
  Se  Se24  1  0.58833300  0.74817600  0.00510300  1
  Se  Se25  1  0.41166700  0.25182400  0.99489700  1
  Se  Se26  1  0.08833300  0.25182400  0.49489700  1
  Se  Se27  1  0.91166700  0.74817600  0.50510300  1
  Se  Se28  1  0.92723300  0.85685500  0.21262600  1
  Se  Se29  1  0.07276700  0.14314500  0.78737400  1
  Se  Se30  1  0.42723300  0.14314500  0.28737400  1
  Se  Se31  1  0.57276700  0.85685500  0.71262600  1
  Se  Se32  1  0.43361900  0.96512600  0.14682200  1
  Se  Se33  1  0.56638100  0.03487400  0.85317800  1
  Se  Se34  1  0.93361900  0.03487400  0.35317800  1
  Se  Se35  1  0.06638100  0.96512600  0.64682200  1
  Se  Se36  1  0.58230400  0.45376300  0.14687600  1
  Se  Se37  1  0.41769600  0.54623700  0.85312400  1
  Se  Se38  1  0.08230400  0.54623700  0.35312400  1
  Se  Se39  1  0.91769600  0.45376300  0.64687600  1
