# generated using pymatgen
data_KMg3(SiO3)4
_symmetry_space_group_name_H-M   'P 1'
_cell_length_a   5.30771386
_cell_length_b   5.30771386
_cell_length_c   32.06602300
_cell_angle_alpha   90.00000000
_cell_angle_beta   90.00000000
_cell_angle_gamma   119.99999827
_symmetry_Int_Tables_number   1
_chemical_formula_structural   KMg3(SiO3)4
_chemical_formula_sum   'K3 Mg9 Si12 O36'
_cell_volume   782.33136654
_cell_formula_units_Z   3
loop_
 _symmetry_equiv_pos_site_id
 _symmetry_equiv_pos_as_xyz
  1  'x, y, z'
loop_
 _atom_site_type_symbol
 _atom_site_label
 _atom_site_symmetry_multiplicity
 _atom_site_fract_x
 _atom_site_fract_y
 _atom_site_fract_z
 _atom_site_occupancy
  K  K0  1  0.89250900  0.94625400  0.50000000  1
  K  K1  1  0.05374600  0.94625400  0.83333300  1
  K  K2  1  0.05374600  0.10749100  0.16666700  1
  Mg  Mg3  1  0.56055100  0.78027600  0.00000000  1
  Mg  Mg4  1  0.21972400  0.78027600  0.33333300  1
  Mg  Mg5  1  0.21972400  0.43944900  0.66666700  1
  Mg  Mg6  1  0.21846800  0.10923400  0.00000000  1
  Mg  Mg7  1  0.89076600  0.10923400  0.33333300  1
  Mg  Mg8  1  0.89076600  0.78153200  0.66666700  1
  Mg  Mg9  1  0.88933800  0.44466900  0.00000000  1
  Mg  Mg10  1  0.55533100  0.44466900  0.33333300  1
  Mg  Mg11  1  0.55533100  0.11066200  0.66666700  1
  Si  Si12  1  0.23057900  0.76957300  0.08636400  1
  Si  Si13  1  0.23042700  0.46100600  0.41969800  1
  Si  Si14  1  0.23057900  0.46100600  0.91363600  1
  Si  Si15  1  0.53899400  0.76942100  0.75303100  1
  Si  Si16  1  0.23042700  0.76942100  0.58030200  1
  Si  Si17  1  0.53899400  0.76957300  0.24696900  1
  Si  Si18  1  0.56181200  0.12500100  0.91364000  1
  Si  Si19  1  0.87499900  0.43681100  0.24697400  1
  Si  Si20  1  0.56181200  0.43681100  0.08636000  1
  Si  Si21  1  0.56318900  0.43818800  0.58030700  1
  Si  Si22  1  0.87499900  0.43818800  0.75302600  1
  Si  Si23  1  0.56318900  0.12500100  0.41969300  1
  O  O24  1  0.71694800  0.10394200  0.77278200  1
  O  O25  1  0.89605800  0.61300500  0.10611500  1
  O  O26  1  0.71694800  0.61300500  0.22721800  1
  O  O27  1  0.38699500  0.28305200  0.43944800  1
  O  O28  1  0.89605800  0.28305200  0.89388500  1
  O  O29  1  0.38699500  0.10394200  0.56055200  1
  O  O30  1  0.88964300  0.78615200  0.96981400  1
  O  O31  1  0.21384800  0.10349100  0.30314800  1
  O  O32  1  0.88964300  0.10349100  0.03018600  1
  O  O33  1  0.89650900  0.11035700  0.63648100  1
  O  O34  1  0.21384800  0.11035700  0.69685200  1
  O  O35  1  0.89650900  0.78615200  0.36351900  1
  O  O36  1  0.23089100  0.77070100  0.03630500  1
  O  O37  1  0.22929900  0.46019000  0.36963900  1
  O  O38  1  0.23089100  0.46019000  0.96369500  1
  O  O39  1  0.53981000  0.76910900  0.70297200  1
  O  O40  1  0.22929900  0.76910900  0.63036100  1
  O  O41  1  0.53981000  0.77070100  0.29702800  1
  O  O42  1  0.38563100  0.79289200  0.89303800  1
  O  O43  1  0.20710800  0.59274000  0.22637100  1
  O  O44  1  0.38563100  0.59274000  0.10696200  1
  O  O45  1  0.40726000  0.61436900  0.55970500  1
  O  O46  1  0.20710800  0.61436900  0.77362900  1
  O  O47  1  0.40726000  0.79289200  0.44029500  1
  O  O48  1  0.55138700  0.12085200  0.96360600  1
  O  O49  1  0.87914800  0.43053500  0.29693900  1
  O  O50  1  0.55138700  0.43053500  0.03639400  1
  O  O51  1  0.56946500  0.44861300  0.63027300  1
  O  O52  1  0.87914800  0.44861300  0.70306100  1
  O  O53  1  0.56946500  0.12085200  0.36972700  1
  O  O54  1  0.69943400  0.10288200  0.22664700  1
  O  O55  1  0.89711800  0.59655100  0.55998000  1
  O  O56  1  0.69943400  0.59655100  0.77335300  1
  O  O57  1  0.40344900  0.30056600  0.89331400  1
  O  O58  1  0.89711800  0.30056600  0.44002000  1
  O  O59  1  0.40344900  0.10288200  0.10668600  1
