# generated using pymatgen
data_Li2TlF2
_symmetry_space_group_name_H-M   'P 1'
_cell_length_a   9.50322600
_cell_length_b   9.50322600
_cell_length_c   7.80790123
_cell_angle_alpha   127.48579296
_cell_angle_beta   127.48579296
_cell_angle_gamma   90.00000000
_symmetry_Int_Tables_number   1
_chemical_formula_structural   Li2TlF2
_chemical_formula_sum   'Li8 Tl4 F8'
_cell_volume   359.06745083
_cell_formula_units_Z   4
loop_
 _symmetry_equiv_pos_site_id
 _symmetry_equiv_pos_as_xyz
  1  'x, y, z'
loop_
 _atom_site_type_symbol
 _atom_site_label
 _atom_site_symmetry_multiplicity
 _atom_site_fract_x
 _atom_site_fract_y
 _atom_site_fract_z
 _atom_site_occupancy
  Li  Li0  1  0.58030000  0.94665600  0.16059900  1
  Li  Li1  1  0.58030000  0.21394300  0.16059900  1
  Li  Li2  1  0.46394300  0.33030000  0.66059900  1
  Li  Li3  1  0.66970000  0.53605700  0.33940100  1
  Li  Li4  1  0.66970000  0.80334400  0.33940100  1
  Li  Li5  1  0.19665600  0.33030000  0.66059900  1
  Li  Li6  1  0.78605700  0.41970000  0.83940100  1
  Li  Li7  1  0.05334400  0.41970000  0.83940100  1
  Tl  Tl8  1  0.12500000  0.87500000  0.25000000  1
  Tl  Tl9  1  0.12500000  0.37500000  0.25000000  1
  Tl  Tl10  1  0.62500000  0.87500000  0.75000000  1
  Tl  Tl11  1  0.12500000  0.87500000  0.75000000  1
  F  F12  1  0.50530900  0.20298200  0.40596400  1
  F  F13  1  0.90065500  0.20298200  0.40596400  1
  F  F14  1  0.45298200  0.25530900  0.90596400  1
  F  F15  1  0.74469100  0.54701800  0.09403600  1
  F  F16  1  0.45298200  0.65065500  0.90596400  1
  F  F17  1  0.34934500  0.54701800  0.09403600  1
  F  F18  1  0.79701800  0.09934500  0.59403600  1
  F  F19  1  0.79701800  0.49469100  0.59403600  1
