# generated using pymatgen
data_KAl2(SiO3)4
_symmetry_space_group_name_H-M   'P 1'
_cell_length_a   5.22117000
_cell_length_b   5.22117000
_cell_length_c   20.15319145
_cell_angle_alpha   87.40582851
_cell_angle_beta   87.40582851
_cell_angle_gamma   120.20610720
_symmetry_Int_Tables_number   1
_chemical_formula_structural   KAl2(SiO3)4
_chemical_formula_sum   'K2 Al4 Si8 O24'
_cell_volume   472.83155513
_cell_formula_units_Z   2
loop_
 _symmetry_equiv_pos_site_id
 _symmetry_equiv_pos_as_xyz
  1  'x, y, z'
loop_
 _atom_site_type_symbol
 _atom_site_label
 _atom_site_symmetry_multiplicity
 _atom_site_fract_x
 _atom_site_fract_y
 _atom_site_fract_z
 _atom_site_occupancy
  K  K0  1  0.90025400  0.09974600  0.75000000  1
  K  K1  1  0.09974600  0.90025400  0.25000000  1
  Al  Al2  1  0.67464700  0.83762900  0.50028100  1
  Al  Al3  1  0.32535300  0.16237100  0.49971900  1
  Al  Al4  1  0.16237100  0.32535300  0.99971900  1
  Al  Al5  1  0.83762900  0.67464700  0.00028100  1
  Si  Si6  1  0.53528500  0.39417000  0.86706400  1
  Si  Si7  1  0.46471500  0.60583000  0.13293600  1
  Si  Si8  1  0.60583000  0.46471500  0.63293600  1
  Si  Si9  1  0.39417000  0.53528500  0.36706400  1
  Si  Si10  1  0.29082100  0.80664400  0.63262400  1
  Si  Si11  1  0.70917900  0.19335600  0.36737600  1
  Si  Si12  1  0.19335600  0.70917900  0.86737600  1
  Si  Si13  1  0.80664400  0.29082100  0.13262400  1
  O  O14  1  0.37363500  0.86445000  0.55332100  1
  O  O15  1  0.62636500  0.13555000  0.44667900  1
  O  O16  1  0.13555000  0.62636500  0.94667900  1
  O  O17  1  0.86445000  0.37363500  0.05332100  1
  O  O18  1  0.92342600  0.01685600  0.95076500  1
  O  O19  1  0.07657400  0.98314400  0.04923500  1
  O  O20  1  0.98314400  0.07657400  0.54923500  1
  O  O21  1  0.01685600  0.92342600  0.45076500  1
  O  O22  1  0.41793300  0.06072900  0.84152700  1
  O  O23  1  0.58206700  0.93927100  0.15847300  1
  O  O24  1  0.93927100  0.58206700  0.65847300  1
  O  O25  1  0.06072900  0.41793300  0.34152700  1
  O  O26  1  0.39679300  0.12135100  0.66824000  1
  O  O27  1  0.60320700  0.87864900  0.33176000  1
  O  O28  1  0.87864900  0.60320700  0.83176000  1
  O  O29  1  0.12135100  0.39679300  0.16824000  1
  O  O30  1  0.47411300  0.66022700  0.66808500  1
  O  O31  1  0.52588700  0.33977300  0.33191500  1
  O  O32  1  0.33977300  0.52588700  0.83191500  1
  O  O33  1  0.66022700  0.47411300  0.16808500  1
  O  O34  1  0.52962200  0.41389500  0.94656700  1
  O  O35  1  0.47037800  0.58610500  0.05343300  1
  O  O36  1  0.58610500  0.47037800  0.55343300  1
  O  O37  1  0.41389500  0.52962200  0.44656700  1
