# generated using pymatgen
data_K3Au3I8
_symmetry_space_group_name_H-M   'P 1'
_cell_length_a   7.91401769
_cell_length_b   7.91401769
_cell_length_c   20.68141979
_cell_angle_alpha   84.38241558
_cell_angle_beta   84.38241558
_cell_angle_gamma   64.52628725
_symmetry_Int_Tables_number   1
_chemical_formula_structural   K3Au3I8
_chemical_formula_sum   'K6 Au6 I16'
_cell_volume   1161.52355985
_cell_formula_units_Z   2
loop_
 _symmetry_equiv_pos_site_id
 _symmetry_equiv_pos_as_xyz
  1  'x, y, z'
loop_
 _atom_site_type_symbol
 _atom_site_label
 _atom_site_symmetry_multiplicity
 _atom_site_fract_x
 _atom_site_fract_y
 _atom_site_fract_z
 _atom_site_occupancy
  K  K0  1  0.67922900  0.68583400  0.41515300  1
  K  K1  1  0.32077100  0.31416600  0.58484700  1
  K  K2  1  0.31416600  0.32077100  0.08484700  1
  K  K3  1  0.68583400  0.67922900  0.91515300  1
  K  K4  1  0.98238500  0.01761500  0.25000000  1
  K  K5  1  0.01761500  0.98238500  0.75000000  1
  Au  Au6  1  0.00000000  0.00000000  0.00000000  1
  Au  Au7  1  0.00000000  0.00000000  0.50000000  1
  Au  Au8  1  0.61702200  0.61659100  0.18912400  1
  Au  Au9  1  0.38297800  0.38340900  0.81087600  1
  Au  Au10  1  0.38340900  0.38297800  0.31087600  1
  Au  Au11  1  0.61659100  0.61702200  0.68912400  1
  I  I12  1  0.31438200  0.75728400  0.12509800  1
  I  I13  1  0.68561800  0.24271600  0.87490200  1
  I  I14  1  0.24271600  0.68561800  0.37490200  1
  I  I15  1  0.75728400  0.31438200  0.62509800  1
  I  I16  1  0.50579000  0.08983200  0.24293400  1
  I  I17  1  0.49421000  0.91016800  0.75706600  1
  I  I18  1  0.91016800  0.49421000  0.25706600  1
  I  I19  1  0.08983200  0.50579000  0.74293400  1
  I  I20  1  0.77998500  0.84862200  0.06312600  1
  I  I21  1  0.22001500  0.15137800  0.93687400  1
  I  I22  1  0.15137800  0.22001500  0.43687400  1
  I  I23  1  0.84862200  0.77998500  0.56312600  1
  I  I24  1  0.70025000  0.16568600  0.42561500  1
  I  I25  1  0.29975000  0.83431400  0.57438500  1
  I  I26  1  0.83431400  0.29975000  0.07438500  1
  I  I27  1  0.16568600  0.70025000  0.92561500  1
