# generated using pymatgen
data_KYP2H4O9
_symmetry_space_group_name_H-M   'P 1'
_cell_length_a   10.64451000
_cell_length_b   7.83749900
_cell_length_c   10.16169007
_cell_angle_alpha   87.02370660
_cell_angle_beta   90.00000000
_cell_angle_gamma   90.00000000
_symmetry_Int_Tables_number   1
_chemical_formula_structural   KYP2H4O9
_chemical_formula_sum   'K4 Y4 P8 H16 O36'
_cell_volume   846.60904436
_cell_formula_units_Z   4
loop_
 _symmetry_equiv_pos_site_id
 _symmetry_equiv_pos_as_xyz
  1  'x, y, z'
loop_
 _atom_site_type_symbol
 _atom_site_label
 _atom_site_symmetry_multiplicity
 _atom_site_fract_x
 _atom_site_fract_y
 _atom_site_fract_z
 _atom_site_occupancy
  K  K0  1  0.71346100  0.75237800  0.65428600  1
  K  K1  1  0.28653900  0.24762200  0.34571400  1
  K  K2  1  0.21346100  0.24762200  0.84571400  1
  K  K3  1  0.78653900  0.75237800  0.15428600  1
  Y  Y4  1  0.11965600  0.74838000  0.82954900  1
  Y  Y5  1  0.88034400  0.25162000  0.17045100  1
  Y  Y6  1  0.61965600  0.25162000  0.67045100  1
  Y  Y7  1  0.38034400  0.74838000  0.32954900  1
  P  P8  1  0.35197200  0.96253900  0.62784900  1
  P  P9  1  0.64802800  0.03746100  0.37215100  1
  P  P10  1  0.85197200  0.03746100  0.87215100  1
  P  P11  1  0.14802800  0.96253900  0.12784900  1
  P  P12  1  0.39320900  0.60125200  0.66777100  1
  P  P13  1  0.60679100  0.39874800  0.33222900  1
  P  P14  1  0.89320900  0.39874800  0.83222900  1
  P  P15  1  0.10679100  0.60125200  0.16777100  1
  H  H16  1  0.07303500  0.42171700  0.62715300  1
  H  H17  1  0.92696500  0.57828300  0.37284700  1
  H  H18  1  0.57303500  0.57828300  0.87284700  1
  H  H19  1  0.42696500  0.42171700  0.12715300  1
  H  H20  1  0.18788800  0.45537500  0.53520300  1
  H  H21  1  0.81211200  0.54462500  0.46479700  1
  H  H22  1  0.68788800  0.54462500  0.96479700  1
  H  H23  1  0.31211200  0.45537500  0.03520300  1
  H  H24  1  0.11698000  0.84888000  0.53955900  1
  H  H25  1  0.88302000  0.15112000  0.46044100  1
  H  H26  1  0.61698000  0.15112000  0.96044100  1
  H  H27  1  0.38302000  0.84888000  0.03955900  1
  H  H28  1  0.99539900  0.72545900  0.54330200  1
  H  H29  1  0.00460100  0.27454100  0.45669800  1
  H  H30  1  0.49539900  0.27454100  0.95669800  1
  H  H31  1  0.50460100  0.72545900  0.04330200  1
  O  O32  1  0.35436600  0.57185300  0.52539200  1
  O  O33  1  0.64563400  0.42814700  0.47460800  1
  O  O34  1  0.85436600  0.42814700  0.97460800  1
  O  O35  1  0.14563400  0.57185300  0.02539200  1
  O  O36  1  0.28300000  0.58307200  0.76419800  1
  O  O37  1  0.71700000  0.41692800  0.23580200  1
  O  O38  1  0.78300000  0.41692800  0.73580200  1
  O  O39  1  0.21700000  0.58307200  0.26419800  1
  O  O40  1  0.19062700  0.93488900  0.98624300  1
  O  O41  1  0.80937300  0.06511100  0.01375700  1
  O  O42  1  0.69062700  0.06511100  0.51375700  1
  O  O43  1  0.30937300  0.93488900  0.48624300  1
  O  O44  1  0.24176800  0.95450700  0.72411500  1
  O  O45  1  0.75823200  0.04549300  0.27588500  1
  O  O46  1  0.74176800  0.04549300  0.77588500  1
  O  O47  1  0.25823200  0.95450700  0.22411500  1
  O  O48  1  0.93159000  0.87787200  0.85962500  1
  O  O49  1  0.06841000  0.12212800  0.14037500  1
  O  O50  1  0.43159000  0.12212800  0.64037500  1
  O  O51  1  0.56841000  0.87787200  0.35962500  1
  O  O52  1  0.12195200  0.36979700  0.55667800  1
  O  O53  1  0.87804800  0.63020300  0.44332200  1
  O  O54  1  0.62195200  0.63020300  0.94332200  1
  O  O55  1  0.37804800  0.36979700  0.05667800  1
  O  O56  1  0.05708900  0.78593400  0.59718800  1
  O  O57  1  0.94291100  0.21406600  0.40281200  1
  O  O58  1  0.55708900  0.21406600  0.90281200  1
  O  O59  1  0.44291100  0.78593400  0.09718800  1
  O  O60  1  0.00781800  0.50116300  0.78271000  1
  O  O61  1  0.99218200  0.49883700  0.21729000  1
  O  O62  1  0.50781800  0.49883700  0.71729000  1
  O  O63  1  0.49218200  0.50116300  0.28271000  1
  O  O64  1  0.44429200  0.79979000  0.67015500  1
  O  O65  1  0.55570800  0.20021000  0.32984500  1
  O  O66  1  0.94429200  0.20021000  0.82984500  1
  O  O67  1  0.05570800  0.79979000  0.17015500  1
