# generated using pymatgen
data_K3AsF6
_symmetry_space_group_name_H-M   'P 1'
_cell_length_a   6.78363867
_cell_length_b   8.44207653
_cell_length_c   6.77240044
_cell_angle_alpha   128.18659077
_cell_angle_beta   76.87918533
_cell_angle_gamma   111.45344535
_symmetry_Int_Tables_number   1
_chemical_formula_structural   K3AsF6
_chemical_formula_sum   'K3 As1 F6'
_cell_volume   283.72295096
_cell_formula_units_Z   1
loop_
 _symmetry_equiv_pos_site_id
 _symmetry_equiv_pos_as_xyz
  1  'x, y, z'
loop_
 _atom_site_type_symbol
 _atom_site_label
 _atom_site_symmetry_multiplicity
 _atom_site_fract_x
 _atom_site_fract_y
 _atom_site_fract_z
 _atom_site_occupancy
  K  K0  1  0.50000000  0.00000000  0.00000000  1
  K  K1  1  0.00000000  0.50000000  0.50000000  1
  K  K2  1  0.00000000  0.00000000  0.50000000  1
  As  As3  1  0.00000000  0.00000000  0.00000000  1
  F  F4  1  0.77519700  0.05760200  0.28388000  1
  F  F5  1  0.22480300  0.94239800  0.71612000  1
  F  F6  1  0.77782600  0.77792100  0.71162600  1
  F  F7  1  0.22217400  0.22207900  0.28837400  1
  F  F8  1  0.06632200  0.77719700  0.99822400  1
  F  F9  1  0.93367800  0.22280300  0.00177600  1
