# generated using pymatgen
data_Ho2NiRuO6
_symmetry_space_group_name_H-M   'P 1'
_cell_length_a   5.71510600
_cell_length_b   5.27956300
_cell_length_c   9.30418951
_cell_angle_alpha   55.29294816
_cell_angle_beta   90.00000000
_cell_angle_gamma   90.00000000
_symmetry_Int_Tables_number   1
_chemical_formula_structural   Ho2NiRuO6
_chemical_formula_sum   'Ho4 Ni2 Ru2 O12'
_cell_volume   230.78719597
_cell_formula_units_Z   2
loop_
 _symmetry_equiv_pos_site_id
 _symmetry_equiv_pos_as_xyz
  1  'x, y, z'
loop_
 _atom_site_type_symbol
 _atom_site_label
 _atom_site_symmetry_multiplicity
 _atom_site_fract_x
 _atom_site_fract_y
 _atom_site_fract_z
 _atom_site_occupancy
  Ho  Ho0  1  0.42373000  0.22714000  0.74713600  1
  Ho  Ho1  1  0.57627000  0.77286000  0.25286400  1
  Ho  Ho2  1  0.92373000  0.77286000  0.75286400  1
  Ho  Ho3  1  0.07627000  0.22714000  0.24713600  1
  Ni  Ni4  1  0.00000000  0.50000000  0.50000000  1
  Ni  Ni5  1  0.50000000  0.50000000  0.00000000  1
  Ru  Ru6  1  0.00000000  0.00000000  0.00000000  1
  Ru  Ru7  1  0.50000000  0.00000000  0.50000000  1
  O  O8  1  0.04818200  0.37253400  0.75352600  1
  O  O9  1  0.95181800  0.62746600  0.24647400  1
  O  O10  1  0.54818200  0.62746600  0.74647400  1
  O  O11  1  0.45181800  0.37253400  0.25352600  1
  O  O12  1  0.69838300  0.88361500  0.93296100  1
  O  O13  1  0.30161700  0.11638500  0.06703900  1
  O  O14  1  0.19838300  0.11638500  0.56703900  1
  O  O15  1  0.80161700  0.88361500  0.43296100  1
  O  O16  1  0.18881700  0.74590200  0.94278700  1
  O  O17  1  0.81118300  0.25409800  0.05721300  1
  O  O18  1  0.68881700  0.25409800  0.55721300  1
  O  O19  1  0.31118300  0.74590200  0.44278700  1
