# generated using pymatgen
data_Sc2W5(SeO4)3
_symmetry_space_group_name_H-M   'P 1'
_cell_length_a   7.95801376
_cell_length_b   10.35317711
_cell_length_c   10.85587883
_cell_angle_alpha   102.00836621
_cell_angle_beta   94.05279987
_cell_angle_gamma   69.22163554
_symmetry_Int_Tables_number   1
_chemical_formula_structural   Sc2W5(SeO4)3
_chemical_formula_sum   'Sc4 W10 Se6 O24'
_cell_volume   817.94588368
_cell_formula_units_Z   2
loop_
 _symmetry_equiv_pos_site_id
 _symmetry_equiv_pos_as_xyz
  1  'x, y, z'
loop_
 _atom_site_type_symbol
 _atom_site_label
 _atom_site_symmetry_multiplicity
 _atom_site_fract_x
 _atom_site_fract_y
 _atom_site_fract_z
 _atom_site_occupancy
  Sc  Sc0  1  0.69960500  0.72609800  0.58530200  1
  Sc  Sc1  1  0.44628000  0.38719200  0.77366100  1
  Sc  Sc2  1  0.35265600  0.39823000  0.23911200  1
  Sc  Sc3  1  0.10278000  0.03138500  0.89578800  1
  W  W4  1  0.77359000  0.89148900  0.17861400  1
  W  W5  1  0.15479500  0.74720700  0.00247400  1
  W  W6  1  0.09105200  0.82914500  0.36770100  1
  W  W7  1  0.71160800  0.97187900  0.46631100  1
  W  W8  1  0.00398000  0.50358800  0.07044200  1
  W  W9  1  0.02980300  0.83250000  0.65039600  1
  W  W10  1  0.75464100  0.28689000  0.36016300  1
  W  W11  1  0.96904700  0.53002300  0.79155500  1
  W  W12  1  0.84685100  0.22022600  0.64829600  1
  W  W13  1  0.74995900  0.92277000  0.89303000  1
  Se  Se14  1  0.36299900  0.05236600  0.67874200  1
  Se  Se15  1  0.47726300  0.73163800  0.81193000  1
  Se  Se16  1  0.46657900  0.70885800  0.30246300  1
  Se  Se17  1  0.20094500  0.10833800  0.22102700  1
  Se  Se18  1  0.69709600  0.28928000  0.03642800  1
  Se  Se19  1  0.15989800  0.46020300  0.51614900  1
  O  O20  1  0.15019300  0.13312700  0.06778200  1
  O  O21  1  0.60689100  0.95619300  0.64685900  1
  O  O22  1  0.35580800  0.02750900  0.83057900  1
  O  O23  1  0.20542600  0.53188800  0.39959400  1
  O  O24  1  0.19422800  0.80643000  0.83133300  1
  O  O25  1  0.02538300  0.38771100  0.90570100  1
  O  O26  1  0.49984400  0.33655900  0.95484700  1
  O  O27  1  0.35801700  0.22151100  0.70106200  1
  O  O28  1  0.17657200  0.80429800  0.18532700  1
  O  O29  1  0.64774600  0.65451300  0.41243000  1
  O  O30  1  0.53114300  0.55627600  0.81339400  1
  O  O31  1  0.23065600  0.26574200  0.28524400  1
  O  O32  1  0.33487200  0.46266500  0.61434200  1
  O  O33  1  0.77777100  0.36524000  0.54202300  1
  O  O34  1  0.89664900  0.67804000  0.17042100  1
  O  O35  1  0.74609600  0.71732800  0.78639000  1
  O  O36  1  0.99243100  0.61767100  0.61289400  1
  O  O37  1  0.62099700  0.24864900  0.16852000  1
  O  O38  1  0.60172800  0.03233700  0.30839200  1
  O  O39  1  0.45037300  0.74238300  0.65425700  1
  O  O40  1  0.01141500  0.04945200  0.71871200  1
  O  O41  1  0.46463900  0.53956000  0.23016500  1
  O  O42  1  0.81270500  0.11859100  0.95055000  1
  O  O43  1  0.99279100  0.13031900  0.27939900  1
