# generated using pymatgen
data_K4CoP6O25
_symmetry_space_group_name_H-M   'P 1'
_cell_length_a   12.97872340
_cell_length_b   12.35661827
_cell_length_c   7.40435440
_cell_angle_alpha   77.67380546
_cell_angle_beta   68.45357982
_cell_angle_gamma   33.87261472
_symmetry_Int_Tables_number   1
_chemical_formula_structural   K4CoP6O25
_chemical_formula_sum   'K4 Co1 P6 O25'
_cell_volume   605.92681727
_cell_formula_units_Z   1
loop_
 _symmetry_equiv_pos_site_id
 _symmetry_equiv_pos_as_xyz
  1  'x, y, z'
loop_
 _atom_site_type_symbol
 _atom_site_label
 _atom_site_symmetry_multiplicity
 _atom_site_fract_x
 _atom_site_fract_y
 _atom_site_fract_z
 _atom_site_occupancy
  K  K0  1  0.49808800  0.27741400  0.72258600  1
  K  K1  1  0.72258600  0.50191200  0.49808800  1
  K  K2  1  0.02932200  0.47067800  0.02932200  1
  K  K3  1  0.52932200  0.97067800  0.52932200  1
  Co  Co4  1  0.00077000  0.99923000  0.00077000  1
  P  P5  1  0.50631600  0.96341500  0.03658500  1
  P  P6  1  0.03658500  0.49368400  0.50631600  1
  P  P7  1  0.28096400  0.97688900  0.36013100  1
  P  P8  1  0.36013100  0.38201600  0.28096400  1
  P  P9  1  0.02311100  0.71903600  0.61798400  1
  P  P10  1  0.61798400  0.63986900  0.02311100  1
  O  O11  1  0.36791000  0.91086200  0.51426400  1
  O  O12  1  0.51426400  0.20696400  0.36791000  1
  O  O13  1  0.08913800  0.63209000  0.79303600  1
  O  O14  1  0.79303600  0.48573600  0.08913800  1
  O  O15  1  0.08497700  0.06983200  0.93016800  1
  O  O16  1  0.93016800  0.91502300  0.08497700  1
  O  O17  1  0.07205700  0.11075300  0.42793600  1
  O  O18  1  0.42793600  0.38925300  0.07205700  1
  O  O19  1  0.88924700  0.92794300  0.61074700  1
  O  O20  1  0.61074700  0.57206400  0.88924700  1
  O  O21  1  0.06423300  0.93576700  0.75108300  1
  O  O22  1  0.75108300  0.24891700  0.06423300  1
  O  O23  1  0.44471300  0.10279000  0.89721000  1
  O  O24  1  0.89721000  0.55528700  0.44471400  1
  O  O25  1  0.42149600  0.78012700  0.21987300  1
  O  O26  1  0.21987300  0.57850400  0.42149600  1
  O  O27  1  0.30144700  0.07783700  0.20709900  1
  O  O28  1  0.20709900  0.41361700  0.30144700  1
  O  O29  1  0.92216300  0.69855300  0.58638300  1
  O  O30  1  0.58638300  0.79290100  0.92216300  1
  O  O31  1  0.51798600  0.48201400  0.51798600  1
  O  O32  1  0.64668400  0.86892000  0.13108000  1
  O  O33  1  0.13108000  0.35331600  0.64668400  1
  O  O34  1  0.93714500  0.06285500  0.25408500  1
  O  O35  1  0.25408500  0.74591500  0.93714500  1
