# generated using pymatgen
data_KHo(SO5)2
_symmetry_space_group_name_H-M   'P 1'
_cell_length_a   8.23519400
_cell_length_b   10.05102800
_cell_length_c   10.92711273
_cell_angle_alpha   81.45496536
_cell_angle_beta   90.00000000
_cell_angle_gamma   90.00000000
_symmetry_Int_Tables_number   1
_chemical_formula_structural   KHo(SO5)2
_chemical_formula_sum   'K4 Ho4 S8 O40'
_cell_volume   894.42070732
_cell_formula_units_Z   4
loop_
 _symmetry_equiv_pos_site_id
 _symmetry_equiv_pos_as_xyz
  1  'x, y, z'
loop_
 _atom_site_type_symbol
 _atom_site_label
 _atom_site_symmetry_multiplicity
 _atom_site_fract_x
 _atom_site_fract_y
 _atom_site_fract_z
 _atom_site_occupancy
  K  K0  1  0.26794000  0.91035000  0.13628500  1
  K  K1  1  0.73206000  0.08965000  0.86371500  1
  K  K2  1  0.76794000  0.58965000  0.86371500  1
  K  K3  1  0.23206000  0.41035000  0.13628500  1
  Ho  Ho4  1  0.76211200  0.96752000  0.31662000  1
  Ho  Ho5  1  0.23788800  0.03248000  0.68338000  1
  Ho  Ho6  1  0.26211200  0.53248000  0.68338000  1
  Ho  Ho7  1  0.73788800  0.46752000  0.31662000  1
  S  S8  1  0.64664300  0.68983500  0.53331000  1
  S  S9  1  0.35335700  0.31016500  0.46669000  1
  S  S10  1  0.14664300  0.81016500  0.46669000  1
  S  S11  1  0.85335700  0.18983500  0.53331000  1
  S  S12  1  0.77308200  0.79255500  0.11388700  1
  S  S13  1  0.22691800  0.20744500  0.88611300  1
  S  S14  1  0.27308200  0.70744500  0.88611300  1
  S  S15  1  0.72691800  0.29255500  0.11388700  1
  O  O16  1  0.62276200  0.85283200  0.16127700  1
  O  O17  1  0.37723800  0.14716800  0.83872300  1
  O  O18  1  0.12276200  0.64716800  0.83872300  1
  O  O19  1  0.87723800  0.35283200  0.16127700  1
  O  O20  1  0.91145800  0.85094100  0.17930700  1
  O  O21  1  0.08854200  0.14905900  0.82069300  1
  O  O22  1  0.41145800  0.64905900  0.82069300  1
  O  O23  1  0.58854200  0.35094100  0.17930700  1
  O  O24  1  0.98314200  0.87613800  0.43394700  1
  O  O25  1  0.01685800  0.12386200  0.56605300  1
  O  O26  1  0.48314200  0.62386200  0.56605300  1
  O  O27  1  0.51685800  0.37613800  0.43394700  1
  O  O28  1  0.61209400  0.80962800  0.43920100  1
  O  O29  1  0.38790600  0.19037200  0.56079900  1
  O  O30  1  0.11209400  0.69037200  0.56079900  1
  O  O31  1  0.88790600  0.30962800  0.43920100  1
  O  O32  1  0.28696000  0.67906900  0.02052400  1
  O  O33  1  0.71304000  0.32093100  0.97947600  1
  O  O34  1  0.78696000  0.82093100  0.97947600  1
  O  O35  1  0.21304000  0.17906900  0.02052400  1
  O  O36  1  0.47538600  0.55569300  0.28770800  1
  O  O37  1  0.52461400  0.44430700  0.71229200  1
  O  O38  1  0.97538600  0.94430700  0.71229200  1
  O  O39  1  0.02461400  0.05569300  0.28770800  1
  O  O40  1  0.72522000  0.72613600  0.64236300  1
  O  O41  1  0.27478000  0.27386400  0.35763700  1
  O  O42  1  0.22522000  0.77386400  0.35763700  1
  O  O43  1  0.77478000  0.22613600  0.64236300  1
  O  O44  1  0.74684900  0.59404200  0.47278800  1
  O  O45  1  0.25315100  0.40595800  0.52721200  1
  O  O46  1  0.24684900  0.90595800  0.52721200  1
  O  O47  1  0.75315100  0.09404200  0.47278800  1
  O  O48  1  0.77333200  0.64209700  0.15427400  1
  O  O49  1  0.22666800  0.35790300  0.84572600  1
  O  O50  1  0.27333200  0.85790300  0.84572600  1
  O  O51  1  0.72666800  0.14209700  0.15427400  1
  O  O52  1  0.51643300  0.97027200  0.69941800  1
  O  O53  1  0.48356700  0.02972800  0.30058200  1
  O  O54  1  0.01643300  0.52972800  0.30058200  1
  O  O55  1  0.98356700  0.47027200  0.69941800  1
