# generated using pymatgen
data_ReN2
_symmetry_space_group_name_H-M   'P 1'
_cell_length_a   2.90774385
_cell_length_b   2.90774385
_cell_length_c   3.93455500
_cell_angle_alpha   90.00000000
_cell_angle_beta   90.00000000
_cell_angle_gamma   119.99999662
_symmetry_Int_Tables_number   1
_chemical_formula_structural   ReN2
_chemical_formula_sum   'Re1 N2'
_cell_volume   28.80968827
_cell_formula_units_Z   1
loop_
 _symmetry_equiv_pos_site_id
 _symmetry_equiv_pos_as_xyz
  1  'x, y, z'
loop_
 _atom_site_type_symbol
 _atom_site_label
 _atom_site_symmetry_multiplicity
 _atom_site_fract_x
 _atom_site_fract_y
 _atom_site_fract_z
 _atom_site_occupancy
  Re  Re0  1  0.66666700  0.33333300  0.50000000  1
  N  N1  1  0.00000000  0.00000000  0.82812000  1
  N  N2  1  0.00000000  0.00000000  0.17188000  1
