# generated using pymatgen
data_K3YCl6
_symmetry_space_group_name_H-M   'P 1'
_cell_length_a   7.78043300
_cell_length_b   12.77649962
_cell_length_c   13.23336313
_cell_angle_alpha   98.37547283
_cell_angle_beta   107.09580355
_cell_angle_gamma   90.00000000
_symmetry_Int_Tables_number   1
_chemical_formula_structural   K3YCl6
_chemical_formula_sum   'K12 Y4 Cl24'
_cell_volume   1242.67364403
_cell_formula_units_Z   4
loop_
 _symmetry_equiv_pos_site_id
 _symmetry_equiv_pos_as_xyz
  1  'x, y, z'
loop_
 _atom_site_type_symbol
 _atom_site_label
 _atom_site_symmetry_multiplicity
 _atom_site_fract_x
 _atom_site_fract_y
 _atom_site_fract_z
 _atom_site_occupancy
  K  K0  1  0.70263500  0.06395300  0.89892300  1
  K  K1  1  0.29736500  0.93604700  0.10107700  1
  K  K2  1  0.80371200  0.43604700  0.10107700  1
  K  K3  1  0.19628800  0.56395300  0.89892300  1
  K  K4  1  0.53277300  0.35721100  0.69072800  1
  K  K5  1  0.46722700  0.64278900  0.30927200  1
  K  K6  1  0.84204400  0.14278900  0.30927200  1
  K  K7  1  0.15795600  0.85721100  0.69072800  1
  K  K8  1  0.35067200  0.30262500  0.32415100  1
  K  K9  1  0.64932800  0.69737500  0.67584900  1
  K  K10  1  0.02652100  0.19737500  0.67584900  1
  K  K11  1  0.97347900  0.80262500  0.32415100  1
  Y  Y12  1  0.21157300  0.25000000  0.00000000  1
  Y  Y13  1  0.78842700  0.75000000  0.00000000  1
  Y  Y14  1  0.50000000  0.00000000  0.50000000  1
  Y  Y15  1  0.00000000  0.50000000  0.50000000  1
  Cl  Cl16  1  0.37396700  0.07763500  0.66089500  1
  Cl  Cl17  1  0.62603300  0.92236500  0.33910500  1
  Cl  Cl18  1  0.71307100  0.42236400  0.33910500  1
  Cl  Cl19  1  0.28692900  0.57763500  0.66089500  1
  Cl  Cl20  1  0.49929500  0.17340500  0.12564400  1
  Cl  Cl21  1  0.50070500  0.82659500  0.87435600  1
  Cl  Cl22  1  0.37365100  0.32659500  0.87435600  1
  Cl  Cl23  1  0.62634900  0.67340500  0.12564400  1
  Cl  Cl24  1  0.20338900  0.03085900  0.35070400  1
  Cl  Cl25  1  0.79661100  0.96914100  0.64929600  1
  Cl  Cl26  1  0.85268500  0.46914100  0.64929600  1
  Cl  Cl27  1  0.14731500  0.53085900  0.35070400  1
  Cl  Cl28  1  0.10883100  0.71051300  0.12836700  1
  Cl  Cl29  1  0.89116900  0.28948700  0.87163300  1
  Cl  Cl30  1  0.98046400  0.78948700  0.87163300  1
  Cl  Cl31  1  0.01953600  0.21051300  0.12836700  1
  Cl  Cl32  1  0.27745800  0.44060200  0.11138200  1
  Cl  Cl33  1  0.72254200  0.55939800  0.88861800  1
  Cl  Cl34  1  0.16607600  0.05939800  0.88861800  1
  Cl  Cl35  1  0.83392400  0.94060200  0.11138200  1
  Cl  Cl36  1  0.64130100  0.19031900  0.49761700  1
  Cl  Cl37  1  0.35870000  0.80968100  0.50238300  1
  Cl  Cl38  1  0.14368400  0.30968100  0.50238300  1
  Cl  Cl39  1  0.85631600  0.69031900  0.49761700  1
