# generated using pymatgen
data_Sr3Gd2(BO3)4
_symmetry_space_group_name_H-M   'P 1'
_cell_length_a   7.42484900
_cell_length_b   8.76714000
_cell_length_c   16.50026200
_cell_angle_alpha   90.00000000
_cell_angle_beta   90.00000000
_cell_angle_gamma   90.00000000
_symmetry_Int_Tables_number   1
_chemical_formula_structural   Sr3Gd2(BO3)4
_chemical_formula_sum   'Sr12 Gd8 B16 O48'
_cell_volume   1074.07945073
_cell_formula_units_Z   4
loop_
 _symmetry_equiv_pos_site_id
 _symmetry_equiv_pos_as_xyz
  1  'x, y, z'
loop_
 _atom_site_type_symbol
 _atom_site_label
 _atom_site_symmetry_multiplicity
 _atom_site_fract_x
 _atom_site_fract_y
 _atom_site_fract_z
 _atom_site_occupancy
  Sr  Sr0  1  0.02873000  0.32999400  0.45778100  1
  Sr  Sr1  1  0.97127000  0.67000600  0.95778100  1
  Sr  Sr2  1  0.52873000  0.17000600  0.45778100  1
  Sr  Sr3  1  0.47127000  0.82999400  0.95778100  1
  Sr  Sr4  1  0.17849300  0.84747400  0.41374500  1
  Sr  Sr5  1  0.82150700  0.15252600  0.91374500  1
  Sr  Sr6  1  0.67849300  0.65252600  0.41374500  1
  Sr  Sr7  1  0.32150700  0.34747400  0.91374500  1
  Sr  Sr8  1  0.31317900  0.35168300  0.66419600  1
  Sr  Sr9  1  0.68682100  0.64831700  0.16419600  1
  Sr  Sr10  1  0.81317900  0.14831700  0.66419600  1
  Sr  Sr11  1  0.18682100  0.85168300  0.16419600  1
  Gd  Gd12  1  0.31853700  0.46610400  0.28961800  1
  Gd  Gd13  1  0.68146300  0.53389600  0.78961800  1
  Gd  Gd14  1  0.81853700  0.03389600  0.28961800  1
  Gd  Gd15  1  0.18146300  0.96610400  0.78961800  1
  Gd  Gd16  1  0.03034500  0.33001300  0.11974700  1
  Gd  Gd17  1  0.96965500  0.66998700  0.61974700  1
  Gd  Gd18  1  0.53034500  0.16998700  0.11974700  1
  Gd  Gd19  1  0.46965500  0.83001300  0.61974700  1
  B  B20  1  0.17048300  0.06255000  0.99812600  1
  B  B21  1  0.82951700  0.93745000  0.49812600  1
  B  B22  1  0.67048300  0.43745000  0.99812600  1
  B  B23  1  0.32951700  0.56255000  0.49812600  1
  B  B24  1  0.00708800  0.37308700  0.78640200  1
  B  B25  1  0.99291200  0.62691300  0.28640200  1
  B  B26  1  0.50708800  0.12691300  0.78640200  1
  B  B27  1  0.49291200  0.87308700  0.28640200  1
  B  B28  1  0.16034400  0.04476800  0.58532500  1
  B  B29  1  0.83965600  0.95523200  0.08532500  1
  B  B30  1  0.66034400  0.45523200  0.58532500  1
  B  B31  1  0.33965600  0.54476800  0.08532500  1
  B  B32  1  0.21502600  0.14895100  0.28727000  1
  B  B33  1  0.78497400  0.85104900  0.78727000  1
  B  B34  1  0.71502600  0.35104900  0.28727000  1
  B  B35  1  0.28497400  0.64895100  0.78727000  1
  O  O36  1  0.24093700  0.22235700  0.21330200  1
  O  O37  1  0.75906300  0.77764300  0.71330200  1
  O  O38  1  0.74093700  0.27764300  0.21330200  1
  O  O39  1  0.25906300  0.72235700  0.71330200  1
  O  O40  1  0.09325000  0.19110600  0.58385600  1
  O  O41  1  0.90675000  0.80889400  0.08385600  1
  O  O42  1  0.59325000  0.30889400  0.58385600  1
  O  O43  1  0.40675000  0.69110600  0.08385600  1
  O  O44  1  0.09115500  0.20680200  0.00159400  1
  O  O45  1  0.90884500  0.79319800  0.50159400  1
  O  O46  1  0.59115500  0.29319800  0.00159400  1
  O  O47  1  0.40884500  0.70680200  0.50159400  1
  O  O48  1  0.12950800  0.01021400  0.29146300  1
  O  O49  1  0.87049200  0.98978600  0.79146300  1
  O  O50  1  0.62950800  0.48978600  0.29146300  1
  O  O51  1  0.37049200  0.51021400  0.79146300  1
  O  O52  1  0.19857400  0.50139500  0.03520500  1
  O  O53  1  0.80142600  0.49860500  0.53520500  1
  O  O54  1  0.69857400  0.99860500  0.03520500  1
  O  O55  1  0.30142600  0.00139500  0.53520500  1
  O  O56  1  0.11030400  0.24142900  0.78412500  1
  O  O57  1  0.88969600  0.75857100  0.28412500  1
  O  O58  1  0.61030400  0.25857100  0.78412500  1
  O  O59  1  0.38969600  0.74142900  0.28412500  1
  O  O60  1  0.04772800  0.55161600  0.21489500  1
  O  O61  1  0.95227200  0.44838400  0.71489500  1
  O  O62  1  0.54772800  0.94838400  0.21489500  1
  O  O63  1  0.45227200  0.05161600  0.71489500  1
  O  O64  1  0.26953800  0.22654700  0.35520900  1
  O  O65  1  0.73046200  0.77345300  0.85520900  1
  O  O66  1  0.76953800  0.27345300  0.35520900  1
  O  O67  1  0.23046200  0.72654700  0.85520900  1
  O  O68  1  0.38320600  0.46391300  0.43811800  1
  O  O69  1  0.61679400  0.53608700  0.93811800  1
  O  O70  1  0.88320600  0.03608700  0.43811800  1
  O  O71  1  0.11679400  0.96391300  0.93811800  1
  O  O72  1  0.40765800  0.43936300  0.14113000  1
  O  O73  1  0.59234200  0.56063700  0.64113000  1
  O  O74  1  0.90765800  0.06063700  0.14113000  1
  O  O75  1  0.09234200  0.93936300  0.64113000  1
  O  O76  1  0.30689000  0.02805000  0.05311500  1
  O  O77  1  0.69311000  0.97195000  0.55311500  1
  O  O78  1  0.80689000  0.47195000  0.05311500  1
  O  O79  1  0.19311000  0.52805000  0.55311500  1
  O  O80  1  0.05960500  0.57041500  0.35877800  1
  O  O81  1  0.94039500  0.42958500  0.85877800  1
  O  O82  1  0.55960500  0.92958500  0.35877800  1
  O  O83  1  0.44039500  0.07041500  0.85877800  1
