# generated using pymatgen
data_K3Mo3C3(Se2N)2
_symmetry_space_group_name_H-M   'P 1'
_cell_length_a   9.59133180
_cell_length_b   9.59133180
_cell_length_c   9.59133180
_cell_angle_alpha   104.58281151
_cell_angle_beta   104.58281151
_cell_angle_gamma   119.76487741
_symmetry_Int_Tables_number   1
_chemical_formula_structural   K3Mo3C3(Se2N)2
_chemical_formula_sum   'K6 Mo6 C6 Se8 N4'
_cell_volume   662.53129570
_cell_formula_units_Z   2
loop_
 _symmetry_equiv_pos_site_id
 _symmetry_equiv_pos_as_xyz
  1  'x, y, z'
loop_
 _atom_site_type_symbol
 _atom_site_label
 _atom_site_symmetry_multiplicity
 _atom_site_fract_x
 _atom_site_fract_y
 _atom_site_fract_z
 _atom_site_occupancy
  K  K0  1  0.87007700  0.77864800  0.64872500  1
  K  K1  1  0.12992300  0.22135200  0.35127500  1
  K  K2  1  0.77864800  0.12992300  0.90857200  1
  K  K3  1  0.22135200  0.87007700  0.09142800  1
  K  K4  1  0.25000000  0.75000000  0.50000000  1
  K  K5  1  0.75000000  0.25000000  0.50000000  1
  Mo  Mo6  1  0.70351200  0.70351200  0.00000000  1
  Mo  Mo7  1  0.29648800  0.29648800  0.00000000  1
  Mo  Mo8  1  0.55361800  0.65486600  0.20848400  1
  Mo  Mo9  1  0.44638200  0.34513400  0.79151600  1
  Mo  Mo10  1  0.65486600  0.44638200  0.10124800  1
  Mo  Mo11  1  0.34513400  0.55361800  0.89875200  1
  C  C12  1  0.93436900  0.93436900  0.00000000  1
  C  C13  1  0.06563100  0.06563100  0.00000000  1
  C  C14  1  0.60574700  0.83227500  0.43802200  1
  C  C15  1  0.39425300  0.16772500  0.56197800  1
  C  C16  1  0.83227500  0.39425300  0.22652900  1
  C  C17  1  0.16772500  0.60574700  0.77347100  1
  Se  Se18  1  0.48974500  0.59379100  0.70414500  1
  Se  Se19  1  0.51025500  0.40620900  0.29585500  1
  Se  Se20  1  0.88964700  0.78560000  0.29585500  1
  Se  Se21  1  0.59379100  0.88964700  0.10404600  1
  Se  Se22  1  0.11035300  0.21440000  0.70414500  1
  Se  Se23  1  0.40620900  0.11035300  0.89595400  1
  Se  Se24  1  0.78560000  0.48974500  0.89595400  1
  Se  Se25  1  0.21440000  0.51025500  0.10404600  1
  N  N26  1  0.63105100  0.92984000  0.56089200  1
  N  N27  1  0.36894900  0.07016000  0.43910900  1
  N  N28  1  0.92984000  0.36894900  0.29878900  1
  N  N29  1  0.07016000  0.63105100  0.70121100  1
