# generated using pymatgen
data_K7NaGe8
_symmetry_space_group_name_H-M   'P 1'
_cell_length_a   12.95180000
_cell_length_b   12.95180000
_cell_length_c   12.95180000
_cell_angle_alpha   90.00000000
_cell_angle_beta   90.00000000
_cell_angle_gamma   90.00000000
_symmetry_Int_Tables_number   1
_chemical_formula_structural   K7NaGe8
_chemical_formula_sum   'K28 Na4 Ge32'
_cell_volume   2172.65309438
_cell_formula_units_Z   4
loop_
 _symmetry_equiv_pos_site_id
 _symmetry_equiv_pos_as_xyz
  1  'x, y, z'
loop_
 _atom_site_type_symbol
 _atom_site_label
 _atom_site_symmetry_multiplicity
 _atom_site_fract_x
 _atom_site_fract_y
 _atom_site_fract_z
 _atom_site_occupancy
  K  K0  1  0.18535000  0.45744800  0.27361200  1
  K  K1  1  0.81465000  0.54255200  0.72638800  1
  K  K2  1  0.31465000  0.54255200  0.77361200  1
  K  K3  1  0.81465000  0.95744800  0.22638800  1
  K  K4  1  0.27361200  0.18535000  0.45744800  1
  K  K5  1  0.68535000  0.45744800  0.22638800  1
  K  K6  1  0.18535000  0.04255200  0.77361200  1
  K  K7  1  0.72638800  0.81465000  0.54255200  1
  K  K8  1  0.68535000  0.04255200  0.72638800  1
  K  K9  1  0.77361200  0.31465000  0.54255200  1
  K  K10  1  0.31465000  0.95744800  0.27361200  1
  K  K11  1  0.22638800  0.68535000  0.45744800  1
  K  K12  1  0.22638800  0.81465000  0.95744800  1
  K  K13  1  0.77361200  0.18535000  0.04255200  1
  K  K14  1  0.72638800  0.68535000  0.04255200  1
  K  K15  1  0.27361200  0.31465000  0.95744800  1
  K  K16  1  0.45744800  0.27361200  0.18535000  1
  K  K17  1  0.54255200  0.72638800  0.81465000  1
  K  K18  1  0.95744800  0.22638800  0.81465000  1
  K  K19  1  0.04255200  0.77361200  0.18535000  1
  K  K20  1  0.04255200  0.72638800  0.68535000  1
  K  K21  1  0.95744800  0.27361200  0.31465000  1
  K  K22  1  0.54255200  0.77361200  0.31465000  1
  K  K23  1  0.45744800  0.22638800  0.68535000  1
  K  K24  1  0.50000000  0.50000000  0.50000000  1
  K  K25  1  0.00000000  0.50000000  0.00000000  1
  K  K26  1  0.50000000  0.00000000  0.00000000  1
  K  K27  1  0.00000000  0.00000000  0.50000000  1
  Na  Na28  1  0.00000000  0.00000000  0.00000000  1
  Na  Na29  1  0.50000000  0.00000000  0.50000000  1
  Na  Na30  1  0.00000000  0.50000000  0.50000000  1
  Na  Na31  1  0.50000000  0.50000000  0.00000000  1
  Ge  Ge32  1  0.05517500  0.20878500  0.07356400  1
  Ge  Ge33  1  0.94482500  0.79121500  0.92643600  1
  Ge  Ge34  1  0.44482500  0.79121500  0.57356400  1
  Ge  Ge35  1  0.94482500  0.70878500  0.42643600  1
  Ge  Ge36  1  0.07356400  0.05517500  0.20878500  1
  Ge  Ge37  1  0.55517500  0.20878500  0.42643600  1
  Ge  Ge38  1  0.05517500  0.29121500  0.57356400  1
  Ge  Ge39  1  0.92643600  0.94482500  0.79121500  1
  Ge  Ge40  1  0.55517500  0.29121500  0.92643600  1
  Ge  Ge41  1  0.57356400  0.44482500  0.79121500  1
  Ge  Ge42  1  0.44482500  0.70878500  0.07356400  1
  Ge  Ge43  1  0.42643600  0.55517500  0.20878500  1
  Ge  Ge44  1  0.42643600  0.94482500  0.70878500  1
  Ge  Ge45  1  0.57356400  0.05517500  0.29121500  1
  Ge  Ge46  1  0.92643600  0.55517500  0.29121500  1
  Ge  Ge47  1  0.07356400  0.44482500  0.70878500  1
  Ge  Ge48  1  0.20878500  0.07356400  0.05517500  1
  Ge  Ge49  1  0.79121500  0.92643600  0.94482500  1
  Ge  Ge50  1  0.70878500  0.42643600  0.94482500  1
  Ge  Ge51  1  0.29121500  0.57356400  0.05517500  1
  Ge  Ge52  1  0.29121500  0.92643600  0.55517500  1
  Ge  Ge53  1  0.70878500  0.07356400  0.44482500  1
  Ge  Ge54  1  0.79121500  0.57356400  0.44482500  1
  Ge  Ge55  1  0.20878500  0.42643600  0.55517500  1
  Ge  Ge56  1  0.20434100  0.20434100  0.20434100  1
  Ge  Ge57  1  0.79565900  0.79565900  0.79565900  1
  Ge  Ge58  1  0.29565900  0.79565900  0.70434100  1
  Ge  Ge59  1  0.79565900  0.70434100  0.29565900  1
  Ge  Ge60  1  0.70434100  0.20434100  0.29565900  1
  Ge  Ge61  1  0.20434100  0.29565900  0.70434100  1
  Ge  Ge62  1  0.70434100  0.29565900  0.79565900  1
  Ge  Ge63  1  0.29565900  0.70434100  0.20434100  1
