# generated using pymatgen
data_SmGe3Rh5
_symmetry_space_group_name_H-M   'P 1'
_cell_length_a   22.77114968
_cell_length_b   22.77114968
_cell_length_c   3.95772500
_cell_angle_alpha   90.00000000
_cell_angle_beta   90.00000000
_cell_angle_gamma   119.99999906
_symmetry_Int_Tables_number   1
_chemical_formula_structural   SmGe3Rh5
_chemical_formula_sum   'Sm12 Ge36 Rh60'
_cell_volume   1777.24035483
_cell_formula_units_Z   12
loop_
 _symmetry_equiv_pos_site_id
 _symmetry_equiv_pos_as_xyz
  1  'x, y, z'
loop_
 _atom_site_type_symbol
 _atom_site_label
 _atom_site_symmetry_multiplicity
 _atom_site_fract_x
 _atom_site_fract_y
 _atom_site_fract_z
 _atom_site_occupancy
  Sm  Sm0  1  0.26506800  0.03535500  0.25000000  1
  Sm  Sm1  1  0.73493200  0.96464500  0.75000000  1
  Sm  Sm2  1  0.96464500  0.22971300  0.25000000  1
  Sm  Sm3  1  0.03535500  0.77028700  0.75000000  1
  Sm  Sm4  1  0.77028700  0.73493200  0.25000000  1
  Sm  Sm5  1  0.22971300  0.26506800  0.75000000  1
  Sm  Sm6  1  0.61501800  0.13932900  0.25000000  1
  Sm  Sm7  1  0.38498200  0.86067100  0.75000000  1
  Sm  Sm8  1  0.86067100  0.47568900  0.25000000  1
  Sm  Sm9  1  0.13932900  0.52431100  0.75000000  1
  Sm  Sm10  1  0.52431100  0.38498200  0.25000000  1
  Sm  Sm11  1  0.47568900  0.61501800  0.75000000  1
  Ge  Ge12  1  0.11036300  0.17342200  0.25000000  1
  Ge  Ge13  1  0.88963700  0.82657800  0.75000000  1
  Ge  Ge14  1  0.82657800  0.93694200  0.25000000  1
  Ge  Ge15  1  0.17342200  0.06305800  0.75000000  1
  Ge  Ge16  1  0.06305800  0.88963700  0.25000000  1
  Ge  Ge17  1  0.93694200  0.11036300  0.75000000  1
  Ge  Ge18  1  0.36058800  0.52577100  0.25000000  1
  Ge  Ge19  1  0.63941200  0.47422900  0.75000000  1
  Ge  Ge20  1  0.47422900  0.83481700  0.25000000  1
  Ge  Ge21  1  0.52577100  0.16518300  0.75000000  1
  Ge  Ge22  1  0.16518300  0.63941200  0.25000000  1
  Ge  Ge23  1  0.83481700  0.36058800  0.75000000  1
  Ge  Ge24  1  0.22105600  0.48812000  0.25000000  1
  Ge  Ge25  1  0.77894400  0.51188000  0.75000000  1
  Ge  Ge26  1  0.51188000  0.73293700  0.25000000  1
  Ge  Ge27  1  0.48812000  0.26706300  0.75000000  1
  Ge  Ge28  1  0.26706300  0.77894400  0.25000000  1
  Ge  Ge29  1  0.73293700  0.22105600  0.75000000  1
  Ge  Ge30  1  0.26054300  0.38472400  0.25000000  1
  Ge  Ge31  1  0.73945700  0.61527600  0.75000000  1
  Ge  Ge32  1  0.61527600  0.87581900  0.25000000  1
  Ge  Ge33  1  0.38472400  0.12418100  0.75000000  1
  Ge  Ge34  1  0.12418100  0.73945700  0.25000000  1
  Ge  Ge35  1  0.87581900  0.26054300  0.75000000  1
  Ge  Ge36  1  0.01510100  0.43005600  0.25000000  1
  Ge  Ge37  1  0.98489900  0.56994400  0.75000000  1
  Ge  Ge38  1  0.56994400  0.58504500  0.25000000  1
  Ge  Ge39  1  0.43005600  0.41495500  0.75000000  1
  Ge  Ge40  1  0.41495500  0.98489900  0.25000000  1
  Ge  Ge41  1  0.58504500  0.01510100  0.75000000  1
  Ge  Ge42  1  0.31710200  0.23421600  0.25000000  1
  Ge  Ge43  1  0.68289800  0.76578400  0.75000000  1
  Ge  Ge44  1  0.76578400  0.08288600  0.25000000  1
  Ge  Ge45  1  0.23421600  0.91711400  0.75000000  1
  Ge  Ge46  1  0.91711400  0.68289800  0.25000000  1
  Ge  Ge47  1  0.08288600  0.31710200  0.75000000  1
  Rh  Rh48  1  0.25602000  0.60993300  0.25000000  1
  Rh  Rh49  1  0.74398000  0.39006700  0.75000000  1
  Rh  Rh50  1  0.39006700  0.64608800  0.25000000  1
  Rh  Rh51  1  0.60993300  0.35391200  0.75000000  1
  Rh  Rh52  1  0.35391200  0.74398000  0.25000000  1
  Rh  Rh53  1  0.64608800  0.25602000  0.75000000  1
  Rh  Rh54  1  0.55336400  0.24999200  0.25000000  1
  Rh  Rh55  1  0.44663600  0.75000800  0.75000000  1
  Rh  Rh56  1  0.75000800  0.30337300  0.25000000  1
  Rh  Rh57  1  0.24999200  0.69662700  0.75000000  1
  Rh  Rh58  1  0.69662700  0.44663600  0.25000000  1
  Rh  Rh59  1  0.30337300  0.55336400  0.75000000  1
  Rh  Rh60  1  0.13958200  0.29455400  0.25000000  1
  Rh  Rh61  1  0.86041800  0.70544600  0.75000000  1
  Rh  Rh62  1  0.70544600  0.84502800  0.25000000  1
  Rh  Rh63  1  0.29455400  0.15497200  0.75000000  1
  Rh  Rh64  1  0.15497200  0.86041800  0.25000000  1
  Rh  Rh65  1  0.84502800  0.13958200  0.75000000  1
  Rh  Rh66  1  0.04191300  0.54871800  0.25000000  1
  Rh  Rh67  1  0.95808700  0.45128200  0.75000000  1
  Rh  Rh68  1  0.45128200  0.49319600  0.25000000  1
  Rh  Rh69  1  0.54871800  0.50680400  0.75000000  1
  Rh  Rh70  1  0.50680400  0.95808700  0.25000000  1
  Rh  Rh71  1  0.49319600  0.04191300  0.75000000  1
  Rh  Rh72  1  0.40868400  0.20714300  0.25000000  1
  Rh  Rh73  1  0.59131600  0.79285700  0.75000000  1
  Rh  Rh74  1  0.79285700  0.20154100  0.25000000  1
  Rh  Rh75  1  0.20714300  0.79845900  0.75000000  1
  Rh  Rh76  1  0.79845900  0.59131600  0.25000000  1
  Rh  Rh77  1  0.20154100  0.40868400  0.75000000  1
  Rh  Rh78  1  0.19739600  0.14043500  0.25000000  1
  Rh  Rh79  1  0.80260400  0.85956500  0.75000000  1
  Rh  Rh80  1  0.85956500  0.05696000  0.25000000  1
  Rh  Rh81  1  0.14043500  0.94304000  0.75000000  1
  Rh  Rh82  1  0.94304000  0.80260400  0.25000000  1
  Rh  Rh83  1  0.05696000  0.19739600  0.75000000  1
  Rh  Rh84  1  0.10071300  0.39441200  0.25000000  1
  Rh  Rh85  1  0.89928700  0.60558800  0.75000000  1
  Rh  Rh86  1  0.60558800  0.70630100  0.25000000  1
  Rh  Rh87  1  0.39441200  0.29369900  0.75000000  1
  Rh  Rh88  1  0.29369900  0.89928700  0.25000000  1
  Rh  Rh89  1  0.70630100  0.10071300  0.75000000  1
  Rh  Rh90  1  0.08894000  0.00695700  0.25000000  1
  Rh  Rh91  1  0.91106000  0.99304300  0.75000000  1
  Rh  Rh92  1  0.99304300  0.08198400  0.25000000  1
  Rh  Rh93  1  0.00695700  0.91801600  0.75000000  1
  Rh  Rh94  1  0.91801600  0.91106000  0.25000000  1
  Rh  Rh95  1  0.08198400  0.08894000  0.75000000  1
  Rh  Rh96  1  0.44766200  0.10556600  0.25000000  1
  Rh  Rh97  1  0.55233800  0.89443400  0.75000000  1
  Rh  Rh98  1  0.89443400  0.34209600  0.25000000  1
  Rh  Rh99  1  0.10556600  0.65790400  0.75000000  1
  Rh  Rh100  1  0.65790400  0.55233800  0.25000000  1
  Rh  Rh101  1  0.34209600  0.44766200  0.75000000  1
  Rh  Rh102  1  0.35205600  0.35606000  0.25000000  1
  Rh  Rh103  1  0.64794400  0.64394000  0.75000000  1
  Rh  Rh104  1  0.64394000  0.99599500  0.25000000  1
  Rh  Rh105  1  0.35606000  0.00400500  0.75000000  1
  Rh  Rh106  1  0.00400500  0.64794400  0.25000000  1
  Rh  Rh107  1  0.99599500  0.35205600  0.75000000  1
