# generated using pymatgen
data_KNb3CuO9
_symmetry_space_group_name_H-M   'P 1'
_cell_length_a   7.83953200
_cell_length_b   8.98022100
_cell_length_c   10.27011700
_cell_angle_alpha   90.00000000
_cell_angle_beta   90.00000000
_cell_angle_gamma   90.00000000
_symmetry_Int_Tables_number   1
_chemical_formula_structural   KNb3CuO9
_chemical_formula_sum   'K4 Nb12 Cu4 O36'
_cell_volume   723.02373292
_cell_formula_units_Z   4
loop_
 _symmetry_equiv_pos_site_id
 _symmetry_equiv_pos_as_xyz
  1  'x, y, z'
loop_
 _atom_site_type_symbol
 _atom_site_label
 _atom_site_symmetry_multiplicity
 _atom_site_fract_x
 _atom_site_fract_y
 _atom_site_fract_z
 _atom_site_occupancy
  K  K0  1  0.31172300  0.08375300  0.74685000  1
  K  K1  1  0.31172300  0.91624700  0.25315000  1
  K  K2  1  0.81172300  0.08375300  0.75315000  1
  K  K3  1  0.81172300  0.91624700  0.24685000  1
  Nb  Nb4  1  0.06808800  0.20482100  0.43766800  1
  Nb  Nb5  1  0.06808800  0.79517900  0.56233200  1
  Nb  Nb6  1  0.56808800  0.20482100  0.06233200  1
  Nb  Nb7  1  0.56808800  0.79517900  0.93766800  1
  Nb  Nb8  1  0.07680900  0.19672300  0.06164500  1
  Nb  Nb9  1  0.07680900  0.80327700  0.93835500  1
  Nb  Nb10  1  0.57680900  0.19672300  0.43835500  1
  Nb  Nb11  1  0.57680900  0.80327700  0.56164500  1
  Nb  Nb12  1  0.06428300  0.56915400  0.25323800  1
  Nb  Nb13  1  0.06428300  0.43084600  0.74676200  1
  Nb  Nb14  1  0.56428300  0.56915400  0.24676200  1
  Nb  Nb15  1  0.56428300  0.43084600  0.75323800  1
  Cu  Cu16  1  0.81059200  0.50000000  0.00000000  1
  Cu  Cu17  1  0.31059200  0.50000000  0.50000000  1
  Cu  Cu18  1  0.30407400  0.50000000  0.00000000  1
  Cu  Cu19  1  0.80407400  0.50000000  0.50000000  1
  O  O20  1  0.08951300  0.72512400  0.12284800  1
  O  O21  1  0.08951300  0.27487600  0.87715200  1
  O  O22  1  0.58951300  0.72512400  0.37715200  1
  O  O23  1  0.58951300  0.27487600  0.62284800  1
  O  O24  1  0.30548100  0.14659100  0.05811900  1
  O  O25  1  0.30548100  0.85340900  0.94188100  1
  O  O26  1  0.80548100  0.14659100  0.44188100  1
  O  O27  1  0.80548100  0.85340900  0.55811900  1
  O  O28  1  0.05469600  0.14816800  0.25129800  1
  O  O29  1  0.05469600  0.85183200  0.74870200  1
  O  O30  1  0.55469600  0.14816800  0.24870200  1
  O  O31  1  0.55469600  0.85183200  0.75129800  1
  O  O32  1  0.12344800  0.41598700  0.11330600  1
  O  O33  1  0.12344800  0.58401300  0.88669400  1
  O  O34  1  0.62344800  0.41598700  0.38669400  1
  O  O35  1  0.62344800  0.58401300  0.61330600  1
  O  O36  1  0.01491200  0.27506700  0.61878300  1
  O  O37  1  0.01491200  0.72493300  0.38121700  1
  O  O38  1  0.51491200  0.27506700  0.88121700  1
  O  O39  1  0.51491200  0.72493300  0.11878300  1
  O  O40  1  0.30147400  0.27784700  0.44795900  1
  O  O41  1  0.30147400  0.72215300  0.55204100  1
  O  O42  1  0.80147400  0.27784700  0.05204100  1
  O  O43  1  0.80147400  0.72215300  0.94795900  1
  O  O44  1  0.48164800  0.41599600  0.11507200  1
  O  O45  1  0.48164800  0.58400400  0.88492800  1
  O  O46  1  0.98164800  0.41599600  0.38492800  1
  O  O47  1  0.98164800  0.58400400  0.61507200  1
  O  O48  1  0.30352600  0.55708600  0.31590600  1
  O  O49  1  0.30352600  0.44291400  0.68409400  1
  O  O50  1  0.80352600  0.55708600  0.18409400  1
  O  O51  1  0.80352600  0.44291400  0.81590600  1
  O  O52  1  0.99333700  0.00000000  0.00000000  1
  O  O53  1  0.49333700  0.00000000  0.50000000  1
  O  O54  1  0.61659500  0.00000000  0.00000000  1
  O  O55  1  0.11659500  0.00000000  0.50000000  1
