# generated using pymatgen
data_La23Mg4Pt7
_symmetry_space_group_name_H-M   'P 1'
_cell_length_a   10.34027540
_cell_length_b   10.34027540
_cell_length_c   23.36536200
_cell_angle_alpha   90.00000000
_cell_angle_beta   90.00000000
_cell_angle_gamma   119.99999613
_symmetry_Int_Tables_number   1
_chemical_formula_structural   La23Mg4Pt7
_chemical_formula_sum   'La46 Mg8 Pt14'
_cell_volume   2163.55217949
_cell_formula_units_Z   2
loop_
 _symmetry_equiv_pos_site_id
 _symmetry_equiv_pos_as_xyz
  1  'x, y, z'
loop_
 _atom_site_type_symbol
 _atom_site_label
 _atom_site_symmetry_multiplicity
 _atom_site_fract_x
 _atom_site_fract_y
 _atom_site_fract_z
 _atom_site_occupancy
  La  La0  1  0.20654500  0.41308900  0.71925400  1
  La  La1  1  0.20654500  0.79345500  0.71925400  1
  La  La2  1  0.79345500  0.58691100  0.21925400  1
  La  La3  1  0.58691100  0.79345500  0.71925400  1
  La  La4  1  0.79345500  0.20654500  0.21925400  1
  La  La5  1  0.41308900  0.20654500  0.21925400  1
  La  La6  1  0.79302700  0.58605400  0.94713400  1
  La  La7  1  0.79302700  0.20697300  0.94713400  1
  La  La8  1  0.20697300  0.41394600  0.44713400  1
  La  La9  1  0.41394600  0.20697300  0.94713400  1
  La  La10  1  0.20697300  0.79302700  0.44713400  1
  La  La11  1  0.58605400  0.79302700  0.44713400  1
  La  La12  1  0.21119000  0.42238000  0.99105800  1
  La  La13  1  0.21119000  0.78881000  0.99105800  1
  La  La14  1  0.78881000  0.57762000  0.49105800  1
  La  La15  1  0.57762000  0.78881000  0.99105800  1
  La  La16  1  0.78881000  0.21119000  0.49105800  1
  La  La17  1  0.42238000  0.21119000  0.49105800  1
  La  La18  1  0.87114700  0.74229400  0.63480700  1
  La  La19  1  0.87114700  0.12885300  0.63480700  1
  La  La20  1  0.12885300  0.25770600  0.13480700  1
  La  La21  1  0.25770600  0.12885300  0.63480700  1
  La  La22  1  0.12885300  0.87114700  0.13480700  1
  La  La23  1  0.74229400  0.87114700  0.13480700  1
  La  La24  1  0.45752300  0.91504500  0.85622000  1
  La  La25  1  0.45752300  0.54247700  0.85622000  1
  La  La26  1  0.54247700  0.08495500  0.35622000  1
  La  La27  1  0.08495500  0.54247700  0.85622000  1
  La  La28  1  0.54247700  0.45752300  0.35622000  1
  La  La29  1  0.91504500  0.45752300  0.35622000  1
  La  La30  1  0.00000000  0.00000000  0.99936500  1
  La  La31  1  0.00000000  0.00000000  0.49936500  1
  La  La32  1  0.46070400  0.92140800  0.58524700  1
  La  La33  1  0.46070400  0.53929600  0.58524700  1
  La  La34  1  0.53929600  0.07859200  0.08524700  1
  La  La35  1  0.07859200  0.53929600  0.58524700  1
  La  La36  1  0.53929600  0.46070400  0.08524700  1
  La  La37  1  0.92140800  0.46070400  0.08524700  1
  La  La38  1  0.79562400  0.59124800  0.78223800  1
  La  La39  1  0.79562400  0.20437600  0.78223800  1
  La  La40  1  0.20437600  0.40875200  0.28223800  1
  La  La41  1  0.40875200  0.20437600  0.78223800  1
  La  La42  1  0.20437600  0.79562400  0.28223800  1
  La  La43  1  0.59124800  0.79562400  0.28223800  1
  La  La44  1  0.66666700  0.33333300  0.64432300  1
  La  La45  1  0.33333300  0.66666700  0.14432300  1
  Mg  Mg46  1  0.00000000  0.00000000  0.75021300  1
  Mg  Mg47  1  0.00000000  0.00000000  0.25021300  1
  Mg  Mg48  1  0.10573600  0.21147300  0.86265800  1
  Mg  Mg49  1  0.10573600  0.89426400  0.86265800  1
  Mg  Mg50  1  0.89426400  0.78852700  0.36265800  1
  Mg  Mg51  1  0.78852700  0.89426400  0.86265800  1
  Mg  Mg52  1  0.89426400  0.10573600  0.36265800  1
  Mg  Mg53  1  0.21147300  0.10573600  0.36265800  1
  Pt  Pt54  1  0.52130200  0.04260500  0.71004400  1
  Pt  Pt55  1  0.52130200  0.47869800  0.71004400  1
  Pt  Pt56  1  0.47869800  0.95739500  0.21004400  1
  Pt  Pt57  1  0.95739500  0.47869800  0.71004400  1
  Pt  Pt58  1  0.47869800  0.52130200  0.21004400  1
  Pt  Pt59  1  0.04260500  0.52130200  0.21004400  1
  Pt  Pt60  1  0.66666700  0.33333300  0.86337700  1
  Pt  Pt61  1  0.33333300  0.66666700  0.36337700  1
  Pt  Pt62  1  0.14319700  0.28639500  0.56448700  1
  Pt  Pt63  1  0.14319700  0.85680300  0.56448700  1
  Pt  Pt64  1  0.85680300  0.71360500  0.06448700  1
  Pt  Pt65  1  0.71360500  0.85680300  0.56448700  1
  Pt  Pt66  1  0.85680300  0.14319700  0.06448700  1
  Pt  Pt67  1  0.28639500  0.14319700  0.06448700  1
