# generated using pymatgen
data_KLu3F10
_symmetry_space_group_name_H-M   'P 1'
_cell_length_a   8.04472233
_cell_length_b   8.04472233
_cell_length_c   13.14800500
_cell_angle_alpha   90.00000000
_cell_angle_beta   90.00000000
_cell_angle_gamma   120.00000272
_symmetry_Int_Tables_number   1
_chemical_formula_structural   KLu3F10
_chemical_formula_sum   'K4 Lu12 F40'
_cell_volume   736.90685711
_cell_formula_units_Z   4
loop_
 _symmetry_equiv_pos_site_id
 _symmetry_equiv_pos_as_xyz
  1  'x, y, z'
loop_
 _atom_site_type_symbol
 _atom_site_label
 _atom_site_symmetry_multiplicity
 _atom_site_fract_x
 _atom_site_fract_y
 _atom_site_fract_z
 _atom_site_occupancy
  K  K0  1  0.66666700  0.33333300  0.73165700  1
  K  K1  1  0.33333300  0.66666700  0.23165700  1
  K  K2  1  0.00000000  0.00000000  0.99402200  1
  K  K3  1  0.00000000  0.00000000  0.49402200  1
  Lu  Lu4  1  0.17415400  0.34830700  0.72599800  1
  Lu  Lu5  1  0.17415400  0.82584600  0.72599800  1
  Lu  Lu6  1  0.82584600  0.65169300  0.22599800  1
  Lu  Lu7  1  0.65169300  0.82584600  0.72599800  1
  Lu  Lu8  1  0.82584600  0.17415400  0.22599800  1
  Lu  Lu9  1  0.34830700  0.17415400  0.22599800  1
  Lu  Lu10  1  0.50561700  0.01123500  0.98430900  1
  Lu  Lu11  1  0.50561700  0.49438300  0.98430900  1
  Lu  Lu12  1  0.49438300  0.98876500  0.48430900  1
  Lu  Lu13  1  0.98876500  0.49438300  0.98430900  1
  Lu  Lu14  1  0.49438300  0.50561700  0.48430900  1
  Lu  Lu15  1  0.01123500  0.50561700  0.48430900  1
  F  F16  1  0.18427400  0.36854800  0.54911200  1
  F  F17  1  0.18427400  0.81572600  0.54911200  1
  F  F18  1  0.81572600  0.63145200  0.04911200  1
  F  F19  1  0.63145200  0.81572600  0.54911200  1
  F  F20  1  0.81572600  0.18427400  0.04911200  1
  F  F21  1  0.36854800  0.18427400  0.04911200  1
  F  F22  1  0.66666700  0.33333300  0.93904600  1
  F  F23  1  0.33333300  0.66666700  0.43904600  1
  F  F24  1  0.66666700  0.33333300  0.27601100  1
  F  F25  1  0.33333300  0.66666700  0.77601100  1
  F  F26  1  0.77749000  0.55498100  0.52067900  1
  F  F27  1  0.77749000  0.22251000  0.52067900  1
  F  F28  1  0.22251000  0.44501900  0.02067900  1
  F  F29  1  0.44501900  0.22251000  0.52067900  1
  F  F30  1  0.22251000  0.77749000  0.02067900  1
  F  F31  1  0.55498100  0.77749000  0.02067900  1
  F  F32  1  0.89018300  0.78036500  0.69163800  1
  F  F33  1  0.89018300  0.10981700  0.69163800  1
  F  F34  1  0.10981700  0.21963500  0.19163800  1
  F  F35  1  0.21963500  0.10981700  0.69163800  1
  F  F36  1  0.10981700  0.89018300  0.19163800  1
  F  F37  1  0.78036500  0.89018300  0.19163800  1
  F  F38  1  0.66136800  0.66467600  0.85448700  1
  F  F39  1  0.00330800  0.33863200  0.85448700  1
  F  F40  1  0.33863200  0.33532400  0.35448700  1
  F  F41  1  0.00330800  0.66467600  0.85448700  1
  F  F42  1  0.33532400  0.99669200  0.85448700  1
  F  F43  1  0.99669200  0.66136800  0.35448700  1
  F  F44  1  0.33532400  0.33863200  0.85448700  1
  F  F45  1  0.99669200  0.33532400  0.35448700  1
  F  F46  1  0.66467600  0.00330800  0.35448700  1
  F  F47  1  0.66467600  0.66136800  0.35448700  1
  F  F48  1  0.66136800  0.99669200  0.85448700  1
  F  F49  1  0.33863200  0.00330800  0.35448700  1
  F  F50  1  0.48086800  0.96173700  0.66067900  1
  F  F51  1  0.48086800  0.51913200  0.66067900  1
  F  F52  1  0.51913200  0.03826300  0.16067900  1
  F  F53  1  0.03826300  0.51913200  0.66067900  1
  F  F54  1  0.51913200  0.48086800  0.16067900  1
  F  F55  1  0.96173700  0.48086800  0.16067900  1
