# generated using pymatgen
data_K2DyNb5O15
_symmetry_space_group_name_H-M   'P 1'
_cell_length_a   12.75088500
_cell_length_b   12.75088500
_cell_length_c   3.95388800
_cell_angle_alpha   90.00000000
_cell_angle_beta   90.00000000
_cell_angle_gamma   90.00000000
_symmetry_Int_Tables_number   1
_chemical_formula_structural   K2DyNb5O15
_chemical_formula_sum   'K4 Dy2 Nb10 O30'
_cell_volume   642.84315046
_cell_formula_units_Z   2
loop_
 _symmetry_equiv_pos_site_id
 _symmetry_equiv_pos_as_xyz
  1  'x, y, z'
loop_
 _atom_site_type_symbol
 _atom_site_label
 _atom_site_symmetry_multiplicity
 _atom_site_fract_x
 _atom_site_fract_y
 _atom_site_fract_z
 _atom_site_occupancy
  K  K0  1  0.66995200  0.16995200  0.50000000  1
  K  K1  1  0.33004800  0.83004800  0.50000000  1
  K  K2  1  0.16995200  0.33004800  0.50000000  1
  K  K3  1  0.83004800  0.66995200  0.50000000  1
  Dy  Dy4  1  0.00000000  0.00000000  0.50000000  1
  Dy  Dy5  1  0.50000000  0.50000000  0.50000000  1
  Nb  Nb6  1  0.50000000  0.00000000  0.00000000  1
  Nb  Nb7  1  0.00000000  0.50000000  0.00000000  1
  Nb  Nb8  1  0.21182700  0.07652400  0.00000000  1
  Nb  Nb9  1  0.78817300  0.92347600  0.00000000  1
  Nb  Nb10  1  0.07652400  0.78817300  0.00000000  1
  Nb  Nb11  1  0.71182700  0.42347600  0.00000000  1
  Nb  Nb12  1  0.92347600  0.21182700  0.00000000  1
  Nb  Nb13  1  0.28817300  0.57652400  0.00000000  1
  Nb  Nb14  1  0.57652400  0.71182700  0.00000000  1
  Nb  Nb15  1  0.42347600  0.28817300  0.00000000  1
  O  O16  1  0.18503200  0.07833700  0.50000000  1
  O  O17  1  0.81496800  0.92166300  0.50000000  1
  O  O18  1  0.07833700  0.81496800  0.50000000  1
  O  O19  1  0.68503200  0.42166300  0.50000000  1
  O  O20  1  0.92166300  0.18503200  0.50000000  1
  O  O21  1  0.31496800  0.57833700  0.50000000  1
  O  O22  1  0.57833700  0.68503200  0.50000000  1
  O  O23  1  0.42166300  0.31496800  0.50000000  1
  O  O24  1  0.21726400  0.71726400  0.00000000  1
  O  O25  1  0.78273600  0.28273600  0.00000000  1
  O  O26  1  0.71726400  0.78273600  0.00000000  1
  O  O27  1  0.28273600  0.21726400  0.00000000  1
  O  O28  1  0.50000000  0.00000000  0.50000000  1
  O  O29  1  0.00000000  0.50000000  0.50000000  1
  O  O30  1  0.05789700  0.13077100  0.00000000  1
  O  O31  1  0.94210300  0.86922900  0.00000000  1
  O  O32  1  0.13077100  0.94210300  0.00000000  1
  O  O33  1  0.55789700  0.36922900  0.00000000  1
  O  O34  1  0.86922900  0.05789700  0.00000000  1
  O  O35  1  0.44210300  0.63077100  0.00000000  1
  O  O36  1  0.63077100  0.55789700  0.00000000  1
  O  O37  1  0.36922900  0.44210300  0.00000000  1
  O  O38  1  0.34198300  0.99950800  0.00000000  1
  O  O39  1  0.65801700  0.00049200  0.00000000  1
  O  O40  1  0.99950800  0.65801700  0.00000000  1
  O  O41  1  0.84198300  0.50049200  0.00000000  1
  O  O42  1  0.00049200  0.34198300  0.00000000  1
  O  O43  1  0.15801700  0.49950800  0.00000000  1
  O  O44  1  0.49950800  0.84198300  0.00000000  1
  O  O45  1  0.50049200  0.15801700  0.00000000  1
