# generated using pymatgen
data_Pb
_symmetry_space_group_name_H-M   'P 1'
_cell_length_a   3.64230778
_cell_length_b   3.64230778
_cell_length_c   6.41672082
_cell_angle_alpha   73.51204692
_cell_angle_beta   73.51204692
_cell_angle_gamma   60.00000403
_symmetry_Int_Tables_number   1
_chemical_formula_structural   Pb
_chemical_formula_sum   Pb2
_cell_volume   69.65069260
_cell_formula_units_Z   2
loop_
 _symmetry_equiv_pos_site_id
 _symmetry_equiv_pos_as_xyz
  1  'x, y, z'
loop_
 _atom_site_type_symbol
 _atom_site_label
 _atom_site_symmetry_multiplicity
 _atom_site_fract_x
 _atom_site_fract_y
 _atom_site_fract_z
 _atom_site_occupancy
  Pb  Pb0  1  0.09834400  0.09834400  0.70496900  1
  Pb  Pb1  1  0.90165600  0.90165600  0.29503100  1
