# generated using pymatgen
data_InAg3(CN)6
_symmetry_space_group_name_H-M   'P 1'
_cell_length_a   7.80090893
_cell_length_b   7.80090893
_cell_length_c   7.64185600
_cell_angle_alpha   90.00000000
_cell_angle_beta   90.00000000
_cell_angle_gamma   119.99999095
_symmetry_Int_Tables_number   1
_chemical_formula_structural   InAg3(CN)6
_chemical_formula_sum   'In1 Ag3 C6 N6'
_cell_volume   402.73552220
_cell_formula_units_Z   1
loop_
 _symmetry_equiv_pos_site_id
 _symmetry_equiv_pos_as_xyz
  1  'x, y, z'
loop_
 _atom_site_type_symbol
 _atom_site_label
 _atom_site_symmetry_multiplicity
 _atom_site_fract_x
 _atom_site_fract_y
 _atom_site_fract_z
 _atom_site_occupancy
  In  In0  1  0.00000000  0.00000000  0.00000000  1
  Ag  Ag1  1  0.50000000  0.50000000  0.50000000  1
  Ag  Ag2  1  0.00000000  0.50000000  0.50000000  1
  Ag  Ag3  1  0.50000000  0.00000000  0.50000000  1
  C  C4  1  0.75526300  0.75526300  0.82558200  1
  C  C5  1  0.24473700  0.24473700  0.17441800  1
  C  C6  1  0.00000000  0.24473700  0.82558200  1
  C  C7  1  0.00000000  0.75526300  0.17441800  1
  C  C8  1  0.24473700  0.00000000  0.82558200  1
  C  C9  1  0.75526300  0.00000000  0.17441800  1
  N  N10  1  0.64638900  0.64638900  0.72060000  1
  N  N11  1  0.35361100  0.35361100  0.27940000  1
  N  N12  1  0.00000000  0.35361100  0.72060000  1
  N  N13  1  0.00000000  0.64638900  0.27940000  1
  N  N14  1  0.35361100  0.00000000  0.72060000  1
  N  N15  1  0.64638900  0.00000000  0.27940000  1
