# generated using pymatgen
data_K2ErSbO7
_symmetry_space_group_name_H-M   'P 1'
_cell_length_a   8.12515916
_cell_length_b   8.12515916
_cell_length_c   8.12515916
_cell_angle_alpha   120.83750195
_cell_angle_beta   118.05789611
_cell_angle_gamma   90.97588058
_symmetry_Int_Tables_number   1
_chemical_formula_structural   K2ErSbO7
_chemical_formula_sum   'K4 Er2 Sb2 O14'
_cell_volume   382.12893066
_cell_formula_units_Z   2
loop_
 _symmetry_equiv_pos_site_id
 _symmetry_equiv_pos_as_xyz
  1  'x, y, z'
loop_
 _atom_site_type_symbol
 _atom_site_label
 _atom_site_symmetry_multiplicity
 _atom_site_fract_x
 _atom_site_fract_y
 _atom_site_fract_z
 _atom_site_occupancy
  K  K0  1  0.50000000  0.50000000  0.00000000  1
  K  K1  1  0.00000000  0.00000000  0.00000000  1
  K  K2  1  0.00000000  0.50000000  0.00000000  1
  K  K3  1  0.00000000  0.00000000  0.50000000  1
  Er  Er4  1  0.50000000  0.50000000  0.50000000  1
  Er  Er5  1  0.50000000  0.00000000  0.00000000  1
  Sb  Sb6  1  0.00000000  0.50000000  0.50000000  1
  Sb  Sb7  1  0.50000000  0.00000000  0.50000000  1
  O  O8  1  0.87928200  0.58485000  0.29443200  1
  O  O9  1  0.20958200  0.91515000  0.29443200  1
  O  O10  1  0.18225200  0.78933400  0.74757800  1
  O  O11  1  0.45824400  0.71066600  0.39291800  1
  O  O12  1  0.45824400  0.06532600  0.74757800  1
  O  O13  1  0.18225200  0.43467400  0.39291800  1
  O  O14  1  0.81774800  0.56532600  0.60708200  1
  O  O15  1  0.54175600  0.93467400  0.25242200  1
  O  O16  1  0.54175600  0.28933400  0.60708200  1
  O  O17  1  0.81774800  0.21066600  0.25242200  1
  O  O18  1  0.38985400  0.25000000  0.13985400  1
  O  O19  1  0.12071800  0.41515000  0.70556800  1
  O  O20  1  0.79041800  0.08485000  0.70556800  1
  O  O21  1  0.61014600  0.75000000  0.86014600  1
