# generated using pymatgen
data_K2LaTa6(Br5O)3
_symmetry_space_group_name_H-M   'P 1'
_cell_length_a   9.59609608
_cell_length_b   9.59609608
_cell_length_c   18.08284900
_cell_angle_alpha   90.00000000
_cell_angle_beta   90.00000000
_cell_angle_gamma   120.00000052
_symmetry_Int_Tables_number   1
_chemical_formula_structural   K2LaTa6(Br5O)3
_chemical_formula_sum   'K4 La2 Ta12 Br30 O6'
_cell_volume   1442.07105566
_cell_formula_units_Z   2
loop_
 _symmetry_equiv_pos_site_id
 _symmetry_equiv_pos_as_xyz
  1  'x, y, z'
loop_
 _atom_site_type_symbol
 _atom_site_label
 _atom_site_symmetry_multiplicity
 _atom_site_fract_x
 _atom_site_fract_y
 _atom_site_fract_z
 _atom_site_occupancy
  K  K0  1  0.66666700  0.33333300  0.54703900  1
  K  K1  1  0.33333300  0.66666700  0.45296100  1
  K  K2  1  0.66666700  0.33333300  0.95296100  1
  K  K3  1  0.33333300  0.66666700  0.04703900  1
  La  La4  1  0.33333300  0.66666700  0.75000000  1
  La  La5  1  0.66666700  0.33333300  0.25000000  1
  Ta  Ta6  1  0.17243600  0.18908400  0.68579200  1
  Ta  Ta7  1  0.82756400  0.81091600  0.31420800  1
  Ta  Ta8  1  0.81091600  0.98335200  0.68579200  1
  Ta  Ta9  1  0.17243600  0.98335200  0.81420800  1
  Ta  Ta10  1  0.18908400  0.01664800  0.31420800  1
  Ta  Ta11  1  0.82756400  0.01664800  0.18579200  1
  Ta  Ta12  1  0.01664800  0.82756400  0.68579200  1
  Ta  Ta13  1  0.81091600  0.82756400  0.81420800  1
  Ta  Ta14  1  0.98335200  0.17243600  0.31420800  1
  Ta  Ta15  1  0.18908400  0.17243600  0.18579200  1
  Ta  Ta16  1  0.01664800  0.18908400  0.81420800  1
  Ta  Ta17  1  0.98335200  0.81091600  0.18579200  1
  Br  Br18  1  0.42797000  0.21398500  0.75000000  1
  Br  Br19  1  0.57203000  0.78601500  0.25000000  1
  Br  Br20  1  0.78601500  0.21398500  0.75000000  1
  Br  Br21  1  0.21398500  0.78601500  0.25000000  1
  Br  Br22  1  0.78601500  0.57203000  0.75000000  1
  Br  Br23  1  0.21398500  0.42797000  0.25000000  1
  Br  Br24  1  0.98091300  0.20419700  0.58542000  1
  Br  Br25  1  0.01908700  0.79580300  0.41458000  1
  Br  Br26  1  0.79580300  0.77671600  0.58542000  1
  Br  Br27  1  0.98091300  0.77671600  0.91458000  1
  Br  Br28  1  0.20419700  0.22328400  0.41458000  1
  Br  Br29  1  0.01908700  0.22328400  0.08542000  1
  Br  Br30  1  0.22328400  0.01908700  0.58542000  1
  Br  Br31  1  0.79580300  0.01908700  0.91458000  1
  Br  Br32  1  0.77671600  0.98091300  0.41458000  1
  Br  Br33  1  0.20419700  0.98091300  0.08542000  1
  Br  Br34  1  0.22328400  0.20419700  0.91458000  1
  Br  Br35  1  0.77671600  0.79580300  0.08542000  1
  Br  Br36  1  0.39713200  0.47035300  0.61545800  1
  Br  Br37  1  0.60286800  0.52964700  0.38454200  1
  Br  Br38  1  0.52964700  0.92677900  0.61545800  1
  Br  Br39  1  0.39713200  0.92677900  0.88454200  1
  Br  Br40  1  0.47035300  0.07322100  0.38454200  1
  Br  Br41  1  0.60286800  0.07322100  0.11545800  1
  Br  Br42  1  0.07322100  0.60286800  0.61545800  1
  Br  Br43  1  0.52964700  0.60286800  0.88454200  1
  Br  Br44  1  0.92677900  0.39713200  0.38454200  1
  Br  Br45  1  0.47035300  0.39713200  0.11545800  1
  Br  Br46  1  0.07322100  0.47035300  0.88454200  1
  Br  Br47  1  0.92677900  0.52964700  0.11545800  1
  O  O48  1  0.63850100  0.81925100  0.75000000  1
  O  O49  1  0.36149900  0.18074900  0.25000000  1
  O  O50  1  0.18074900  0.81925100  0.75000000  1
  O  O51  1  0.81925100  0.18074900  0.25000000  1
  O  O52  1  0.18074900  0.36149900  0.75000000  1
  O  O53  1  0.81925100  0.63850100  0.25000000  1
