# generated using pymatgen
data_K2C7N4O
_symmetry_space_group_name_H-M   'P 1'
_cell_length_a   4.19550691
_cell_length_b   8.08648166
_cell_length_c   14.92418322
_cell_angle_alpha   99.44457509
_cell_angle_beta   96.81555172
_cell_angle_gamma   91.46112508
_symmetry_Int_Tables_number   1
_chemical_formula_structural   K2C7N4O
_chemical_formula_sum   'K4 C14 N8 O2'
_cell_volume   495.41509117
_cell_formula_units_Z   2
loop_
 _symmetry_equiv_pos_site_id
 _symmetry_equiv_pos_as_xyz
  1  'x, y, z'
loop_
 _atom_site_type_symbol
 _atom_site_label
 _atom_site_symmetry_multiplicity
 _atom_site_fract_x
 _atom_site_fract_y
 _atom_site_fract_z
 _atom_site_occupancy
  K  K0  1  0.30748900  0.12231800  0.62573100  1
  K  K1  1  0.69251100  0.87768200  0.37426900  1
  K  K2  1  0.18641900  0.89710400  0.12159600  1
  K  K3  1  0.81358100  0.10289600  0.87840400  1
  C  C4  1  0.68522300  0.52665000  0.18079600  1
  C  C5  1  0.31477700  0.47335000  0.81920400  1
  C  C6  1  0.65847400  0.35197400  0.17366700  1
  C  C7  1  0.34152600  0.64802600  0.82633300  1
  C  C8  1  0.11887800  0.22139100  0.38224700  1
  C  C9  1  0.88112200  0.77860900  0.61775300  1
  C  C10  1  0.00326300  0.67122100  0.67678700  1
  C  C11  1  0.99673700  0.32877900  0.32321300  1
  C  C12  1  0.79219600  0.25223400  0.24063700  1
  C  C13  1  0.20780400  0.74776600  0.75936300  1
  C  C14  1  0.09870900  0.49820200  0.34639700  1
  C  C15  1  0.90129100  0.50179800  0.65360300  1
  C  C16  1  0.47980900  0.26484300  0.09368600  1
  C  C17  1  0.52019100  0.73515700  0.90631400  1
  N  N18  1  0.30478200  0.32709800  0.81770600  1
  N  N19  1  0.69521800  0.67290200  0.18229400  1
  N  N20  1  0.21866400  0.12635700  0.42948900  1
  N  N21  1  0.78133600  0.87364300  0.57051100  1
  N  N22  1  0.32962000  0.18958700  0.02708400  1
  N  N23  1  0.67038000  0.81041300  0.97291600  1
  N  N24  1  0.19147200  0.63910700  0.36814500  1
  N  N25  1  0.80852800  0.36089300  0.63185500  1
  O  O26  1  0.73188000  0.09384300  0.22581800  1
  O  O27  1  0.26812000  0.90615700  0.77418200  1
