# generated using pymatgen
data_HoCrGeO5
_symmetry_space_group_name_H-M   'P 1'
_cell_length_a   5.79860300
_cell_length_b   7.42983900
_cell_length_c   8.43933700
_cell_angle_alpha   90.00000000
_cell_angle_beta   90.00000000
_cell_angle_gamma   90.00000000
_symmetry_Int_Tables_number   1
_chemical_formula_structural   HoCrGeO5
_chemical_formula_sum   'Ho4 Cr4 Ge4 O20'
_cell_volume   363.58931205
_cell_formula_units_Z   4
loop_
 _symmetry_equiv_pos_site_id
 _symmetry_equiv_pos_as_xyz
  1  'x, y, z'
loop_
 _atom_site_type_symbol
 _atom_site_label
 _atom_site_symmetry_multiplicity
 _atom_site_fract_x
 _atom_site_fract_y
 _atom_site_fract_z
 _atom_site_occupancy
  Ho  Ho0  1  0.50000000  0.35375400  0.32797900  1
  Ho  Ho1  1  0.50000000  0.64624600  0.67202100  1
  Ho  Ho2  1  0.50000000  0.14624600  0.82797900  1
  Ho  Ho3  1  0.50000000  0.85375400  0.17202100  1
  Cr  Cr4  1  0.24962800  0.00000000  0.50000000  1
  Cr  Cr5  1  0.75037200  0.00000000  0.50000000  1
  Cr  Cr6  1  0.75037200  0.50000000  0.00000000  1
  Cr  Cr7  1  0.24962800  0.50000000  0.00000000  1
  Ge  Ge8  1  0.00000000  0.11733600  0.14534500  1
  Ge  Ge9  1  0.00000000  0.88266400  0.85465500  1
  Ge  Ge10  1  0.00000000  0.38266400  0.64534500  1
  Ge  Ge11  1  0.00000000  0.61733600  0.35465500  1
  O  O12  1  0.24979300  0.11359800  0.28365900  1
  O  O13  1  0.75020700  0.88640200  0.71634100  1
  O  O14  1  0.24979300  0.88640200  0.71634100  1
  O  O15  1  0.75020700  0.38640200  0.78365900  1
  O  O16  1  0.75020700  0.11359800  0.28365900  1
  O  O17  1  0.24979300  0.61359800  0.21634100  1
  O  O18  1  0.75020700  0.61359800  0.21634100  1
  O  O19  1  0.24979300  0.38640200  0.78365900  1
  O  O20  1  0.00000000  0.34338800  0.08315900  1
  O  O21  1  0.00000000  0.65661200  0.91684100  1
  O  O22  1  0.00000000  0.15661200  0.58315900  1
  O  O23  1  0.00000000  0.84338800  0.41684100  1
  O  O24  1  0.50000000  0.33158400  0.05919300  1
  O  O25  1  0.50000000  0.66841600  0.94080700  1
  O  O26  1  0.50000000  0.16841600  0.55919300  1
  O  O27  1  0.50000000  0.83158400  0.44080700  1
  O  O28  1  0.21233300  0.00000000  0.00000000  1
  O  O29  1  0.78766700  0.00000000  0.00000000  1
  O  O30  1  0.78766700  0.50000000  0.50000000  1
  O  O31  1  0.21233300  0.50000000  0.50000000  1
