# generated using pymatgen
data_HoAl3(BO3)4
_symmetry_space_group_name_H-M   'P 1'
_cell_length_a   5.92550750
_cell_length_b   5.92550750
_cell_length_c   11.12707204
_cell_angle_alpha   81.95560053
_cell_angle_beta   81.95560053
_cell_angle_gamma   104.47593337
_symmetry_Int_Tables_number   1
_chemical_formula_structural   HoAl3(BO3)4
_chemical_formula_sum   'Ho2 Al6 B8 O24'
_cell_volume   368.27685253
_cell_formula_units_Z   2
loop_
 _symmetry_equiv_pos_site_id
 _symmetry_equiv_pos_as_xyz
  1  'x, y, z'
loop_
 _atom_site_type_symbol
 _atom_site_label
 _atom_site_symmetry_multiplicity
 _atom_site_fract_x
 _atom_site_fract_y
 _atom_site_fract_z
 _atom_site_occupancy
  Ho  Ho0  1  0.96419400  0.03580600  0.75000000  1
  Ho  Ho1  1  0.03580600  0.96419400  0.25000000  1
  Al  Al2  1  0.69660100  0.19346000  0.02804500  1
  Al  Al3  1  0.30339900  0.80654000  0.97195500  1
  Al  Al4  1  0.80654000  0.30339900  0.47195500  1
  Al  Al5  1  0.19346000  0.69660100  0.52804500  1
  Al  Al6  1  0.41197600  0.58802400  0.75000000  1
  Al  Al7  1  0.58802400  0.41197600  0.25000000  1
  B  B8  1  0.49260600  0.11796900  0.72269200  1
  B  B9  1  0.50739400  0.88203100  0.27730800  1
  B  B10  1  0.88203100  0.50739400  0.77730800  1
  B  B11  1  0.11796900  0.49260600  0.22269200  1
  B  B12  1  0.72178000  0.77749700  0.50320300  1
  B  B13  1  0.27822000  0.22250300  0.49679700  1
  B  B14  1  0.22250300  0.27822000  0.99679700  1
  B  B15  1  0.77749700  0.72178000  0.00320300  1
  O  O16  1  0.18678200  0.99718900  0.56755600  1
  O  O17  1  0.81321800  0.00281100  0.43244400  1
  O  O18  1  0.00281100  0.81321800  0.93244400  1
  O  O19  1  0.99718900  0.18678200  0.06755600  1
  O  O20  1  0.42280800  0.89403000  0.79559600  1
  O  O21  1  0.57719200  0.10597000  0.20440400  1
  O  O22  1  0.10597000  0.57719200  0.70440400  1
  O  O23  1  0.89403000  0.42280800  0.29559600  1
  O  O24  1  0.70301200  0.17567100  0.64018600  1
  O  O25  1  0.29698800  0.82432900  0.35981400  1
  O  O26  1  0.82432900  0.29698800  0.85981400  1
  O  O27  1  0.17567100  0.70301200  0.14018600  1
  O  O28  1  0.62842200  0.86899900  0.99812000  1
  O  O29  1  0.37157800  0.13100100  0.00188000  1
  O  O30  1  0.13100100  0.37157800  0.50188000  1
  O  O31  1  0.86899900  0.62842200  0.49812000  1
  O  O32  1  0.34948000  0.26507000  0.74040300  1
  O  O33  1  0.65052000  0.73493000  0.25959700  1
  O  O34  1  0.73493000  0.65052000  0.75959700  1
  O  O35  1  0.26507000  0.34948000  0.24040300  1
  O  O36  1  0.49468000  0.70163200  0.57245000  1
  O  O37  1  0.50532000  0.29836800  0.42755000  1
  O  O38  1  0.29836800  0.50532000  0.92755000  1
  O  O39  1  0.70163200  0.49468000  0.07245000  1
