# generated using pymatgen
data_K2Co(SO7)2
_symmetry_space_group_name_H-M   'P 1'
_cell_length_a   11.92048300
_cell_length_b   6.09746300
_cell_length_c   8.52489409
_cell_angle_alpha   76.32478600
_cell_angle_beta   90.00000000
_cell_angle_gamma   90.00000000
_symmetry_Int_Tables_number   1
_chemical_formula_structural   K2Co(SO7)2
_chemical_formula_sum   'K4 Co2 S4 O28'
_cell_volume   602.06383026
_cell_formula_units_Z   2
loop_
 _symmetry_equiv_pos_site_id
 _symmetry_equiv_pos_as_xyz
  1  'x, y, z'
loop_
 _atom_site_type_symbol
 _atom_site_label
 _atom_site_symmetry_multiplicity
 _atom_site_fract_x
 _atom_site_fract_y
 _atom_site_fract_z
 _atom_site_occupancy
  K  K0  1  0.65639300  0.84973900  0.86717400  1
  K  K1  1  0.34360700  0.15026100  0.13282600  1
  K  K2  1  0.15639300  0.15026100  0.63282600  1
  K  K3  1  0.84360700  0.84973900  0.36717400  1
  Co  Co4  1  0.50000000  0.50000000  0.50000000  1
  Co  Co5  1  0.00000000  0.50000000  0.00000000  1
  S  S6  1  0.35692300  0.75368100  0.90337700  1
  S  S7  1  0.64307700  0.24631900  0.09662300  1
  S  S8  1  0.85692300  0.24631900  0.59662300  1
  S  S9  1  0.14307700  0.75368100  0.40337700  1
  O  O10  1  0.26228600  0.91239500  0.90397000  1
  O  O11  1  0.73771400  0.08760500  0.09603000  1
  O  O12  1  0.76228600  0.08760500  0.59603000  1
  O  O13  1  0.23771400  0.91239500  0.40397000  1
  O  O14  1  0.43366500  0.86296600  0.76619600  1
  O  O15  1  0.56633500  0.13703400  0.23380400  1
  O  O16  1  0.93366500  0.13703400  0.73380400  1
  O  O17  1  0.06633500  0.86296600  0.26619600  1
  O  O18  1  0.45139200  0.77686800  0.50527200  1
  O  O19  1  0.54860800  0.22313200  0.49472800  1
  O  O20  1  0.95139200  0.22313200  0.99472800  1
  O  O21  1  0.04860800  0.77686800  0.00527200  1
  O  O22  1  0.07646100  0.72114000  0.55441700  1
  O  O23  1  0.92353900  0.27886000  0.44558300  1
  O  O24  1  0.57646100  0.27886000  0.94558300  1
  O  O25  1  0.42353900  0.72114000  0.05441700  1
  O  O26  1  0.31565100  0.53469900  0.87898000  1
  O  O27  1  0.68434900  0.46530100  0.12102000  1
  O  O28  1  0.81565100  0.46530100  0.62102000  1
  O  O29  1  0.18434900  0.53469900  0.37898000  1
  O  O30  1  0.10193700  0.42977200  0.86708100  1
  O  O31  1  0.89806300  0.57022800  0.13291900  1
  O  O32  1  0.60193700  0.57022800  0.63291900  1
  O  O33  1  0.39806300  0.42977200  0.36708100  1
  O  O34  1  0.40186400  0.33327500  0.63443100  1
  O  O35  1  0.59813600  0.66672500  0.36556900  1
  O  O36  1  0.90186400  0.66672500  0.86556900  1
  O  O37  1  0.09813600  0.33327500  0.13443100  1
