# generated using pymatgen
data_KP4(CO2)4
_symmetry_space_group_name_H-M   'P 1'
_cell_length_a   13.83453664
_cell_length_b   13.83453664
_cell_length_c   13.83453664
_cell_angle_alpha   142.68197247
_cell_angle_beta   142.68197247
_cell_angle_gamma   53.80284860
_symmetry_Int_Tables_number   1
_chemical_formula_structural   KP4(CO2)4
_chemical_formula_sum   'K2 P8 C8 O16'
_cell_volume   966.80530850
_cell_formula_units_Z   2
loop_
 _symmetry_equiv_pos_site_id
 _symmetry_equiv_pos_as_xyz
  1  'x, y, z'
loop_
 _atom_site_type_symbol
 _atom_site_label
 _atom_site_symmetry_multiplicity
 _atom_site_fract_x
 _atom_site_fract_y
 _atom_site_fract_z
 _atom_site_occupancy
  K  K0  1  0.00000000  0.00000000  0.00000000  1
  K  K1  1  0.75000000  0.25000000  0.50000000  1
  P  P2  1  0.31880600  0.15709900  0.16170700  1
  P  P3  1  0.99539300  0.15709900  0.83829300  1
  P  P4  1  0.90709900  0.24539300  0.33829300  1
  P  P5  1  0.75460700  0.09290100  0.66170700  1
  P  P6  1  0.43119400  0.09290100  0.33829300  1
  P  P7  1  0.90709900  0.56880600  0.66170700  1
  P  P8  1  0.84290100  0.00460700  0.16170700  1
  P  P9  1  0.84290100  0.68119400  0.83829300  1
  C  C10  1  0.79154100  0.38198800  0.40955300  1
  C  C11  1  0.97243500  0.38198800  0.59044700  1
  C  C12  1  0.13198800  0.22243500  0.09044700  1
  C  C13  1  0.77756500  0.86801200  0.90955300  1
  C  C14  1  0.95845900  0.86801200  0.09044700  1
  C  C15  1  0.13198800  0.04154100  0.90955300  1
  C  C16  1  0.61801200  0.02756500  0.40955300  1
  C  C17  1  0.61801200  0.20845900  0.59044700  1
  O  O18  1  0.67982600  0.61012700  0.06969800  1
  O  O19  1  0.54042900  0.61012700  0.93030200  1
  O  O20  1  0.36012700  0.79042900  0.43030200  1
  O  O21  1  0.20957100  0.63987300  0.56969800  1
  O  O22  1  0.07017400  0.63987300  0.43030200  1
  O  O23  1  0.36012700  0.92982600  0.56969800  1
  O  O24  1  0.38987300  0.45957100  0.06969800  1
  O  O25  1  0.38987300  0.32017400  0.93030200  1
  O  O26  1  0.43660400  0.21309000  0.22351500  1
  O  O27  1  0.98957500  0.21309000  0.77648500  1
  O  O28  1  0.96309000  0.23957500  0.27648500  1
  O  O29  1  0.76042500  0.03691000  0.72351500  1
  O  O30  1  0.31339600  0.03691000  0.27648500  1
  O  O31  1  0.96309000  0.68660400  0.72351500  1
  O  O32  1  0.78691000  0.01042500  0.22351500  1
  O  O33  1  0.78691000  0.56339600  0.77648500  1
