# generated using pymatgen
data_K2CoH2(SO4)2
_symmetry_space_group_name_H-M   'P 1'
_cell_length_a   5.13723775
_cell_length_b   6.99254571
_cell_length_c   13.99510900
_cell_angle_alpha   90.00000000
_cell_angle_beta   90.00000000
_cell_angle_gamma   64.90231762
_symmetry_Int_Tables_number   1
_chemical_formula_structural   K2CoH2(SO4)2
_chemical_formula_sum   'K4 Co2 H4 S4 O16'
_cell_volume   455.27200294
_cell_formula_units_Z   2
loop_
 _symmetry_equiv_pos_site_id
 _symmetry_equiv_pos_as_xyz
  1  'x, y, z'
loop_
 _atom_site_type_symbol
 _atom_site_label
 _atom_site_symmetry_multiplicity
 _atom_site_fract_x
 _atom_site_fract_y
 _atom_site_fract_z
 _atom_site_occupancy
  K  K0  1  0.71591900  0.08478800  0.35951900  1
  K  K1  1  0.28408100  0.91521200  0.64048100  1
  K  K2  1  0.28408100  0.41521200  0.85951900  1
  K  K3  1  0.71591900  0.58478800  0.14048100  1
  Co  Co4  1  0.00000000  0.00000000  0.00000000  1
  Co  Co5  1  0.00000000  0.50000000  0.50000000  1
  H  H6  1  0.99544900  0.58300000  0.60349600  1
  H  H7  1  0.00455100  0.41700000  0.39650400  1
  H  H8  1  0.00455100  0.91700000  0.10349600  1
  H  H9  1  0.99544900  0.08300000  0.89650400  1
  S  S10  1  0.57305100  0.79270400  0.89852000  1
  S  S11  1  0.42694900  0.20729600  0.10148000  1
  S  S12  1  0.42694900  0.70729600  0.39852000  1
  S  S13  1  0.57305100  0.29270400  0.60148000  1
  O  O14  1  0.42019700  0.98999000  0.84402400  1
  O  O15  1  0.57980300  0.01001000  0.15597600  1
  O  O16  1  0.57980300  0.51001000  0.34402400  1
  O  O17  1  0.42019700  0.48999000  0.65597600  1
  O  O18  1  0.82442600  0.79203200  0.95300100  1
  O  O19  1  0.17557400  0.20796800  0.04699900  1
  O  O20  1  0.17557400  0.70796800  0.45300100  1
  O  O21  1  0.82442600  0.29203200  0.54699900  1
  O  O22  1  0.36813700  0.77034000  0.97397900  1
  O  O23  1  0.63186300  0.22966000  0.02602100  1
  O  O24  1  0.63186300  0.72966000  0.47397900  1
  O  O25  1  0.36813700  0.27034000  0.52602100  1
  O  O26  1  0.67072900  0.60398600  0.83771700  1
  O  O27  1  0.32927100  0.39601400  0.16228300  1
  O  O28  1  0.32927100  0.89601400  0.33771700  1
  O  O29  1  0.67072900  0.10398600  0.66228300  1
