# generated using pymatgen
data_Mn2Cr3(NO6)2
_symmetry_space_group_name_H-M   'P 1'
_cell_length_a   10.40062800
_cell_length_b   10.40062800
_cell_length_c   10.40062800
_cell_angle_alpha   90.00000000
_cell_angle_beta   90.00000000
_cell_angle_gamma   90.00000000
_symmetry_Int_Tables_number   1
_chemical_formula_structural   Mn2Cr3(NO6)2
_chemical_formula_sum   'Mn8 Cr12 N8 O48'
_cell_volume   1125.06778575
_cell_formula_units_Z   4
loop_
 _symmetry_equiv_pos_site_id
 _symmetry_equiv_pos_as_xyz
  1  'x, y, z'
loop_
 _atom_site_type_symbol
 _atom_site_label
 _atom_site_symmetry_multiplicity
 _atom_site_fract_x
 _atom_site_fract_y
 _atom_site_fract_z
 _atom_site_occupancy
  Mn  Mn0  1  0.33671500  0.33671500  0.33671500  1
  Mn  Mn1  1  0.16328500  0.66328500  0.83671500  1
  Mn  Mn2  1  0.66328500  0.83671500  0.16328500  1
  Mn  Mn3  1  0.83671500  0.16328500  0.66328500  1
  Mn  Mn4  1  0.60234500  0.60234500  0.60234500  1
  Mn  Mn5  1  0.89765500  0.39765500  0.10234500  1
  Mn  Mn6  1  0.39765500  0.10234500  0.89765500  1
  Mn  Mn7  1  0.10234500  0.89765500  0.39765500  1
  Cr  Cr8  1  0.01886300  0.21047900  0.37506200  1
  Cr  Cr9  1  0.48113700  0.78952100  0.87506200  1
  Cr  Cr10  1  0.98113700  0.71047900  0.12493800  1
  Cr  Cr11  1  0.37506200  0.01886300  0.21047900  1
  Cr  Cr12  1  0.51886300  0.28952100  0.62493800  1
  Cr  Cr13  1  0.87506200  0.48113700  0.78952100  1
  Cr  Cr14  1  0.12493800  0.98113700  0.71047900  1
  Cr  Cr15  1  0.62493800  0.51886300  0.28952100  1
  Cr  Cr16  1  0.21047900  0.37506200  0.01886300  1
  Cr  Cr17  1  0.71047900  0.12493800  0.98113700  1
  Cr  Cr18  1  0.28952100  0.62493800  0.51886300  1
  Cr  Cr19  1  0.78952100  0.87506200  0.48113700  1
  N  N20  1  0.04714600  0.04714600  0.04714600  1
  N  N21  1  0.45285400  0.95285400  0.54714600  1
  N  N22  1  0.95285400  0.54714600  0.45285400  1
  N  N23  1  0.54714600  0.45285400  0.95285400  1
  N  N24  1  0.81830700  0.81830700  0.81830700  1
  N  N25  1  0.68169300  0.18169300  0.31830700  1
  N  N26  1  0.18169300  0.31830700  0.68169300  1
  N  N27  1  0.31830700  0.68169300  0.18169300  1
  O  O28  1  0.01400600  0.05298700  0.33168700  1
  O  O29  1  0.48599400  0.94701300  0.83168700  1
  O  O30  1  0.98599400  0.55298700  0.16831300  1
  O  O31  1  0.33168700  0.01400600  0.05298700  1
  O  O32  1  0.51400600  0.44701300  0.66831300  1
  O  O33  1  0.83168700  0.48599400  0.94701300  1
  O  O34  1  0.16831300  0.98599400  0.55298700  1
  O  O35  1  0.66831300  0.51400600  0.44701300  1
  O  O36  1  0.05298700  0.33168700  0.01400600  1
  O  O37  1  0.55298700  0.16831300  0.98599400  1
  O  O38  1  0.44701300  0.66831300  0.51400600  1
  O  O39  1  0.94701300  0.83168700  0.48599400  1
  O  O40  1  0.26984300  0.48893500  0.43719100  1
  O  O41  1  0.23015700  0.51106500  0.93719100  1
  O  O42  1  0.73015700  0.98893500  0.06280900  1
  O  O43  1  0.43719100  0.26984300  0.48893500  1
  O  O44  1  0.76984300  0.01106500  0.56280900  1
  O  O45  1  0.93719100  0.23015700  0.51106500  1
  O  O46  1  0.06280900  0.73015700  0.98893500  1
  O  O47  1  0.56280900  0.76984300  0.01106500  1
  O  O48  1  0.48893500  0.43719100  0.26984300  1
  O  O49  1  0.98893500  0.06280900  0.73015700  1
  O  O50  1  0.01106500  0.56280900  0.76984300  1
  O  O51  1  0.51106500  0.93719100  0.23015700  1
  O  O52  1  0.04727500  0.80175700  0.23880500  1
  O  O53  1  0.45272500  0.19824300  0.73880500  1
  O  O54  1  0.95272500  0.30175700  0.26119500  1
  O  O55  1  0.23880500  0.04727500  0.80175700  1
  O  O56  1  0.54727500  0.69824300  0.76119500  1
  O  O57  1  0.73880500  0.45272500  0.19824300  1
  O  O58  1  0.26119500  0.95272500  0.30175700  1
  O  O59  1  0.76119500  0.54727500  0.69824300  1
  O  O60  1  0.80175700  0.23880500  0.04727500  1
  O  O61  1  0.30175700  0.26119500  0.95272500  1
  O  O62  1  0.69824300  0.76119500  0.54727500  1
  O  O63  1  0.19824300  0.73880500  0.45272500  1
  O  O64  1  0.17154800  0.25051700  0.39823600  1
  O  O65  1  0.32845200  0.74948300  0.89823600  1
  O  O66  1  0.82845200  0.75051700  0.10176400  1
  O  O67  1  0.39823600  0.17154800  0.25051700  1
  O  O68  1  0.67154800  0.24948300  0.60176400  1
  O  O69  1  0.89823600  0.32845200  0.74948300  1
  O  O70  1  0.10176400  0.82845200  0.75051700  1
  O  O71  1  0.60176400  0.67154800  0.24948300  1
  O  O72  1  0.25051700  0.39823600  0.17154800  1
  O  O73  1  0.75051700  0.10176400  0.82845200  1
  O  O74  1  0.24948300  0.60176400  0.67154800  1
  O  O75  1  0.74948300  0.89823600  0.32845200  1
