# generated using pymatgen
data_Np(IO3)2
_symmetry_space_group_name_H-M   'P 1'
_cell_length_a   5.26737000
_cell_length_b   12.97554300
_cell_length_c   12.97554300
_cell_angle_alpha   90.00000000
_cell_angle_beta   90.00000000
_cell_angle_gamma   90.00000000
_symmetry_Int_Tables_number   1
_chemical_formula_structural   Np(IO3)2
_chemical_formula_sum   'Np4 I8 O24'
_cell_volume   886.83925488
_cell_formula_units_Z   4
loop_
 _symmetry_equiv_pos_site_id
 _symmetry_equiv_pos_as_xyz
  1  'x, y, z'
loop_
 _atom_site_type_symbol
 _atom_site_label
 _atom_site_symmetry_multiplicity
 _atom_site_fract_x
 _atom_site_fract_y
 _atom_site_fract_z
 _atom_site_occupancy
  Np  Np0  1  0.25000000  0.25000000  0.25000000  1
  Np  Np1  1  0.25000000  0.75000000  0.75000000  1
  Np  Np2  1  0.75000000  0.25000000  0.75000000  1
  Np  Np3  1  0.75000000  0.75000000  0.25000000  1
  I  I4  1  0.24609500  0.02094500  0.76355200  1
  I  I5  1  0.24609500  0.97905500  0.23644800  1
  I  I6  1  0.74609500  0.73644800  0.52094500  1
  I  I7  1  0.25390500  0.47905500  0.73644800  1
  I  I8  1  0.74609500  0.26355200  0.47905500  1
  I  I9  1  0.25390500  0.52094500  0.26355200  1
  I  I10  1  0.75390500  0.76355200  0.97905500  1
  I  I11  1  0.75390500  0.23644800  0.02094500  1
  O  O12  1  0.49771400  0.61550500  0.21668000  1
  O  O13  1  0.49771400  0.38449500  0.78332000  1
  O  O14  1  0.99771400  0.28332000  0.11550500  1
  O  O15  1  0.00228600  0.88449500  0.28332000  1
  O  O16  1  0.99771400  0.71668000  0.88449500  1
  O  O17  1  0.00228600  0.11550500  0.71668000  1
  O  O18  1  0.50228600  0.21668000  0.38449500  1
  O  O19  1  0.50228600  0.78332000  0.61550500  1
  O  O20  1  0.48342900  0.17872300  0.16520800  1
  O  O21  1  0.48342900  0.82127700  0.83479200  1
  O  O22  1  0.98342900  0.33479200  0.67872300  1
  O  O23  1  0.01657100  0.32127700  0.33479200  1
  O  O24  1  0.98342900  0.66520800  0.32127700  1
  O  O25  1  0.01657100  0.67872300  0.66520800  1
  O  O26  1  0.51657100  0.16520800  0.82127700  1
  O  O27  1  0.51657100  0.83479200  0.17872300  1
  O  O28  1  0.06216500  0.10315200  0.27741500  1
  O  O29  1  0.06216500  0.89684800  0.72258500  1
  O  O30  1  0.56216500  0.22258500  0.60315200  1
  O  O31  1  0.43783500  0.39684800  0.22258500  1
  O  O32  1  0.56216500  0.77741500  0.39684800  1
  O  O33  1  0.43783500  0.60315200  0.77741500  1
  O  O34  1  0.93783500  0.27741500  0.89684800  1
  O  O35  1  0.93783500  0.72258500  0.10315200  1
