# generated using pymatgen
data_MgAsO11
_symmetry_space_group_name_H-M   'P 1'
_cell_length_a   5.58776924
_cell_length_b   10.95111831
_cell_length_c   12.43835804
_cell_angle_alpha   92.27084407
_cell_angle_beta   77.01955528
_cell_angle_gamma   100.16029308
_symmetry_Int_Tables_number   1
_chemical_formula_structural   MgAsO11
_chemical_formula_sum   'Mg4 As4 O44'
_cell_volume   730.05164282
_cell_formula_units_Z   4
loop_
 _symmetry_equiv_pos_site_id
 _symmetry_equiv_pos_as_xyz
  1  'x, y, z'
loop_
 _atom_site_type_symbol
 _atom_site_label
 _atom_site_symmetry_multiplicity
 _atom_site_fract_x
 _atom_site_fract_y
 _atom_site_fract_z
 _atom_site_occupancy
  Mg  Mg0  1  0.53847300  0.75000000  0.92305400  1
  Mg  Mg1  1  0.46152700  0.25000000  0.07694600  1
  Mg  Mg2  1  0.32214700  0.75000000  0.35570500  1
  Mg  Mg3  1  0.67785300  0.25000000  0.64429500  1
  As  As4  1  0.00258800  0.90725400  0.24393500  1
  As  As5  1  0.99741200  0.09274600  0.75606500  1
  As  As6  1  0.75347800  0.59274600  0.24393500  1
  As  As7  1  0.24652200  0.40725400  0.75606500  1
  O  O8  1  0.47639400  0.59538100  0.33085200  1
  O  O9  1  0.52360600  0.40461900  0.66914800  1
  O  O10  1  0.19275400  0.90461900  0.33085200  1
  O  O11  1  0.80724600  0.09538100  0.66914800  1
  O  O12  1  0.85049100  0.61161100  0.56139700  1
  O  O13  1  0.14950900  0.38838900  0.43860300  1
  O  O14  1  0.58811200  0.88838900  0.56139700  1
  O  O15  1  0.41188800  0.11161100  0.43860300  1
  O  O16  1  0.25667300  0.84375800  0.11094100  1
  O  O17  1  0.74332700  0.15624200  0.88905900  1
  O  O18  1  0.63238600  0.65624200  0.11094100  1
  O  O19  1  0.36761400  0.34375800  0.88905900  1
  O  O20  1  0.02563100  0.90842000  0.76414400  1
  O  O21  1  0.97436900  0.09158000  0.23585600  1
  O  O22  1  0.21022500  0.59158000  0.76414400  1
  O  O23  1  0.78977500  0.40842000  0.23585600  1
  O  O24  1  0.02323900  0.65096300  0.27890300  1
  O  O25  1  0.97676100  0.34903700  0.72109700  1
  O  O26  1  0.69785700  0.84903700  0.27890300  1
  O  O27  1  0.30214300  0.15096300  0.72109700  1
  O  O28  1  0.21724800  0.48912100  0.06087100  1
  O  O29  1  0.78275200  0.51087900  0.93912900  1
  O  O30  1  0.72188000  0.01087900  0.06087100  1
  O  O31  1  0.27812000  0.98912100  0.93912900  1
  O  O32  1  0.83651600  0.81763300  0.79490600  1
  O  O33  1  0.16348400  0.18236700  0.20509400  1
  O  O34  1  0.36857900  0.68236700  0.79490600  1
  O  O35  1  0.63142100  0.31763300  0.20509400  1
  O  O36  1  0.20841800  0.74649700  0.04671300  1
  O  O37  1  0.79158200  0.25350300  0.95328700  1
  O  O38  1  0.74486900  0.75350300  0.04671300  1
  O  O39  1  0.25513100  0.24649700  0.95328700  1
  O  O40  1  0.69383300  0.57384700  0.88111600  1
  O  O41  1  0.30616700  0.42615300  0.11888400  1
  O  O42  1  0.42505100  0.92615300  0.88111600  1
  O  O43  1  0.57494900  0.07384700  0.11888400  1
  O  O44  1  0.08737900  0.65238300  0.51431400  1
  O  O45  1  0.91262100  0.34761700  0.48568600  1
  O  O46  1  0.39830700  0.84761700  0.51431400  1
  O  O47  1  0.60169300  0.15238300  0.48568600  1
  O  O48  1  0.80176300  0.86328000  0.51476800  1
  O  O49  1  0.19823700  0.13672000  0.48523200  1
  O  O50  1  0.68346900  0.63672000  0.51476800  1
  O  O51  1  0.31653100  0.36328000  0.48523200  1
