# generated using pymatgen
data_Na2UMo2H3O11
_symmetry_space_group_name_H-M   'P 1'
_cell_length_a   7.52467913
_cell_length_b   12.25648800
_cell_length_c   14.36565378
_cell_angle_alpha   90.00000000
_cell_angle_beta   106.28002194
_cell_angle_gamma   90.00000000
_symmetry_Int_Tables_number   1
_chemical_formula_structural   Na2UMo2H3O11
_chemical_formula_sum   'Na8 U4 Mo8 H12 O44'
_cell_volume   1271.76485283
_cell_formula_units_Z   4
loop_
 _symmetry_equiv_pos_site_id
 _symmetry_equiv_pos_as_xyz
  1  'x, y, z'
loop_
 _atom_site_type_symbol
 _atom_site_label
 _atom_site_symmetry_multiplicity
 _atom_site_fract_x
 _atom_site_fract_y
 _atom_site_fract_z
 _atom_site_occupancy
  Na  Na0  1  0.16135500  0.91678100  0.36343500  1
  Na  Na1  1  0.83864500  0.08321900  0.63656500  1
  Na  Na2  1  0.33864500  0.41678100  0.13656500  1
  Na  Na3  1  0.66135500  0.58321900  0.86343500  1
  Na  Na4  1  0.26065200  0.59155000  0.36354400  1
  Na  Na5  1  0.73934800  0.40845000  0.63645600  1
  Na  Na6  1  0.23934800  0.09155000  0.13645600  1
  Na  Na7  1  0.76065200  0.90845000  0.86354400  1
  U  U8  1  0.79441300  0.70023800  0.34378800  1
  U  U9  1  0.20558700  0.29976200  0.65621200  1
  U  U10  1  0.70558700  0.20023800  0.15621200  1
  U  U11  1  0.29441300  0.79976200  0.84378800  1
  Mo  Mo12  1  0.61141300  0.88215000  0.08871400  1
  Mo  Mo13  1  0.38858700  0.11785000  0.91128600  1
  Mo  Mo14  1  0.88858700  0.38215000  0.41128600  1
  Mo  Mo15  1  0.11141300  0.61785000  0.58871400  1
  Mo  Mo16  1  0.86849800  0.50699800  0.13191900  1
  Mo  Mo17  1  0.13150200  0.49300200  0.86808100  1
  Mo  Mo18  1  0.63150200  0.00699800  0.36808100  1
  Mo  Mo19  1  0.36849800  0.99300200  0.63191900  1
  H  H20  1  0.40023300  0.23690100  0.45025400  1
  H  H21  1  0.59976700  0.76309900  0.54974600  1
  H  H22  1  0.09976700  0.73690100  0.04974600  1
  H  H23  1  0.90023300  0.26309900  0.95025400  1
  H  H24  1  0.02247700  0.93902300  0.14085400  1
  H  H25  1  0.97752300  0.06097700  0.85914600  1
  H  H26  1  0.47752300  0.43902300  0.35914600  1
  H  H27  1  0.52247700  0.56097700  0.64085400  1
  H  H28  1  0.18417100  0.26400200  0.24175800  1
  H  H29  1  0.81582900  0.73599800  0.75824200  1
  H  H30  1  0.31582900  0.76400200  0.25824200  1
  H  H31  1  0.68417100  0.23599800  0.74175800  1
  O  O32  1  0.45179700  0.59816900  0.15846100  1
  O  O33  1  0.54820300  0.40183100  0.84153900  1
  O  O34  1  0.04820300  0.09816900  0.34153900  1
  O  O35  1  0.95179700  0.90183100  0.65846100  1
  O  O36  1  0.95045200  0.52161400  0.38859900  1
  O  O37  1  0.04954800  0.47838600  0.61140100  1
  O  O38  1  0.54954800  0.02161400  0.11140100  1
  O  O39  1  0.45045200  0.97838600  0.88859900  1
  O  O40  1  0.75663600  0.37351900  0.10751400  1
  O  O41  1  0.24336400  0.62648100  0.89248600  1
  O  O42  1  0.74336400  0.87351900  0.39248600  1
  O  O43  1  0.25663600  0.12648100  0.60751400  1
  O  O44  1  0.79512800  0.88568800  0.03483100  1
  O  O45  1  0.20487200  0.11431200  0.96516900  1
  O  O46  1  0.70487200  0.38568800  0.46516900  1
  O  O47  1  0.29512800  0.61431200  0.53483100  1
  O  O48  1  0.83852800  0.57458200  0.02113700  1
  O  O49  1  0.16147200  0.42541800  0.97886300  1
  O  O50  1  0.66147200  0.07458200  0.47886300  1
  O  O51  1  0.33852800  0.92541800  0.52113700  1
  O  O52  1  0.56810400  0.65315200  0.35308800  1
  O  O53  1  0.43189600  0.34684800  0.64691200  1
  O  O54  1  0.93189600  0.15315200  0.14691200  1
  O  O55  1  0.06810400  0.84684800  0.85308800  1
  O  O56  1  0.10791600  0.49635500  0.19486000  1
  O  O57  1  0.89208400  0.50364500  0.80514000  1
  O  O58  1  0.39208400  0.99635500  0.30514000  1
  O  O59  1  0.60791600  0.00364500  0.69486000  1
  O  O60  1  0.02876900  0.74077200  0.33884000  1
  O  O61  1  0.97123100  0.25922800  0.66116000  1
  O  O62  1  0.47123100  0.24077200  0.16116000  1
  O  O63  1  0.52876900  0.75922800  0.83884000  1
  O  O64  1  0.41269900  0.81148800  0.01036200  1
  O  O65  1  0.58730100  0.18851200  0.98963800  1
  O  O66  1  0.08730100  0.31148800  0.48963800  1
  O  O67  1  0.91269900  0.68851200  0.51036200  1
  O  O68  1  0.68687300  0.81330800  0.20361400  1
  O  O69  1  0.31312700  0.18669200  0.79638600  1
  O  O70  1  0.81312700  0.31330800  0.29638600  1
  O  O71  1  0.18687300  0.68669200  0.70361400  1
  O  O72  1  0.75756200  0.58892600  0.20767500  1
  O  O73  1  0.24243800  0.41107400  0.79232500  1
  O  O74  1  0.74243800  0.08892600  0.29232500  1
  O  O75  1  0.25756200  0.91107400  0.70767500  1
