# generated using pymatgen
data_K2Mg2(MoO4)3
_symmetry_space_group_name_H-M   'P 1'
_cell_length_a   10.92840100
_cell_length_b   10.92840100
_cell_length_c   10.92840100
_cell_angle_alpha   90.00000000
_cell_angle_beta   90.00000000
_cell_angle_gamma   90.00000000
_symmetry_Int_Tables_number   1
_chemical_formula_structural   K2Mg2(MoO4)3
_chemical_formula_sum   'K8 Mg8 Mo12 O48'
_cell_volume   1305.17836771
_cell_formula_units_Z   4
loop_
 _symmetry_equiv_pos_site_id
 _symmetry_equiv_pos_as_xyz
  1  'x, y, z'
loop_
 _atom_site_type_symbol
 _atom_site_label
 _atom_site_symmetry_multiplicity
 _atom_site_fract_x
 _atom_site_fract_y
 _atom_site_fract_z
 _atom_site_occupancy
  K  K0  1  0.05385600  0.05385600  0.05385600  1
  K  K1  1  0.44614400  0.94614400  0.55385600  1
  K  K2  1  0.94614400  0.55385600  0.44614400  1
  K  K3  1  0.55385600  0.44614400  0.94614400  1
  K  K4  1  0.81865700  0.81865700  0.81865700  1
  K  K5  1  0.68134300  0.18134300  0.31865700  1
  K  K6  1  0.18134300  0.31865700  0.68134300  1
  K  K7  1  0.31865700  0.68134300  0.18134300  1
  Mg  Mg8  1  0.33632400  0.33632400  0.33632400  1
  Mg  Mg9  1  0.16367600  0.66367600  0.83632400  1
  Mg  Mg10  1  0.66367600  0.83632400  0.16367600  1
  Mg  Mg11  1  0.83632400  0.16367600  0.66367600  1
  Mg  Mg12  1  0.60404000  0.60404000  0.60404000  1
  Mg  Mg13  1  0.89596000  0.39596000  0.10404000  1
  Mg  Mg14  1  0.39596000  0.10404000  0.89596000  1
  Mg  Mg15  1  0.10404000  0.89596000  0.39596000  1
  Mo  Mo16  1  0.02167300  0.21113900  0.37648200  1
  Mo  Mo17  1  0.47832700  0.78886100  0.87648200  1
  Mo  Mo18  1  0.97832700  0.71113900  0.12351800  1
  Mo  Mo19  1  0.37648200  0.02167300  0.21113900  1
  Mo  Mo20  1  0.52167300  0.28886100  0.62351800  1
  Mo  Mo21  1  0.87648200  0.47832700  0.78886100  1
  Mo  Mo22  1  0.12351800  0.97832700  0.71113900  1
  Mo  Mo23  1  0.62351800  0.52167300  0.28886100  1
  Mo  Mo24  1  0.21113900  0.37648200  0.02167300  1
  Mo  Mo25  1  0.71113900  0.12351800  0.97832700  1
  Mo  Mo26  1  0.28886100  0.62351800  0.52167300  1
  Mo  Mo27  1  0.78886100  0.87648200  0.47832700  1
  O  O28  1  0.01624300  0.05440200  0.32521100  1
  O  O29  1  0.48375700  0.94559800  0.82521100  1
  O  O30  1  0.98375700  0.55440200  0.17478900  1
  O  O31  1  0.32521100  0.01624300  0.05440200  1
  O  O32  1  0.51624300  0.44559800  0.67478900  1
  O  O33  1  0.82521100  0.48375700  0.94559800  1
  O  O34  1  0.17478900  0.98375700  0.55440200  1
  O  O35  1  0.67478900  0.51624300  0.44559800  1
  O  O36  1  0.05440200  0.32521100  0.01624300  1
  O  O37  1  0.55440200  0.17478900  0.98375700  1
  O  O38  1  0.44559800  0.67478900  0.51624300  1
  O  O39  1  0.94559800  0.82521100  0.48375700  1
  O  O40  1  0.26969500  0.48579300  0.43503600  1
  O  O41  1  0.23030500  0.51420700  0.93503600  1
  O  O42  1  0.73030500  0.98579300  0.06496400  1
  O  O43  1  0.43503600  0.26969500  0.48579300  1
  O  O44  1  0.76969500  0.01420700  0.56496400  1
  O  O45  1  0.93503600  0.23030500  0.51420700  1
  O  O46  1  0.06496400  0.73030500  0.98579300  1
  O  O47  1  0.56496400  0.76969500  0.01420700  1
  O  O48  1  0.48579300  0.43503600  0.26969500  1
  O  O49  1  0.98579300  0.06496400  0.73030500  1
  O  O50  1  0.01420700  0.56496400  0.76969500  1
  O  O51  1  0.51420700  0.93503600  0.23030500  1
  O  O52  1  0.05109200  0.80702400  0.23530200  1
  O  O53  1  0.44890800  0.19297600  0.73530200  1
  O  O54  1  0.94890800  0.30702400  0.26469800  1
  O  O55  1  0.23530200  0.05109200  0.80702400  1
  O  O56  1  0.55109200  0.69297600  0.76469800  1
  O  O57  1  0.73530200  0.44890800  0.19297600  1
  O  O58  1  0.26469800  0.94890800  0.30702400  1
  O  O59  1  0.76469800  0.55109200  0.69297600  1
  O  O60  1  0.80702400  0.23530200  0.05109200  1
  O  O61  1  0.30702400  0.26469800  0.94890800  1
  O  O62  1  0.69297600  0.76469800  0.55109200  1
  O  O63  1  0.19297600  0.73530200  0.44890800  1
  O  O64  1  0.17569700  0.25882700  0.40439900  1
  O  O65  1  0.32430300  0.74117300  0.90439900  1
  O  O66  1  0.82430300  0.75882700  0.09560100  1
  O  O67  1  0.40439900  0.17569700  0.25882700  1
  O  O68  1  0.67569700  0.24117300  0.59560100  1
  O  O69  1  0.90439900  0.32430300  0.74117300  1
  O  O70  1  0.09560100  0.82430300  0.75882700  1
  O  O71  1  0.59560100  0.67569700  0.24117300  1
  O  O72  1  0.25882700  0.40439900  0.17569700  1
  O  O73  1  0.75882700  0.09560100  0.82430300  1
  O  O74  1  0.24117300  0.59560100  0.67569700  1
  O  O75  1  0.74117300  0.90439900  0.32430300  1
