# generated using pymatgen
data_K4MoC4(N2O)2
_symmetry_space_group_name_H-M   'P 1'
_cell_length_a   6.58335633
_cell_length_b   8.31668259
_cell_length_c   12.35541600
_cell_angle_alpha   90.00000000
_cell_angle_beta   90.00000000
_cell_angle_gamma   106.51019565
_symmetry_Int_Tables_number   1
_chemical_formula_structural   K4MoC4(N2O)2
_chemical_formula_sum   'K8 Mo2 C8 N8 O4'
_cell_volume   648.58802605
_cell_formula_units_Z   2
loop_
 _symmetry_equiv_pos_site_id
 _symmetry_equiv_pos_as_xyz
  1  'x, y, z'
loop_
 _atom_site_type_symbol
 _atom_site_label
 _atom_site_symmetry_multiplicity
 _atom_site_fract_x
 _atom_site_fract_y
 _atom_site_fract_z
 _atom_site_occupancy
  K  K0  1  0.07476600  0.73951200  0.46724700  1
  K  K1  1  0.92523400  0.26048800  0.53275300  1
  K  K2  1  0.42523400  0.76048800  0.96724700  1
  K  K3  1  0.57476600  0.23951200  0.03275300  1
  K  K4  1  0.14557700  0.50359500  0.22277600  1
  K  K5  1  0.85442300  0.49640500  0.77722400  1
  K  K6  1  0.35442300  0.99640500  0.72277600  1
  K  K7  1  0.64557700  0.00359500  0.27722400  1
  Mo  Mo8  1  0.00000000  0.00000000  0.00000000  1
  Mo  Mo9  1  0.50000000  0.50000000  0.50000000  1
  C  C10  1  0.64479200  0.42827800  0.35063300  1
  C  C11  1  0.35520800  0.57172200  0.64936700  1
  C  C12  1  0.85520800  0.07172200  0.85063300  1
  C  C13  1  0.14479200  0.92827800  0.14936700  1
  C  C14  1  0.86474300  0.72413800  0.98744900  1
  C  C15  1  0.13525700  0.27586200  0.01255100  1
  C  C16  1  0.63525700  0.77586200  0.48744900  1
  C  C17  1  0.36474300  0.22413800  0.51255100  1
  N  N18  1  0.71358800  0.36677900  0.27841100  1
  N  N19  1  0.28641200  0.63322100  0.72158900  1
  N  N20  1  0.78641200  0.13322100  0.77841100  1
  N  N21  1  0.21358800  0.86677900  0.22158900  1
  N  N22  1  0.78341300  0.57810800  0.98956900  1
  N  N23  1  0.21658700  0.42189200  0.01043100  1
  N  N24  1  0.71658700  0.92189200  0.48956900  1
  N  N25  1  0.28341300  0.07810800  0.51043100  1
  O  O26  1  0.74507900  0.49820200  0.57576400  1
  O  O27  1  0.25492100  0.50179800  0.42423600  1
  O  O28  1  0.75492100  0.00179800  0.07576400  1
  O  O29  1  0.24507900  0.99820200  0.92423600  1
