# generated using pymatgen
data_Nd10Ti9GaO34
_symmetry_space_group_name_H-M   'P 1'
_cell_length_a   5.52184100
_cell_length_b   7.73793900
_cell_length_c   32.00899883
_cell_angle_alpha   82.98231461
_cell_angle_beta   90.00000000
_cell_angle_gamma   90.00000000
_symmetry_Int_Tables_number   1
_chemical_formula_structural   Nd10Ti9GaO34
_chemical_formula_sum   'Nd20 Ti18 Ga2 O68'
_cell_volume   1357.42398464
_cell_formula_units_Z   2
loop_
 _symmetry_equiv_pos_site_id
 _symmetry_equiv_pos_as_xyz
  1  'x, y, z'
loop_
 _atom_site_type_symbol
 _atom_site_label
 _atom_site_symmetry_multiplicity
 _atom_site_fract_x
 _atom_site_fract_y
 _atom_site_fract_z
 _atom_site_occupancy
  Nd  Nd0  1  0.99092600  0.74223800  0.50685500  1
  Nd  Nd1  1  0.00907400  0.25776200  0.49314500  1
  Nd  Nd2  1  0.49092600  0.25776200  0.99314500  1
  Nd  Nd3  1  0.50907400  0.74223800  0.00685500  1
  Nd  Nd4  1  0.98679500  0.78676400  0.91828400  1
  Nd  Nd5  1  0.01320500  0.21323600  0.08171600  1
  Nd  Nd6  1  0.48679500  0.21323600  0.58171600  1
  Nd  Nd7  1  0.51320500  0.78676400  0.41828400  1
  Nd  Nd8  1  0.00084600  0.69930500  0.09665100  1
  Nd  Nd9  1  0.99915400  0.30069500  0.90334900  1
  Nd  Nd10  1  0.50084600  0.30069500  0.40334900  1
  Nd  Nd11  1  0.49915400  0.69930500  0.59665100  1
  Nd  Nd12  1  0.37643100  0.85634300  0.77876600  1
  Nd  Nd13  1  0.62356900  0.14365700  0.22123400  1
  Nd  Nd14  1  0.87643100  0.14365700  0.72123400  1
  Nd  Nd15  1  0.12356900  0.85634300  0.27876600  1
  Nd  Nd16  1  0.92951600  0.64402100  0.70203800  1
  Nd  Nd17  1  0.07048400  0.35597900  0.29796200  1
  Nd  Nd18  1  0.42951600  0.35597900  0.79796200  1
  Nd  Nd19  1  0.57048400  0.64402100  0.20203800  1
  Ti  Ti20  1  0.44583900  0.92176000  0.67616500  1
  Ti  Ti21  1  0.55416100  0.07824000  0.32383500  1
  Ti  Ti22  1  0.94583900  0.07824000  0.82383500  1
  Ti  Ti23  1  0.05416100  0.92176000  0.17616500  1
  Ti  Ti24  1  0.48572500  0.54532200  0.90652400  1
  Ti  Ti25  1  0.51427500  0.45467800  0.09347600  1
  Ti  Ti26  1  0.98572500  0.45467800  0.59347600  1
  Ti  Ti27  1  0.01427500  0.54532200  0.40652400  1
  Ti  Ti28  1  0.43574900  0.40576700  0.67894300  1
  Ti  Ti29  1  0.56425100  0.59423300  0.32105700  1
  Ti  Ti30  1  0.93574900  0.59423300  0.82105700  1
  Ti  Ti31  1  0.06425100  0.40576700  0.17894300  1
  Ti  Ti32  1  0.50000000  0.00000000  0.50000000  1
  Ti  Ti33  1  0.00000000  0.00000000  0.00000000  1
  Ti  Ti34  1  0.98393000  0.95185000  0.59279900  1
  Ti  Ti35  1  0.01607000  0.04815000  0.40720100  1
  Ti  Ti36  1  0.48393000  0.04815000  0.90720100  1
  Ti  Ti37  1  0.51607000  0.95185000  0.09279900  1
  Ga  Ga38  1  0.50000000  0.50000000  0.50000000  1
  Ga  Ga39  1  0.00000000  0.50000000  0.00000000  1
  O  O40  1  0.30335000  0.41876500  0.61929200  1
  O  O41  1  0.69665000  0.58123500  0.38070800  1
  O  O42  1  0.80335000  0.58123500  0.88070800  1
  O  O43  1  0.19665000  0.41876500  0.11929200  1
  O  O44  1  0.21465700  0.48261100  0.94828000  1
  O  O45  1  0.78534300  0.51738900  0.05172000  1
  O  O46  1  0.71465700  0.51738900  0.55172000  1
  O  O47  1  0.28534300  0.48261100  0.44828000  1
  O  O48  1  0.66510200  0.87175400  0.72138600  1
  O  O49  1  0.33489800  0.12824600  0.27861400  1
  O  O50  1  0.16510200  0.12824600  0.77861400  1
  O  O51  1  0.83489800  0.87175400  0.22138600  1
  O  O52  1  0.41502100  0.75385100  0.49539100  1
  O  O53  1  0.58497900  0.24614900  0.50460900  1
  O  O54  1  0.91502100  0.24614900  0.00460900  1
  O  O55  1  0.08497900  0.75385100  0.99539100  1
  O  O56  1  0.71513900  0.97499100  0.96468500  1
  O  O57  1  0.28486100  0.02500900  0.03531500  1
  O  O58  1  0.21513900  0.02500900  0.53531500  1
  O  O59  1  0.78486100  0.97499100  0.46468500  1
  O  O60  1  0.07565100  0.70989500  0.58069500  1
  O  O61  1  0.92434900  0.29010500  0.41930500  1
  O  O62  1  0.57565100  0.29010500  0.91930500  1
  O  O63  1  0.42434900  0.70989500  0.08069500  1
  O  O64  1  0.17678200  0.91674200  0.71031200  1
  O  O65  1  0.82321800  0.08325800  0.28968800  1
  O  O66  1  0.67678200  0.08325800  0.78968800  1
  O  O67  1  0.32321800  0.91674200  0.21031200  1
  O  O68  1  0.71004500  0.93249200  0.55071000  1
  O  O69  1  0.28995500  0.06750800  0.44929000  1
  O  O70  1  0.21004500  0.06750800  0.94929000  1
  O  O71  1  0.78995500  0.93249200  0.05071000  1
  O  O72  1  0.21578100  0.43788100  0.53559400  1
  O  O73  1  0.78421900  0.56211900  0.46440600  1
  O  O74  1  0.71578100  0.56211900  0.96440600  1
  O  O75  1  0.28421900  0.43788100  0.03559400  1
  O  O76  1  0.04146600  0.83339400  0.82980900  1
  O  O77  1  0.95853400  0.16660600  0.17019100  1
  O  O78  1  0.54146600  0.16660600  0.67019100  1
  O  O79  1  0.45853400  0.83339400  0.32980900  1
  O  O80  1  0.29513200  0.50895800  0.86170100  1
  O  O81  1  0.70486800  0.49104200  0.13829900  1
  O  O82  1  0.79513200  0.49104200  0.63829900  1
  O  O83  1  0.20486800  0.50895800  0.36170100  1
  O  O84  1  0.78937200  0.87286900  0.63723100  1
  O  O85  1  0.21062800  0.12713100  0.36276900  1
  O  O86  1  0.28937200  0.12713100  0.86276900  1
  O  O87  1  0.71062800  0.87286900  0.13723100  1
  O  O88  1  0.42473800  0.79362100  0.91129300  1
  O  O89  1  0.57526200  0.20637900  0.08870700  1
  O  O90  1  0.92473800  0.20637900  0.58870700  1
  O  O91  1  0.07526200  0.79362100  0.41129300  1
  O  O92  1  0.15107800  0.37307800  0.70438200  1
  O  O93  1  0.84892200  0.62692200  0.29561800  1
  O  O94  1  0.65107800  0.62692200  0.79561800  1
  O  O95  1  0.34892200  0.37307800  0.20438200  1
  O  O96  1  0.41014700  0.66355200  0.67136200  1
  O  O97  1  0.58985300  0.33644800  0.32863800  1
  O  O98  1  0.91014700  0.33644800  0.82863800  1
  O  O99  1  0.08985300  0.66355200  0.17136200  1
  O  O100  1  0.14604700  0.59682700  0.77307100  1
  O  O101  1  0.85395300  0.40317300  0.22692900  1
  O  O102  1  0.64604700  0.40317300  0.72692900  1
  O  O103  1  0.35395300  0.59682700  0.27307100  1
  O  O104  1  0.30146000  0.96398200  0.61898700  1
  O  O105  1  0.69854000  0.03601800  0.38101300  1
  O  O106  1  0.80146000  0.03601800  0.88101300  1
  O  O107  1  0.19854000  0.96398200  0.11898700  1
