# generated using pymatgen
data_Pr2(CuSn)3
_symmetry_space_group_name_H-M   'P 1'
_cell_length_a   8.71054900
_cell_length_b   8.97659086
_cell_length_c   21.33721836
_cell_angle_alpha   86.84960745
_cell_angle_beta   86.48839147
_cell_angle_gamma   86.06695846
_symmetry_Int_Tables_number   1
_chemical_formula_structural   Pr2(CuSn)3
_chemical_formula_sum   'Pr2 Cu3 Sn3'
_cell_volume   1659.16527848
_cell_formula_units_Z   1
loop_
 _symmetry_equiv_pos_site_id
 _symmetry_equiv_pos_as_xyz
  1  'x, y, z'
loop_
 _atom_site_type_symbol
 _atom_site_label
 _atom_site_symmetry_multiplicity
 _atom_site_fract_x
 _atom_site_fract_y
 _atom_site_fract_z
 _atom_site_occupancy
  Pr  Pr0  1  0.49878300  0.49710500  0.74696000  1
  Pr  Pr1  1  0.50121700  0.50289500  0.25304000  1
  Cu  Cu2  1  0.50000000  0.50000000  0.00000000  1
  Cu  Cu3  1  0.49967600  0.49914400  0.38122200  1
  Cu  Cu4  1  0.50032400  0.50085600  0.61877800  1
  Sn  Sn5  1  0.49932800  0.49900000  0.11563500  1
  Sn  Sn6  1  0.50067200  0.50100000  0.88436500  1
  Sn  Sn7  1  0.50000000  0.50000000  0.50000000  1
