# generated using pymatgen
data_KNaTiSi3(HO5)2
_symmetry_space_group_name_H-M   'P 1'
_cell_length_a   11.48098800
_cell_length_b   6.46558100
_cell_length_c   12.89893950
_cell_angle_alpha   75.31521519
_cell_angle_beta   90.00000000
_cell_angle_gamma   90.00000000
_symmetry_Int_Tables_number   1
_chemical_formula_structural   KNaTiSi3(HO5)2
_chemical_formula_sum   'K4 Na4 Ti4 Si12 H8 O40'
_cell_volume   926.22772056
_cell_formula_units_Z   4
loop_
 _symmetry_equiv_pos_site_id
 _symmetry_equiv_pos_as_xyz
  1  'x, y, z'
loop_
 _atom_site_type_symbol
 _atom_site_label
 _atom_site_symmetry_multiplicity
 _atom_site_fract_x
 _atom_site_fract_y
 _atom_site_fract_z
 _atom_site_occupancy
  K  K0  1  0.38228000  0.68353800  0.11026400  1
  K  K1  1  0.61772000  0.31646200  0.88973600  1
  K  K2  1  0.88228000  0.31646200  0.38973600  1
  K  K3  1  0.11772000  0.68353800  0.61026400  1
  Na  Na4  1  0.46045000  0.78660100  0.40308400  1
  Na  Na5  1  0.53955000  0.21339900  0.59691600  1
  Na  Na6  1  0.96045000  0.21339900  0.09691600  1
  Na  Na7  1  0.03955000  0.78660100  0.90308400  1
  Ti  Ti8  1  0.72755100  0.88544800  0.21600100  1
  Ti  Ti9  1  0.27244900  0.11455200  0.78399900  1
  Ti  Ti10  1  0.22755100  0.11455200  0.28399900  1
  Ti  Ti11  1  0.77244900  0.88544800  0.71600100  1
  Si  Si12  1  0.76348400  0.80003400  0.47740000  1
  Si  Si13  1  0.23651600  0.19996600  0.52260000  1
  Si  Si14  1  0.26348400  0.19996600  0.02260000  1
  Si  Si15  1  0.73651600  0.80003400  0.97740000  1
  Si  Si16  1  0.98155700  0.84739900  0.34087100  1
  Si  Si17  1  0.01844300  0.15260100  0.65912900  1
  Si  Si18  1  0.48155700  0.15260100  0.15912900  1
  Si  Si19  1  0.51844300  0.84739900  0.84087100  1
  Si  Si20  1  0.69933900  0.41751100  0.15228100  1
  Si  Si21  1  0.30066100  0.58248900  0.84771900  1
  Si  Si22  1  0.19933900  0.58248900  0.34771900  1
  Si  Si23  1  0.80066100  0.41751100  0.65228100  1
  H  H24  1  0.58792800  0.44633300  0.35094800  1
  H  H25  1  0.41207200  0.55366700  0.64905200  1
  H  H26  1  0.08792800  0.55366700  0.14905200  1
  H  H27  1  0.91207200  0.44633300  0.85094800  1
  H  H28  1  0.96856500  0.67216300  0.14888300  1
  H  H29  1  0.03143500  0.32783700  0.85111700  1
  H  H30  1  0.46856500  0.32783700  0.35111700  1
  H  H31  1  0.53143500  0.67216300  0.64888300  1
  O  O32  1  0.70287600  0.57423500  0.23322200  1
  O  O33  1  0.29712400  0.42576500  0.76677800  1
  O  O34  1  0.20287600  0.42576500  0.26677800  1
  O  O35  1  0.79712400  0.57423500  0.73322200  1
  O  O36  1  0.68812000  0.85672200  0.36799000  1
  O  O37  1  0.31188000  0.14327800  0.63201000  1
  O  O38  1  0.18812000  0.14327800  0.13201000  1
  O  O39  1  0.81188000  0.85672200  0.86799000  1
  O  O40  1  0.75140500  0.54016000  0.03242000  1
  O  O41  1  0.24859500  0.45984000  0.96758000  1
  O  O42  1  0.25140500  0.45984000  0.46758000  1
  O  O43  1  0.74859500  0.54016000  0.53242000  1
  O  O44  1  0.76927400  0.93489800  0.06325300  1
  O  O45  1  0.23072600  0.06510200  0.93674700  1
  O  O46  1  0.26927400  0.06510200  0.43674700  1
  O  O47  1  0.73072600  0.93489800  0.56325300  1
  O  O48  1  0.90393400  0.84995100  0.44802900  1
  O  O49  1  0.09606600  0.15004900  0.55197100  1
  O  O50  1  0.40393400  0.15004900  0.05197100  1
  O  O51  1  0.59606600  0.84995100  0.94802900  1
  O  O52  1  0.51717300  0.40148600  0.39422700  1
  O  O53  1  0.48282700  0.59851400  0.60577300  1
  O  O54  1  0.01717300  0.59851400  0.10577300  1
  O  O55  1  0.98282700  0.40148600  0.89422700  1
  O  O56  1  0.56177300  0.37010800  0.12584900  1
  O  O57  1  0.43822700  0.62989200  0.87415100  1
  O  O58  1  0.06177300  0.62989200  0.37415100  1
  O  O59  1  0.93822700  0.37010800  0.62584900  1
  O  O60  1  0.26904300  0.80418300  0.30094300  1
  O  O61  1  0.73095700  0.19581700  0.69905700  1
  O  O62  1  0.76904300  0.19581700  0.19905700  1
  O  O63  1  0.23095700  0.80418300  0.80094300  1
  O  O64  1  0.56232600  0.94078600  0.18774300  1
  O  O65  1  0.43767400  0.05921400  0.81225700  1
  O  O66  1  0.06232600  0.05921400  0.31225700  1
  O  O67  1  0.93767400  0.94078600  0.68774300  1
  O  O68  1  0.89565400  0.82379900  0.24480500  1
  O  O69  1  0.10434600  0.17620100  0.75519500  1
  O  O70  1  0.39565400  0.17620100  0.25519500  1
  O  O71  1  0.60434600  0.82379900  0.74480500  1
