# generated using pymatgen
data_K2TaAgS2
_symmetry_space_group_name_H-M   'P 1'
_cell_length_a   9.49999500
_cell_length_b   6.10838103
_cell_length_c   21.85668472
_cell_angle_alpha   80.27055209
_cell_angle_beta   77.44805034
_cell_angle_gamma   38.95685529
_symmetry_Int_Tables_number   1
_chemical_formula_structural   K2TaAgS2
_chemical_formula_sum   'K8 Ta4 Ag4 S8'
_cell_volume   778.38678813
_cell_formula_units_Z   4
loop_
 _symmetry_equiv_pos_site_id
 _symmetry_equiv_pos_as_xyz
  1  'x, y, z'
loop_
 _atom_site_type_symbol
 _atom_site_label
 _atom_site_symmetry_multiplicity
 _atom_site_fract_x
 _atom_site_fract_y
 _atom_site_fract_z
 _atom_site_occupancy
  K  K0  1  0.87578100  0.04229400  0.60462300  1
  K  K1  1  0.51959500  0.95770600  0.60462300  1
  K  K2  1  0.08192400  0.04229400  0.39537700  1
  K  K3  1  0.87421900  0.45770600  0.89537700  1
  K  K4  1  0.52269900  0.95770600  0.39537700  1
  K  K5  1  0.23040500  0.54229400  0.89537700  1
  K  K6  1  0.66807600  0.45770600  0.10462300  1
  K  K7  1  0.22730100  0.54229400  0.10462300  1
  Ta  Ta8  1  0.87500000  0.25000000  0.25000000  1
  Ta  Ta9  1  0.87500000  0.75000000  0.25000000  1
  Ta  Ta10  1  0.87500000  0.25000000  0.75000000  1
  Ta  Ta11  1  0.37500000  0.75000000  0.75000000  1
  Ag  Ag12  1  0.37500000  0.25000000  0.25000000  1
  Ag  Ag13  1  0.37500000  0.75000000  0.25000000  1
  Ag  Ag14  1  0.37500000  0.25000000  0.75000000  1
  Ag  Ag15  1  0.87500000  0.75000000  0.75000000  1
  S  S16  1  0.14616900  0.15895700  0.17385200  1
  S  S17  1  0.67997900  0.84104300  0.17385200  1
  S  S18  1  0.69487500  0.15895700  0.82614800  1
  S  S19  1  0.60383100  0.34104300  0.32614800  1
  S  S20  1  0.47897700  0.84104300  0.82614800  1
  S  S21  1  0.07002100  0.65895700  0.32614800  1
  S  S22  1  0.05512500  0.34104300  0.67385200  1
  S  S23  1  0.27102300  0.65895700  0.67385200  1
