# generated using pymatgen
data_K2P4PtWClO10
_symmetry_space_group_name_H-M   'P 1'
_cell_length_a   8.41045940
_cell_length_b   9.11197578
_cell_length_c   10.80976223
_cell_angle_alpha   119.13747324
_cell_angle_beta   84.35613421
_cell_angle_gamma   116.16557696
_symmetry_Int_Tables_number   1
_chemical_formula_structural   K2P4PtWClO10
_chemical_formula_sum   'K4 P8 Pt2 W2 Cl2 O20'
_cell_volume   642.23853929
_cell_formula_units_Z   2
loop_
 _symmetry_equiv_pos_site_id
 _symmetry_equiv_pos_as_xyz
  1  'x, y, z'
loop_
 _atom_site_type_symbol
 _atom_site_label
 _atom_site_symmetry_multiplicity
 _atom_site_fract_x
 _atom_site_fract_y
 _atom_site_fract_z
 _atom_site_occupancy
  K  K0  1  0.22673500  0.09031800  0.85538500  1
  K  K1  1  0.77326500  0.90968200  0.14461500  1
  K  K2  1  0.11874700  0.71936100  0.95578100  1
  K  K3  1  0.88125300  0.28063900  0.04421900  1
  P  P4  1  0.21769300  0.31878700  0.62346400  1
  P  P5  1  0.78230700  0.68121300  0.37653600  1
  P  P6  1  0.24229200  0.12406300  0.32336800  1
  P  P7  1  0.75770800  0.87593700  0.67663200  1
  P  P8  1  0.70411600  0.30087100  0.39417100  1
  P  P9  1  0.29588400  0.69912900  0.60582900  1
  P  P10  1  0.30142400  0.48041300  0.28833100  1
  P  P11  1  0.69857600  0.51958700  0.71166900  1
  Pt  Pt12  1  0.50765600  0.40320800  0.35566000  1
  Pt  Pt13  1  0.49234400  0.59679200  0.64434000  1
  W  W14  1  0.21385300  0.79503100  0.40653800  1
  W  W15  1  0.78614700  0.20496900  0.59346200  1
  Cl  Cl16  1  0.51501500  0.24031100  0.09614400  1
  Cl  Cl17  1  0.48498500  0.75968900  0.90385600  1
  O  O18  1  0.16900200  0.32310100  0.15639500  1
  O  O19  1  0.83099800  0.67689900  0.84360500  1
  O  O20  1  0.29102800  0.99042600  0.34834900  1
  O  O21  1  0.70897200  0.00957400  0.65165100  1
  O  O22  1  0.04663300  0.35160400  0.68623500  1
  O  O23  1  0.95336700  0.64839600  0.31376500  1
  O  O24  1  0.12427600  0.18983200  0.45206800  1
  O  O25  1  0.87572400  0.81016800  0.54793200  1
  O  O26  1  0.24380800  0.19591400  0.66610900  1
  O  O27  1  0.75619200  0.80408600  0.33389100  1
  O  O28  1  0.36380900  0.67279400  0.28332100  1
  O  O29  1  0.63619100  0.32720600  0.71667900  1
  O  O30  1  0.11806800  0.00890000  0.18464800  1
  O  O31  1  0.88193200  0.99110000  0.81535200  1
  O  O32  1  0.18322200  0.54923600  0.43344100  1
  O  O33  1  0.81677800  0.45076400  0.56655900  1
  O  O34  1  0.64524100  0.11588700  0.41021300  1
  O  O35  1  0.35475900  0.88411300  0.58978700  1
  O  O36  1  0.16868700  0.71243600  0.71285100  1
  O  O37  1  0.83131300  0.28756400  0.28714900  1
