# generated using pymatgen
data_K2VAgSe2
_symmetry_space_group_name_H-M   'P 1'
_cell_length_a   12.07055300
_cell_length_b   7.69045074
_cell_length_c   13.80141337
_cell_angle_alpha   69.92940468
_cell_angle_beta   64.06863721
_cell_angle_gamma   38.30008437
_symmetry_Int_Tables_number   1
_chemical_formula_structural   K2VAgSe2
_chemical_formula_sum   'K8 V4 Ag4 Se8'
_cell_volume   714.09133646
_cell_formula_units_Z   4
loop_
 _symmetry_equiv_pos_site_id
 _symmetry_equiv_pos_as_xyz
  1  'x, y, z'
loop_
 _atom_site_type_symbol
 _atom_site_label
 _atom_site_symmetry_multiplicity
 _atom_site_fract_x
 _atom_site_fract_y
 _atom_site_fract_z
 _atom_site_occupancy
  K  K0  1  0.74191200  0.18021400  0.56069000  1
  K  K1  1  0.69739900  0.81978600  0.56069000  1
  K  K2  1  0.07787400  0.18021400  0.43931000  1
  K  K3  1  0.00808800  0.31978600  0.93931000  1
  K  K4  1  0.48281500  0.81978600  0.43931000  1
  K  K5  1  0.05260100  0.68021400  0.93931000  1
  K  K6  1  0.67212600  0.31978600  0.06069000  1
  K  K7  1  0.26718500  0.68021400  0.06069000  1
  V  V8  1  0.87500000  0.25000000  0.25000000  1
  V  V9  1  0.87500000  0.75000000  0.25000000  1
  V  V10  1  0.87500000  0.25000000  0.75000000  1
  V  V11  1  0.37500000  0.75000000  0.75000000  1
  Ag  Ag12  1  0.37500000  0.25000000  0.25000000  1
  Ag  Ag13  1  0.37500000  0.75000000  0.25000000  1
  Ag  Ag14  1  0.37500000  0.25000000  0.75000000  1
  Ag  Ag15  1  0.87500000  0.75000000  0.75000000  1
  Se  Se16  1  0.12978600  0.21901000  0.17154700  1
  Se  Se17  1  0.69866700  0.78099000  0.17154700  1
  Se  Se18  1  0.65120400  0.21901000  0.82845300  1
  Se  Se19  1  0.62021400  0.28099000  0.32845300  1
  Se  Se20  1  0.52034400  0.78099000  0.82845300  1
  Se  Se21  1  0.05133300  0.71901000  0.32845300  1
  Se  Se22  1  0.09879600  0.28099000  0.67154700  1
  Se  Se23  1  0.22965600  0.71901000  0.67154700  1
