# generated using pymatgen
data_Ho3Cu11Si4
_symmetry_space_group_name_H-M   'P 1'
_cell_length_a   8.40010137
_cell_length_b   8.40010137
_cell_length_c   8.61121100
_cell_angle_alpha   90.00000000
_cell_angle_beta   90.00000000
_cell_angle_gamma   119.99999505
_symmetry_Int_Tables_number   1
_chemical_formula_structural   Ho3Cu11Si4
_chemical_formula_sum   'Ho6 Cu22 Si8'
_cell_volume   526.21586598
_cell_formula_units_Z   2
loop_
 _symmetry_equiv_pos_site_id
 _symmetry_equiv_pos_as_xyz
  1  'x, y, z'
loop_
 _atom_site_type_symbol
 _atom_site_label
 _atom_site_symmetry_multiplicity
 _atom_site_fract_x
 _atom_site_fract_y
 _atom_site_fract_z
 _atom_site_occupancy
  Ho  Ho0  1  0.80239100  0.19760900  0.75000000  1
  Ho  Ho1  1  0.19760900  0.80239100  0.25000000  1
  Ho  Ho2  1  0.39521800  0.19760900  0.75000000  1
  Ho  Ho3  1  0.60478200  0.80239100  0.25000000  1
  Ho  Ho4  1  0.80239100  0.60478200  0.75000000  1
  Ho  Ho5  1  0.19760900  0.39521800  0.25000000  1
  Cu  Cu6  1  0.84844800  0.15155200  0.40938300  1
  Cu  Cu7  1  0.15155200  0.84844800  0.59061700  1
  Cu  Cu8  1  0.30310300  0.15155200  0.40938300  1
  Cu  Cu9  1  0.15155200  0.84844800  0.90938300  1
  Cu  Cu10  1  0.69689700  0.84844800  0.59061700  1
  Cu  Cu11  1  0.84844800  0.15155200  0.09061700  1
  Cu  Cu12  1  0.84844800  0.69689700  0.40938300  1
  Cu  Cu13  1  0.69689700  0.84844800  0.90938300  1
  Cu  Cu14  1  0.15155200  0.30310300  0.59061700  1
  Cu  Cu15  1  0.30310300  0.15155200  0.09061700  1
  Cu  Cu16  1  0.15155200  0.30310300  0.90938300  1
  Cu  Cu17  1  0.84844800  0.69689700  0.09061700  1
  Cu  Cu18  1  0.43541100  0.56458900  0.75000000  1
  Cu  Cu19  1  0.56458900  0.43541100  0.25000000  1
  Cu  Cu20  1  0.12917900  0.56458900  0.75000000  1
  Cu  Cu21  1  0.87082100  0.43541100  0.25000000  1
  Cu  Cu22  1  0.43541100  0.87082100  0.75000000  1
  Cu  Cu23  1  0.56458900  0.12917900  0.25000000  1
  Cu  Cu24  1  0.66666700  0.33333300  0.00775700  1
  Cu  Cu25  1  0.33333300  0.66666700  0.99224300  1
  Cu  Cu26  1  0.33333300  0.66666700  0.50775700  1
  Cu  Cu27  1  0.66666700  0.33333300  0.49224300  1
  Si  Si28  1  0.50000000  0.50000000  0.00000000  1
  Si  Si29  1  0.00000000  0.50000000  0.00000000  1
  Si  Si30  1  0.50000000  0.50000000  0.50000000  1
  Si  Si31  1  0.50000000  0.00000000  0.00000000  1
  Si  Si32  1  0.00000000  0.50000000  0.50000000  1
  Si  Si33  1  0.50000000  0.00000000  0.50000000  1
  Si  Si34  1  0.00000000  0.00000000  0.75000000  1
  Si  Si35  1  0.00000000  0.00000000  0.25000000  1
