# generated using pymatgen
data_Ho3(Co2Sn)4
_symmetry_space_group_name_H-M   'P 1'
_cell_length_a   7.56830000
_cell_length_b   8.80951270
_cell_length_c   8.80951270
_cell_angle_alpha   120.00000529
_cell_angle_beta   90.00000000
_cell_angle_gamma   90.00000000
_symmetry_Int_Tables_number   1
_chemical_formula_structural   Ho3(Co2Sn)4
_chemical_formula_sum   'Ho6 Co16 Sn8'
_cell_volume   508.66601168
_cell_formula_units_Z   2
loop_
 _symmetry_equiv_pos_site_id
 _symmetry_equiv_pos_as_xyz
  1  'x, y, z'
loop_
 _atom_site_type_symbol
 _atom_site_label
 _atom_site_symmetry_multiplicity
 _atom_site_fract_x
 _atom_site_fract_y
 _atom_site_fract_z
 _atom_site_occupancy
  Ho  Ho0  1  0.78488400  0.47528700  0.95057400  1
  Ho  Ho1  1  0.78488400  0.47528700  0.52471300  1
  Ho  Ho2  1  0.28488400  0.52471300  0.04942600  1
  Ho  Ho3  1  0.78488400  0.04942600  0.52471300  1
  Ho  Ho4  1  0.28488400  0.52471300  0.47528700  1
  Ho  Ho5  1  0.28488400  0.95057400  0.47528700  1
  Co  Co6  1  0.62842900  0.66666700  0.33333300  1
  Co  Co7  1  0.12842900  0.33333300  0.66666700  1
  Co  Co8  1  0.75496200  0.09900700  0.19801400  1
  Co  Co9  1  0.75496200  0.09900700  0.90099300  1
  Co  Co10  1  0.25496200  0.90099300  0.80198600  1
  Co  Co11  1  0.75496200  0.80198600  0.90099300  1
  Co  Co12  1  0.25496200  0.90099300  0.09900700  1
  Co  Co13  1  0.25496200  0.19801400  0.09900700  1
  Co  Co14  1  0.94130400  0.83960300  0.67920600  1
  Co  Co15  1  0.94130400  0.83960300  0.16039700  1
  Co  Co16  1  0.44130400  0.16039700  0.32079400  1
  Co  Co17  1  0.94130400  0.32079400  0.16039700  1
  Co  Co18  1  0.44130400  0.16039700  0.83960300  1
  Co  Co19  1  0.44130400  0.67920600  0.83960300  1
  Co  Co20  1  0.99657200  0.00000000  0.00000000  1
  Co  Co21  1  0.49657200  0.00000000  0.00000000  1
  Sn  Sn22  1  0.97868600  0.66666700  0.33333300  1
  Sn  Sn23  1  0.47868600  0.33333300  0.66666700  1
  Sn  Sn24  1  0.57265400  0.82905300  0.65810600  1
  Sn  Sn25  1  0.57265400  0.82905300  0.17094700  1
  Sn  Sn26  1  0.07265400  0.17094700  0.34189400  1
  Sn  Sn27  1  0.57265400  0.34189400  0.17094700  1
  Sn  Sn28  1  0.07265400  0.17094700  0.82905300  1
  Sn  Sn29  1  0.07265400  0.65810600  0.82905300  1
