# generated using pymatgen
data_Ho6Mn4Al43
_symmetry_space_group_name_H-M   'P 1'
_cell_length_a   10.89272426
_cell_length_b   10.89272426
_cell_length_c   17.53404800
_cell_angle_alpha   90.00000000
_cell_angle_beta   90.00000000
_cell_angle_gamma   120.00000158
_symmetry_Int_Tables_number   1
_chemical_formula_structural   Ho6Mn4Al43
_chemical_formula_sum   'Ho12 Mn8 Al86'
_cell_volume   1801.71392796
_cell_formula_units_Z   2
loop_
 _symmetry_equiv_pos_site_id
 _symmetry_equiv_pos_as_xyz
  1  'x, y, z'
loop_
 _atom_site_type_symbol
 _atom_site_label
 _atom_site_symmetry_multiplicity
 _atom_site_fract_x
 _atom_site_fract_y
 _atom_site_fract_z
 _atom_site_occupancy
  Ho  Ho0  1  0.53194600  0.00000000  0.59511000  1
  Ho  Ho1  1  0.46805400  0.00000000  0.40489000  1
  Ho  Ho2  1  0.00000000  0.53194600  0.59511000  1
  Ho  Ho3  1  0.46805400  0.00000000  0.09511000  1
  Ho  Ho4  1  0.00000000  0.53194600  0.90489000  1
  Ho  Ho5  1  0.00000000  0.46805400  0.40489000  1
  Ho  Ho6  1  0.53194600  0.00000000  0.90489000  1
  Ho  Ho7  1  0.00000000  0.46805400  0.09511000  1
  Ho  Ho8  1  0.46805400  0.46805400  0.59511000  1
  Ho  Ho9  1  0.53194600  0.53194600  0.40489000  1
  Ho  Ho10  1  0.53194600  0.53194600  0.09511000  1
  Ho  Ho11  1  0.46805400  0.46805400  0.90489000  1
  Mn  Mn12  1  0.00000000  0.00000000  0.50000000  1
  Mn  Mn13  1  0.00000000  0.00000000  0.00000000  1
  Mn  Mn14  1  0.73257800  0.00000000  0.75000000  1
  Mn  Mn15  1  0.26742200  0.00000000  0.25000000  1
  Mn  Mn16  1  0.00000000  0.73257800  0.75000000  1
  Mn  Mn17  1  0.00000000  0.26742200  0.25000000  1
  Mn  Mn18  1  0.26742200  0.26742200  0.75000000  1
  Mn  Mn19  1  0.73257800  0.73257800  0.25000000  1
  Al  Al20  1  0.14514400  0.59814000  0.75000000  1
  Al  Al21  1  0.85485600  0.40186000  0.25000000  1
  Al  Al22  1  0.40186000  0.54700300  0.75000000  1
  Al  Al23  1  0.59814000  0.14514400  0.75000000  1
  Al  Al24  1  0.59814000  0.45299700  0.25000000  1
  Al  Al25  1  0.40186000  0.85485600  0.25000000  1
  Al  Al26  1  0.45299700  0.85485600  0.75000000  1
  Al  Al27  1  0.54700300  0.40186000  0.75000000  1
  Al  Al28  1  0.54700300  0.14514400  0.25000000  1
  Al  Al29  1  0.45299700  0.59814000  0.25000000  1
  Al  Al30  1  0.85485600  0.45299700  0.75000000  1
  Al  Al31  1  0.14514400  0.54700300  0.25000000  1
  Al  Al32  1  0.15618000  0.00000000  0.11566800  1
  Al  Al33  1  0.84382000  0.00000000  0.88433200  1
  Al  Al34  1  0.00000000  0.15618000  0.11566800  1
  Al  Al35  1  0.84382000  0.00000000  0.61566800  1
  Al  Al36  1  0.00000000  0.15618000  0.38433200  1
  Al  Al37  1  0.00000000  0.84382000  0.88433200  1
  Al  Al38  1  0.15618000  0.00000000  0.38433200  1
  Al  Al39  1  0.00000000  0.84382000  0.61566800  1
  Al  Al40  1  0.84382000  0.84382000  0.11566800  1
  Al  Al41  1  0.15618000  0.15618000  0.88433200  1
  Al  Al42  1  0.15618000  0.15618000  0.61566800  1
  Al  Al43  1  0.84382000  0.84382000  0.38433200  1
  Al  Al44  1  0.24658500  0.49317100  0.50000000  1
  Al  Al45  1  0.75341500  0.50682900  0.50000000  1
  Al  Al46  1  0.50682900  0.75341500  0.50000000  1
  Al  Al47  1  0.75341500  0.50682900  0.00000000  1
  Al  Al48  1  0.49317100  0.24658500  0.00000000  1
  Al  Al49  1  0.49317100  0.24658500  0.50000000  1
  Al  Al50  1  0.24658500  0.49317100  0.00000000  1
  Al  Al51  1  0.50682900  0.75341500  0.00000000  1
  Al  Al52  1  0.24658500  0.75341500  0.50000000  1
  Al  Al53  1  0.75341500  0.24658500  0.50000000  1
  Al  Al54  1  0.75341500  0.24658500  0.00000000  1
  Al  Al55  1  0.24658500  0.75341500  0.00000000  1
  Al  Al56  1  0.14554800  0.00000000  0.75000000  1
  Al  Al57  1  0.85445200  0.00000000  0.25000000  1
  Al  Al58  1  0.00000000  0.14554800  0.75000000  1
  Al  Al59  1  0.00000000  0.85445200  0.25000000  1
  Al  Al60  1  0.85445200  0.85445200  0.75000000  1
  Al  Al61  1  0.14554800  0.14554800  0.25000000  1
  Al  Al62  1  0.33333300  0.66666700  0.62693000  1
  Al  Al63  1  0.66666700  0.33333300  0.37307000  1
  Al  Al64  1  0.66666700  0.33333300  0.12693000  1
  Al  Al65  1  0.66666700  0.33333300  0.87307000  1
  Al  Al66  1  0.33333300  0.66666700  0.87307000  1
  Al  Al67  1  0.33333300  0.66666700  0.12693000  1
  Al  Al68  1  0.33333300  0.66666700  0.37307000  1
  Al  Al69  1  0.66666700  0.33333300  0.62693000  1
  Al  Al70  1  0.25200900  0.00000000  0.53046900  1
  Al  Al71  1  0.74799100  0.00000000  0.46953100  1
  Al  Al72  1  0.00000000  0.25200900  0.53046900  1
  Al  Al73  1  0.74799100  0.00000000  0.03046900  1
  Al  Al74  1  0.00000000  0.25200900  0.96953100  1
  Al  Al75  1  0.00000000  0.74799100  0.46953100  1
  Al  Al76  1  0.25200900  0.00000000  0.96953100  1
  Al  Al77  1  0.00000000  0.74799100  0.03046900  1
  Al  Al78  1  0.74799100  0.74799100  0.53046900  1
  Al  Al79  1  0.25200900  0.25200900  0.46953100  1
  Al  Al80  1  0.25200900  0.25200900  0.03046900  1
  Al  Al81  1  0.74799100  0.74799100  0.96953100  1
  Al  Al82  1  0.15815300  0.39122400  0.66559200  1
  Al  Al83  1  0.84184700  0.60877600  0.33440800  1
  Al  Al84  1  0.60877600  0.76692900  0.66559200  1
  Al  Al85  1  0.84184700  0.60877600  0.16559200  1
  Al  Al86  1  0.39122400  0.15815300  0.83440800  1
  Al  Al87  1  0.39122400  0.23307100  0.33440800  1
  Al  Al88  1  0.15815300  0.39122400  0.83440800  1
  Al  Al89  1  0.60877600  0.84184700  0.16559200  1
  Al  Al90  1  0.23307100  0.84184700  0.66559200  1
  Al  Al91  1  0.39122400  0.23307100  0.16559200  1
  Al  Al92  1  0.76692900  0.60877600  0.83440800  1
  Al  Al93  1  0.76692900  0.15815300  0.33440800  1
  Al  Al94  1  0.60877600  0.76692900  0.83440800  1
  Al  Al95  1  0.23307100  0.39122400  0.16559200  1
  Al  Al96  1  0.60877600  0.84184700  0.33440800  1
  Al  Al97  1  0.39122400  0.15815300  0.66559200  1
  Al  Al98  1  0.76692900  0.15815300  0.16559200  1
  Al  Al99  1  0.23307100  0.39122400  0.33440800  1
  Al  Al100  1  0.23307100  0.84184700  0.83440800  1
  Al  Al101  1  0.76692900  0.60877600  0.66559200  1
  Al  Al102  1  0.84184700  0.23307100  0.83440800  1
  Al  Al103  1  0.15815300  0.76692900  0.16559200  1
  Al  Al104  1  0.15815300  0.76692900  0.33440800  1
  Al  Al105  1  0.84184700  0.23307100  0.66559200  1
