# generated using pymatgen
data_KCeAgTe4
_symmetry_space_group_name_H-M   'P 1'
_cell_length_a   4.46801100
_cell_length_b   4.47213700
_cell_length_c   21.37648900
_cell_angle_alpha   90.00000000
_cell_angle_beta   90.00000000
_cell_angle_gamma   90.00000000
_symmetry_Int_Tables_number   1
_chemical_formula_structural   KCeAgTe4
_chemical_formula_sum   'K2 Ce2 Ag2 Te8'
_cell_volume   427.13554003
_cell_formula_units_Z   2
loop_
 _symmetry_equiv_pos_site_id
 _symmetry_equiv_pos_as_xyz
  1  'x, y, z'
loop_
 _atom_site_type_symbol
 _atom_site_label
 _atom_site_symmetry_multiplicity
 _atom_site_fract_x
 _atom_site_fract_y
 _atom_site_fract_z
 _atom_site_occupancy
  K  K0  1  0.52318800  0.50000000  0.64911500  1
  K  K1  1  0.02318800  0.00000000  0.35088500  1
  Ce  Ce2  1  0.50599100  0.50000000  0.09756500  1
  Ce  Ce3  1  0.00599100  0.00000000  0.90243500  1
  Ag  Ag4  1  0.52548500  0.00000000  0.49975500  1
  Ag  Ag5  1  0.02548500  0.50000000  0.50024500  1
  Te  Te6  1  0.50519400  0.50000000  0.94514700  1
  Te  Te7  1  0.52479700  0.50000000  0.41628600  1
  Te  Te8  1  0.50760200  0.00000000  0.79199200  1
  Te  Te9  1  0.00519400  0.00000000  0.05485300  1
  Te  Te10  1  0.50838700  0.00000000  0.20846300  1
  Te  Te11  1  0.02479700  0.00000000  0.58371400  1
  Te  Te12  1  0.00760200  0.50000000  0.20800800  1
  Te  Te13  1  0.00838700  0.50000000  0.79153700  1
