# generated using pymatgen
data_Hg3(PS4)2
_symmetry_space_group_name_H-M   'P 1'
_cell_length_a   11.04186000
_cell_length_b   11.04186000
_cell_length_c   11.04186000
_cell_angle_alpha   90.00000000
_cell_angle_beta   90.00000000
_cell_angle_gamma   90.00000000
_symmetry_Int_Tables_number   1
_chemical_formula_structural   Hg3(PS4)2
_chemical_formula_sum   'Hg12 P8 S32'
_cell_volume   1346.25307792
_cell_formula_units_Z   4
loop_
 _symmetry_equiv_pos_site_id
 _symmetry_equiv_pos_as_xyz
  1  'x, y, z'
loop_
 _atom_site_type_symbol
 _atom_site_label
 _atom_site_symmetry_multiplicity
 _atom_site_fract_x
 _atom_site_fract_y
 _atom_site_fract_z
 _atom_site_occupancy
  Hg  Hg0  1  0.12782600  0.41282700  0.27979000  1
  Hg  Hg1  1  0.37217400  0.58717300  0.77979000  1
  Hg  Hg2  1  0.87217400  0.91282700  0.22021000  1
  Hg  Hg3  1  0.27979000  0.12782600  0.41282700  1
  Hg  Hg4  1  0.62782600  0.08717300  0.72021000  1
  Hg  Hg5  1  0.77979000  0.37217400  0.58717300  1
  Hg  Hg6  1  0.22021000  0.87217400  0.91282700  1
  Hg  Hg7  1  0.72021000  0.62782600  0.08717300  1
  Hg  Hg8  1  0.41282700  0.27979000  0.12782600  1
  Hg  Hg9  1  0.91282700  0.22021000  0.87217400  1
  Hg  Hg10  1  0.08717300  0.72021000  0.62782600  1
  Hg  Hg11  1  0.58717300  0.77979000  0.37217400  1
  P  P12  1  0.41439500  0.41439500  0.41439500  1
  P  P13  1  0.08560500  0.58560500  0.91439500  1
  P  P14  1  0.58560500  0.91439500  0.08560500  1
  P  P15  1  0.91439500  0.08560500  0.58560500  1
  P  P16  1  0.13350900  0.13350900  0.13350900  1
  P  P17  1  0.36649100  0.86649100  0.63350900  1
  P  P18  1  0.86649100  0.63350900  0.36649100  1
  P  P19  1  0.63350900  0.36649100  0.86649100  1
  S  S20  1  0.51806000  0.51806000  0.51806000  1
  S  S21  1  0.98194000  0.48194000  0.01806000  1
  S  S22  1  0.48194000  0.01806000  0.98194000  1
  S  S23  1  0.01806000  0.98194000  0.48194000  1
  S  S24  1  0.02600500  0.02600500  0.02600500  1
  S  S25  1  0.47399500  0.97399500  0.52600500  1
  S  S26  1  0.97399500  0.52600500  0.47399500  1
  S  S27  1  0.52600500  0.47399500  0.97399500  1
  S  S28  1  0.01309600  0.22843800  0.24222600  1
  S  S29  1  0.48690400  0.77156200  0.74222600  1
  S  S30  1  0.98690400  0.72843800  0.25777400  1
  S  S31  1  0.24222600  0.01309600  0.22843800  1
  S  S32  1  0.51309600  0.27156200  0.75777400  1
  S  S33  1  0.74222600  0.48690400  0.77156200  1
  S  S34  1  0.25777400  0.98690400  0.72843800  1
  S  S35  1  0.75777400  0.51309600  0.27156200  1
  S  S36  1  0.22843800  0.24222600  0.01309600  1
  S  S37  1  0.72843800  0.25777400  0.98690400  1
  S  S38  1  0.27156200  0.75777400  0.51309600  1
  S  S39  1  0.77156200  0.74222600  0.48690400  1
  S  S40  1  0.02464500  0.20704900  0.68286600  1
  S  S41  1  0.47535500  0.79295100  0.18286600  1
  S  S42  1  0.97535500  0.70704900  0.81713400  1
  S  S43  1  0.68286600  0.02464500  0.20704900  1
  S  S44  1  0.52464500  0.29295100  0.31713400  1
  S  S45  1  0.18286600  0.47535500  0.79295100  1
  S  S46  1  0.81713400  0.97535500  0.70704900  1
  S  S47  1  0.31713400  0.52464500  0.29295100  1
  S  S48  1  0.20704900  0.68286600  0.02464500  1
  S  S49  1  0.70704900  0.81713400  0.97535500  1
  S  S50  1  0.29295100  0.31713400  0.52464500  1
  S  S51  1  0.79295100  0.18286600  0.47535500  1
