# generated using pymatgen
data_Hg2GeO2
_symmetry_space_group_name_H-M   'P 1'
_cell_length_a   7.60895238
_cell_length_b   7.60895238
_cell_length_c   12.16173343
_cell_angle_alpha   105.75719097
_cell_angle_beta   105.75719097
_cell_angle_gamma   97.57955708
_symmetry_Int_Tables_number   1
_chemical_formula_structural   Hg2GeO2
_chemical_formula_sum   'Hg8 Ge4 O8'
_cell_volume   635.91457699
_cell_formula_units_Z   4
loop_
 _symmetry_equiv_pos_site_id
 _symmetry_equiv_pos_as_xyz
  1  'x, y, z'
loop_
 _atom_site_type_symbol
 _atom_site_label
 _atom_site_symmetry_multiplicity
 _atom_site_fract_x
 _atom_site_fract_y
 _atom_site_fract_z
 _atom_site_occupancy
  Hg  Hg0  1  0.24217200  0.11140100  0.61565100  1
  Hg  Hg1  1  0.37348000  0.50425000  0.61565100  1
  Hg  Hg2  1  0.88859900  0.75782800  0.38434900  1
  Hg  Hg3  1  0.00782800  0.63859900  0.88434900  1
  Hg  Hg4  1  0.49575000  0.62652000  0.38434900  1
  Hg  Hg5  1  0.87652000  0.24575000  0.88434900  1
  Hg  Hg6  1  0.36140100  0.99217200  0.11565100  1
  Hg  Hg7  1  0.75425000  0.12348000  0.11565100  1
  Ge  Ge8  1  0.62500000  0.87500000  0.75000000  1
  Ge  Ge9  1  0.12500000  0.87500000  0.75000000  1
  Ge  Ge10  1  0.12500000  0.37500000  0.25000000  1
  Ge  Ge11  1  0.12500000  0.87500000  0.25000000  1
  O  O12  1  0.64041500  0.83470700  0.87917600  1
  O  O13  1  0.23876100  0.04446900  0.87917600  1
  O  O14  1  0.16529300  0.35958500  0.12082400  1
  O  O15  1  0.60958500  0.91529300  0.62082400  1
  O  O16  1  0.95553100  0.76123900  0.12082400  1
  O  O17  1  0.01123900  0.70553100  0.62082400  1
  O  O18  1  0.08470700  0.39041500  0.37917600  1
  O  O19  1  0.29446900  0.98876100  0.37917600  1
