# generated using pymatgen
data_LuZr6(PO4)9
_symmetry_space_group_name_H-M   'P 1'
_cell_length_a   8.94237482
_cell_length_b   8.94237482
_cell_length_c   22.75504300
_cell_angle_alpha   90.00000000
_cell_angle_beta   90.00000000
_cell_angle_gamma   120.00000606
_symmetry_Int_Tables_number   1
_chemical_formula_structural   LuZr6(PO4)9
_chemical_formula_sum   'Lu2 Zr12 P18 O72'
_cell_volume   1575.84683713
_cell_formula_units_Z   2
loop_
 _symmetry_equiv_pos_site_id
 _symmetry_equiv_pos_as_xyz
  1  'x, y, z'
loop_
 _atom_site_type_symbol
 _atom_site_label
 _atom_site_symmetry_multiplicity
 _atom_site_fract_x
 _atom_site_fract_y
 _atom_site_fract_z
 _atom_site_occupancy
  Lu  Lu0  1  0.00000000  0.00000000  0.50000000  1
  Lu  Lu1  1  0.00000000  0.00000000  0.00000000  1
  Zr  Zr2  1  0.33333300  0.66666700  0.52956900  1
  Zr  Zr3  1  0.66666700  0.33333300  0.47043100  1
  Zr  Zr4  1  0.66666700  0.33333300  0.97043100  1
  Zr  Zr5  1  0.33333300  0.66666700  0.02956900  1
  Zr  Zr6  1  0.00000000  0.00000000  0.64837600  1
  Zr  Zr7  1  0.00000000  0.00000000  0.35162400  1
  Zr  Zr8  1  0.00000000  0.00000000  0.85162400  1
  Zr  Zr9  1  0.00000000  0.00000000  0.14837600  1
  Zr  Zr10  1  0.33333300  0.66666700  0.81302600  1
  Zr  Zr11  1  0.66666700  0.33333300  0.18697400  1
  Zr  Zr12  1  0.66666700  0.33333300  0.68697400  1
  Zr  Zr13  1  0.33333300  0.66666700  0.31302600  1
  P  P14  1  0.37215900  0.31735600  0.57828000  1
  P  P15  1  0.62784100  0.68264400  0.42172000  1
  P  P16  1  0.68264400  0.05480300  0.57828000  1
  P  P17  1  0.31735600  0.37215900  0.92172000  1
  P  P18  1  0.31735600  0.94519700  0.42172000  1
  P  P19  1  0.68264400  0.62784100  0.07828000  1
  P  P20  1  0.94519700  0.62784100  0.57828000  1
  P  P21  1  0.05480300  0.68264400  0.92172000  1
  P  P22  1  0.05480300  0.37215900  0.42172000  1
  P  P23  1  0.94519700  0.31735600  0.07828000  1
  P  P24  1  0.62784100  0.94519700  0.92172000  1
  P  P25  1  0.37215900  0.05480300  0.07828000  1
  P  P26  1  0.29242900  0.00000000  0.75000000  1
  P  P27  1  0.70757100  0.00000000  0.25000000  1
  P  P28  1  0.00000000  0.29242900  0.75000000  1
  P  P29  1  0.00000000  0.70757100  0.25000000  1
  P  P30  1  0.70757100  0.70757100  0.75000000  1
  P  P31  1  0.29242900  0.29242900  0.25000000  1
  O  O32  1  0.45666100  0.28691400  0.52455900  1
  O  O33  1  0.54333900  0.71308600  0.47544100  1
  O  O34  1  0.71308600  0.16974700  0.52455900  1
  O  O35  1  0.28691400  0.45666100  0.97544100  1
  O  O36  1  0.28691400  0.83025300  0.47544100  1
  O  O37  1  0.71308600  0.54333900  0.02455900  1
  O  O38  1  0.83025300  0.54333900  0.52455900  1
  O  O39  1  0.16974700  0.71308600  0.97544100  1
  O  O40  1  0.16974700  0.45666100  0.47544100  1
  O  O41  1  0.83025300  0.28691400  0.02455900  1
  O  O42  1  0.54333900  0.83025300  0.97544100  1
  O  O43  1  0.45666100  0.16974700  0.02455900  1
  O  O44  1  0.37336200  0.48950900  0.57570900  1
  O  O45  1  0.62663800  0.51049100  0.42429100  1
  O  O46  1  0.51049100  0.88385300  0.57570900  1
  O  O47  1  0.48950900  0.37336200  0.92429100  1
  O  O48  1  0.48950900  0.11614700  0.42429100  1
  O  O49  1  0.51049100  0.62663800  0.07570900  1
  O  O50  1  0.11614700  0.62663800  0.57570900  1
  O  O51  1  0.88385300  0.51049100  0.92429100  1
  O  O52  1  0.88385300  0.37336200  0.42429100  1
  O  O53  1  0.11614700  0.48950900  0.07570900  1
  O  O54  1  0.62663800  0.11614700  0.92429100  1
  O  O55  1  0.37336200  0.88385300  0.07570900  1
  O  O56  1  0.17603800  0.16545500  0.57565300  1
  O  O57  1  0.82396200  0.83454500  0.42434700  1
  O  O58  1  0.83454500  0.01058300  0.57565300  1
  O  O59  1  0.16545500  0.17603800  0.92434700  1
  O  O60  1  0.16545500  0.98941700  0.42434700  1
  O  O61  1  0.83454500  0.82396200  0.07565300  1
  O  O62  1  0.98941700  0.82396200  0.57565300  1
  O  O63  1  0.01058300  0.83454500  0.92434700  1
  O  O64  1  0.01058300  0.17603800  0.42434700  1
  O  O65  1  0.98941700  0.16545500  0.07565300  1
  O  O66  1  0.82396200  0.98941700  0.92434700  1
  O  O67  1  0.17603800  0.01058300  0.07565300  1
  O  O68  1  0.02982300  0.20433000  0.69551400  1
  O  O69  1  0.97017700  0.79567000  0.30448600  1
  O  O70  1  0.79567000  0.82549300  0.69551400  1
  O  O71  1  0.20433000  0.02982300  0.80448600  1
  O  O72  1  0.20433000  0.17450700  0.30448600  1
  O  O73  1  0.79567000  0.97017700  0.19551400  1
  O  O74  1  0.17450700  0.97017700  0.69551400  1
  O  O75  1  0.82549300  0.79567000  0.80448600  1
  O  O76  1  0.82549300  0.02982300  0.30448600  1
  O  O77  1  0.17450700  0.20433000  0.19551400  1
  O  O78  1  0.97017700  0.17450700  0.80448600  1
  O  O79  1  0.02982300  0.82549300  0.19551400  1
  O  O80  1  0.45745600  0.30821200  0.63535700  1
  O  O81  1  0.54254400  0.69178800  0.36464300  1
  O  O82  1  0.69178800  0.14924400  0.63535700  1
  O  O83  1  0.30821200  0.45745600  0.86464300  1
  O  O84  1  0.30821200  0.85075600  0.36464300  1
  O  O85  1  0.69178800  0.54254400  0.13535700  1
  O  O86  1  0.85075600  0.54254400  0.63535700  1
  O  O87  1  0.14924400  0.69178800  0.86464300  1
  O  O88  1  0.14924400  0.45745600  0.36464300  1
  O  O89  1  0.85075600  0.30821200  0.13535700  1
  O  O90  1  0.54254400  0.85075600  0.86464300  1
  O  O91  1  0.45745600  0.14924400  0.13535700  1
  O  O92  1  0.46883700  0.15908300  0.74069700  1
  O  O93  1  0.53116300  0.84091700  0.25930300  1
  O  O94  1  0.84091700  0.30975400  0.74069700  1
  O  O95  1  0.15908300  0.46883700  0.75930300  1
  O  O96  1  0.15908300  0.69024600  0.25930300  1
  O  O97  1  0.84091700  0.53116300  0.24069700  1
  O  O98  1  0.69024600  0.53116300  0.74069700  1
  O  O99  1  0.30975400  0.84091700  0.75930300  1
  O  O100  1  0.30975400  0.46883700  0.25930300  1
  O  O101  1  0.69024600  0.15908300  0.24069700  1
  O  O102  1  0.53116300  0.69024600  0.75930300  1
  O  O103  1  0.46883700  0.30975400  0.24069700  1
