# generated using pymatgen
data_HPb3Cl4OF
_symmetry_space_group_name_H-M   'P 1'
_cell_length_a   7.27326200
_cell_length_b   7.88949051
_cell_length_c   8.68505042
_cell_angle_alpha   103.29261595
_cell_angle_beta   101.15080217
_cell_angle_gamma   89.75947946
_symmetry_Int_Tables_number   1
_chemical_formula_structural   HPb3Cl4OF
_chemical_formula_sum   'H2 Pb6 Cl8 O2 F2'
_cell_volume   475.43671733
_cell_formula_units_Z   2
loop_
 _symmetry_equiv_pos_site_id
 _symmetry_equiv_pos_as_xyz
  1  'x, y, z'
loop_
 _atom_site_type_symbol
 _atom_site_label
 _atom_site_symmetry_multiplicity
 _atom_site_fract_x
 _atom_site_fract_y
 _atom_site_fract_z
 _atom_site_occupancy
  H  H0  1  0.99318600  0.75341000  0.00516400  1
  H  H1  1  0.00681400  0.24659000  0.99483600  1
  Pb  Pb2  1  0.25063800  0.83991000  0.41086200  1
  Pb  Pb3  1  0.74936200  0.16009000  0.58913800  1
  Pb  Pb4  1  0.66100200  0.78552000  0.13038100  1
  Pb  Pb5  1  0.33899800  0.21448000  0.86961900  1
  Pb  Pb6  1  0.71273700  0.63991800  0.59577400  1
  Pb  Pb7  1  0.28726300  0.36008200  0.40422600  1
  Cl  Cl8  1  0.91924900  0.07638500  0.30279500  1
  Cl  Cl9  1  0.08075100  0.92361500  0.69720500  1
  Cl  Cl10  1  0.65099600  0.98012400  0.85656300  1
  Cl  Cl11  1  0.34900400  0.01987600  0.14343700  1
  Cl  Cl12  1  0.92334100  0.58104800  0.30840500  1
  Cl  Cl13  1  0.07665900  0.41895200  0.69159500  1
  Cl  Cl14  1  0.35405300  0.53968600  0.14407700  1
  Cl  Cl15  1  0.64594700  0.46031400  0.85592300  1
  O  O16  1  0.60551900  0.36510100  0.46163300  1
  O  O17  1  0.39448100  0.63489900  0.53836700  1
  F  F18  1  0.61516800  0.86187000  0.42299100  1
  F  F19  1  0.38483200  0.13813000  0.57700900  1
