# generated using pymatgen
data_RbCe3Te8
_symmetry_space_group_name_H-M   'P 1'
_cell_length_a   13.08134800
_cell_length_b   9.13438400
_cell_length_c   14.17554985
_cell_angle_alpha   80.65779126
_cell_angle_beta   90.00000000
_cell_angle_gamma   90.00000000
_symmetry_Int_Tables_number   1
_chemical_formula_structural   RbCe3Te8
_chemical_formula_sum   'Rb4 Ce12 Te32'
_cell_volume   1671.37086067
_cell_formula_units_Z   4
loop_
 _symmetry_equiv_pos_site_id
 _symmetry_equiv_pos_as_xyz
  1  'x, y, z'
loop_
 _atom_site_type_symbol
 _atom_site_label
 _atom_site_symmetry_multiplicity
 _atom_site_fract_x
 _atom_site_fract_y
 _atom_site_fract_z
 _atom_site_occupancy
  Rb  Rb0  1  0.09164000  0.24335700  0.03660600  1
  Rb  Rb1  1  0.90836000  0.75664300  0.96339400  1
  Rb  Rb2  1  0.59164000  0.25664300  0.96339400  1
  Rb  Rb3  1  0.40836000  0.74335700  0.03660600  1
  Ce  Ce4  1  0.41552700  0.40318500  0.35279500  1
  Ce  Ce5  1  0.58447300  0.59681500  0.64720500  1
  Ce  Ce6  1  0.91552700  0.09681500  0.64720500  1
  Ce  Ce7  1  0.08447300  0.90318500  0.35279500  1
  Ce  Ce8  1  0.08530200  0.42036200  0.35141300  1
  Ce  Ce9  1  0.91469800  0.57963800  0.64858700  1
  Ce  Ce10  1  0.58530200  0.07963800  0.64858700  1
  Ce  Ce11  1  0.41469800  0.92036200  0.35141300  1
  Ce  Ce12  1  0.24922300  0.08483400  0.65773800  1
  Ce  Ce13  1  0.75077700  0.91516600  0.34226200  1
  Ce  Ce14  1  0.74922300  0.41516600  0.34226200  1
  Ce  Ce15  1  0.25077700  0.58483400  0.65773800  1
  Te  Te16  1  0.76967300  0.20731200  0.17084700  1
  Te  Te17  1  0.23032700  0.79268800  0.82915300  1
  Te  Te18  1  0.26967300  0.29268800  0.82915300  1
  Te  Te19  1  0.73032700  0.70731200  0.17084700  1
  Te  Te20  1  0.40816800  0.20615700  0.17693600  1
  Te  Te21  1  0.59183200  0.79384300  0.82306400  1
  Te  Te22  1  0.90816800  0.29384300  0.82306400  1
  Te  Te23  1  0.09183200  0.70615700  0.17693600  1
  Te  Te24  1  0.25071400  0.45545600  0.18029800  1
  Te  Te25  1  0.74928600  0.54454400  0.81970200  1
  Te  Te26  1  0.75071400  0.04454400  0.81970200  1
  Te  Te27  1  0.24928600  0.95545600  0.18029800  1
  Te  Te28  1  0.24459000  0.14482600  0.41747300  1
  Te  Te29  1  0.75541000  0.85517400  0.58252700  1
  Te  Te30  1  0.74459000  0.35517400  0.58252700  1
  Te  Te31  1  0.25541000  0.64482600  0.41747300  1
  Te  Te32  1  0.42250500  0.35115900  0.58919700  1
  Te  Te33  1  0.57749500  0.64884100  0.41080300  1
  Te  Te34  1  0.92250500  0.14884100  0.41080300  1
  Te  Te35  1  0.07749500  0.85115900  0.58919700  1
  Te  Te36  1  0.92535000  0.96343300  0.17550100  1
  Te  Te37  1  0.07465000  0.03656700  0.82449900  1
  Te  Te38  1  0.42535000  0.53656700  0.82449900  1
  Te  Te39  1  0.57465000  0.46343300  0.17550100  1
  Te  Te40  1  0.92469900  0.44932600  0.17638700  1
  Te  Te41  1  0.07530100  0.55067400  0.82361300  1
  Te  Te42  1  0.42469900  0.05067400  0.82361300  1
  Te  Te43  1  0.57530100  0.94932600  0.17638700  1
  Te  Te44  1  0.08526400  0.35406700  0.58766100  1
  Te  Te45  1  0.91473600  0.64593300  0.41233900  1
  Te  Te46  1  0.58526400  0.14593300  0.41233900  1
  Te  Te47  1  0.41473600  0.85406700  0.58766100  1
