# generated using pymatgen
data_Na2WO12
_symmetry_space_group_name_H-M   'P 1'
_cell_length_a   8.77947900
_cell_length_b   9.64929100
_cell_length_c   12.89305905
_cell_angle_alpha   88.49882614
_cell_angle_beta   90.00000000
_cell_angle_gamma   90.00000000
_symmetry_Int_Tables_number   1
_chemical_formula_structural   Na2WO12
_chemical_formula_sum   'Na8 W4 O48'
_cell_volume   1091.87026613
_cell_formula_units_Z   4
loop_
 _symmetry_equiv_pos_site_id
 _symmetry_equiv_pos_as_xyz
  1  'x, y, z'
loop_
 _atom_site_type_symbol
 _atom_site_label
 _atom_site_symmetry_multiplicity
 _atom_site_fract_x
 _atom_site_fract_y
 _atom_site_fract_z
 _atom_site_occupancy
  Na  Na0  1  0.88501200  0.87584600  0.01229600  1
  Na  Na1  1  0.11498800  0.12415400  0.98770400  1
  Na  Na2  1  0.38501200  0.12415400  0.48770400  1
  Na  Na3  1  0.61498800  0.87584600  0.51229600  1
  Na  Na4  1  0.11544500  0.41681200  0.72668100  1
  Na  Na5  1  0.88455500  0.58318800  0.27331900  1
  Na  Na6  1  0.61544500  0.58318800  0.77331900  1
  Na  Na7  1  0.38455500  0.41681200  0.22668100  1
  W  W8  1  0.24877600  0.76687100  0.62494900  1
  W  W9  1  0.75122400  0.23312900  0.37505100  1
  W  W10  1  0.74877600  0.23312900  0.87505100  1
  W  W11  1  0.25122400  0.76687100  0.12494900  1
  O  O12  1  0.08683700  0.91227900  0.64749100  1
  O  O13  1  0.91316300  0.08772100  0.35250900  1
  O  O14  1  0.58683700  0.08772100  0.85250900  1
  O  O15  1  0.41316300  0.91227900  0.14749100  1
  O  O16  1  0.14350900  0.85384500  0.74445100  1
  O  O17  1  0.85649100  0.14615500  0.25554900  1
  O  O18  1  0.64350900  0.14615500  0.75554900  1
  O  O19  1  0.35649100  0.85384500  0.24445100  1
  O  O20  1  0.12785600  0.66597800  0.52179700  1
  O  O21  1  0.87214400  0.33402200  0.47820300  1
  O  O22  1  0.62785600  0.33402200  0.97820300  1
  O  O23  1  0.37214400  0.66597800  0.02179700  1
  O  O24  1  0.29115400  0.29464200  0.85264700  1
  O  O25  1  0.70884600  0.70535800  0.14735300  1
  O  O26  1  0.79115400  0.70535800  0.64735300  1
  O  O27  1  0.20884600  0.29464200  0.35264700  1
  O  O28  1  0.33817500  0.88193000  0.50776300  1
  O  O29  1  0.66182500  0.11807000  0.49223700  1
  O  O30  1  0.83817500  0.11807000  0.99223700  1
  O  O31  1  0.16182500  0.88193000  0.00776300  1
  O  O32  1  0.19791500  0.23772200  0.60184900  1
  O  O33  1  0.80208500  0.76227800  0.39815100  1
  O  O34  1  0.69791500  0.76227800  0.89815100  1
  O  O35  1  0.30208500  0.23772200  0.10184900  1
  O  O36  1  0.32154400  0.30586100  0.61268200  1
  O  O37  1  0.67845600  0.69413900  0.38731800  1
  O  O38  1  0.82154400  0.69413900  0.88731800  1
  O  O39  1  0.17845600  0.30586100  0.11268200  1
  O  O40  1  0.09291800  0.61438900  0.62842900  1
  O  O41  1  0.90708200  0.38561100  0.37157100  1
  O  O42  1  0.59291800  0.38561100  0.87157100  1
  O  O43  1  0.40708200  0.61438900  0.12842900  1
  O  O44  1  0.39999100  0.92539900  0.61246000  1
  O  O45  1  0.60000900  0.07460100  0.38754000  1
  O  O46  1  0.89999100  0.07460100  0.88754000  1
  O  O47  1  0.10000900  0.92539900  0.11246000  1
  O  O48  1  0.37451900  0.65759200  0.72749900  1
  O  O49  1  0.62548100  0.34240800  0.27250100  1
  O  O50  1  0.87451900  0.34240800  0.77250100  1
  O  O51  1  0.12548100  0.65759200  0.22749900  1
  O  O52  1  0.77718800  0.83036100  0.67003900  1
  O  O53  1  0.22281200  0.16963900  0.32996100  1
  O  O54  1  0.27718800  0.16963900  0.82996100  1
  O  O55  1  0.72281200  0.83036100  0.17003900  1
  O  O56  1  0.42634800  0.63494800  0.61722000  1
  O  O57  1  0.57365200  0.36505200  0.38278000  1
  O  O58  1  0.92634800  0.36505200  0.88278000  1
  O  O59  1  0.07365200  0.63494800  0.11722000  1
