# generated using pymatgen
data_HRu(NCl2)2
_symmetry_space_group_name_H-M   'P 1'
_cell_length_a   8.08679585
_cell_length_b   7.78461700
_cell_length_c   9.00077203
_cell_angle_alpha   115.62261554
_cell_angle_beta   117.41414846
_cell_angle_gamma   90.00000000
_symmetry_Int_Tables_number   1
_chemical_formula_structural   HRu(NCl2)2
_chemical_formula_sum   'H2 Ru2 N4 Cl8'
_cell_volume   439.27229165
_cell_formula_units_Z   2
loop_
 _symmetry_equiv_pos_site_id
 _symmetry_equiv_pos_as_xyz
  1  'x, y, z'
loop_
 _atom_site_type_symbol
 _atom_site_label
 _atom_site_symmetry_multiplicity
 _atom_site_fract_x
 _atom_site_fract_y
 _atom_site_fract_z
 _atom_site_occupancy
  H  H0  1  0.56629400  0.77386200  0.54772400  1
  H  H1  1  0.43370600  0.22613800  0.45227600  1
  Ru  Ru2  1  0.77798500  0.88460000  0.76920000  1
  Ru  Ru3  1  0.22201500  0.11540000  0.23080000  1
  N  N4  1  0.26016200  0.86312400  0.72624700  1
  N  N5  1  0.73983800  0.13687700  0.27375300  1
  N  N6  1  0.00000000  0.50000000  0.00000000  1
  N  N7  1  0.00000000  0.00000000  0.00000000  1
  Cl  Cl8  1  0.86372000  0.01741500  0.62299900  1
  Cl  Cl9  1  0.13628000  0.98258500  0.37700100  1
  Cl  Cl10  1  0.13628000  0.39441500  0.37700100  1
  Cl  Cl11  1  0.86372000  0.60558500  0.62299900  1
  Cl  Cl12  1  0.37921200  0.87316300  0.16095700  1
  Cl  Cl13  1  0.62078800  0.12683700  0.83904300  1
  Cl  Cl14  1  0.62078800  0.71220600  0.83904300  1
  Cl  Cl15  1  0.37921200  0.28779400  0.16095700  1
