# generated using pymatgen
data_H9C3N6ClO5
_symmetry_space_group_name_H-M   'P 1'
_cell_length_a   6.00150035
_cell_length_b   7.78677998
_cell_length_c   12.10644780
_cell_angle_alpha   101.36948249
_cell_angle_beta   92.68420691
_cell_angle_gamma   105.24437043
_symmetry_Int_Tables_number   1
_chemical_formula_structural   H9C3N6ClO5
_chemical_formula_sum   'H18 C6 N12 Cl2 O10'
_cell_volume   532.22448343
_cell_formula_units_Z   2
loop_
 _symmetry_equiv_pos_site_id
 _symmetry_equiv_pos_as_xyz
  1  'x, y, z'
loop_
 _atom_site_type_symbol
 _atom_site_label
 _atom_site_symmetry_multiplicity
 _atom_site_fract_x
 _atom_site_fract_y
 _atom_site_fract_z
 _atom_site_occupancy
  H  H0  1  0.15102000  0.08740800  0.35863900  1
  H  H1  1  0.84898000  0.91259200  0.64136100  1
  H  H2  1  0.61807700  0.75707700  0.12772600  1
  H  H3  1  0.38192300  0.24292300  0.87227400  1
  H  H4  1  0.99625900  0.29452200  0.28738500  1
  H  H5  1  0.00374100  0.70547800  0.71261500  1
  H  H6  1  0.09341600  0.45817900  0.91701800  1
  H  H7  1  0.90658400  0.54182100  0.08298200  1
  H  H8  1  0.74497500  0.29365900  0.42906300  1
  H  H9  1  0.25502500  0.70634100  0.57093700  1
  H  H10  1  0.15832200  0.50961100  0.78565000  1
  H  H11  1  0.84167800  0.49038900  0.21435000  1
  H  H12  1  0.49274700  0.08476600  0.92594200  1
  H  H13  1  0.50725300  0.91523400  0.07405800  1
  H  H14  1  0.16222100  0.50550000  0.58532900  1
  H  H15  1  0.83777900  0.49450000  0.41467100  1
  H  H16  1  0.65309600  0.01066200  0.71226700  1
  H  H17  1  0.34690400  0.98933800  0.28773300  1
  C  C18  1  0.20871400  0.14369500  0.20185200  1
  C  C19  1  0.79128600  0.85630500  0.79814800  1
  C  C20  1  0.05743700  0.35571900  0.13001100  1
  C  C21  1  0.94256300  0.64428100  0.86998900  1
  C  C22  1  0.29058100  0.20775600  0.02933400  1
  C  C23  1  0.70941900  0.79224400  0.97066600  1
  N  N24  1  0.16314900  0.32947200  0.03607200  1
  N  N25  1  0.83685100  0.67052800  0.96392800  1
  N  N26  1  0.22299600  0.05663500  0.28556700  1
  N  N27  1  0.77700400  0.94336500  0.71443300  1
  N  N28  1  0.31704900  0.11186200  0.10949700  1
  N  N29  1  0.68295100  0.88813800  0.89050300  1
  N  N30  1  0.07697100  0.26354500  0.21370700  1
  N  N31  1  0.92302900  0.73645500  0.78629300  1
  N  N32  1  0.60179900  0.82203700  0.06352400  1
  N  N33  1  0.39820100  0.17796300  0.93647600  1
  N  N34  1  0.07033700  0.52724200  0.85475600  1
  N  N35  1  0.92966300  0.47275800  0.14524400  1
  Cl  Cl36  1  0.39737900  0.23709700  0.63424300  1
  Cl  Cl37  1  0.60262100  0.76290300  0.36575700  1
  O  O38  1  0.21599700  0.24772800  0.55278000  1
  O  O39  1  0.78400300  0.75227200  0.44722000  1
  O  O40  1  0.59911500  0.63451700  0.25812200  1
  O  O41  1  0.40088500  0.36548300  0.74187800  1
  O  O42  1  0.37633700  0.71549000  0.40818500  1
  O  O43  1  0.62366300  0.28451000  0.59181500  1
  O  O44  1  0.15779600  0.63063100  0.61544000  1
  O  O45  1  0.84220400  0.36936900  0.38456000  1
  O  O46  1  0.34739500  0.05246000  0.65559000  1
  O  O47  1  0.65260500  0.94754000  0.34441000  1
