# generated using pymatgen
data_Na3PH3S2N3O8
_symmetry_space_group_name_H-M   'P 1'
_cell_length_a   9.93788900
_cell_length_b   7.81486500
_cell_length_c   15.58368991
_cell_angle_alpha   60.27984295
_cell_angle_beta   90.00000000
_cell_angle_gamma   90.00000000
_symmetry_Int_Tables_number   1
_chemical_formula_structural   Na3PH3S2N3O8
_chemical_formula_sum   'Na12 P4 H12 S8 N12 O32'
_cell_volume   1051.07647775
_cell_formula_units_Z   4
loop_
 _symmetry_equiv_pos_site_id
 _symmetry_equiv_pos_as_xyz
  1  'x, y, z'
loop_
 _atom_site_type_symbol
 _atom_site_label
 _atom_site_symmetry_multiplicity
 _atom_site_fract_x
 _atom_site_fract_y
 _atom_site_fract_z
 _atom_site_occupancy
  Na  Na0  1  0.56825300  0.72447900  0.60518500  1
  Na  Na1  1  0.43174700  0.27552100  0.39481500  1
  Na  Na2  1  0.06825300  0.27552100  0.89481500  1
  Na  Na3  1  0.93174700  0.72447900  0.10518500  1
  Na  Na4  1  0.46776700  0.26180000  0.61418900  1
  Na  Na5  1  0.53223300  0.73820000  0.38581100  1
  Na  Na6  1  0.96776700  0.73820000  0.88581100  1
  Na  Na7  1  0.03223300  0.26180000  0.11418900  1
  Na  Na8  1  0.44965200  0.28771600  0.84173700  1
  Na  Na9  1  0.55034800  0.71228400  0.15826300  1
  Na  Na10  1  0.94965200  0.71228400  0.65826300  1
  Na  Na11  1  0.05034800  0.28771600  0.34173700  1
  P  P12  1  0.28627900  0.54379900  0.95835300  1
  P  P13  1  0.71372100  0.45620100  0.04164700  1
  P  P14  1  0.78627900  0.45620100  0.54164700  1
  P  P15  1  0.21372100  0.54379900  0.45835300  1
  H  H16  1  0.59113900  0.01146600  0.81325500  1
  H  H17  1  0.40886100  0.98853400  0.18674500  1
  H  H18  1  0.09113900  0.98853400  0.68674500  1
  H  H19  1  0.90886100  0.01146600  0.31325500  1
  H  H20  1  0.06045100  0.44760500  0.58690500  1
  H  H21  1  0.93954900  0.55239500  0.41309500  1
  H  H22  1  0.56045100  0.55239500  0.91309500  1
  H  H23  1  0.43954900  0.44760500  0.08690500  1
  H  H24  1  0.43539900  0.94596300  0.82680700  1
  H  H25  1  0.56460100  0.05403700  0.17319300  1
  H  H26  1  0.93539900  0.05403700  0.67319300  1
  H  H27  1  0.06460100  0.94596300  0.32680700  1
  S  S28  1  0.23195600  0.88305800  0.96934700  1
  S  S29  1  0.76804400  0.11694200  0.03065300  1
  S  S30  1  0.73195600  0.11694200  0.53065300  1
  S  S31  1  0.26804400  0.88305800  0.46934700  1
  S  S32  1  0.22612300  0.53787100  0.64807200  1
  S  S33  1  0.77387700  0.46212900  0.35192800  1
  S  S34  1  0.72612300  0.46212900  0.85192800  1
  S  S35  1  0.27387700  0.53787100  0.14807200  1
  N  N36  1  0.29838200  0.78650200  0.91281400  1
  N  N37  1  0.70161800  0.21349800  0.08718600  1
  N  N38  1  0.79838200  0.21349800  0.58718600  1
  N  N39  1  0.20161800  0.78650200  0.41281400  1
  N  N40  1  0.16653800  0.44143500  0.58298500  1
  N  N41  1  0.83346200  0.55856500  0.41701500  1
  N  N42  1  0.66653800  0.55856500  0.91701500  1
  N  N43  1  0.33346200  0.44143500  0.08298500  1
  N  N44  1  0.20488300  0.77350900  0.58333100  1
  N  N45  1  0.79511700  0.22649100  0.41666900  1
  N  N46  1  0.70488300  0.22649100  0.91666900  1
  N  N47  1  0.29511700  0.77350900  0.08333100  1
  O  O48  1  0.36757800  0.47959400  0.67032600  1
  O  O49  1  0.63242200  0.52040600  0.32967400  1
  O  O50  1  0.86757800  0.52040600  0.82967400  1
  O  O51  1  0.13242200  0.47959400  0.17032600  1
  O  O52  1  0.49962600  0.05369300  0.78610400  1
  O  O53  1  0.50037400  0.94630700  0.21389600  1
  O  O54  1  0.99962600  0.94630700  0.71389600  1
  O  O55  1  0.00037400  0.05369300  0.28610400  1
  O  O56  1  0.27710300  0.96590200  0.65287400  1
  O  O57  1  0.72289700  0.03409800  0.34712600  1
  O  O58  1  0.77710300  0.03409800  0.84712600  1
  O  O59  1  0.22289700  0.96590200  0.15287400  1
  O  O60  1  0.14315200  0.47726900  0.95798100  1
  O  O61  1  0.85684800  0.52273100  0.04201900  1
  O  O62  1  0.64315200  0.52273100  0.54201900  1
  O  O63  1  0.35684800  0.47726900  0.45798100  1
  O  O64  1  0.27390500  0.08809300  0.92631400  1
  O  O65  1  0.72609500  0.91190700  0.07368600  1
  O  O66  1  0.77390500  0.91190700  0.57368600  1
  O  O67  1  0.22609500  0.08809300  0.42631400  1
  O  O68  1  0.39564400  0.48147300  0.91288600  1
  O  O69  1  0.60435600  0.51852700  0.08711400  1
  O  O70  1  0.89564400  0.51852700  0.58711400  1
  O  O71  1  0.10435600  0.48147300  0.41288600  1
  O  O72  1  0.08354100  0.86715900  0.97403700  1
  O  O73  1  0.91645900  0.13284100  0.02596300  1
  O  O74  1  0.58354100  0.13284100  0.52596300  1
  O  O75  1  0.41645900  0.86715900  0.47403700  1
  O  O76  1  0.13861200  0.47158500  0.73371800  1
  O  O77  1  0.86138800  0.52841500  0.26628200  1
  O  O78  1  0.63861200  0.52841500  0.76628200  1
  O  O79  1  0.36138800  0.47158500  0.23371800  1
