# generated using pymatgen
data_La4TiO8
_symmetry_space_group_name_H-M   'P 1'
_cell_length_a   13.46450500
_cell_length_b   13.46450500
_cell_length_c   7.73734100
_cell_angle_alpha   90.00000000
_cell_angle_beta   90.00000000
_cell_angle_gamma   90.00000000
_symmetry_Int_Tables_number   1
_chemical_formula_structural   La4TiO8
_chemical_formula_sum   'La24 Ti6 O48'
_cell_volume   1402.72494868
_cell_formula_units_Z   6
loop_
 _symmetry_equiv_pos_site_id
 _symmetry_equiv_pos_as_xyz
  1  'x, y, z'
loop_
 _atom_site_type_symbol
 _atom_site_label
 _atom_site_symmetry_multiplicity
 _atom_site_fract_x
 _atom_site_fract_y
 _atom_site_fract_z
 _atom_site_occupancy
  La  La0  1  0.25850000  0.75850000  0.00000000  1
  La  La1  1  0.74150000  0.24150000  0.00000000  1
  La  La2  1  0.75850000  0.74150000  0.00000000  1
  La  La3  1  0.24150000  0.25850000  0.00000000  1
  La  La4  1  0.19853500  0.02089600  0.27397700  1
  La  La5  1  0.80146500  0.97910400  0.72602300  1
  La  La6  1  0.80146500  0.97910400  0.27397700  1
  La  La7  1  0.02089600  0.80146500  0.27397700  1
  La  La8  1  0.69853500  0.47910400  0.72602300  1
  La  La9  1  0.19853500  0.02089600  0.72602300  1
  La  La10  1  0.97910400  0.19853500  0.72602300  1
  La  La11  1  0.30146500  0.52089600  0.27397700  1
  La  La12  1  0.97910400  0.19853500  0.27397700  1
  La  La13  1  0.30146500  0.52089600  0.72602300  1
  La  La14  1  0.02089600  0.80146500  0.72602300  1
  La  La15  1  0.69853500  0.47910400  0.27397700  1
  La  La16  1  0.52089600  0.69853500  0.72602300  1
  La  La17  1  0.47910400  0.30146500  0.27397700  1
  La  La18  1  0.47910400  0.30146500  0.72602300  1
  La  La19  1  0.52089600  0.69853500  0.27397700  1
  La  La20  1  0.72336900  0.22336900  0.50000000  1
  La  La21  1  0.27663100  0.77663100  0.50000000  1
  La  La22  1  0.22336900  0.27663100  0.50000000  1
  La  La23  1  0.77663100  0.72336900  0.50000000  1
  Ti  Ti24  1  0.00000000  0.00000000  0.00000000  1
  Ti  Ti25  1  0.50000000  0.50000000  0.00000000  1
  Ti  Ti26  1  0.56975800  0.06975800  0.00000000  1
  Ti  Ti27  1  0.43024200  0.93024200  0.00000000  1
  Ti  Ti28  1  0.06975800  0.43024200  0.00000000  1
  Ti  Ti29  1  0.93024200  0.56975800  0.00000000  1
  O  O30  1  0.12390600  0.09457600  0.00000000  1
  O  O31  1  0.87609400  0.90542400  0.00000000  1
  O  O32  1  0.09457600  0.87609400  0.00000000  1
  O  O33  1  0.62390600  0.40542400  0.00000000  1
  O  O34  1  0.90542400  0.12390600  0.00000000  1
  O  O35  1  0.37609400  0.59457600  0.00000000  1
  O  O36  1  0.59457600  0.62390600  0.00000000  1
  O  O37  1  0.40542400  0.37609400  0.00000000  1
  O  O38  1  0.00000000  0.00000000  0.24562900  1
  O  O39  1  0.00000000  0.00000000  0.75437100  1
  O  O40  1  0.50000000  0.50000000  0.75437100  1
  O  O41  1  0.50000000  0.50000000  0.24562900  1
  O  O42  1  0.50000000  0.00000000  0.16572700  1
  O  O43  1  0.50000000  0.00000000  0.83427300  1
  O  O44  1  0.00000000  0.50000000  0.16572700  1
  O  O45  1  0.00000000  0.50000000  0.83427300  1
  O  O46  1  0.20392700  0.70392700  0.25154400  1
  O  O47  1  0.79607300  0.29607300  0.74845600  1
  O  O48  1  0.79607300  0.29607300  0.25154400  1
  O  O49  1  0.70392700  0.79607300  0.25154400  1
  O  O50  1  0.70392700  0.79607300  0.74845600  1
  O  O51  1  0.20392700  0.70392700  0.74845600  1
  O  O52  1  0.29607300  0.20392700  0.74845600  1
  O  O53  1  0.29607300  0.20392700  0.25154400  1
  O  O54  1  0.14062400  0.11199700  0.50000000  1
  O  O55  1  0.85937600  0.88800300  0.50000000  1
  O  O56  1  0.11199700  0.85937600  0.50000000  1
  O  O57  1  0.64062400  0.38800300  0.50000000  1
  O  O58  1  0.88800300  0.14062400  0.50000000  1
  O  O59  1  0.35937600  0.61199700  0.50000000  1
  O  O60  1  0.61199700  0.64062400  0.50000000  1
  O  O61  1  0.38800300  0.35937600  0.50000000  1
  O  O62  1  0.04457800  0.28502100  0.50000000  1
  O  O63  1  0.95542200  0.71497900  0.50000000  1
  O  O64  1  0.28502100  0.95542200  0.50000000  1
  O  O65  1  0.54457800  0.21497900  0.50000000  1
  O  O66  1  0.71497900  0.04457800  0.50000000  1
  O  O67  1  0.45542200  0.78502100  0.50000000  1
  O  O68  1  0.78502100  0.54457800  0.50000000  1
  O  O69  1  0.21497900  0.45542200  0.50000000  1
  O  O70  1  0.29636700  0.94448000  0.00000000  1
  O  O71  1  0.70363300  0.05552000  0.00000000  1
  O  O72  1  0.94448000  0.70363300  0.00000000  1
  O  O73  1  0.79636700  0.55552000  0.00000000  1
  O  O74  1  0.05552000  0.29636700  0.00000000  1
  O  O75  1  0.20363300  0.44448000  0.00000000  1
  O  O76  1  0.44448000  0.79636700  0.00000000  1
  O  O77  1  0.55552000  0.20363300  0.00000000  1
