# generated using pymatgen
data_H6C2SN3O2
_symmetry_space_group_name_H-M   'P 1'
_cell_length_a   10.67526648
_cell_length_b   10.67526648
_cell_length_c   9.32592141
_cell_angle_alpha   66.92905090
_cell_angle_beta   66.92905090
_cell_angle_gamma   39.60915495
_symmetry_Int_Tables_number   1
_chemical_formula_structural   H6C2SN3O2
_chemical_formula_sum   'H24 C8 S4 N12 O8'
_cell_volume   616.01175946
_cell_formula_units_Z   4
loop_
 _symmetry_equiv_pos_site_id
 _symmetry_equiv_pos_as_xyz
  1  'x, y, z'
loop_
 _atom_site_type_symbol
 _atom_site_label
 _atom_site_symmetry_multiplicity
 _atom_site_fract_x
 _atom_site_fract_y
 _atom_site_fract_z
 _atom_site_occupancy
  H  H0  1  0.32700600  0.97573600  0.04001900  1
  H  H1  1  0.67299400  0.02426400  0.95998100  1
  H  H2  1  0.02426400  0.67299400  0.45998100  1
  H  H3  1  0.97573600  0.32700600  0.54001900  1
  H  H4  1  0.72069600  0.74714100  0.52233600  1
  H  H5  1  0.27930400  0.25285900  0.47766400  1
  H  H6  1  0.25285900  0.27930400  0.97766400  1
  H  H7  1  0.74714100  0.72069600  0.02233600  1
  H  H8  1  0.66807900  0.79877900  0.18434300  1
  H  H9  1  0.33192100  0.20122100  0.81565700  1
  H  H10  1  0.20122100  0.33192100  0.31565700  1
  H  H11  1  0.79877900  0.66807900  0.68434300  1
  H  H12  1  0.43011900  0.99211300  0.39256800  1
  H  H13  1  0.56988100  0.00788700  0.60743200  1
  H  H14  1  0.00788700  0.56988100  0.10743200  1
  H  H15  1  0.99211300  0.43011900  0.89256800  1
  H  H16  1  0.31042300  0.83422900  0.21442400  1
  H  H17  1  0.68957700  0.16577100  0.78557600  1
  H  H18  1  0.16577100  0.68957700  0.28557600  1
  H  H19  1  0.83422900  0.31042300  0.71442400  1
  H  H20  1  0.47948400  0.80240500  0.44154000  1
  H  H21  1  0.52051600  0.19759500  0.55846000  1
  H  H22  1  0.19759500  0.52051600  0.05846000  1
  H  H23  1  0.80240500  0.47948400  0.94154000  1
  C  C24  1  0.29873900  0.82057700  0.00899100  1
  C  C25  1  0.70126100  0.17942300  0.99100900  1
  C  C26  1  0.17942300  0.70126100  0.49100900  1
  C  C27  1  0.82057700  0.29873900  0.50899100  1
  C  C28  1  0.73886900  0.24476200  0.18207800  1
  C  C29  1  0.26113100  0.75523800  0.81792200  1
  C  C30  1  0.75523800  0.26113100  0.31792200  1
  C  C31  1  0.24476200  0.73886900  0.68207800  1
  S  S32  1  0.67363400  0.13237600  0.19730600  1
  S  S33  1  0.32636600  0.86762400  0.80269400  1
  S  S34  1  0.86762400  0.32636600  0.30269400  1
  S  S35  1  0.13237600  0.67363400  0.69730600  1
  N  N36  1  0.33552700  0.86508600  0.09181600  1
  N  N37  1  0.66447300  0.13491400  0.90818400  1
  N  N38  1  0.13491400  0.66447300  0.40818400  1
  N  N39  1  0.86508600  0.33552700  0.59181600  1
  N  N40  1  0.69187900  0.22520200  0.46451200  1
  N  N41  1  0.30812100  0.77479800  0.53548800  1
  N  N42  1  0.77479800  0.30812100  0.03548800  1
  N  N43  1  0.22520200  0.69187900  0.96451200  1
  N  N44  1  0.24398900  0.72944000  0.07286100  1
  N  N45  1  0.75601100  0.27056000  0.92713900  1
  N  N46  1  0.27056000  0.75601100  0.42713900  1
  N  N47  1  0.72944000  0.24398900  0.57286100  1
  O  O48  1  0.54399600  0.84658800  0.38737800  1
  O  O49  1  0.45600400  0.15341200  0.61262200  1
  O  O50  1  0.15341200  0.45600400  0.11262200  1
  O  O51  1  0.84658800  0.54399600  0.88737800  1
  O  O52  1  0.75259500  0.77722300  0.07891900  1
  O  O53  1  0.24740500  0.22277700  0.92108100  1
  O  O54  1  0.22277700  0.24740500  0.42108100  1
  O  O55  1  0.77722300  0.75259500  0.57891900  1
