# generated using pymatgen
data_H16PdC4S4(N5O3)2
_symmetry_space_group_name_H-M   'P 1'
_cell_length_a   5.93064900
_cell_length_b   7.31299400
_cell_length_c   11.66875551
_cell_angle_alpha   99.33585648
_cell_angle_beta   101.63929579
_cell_angle_gamma   102.16969416
_symmetry_Int_Tables_number   1
_chemical_formula_structural   H16PdC4S4(N5O3)2
_chemical_formula_sum   'H16 Pd1 C4 S4 N10 O6'
_cell_volume   473.32793594
_cell_formula_units_Z   1
loop_
 _symmetry_equiv_pos_site_id
 _symmetry_equiv_pos_as_xyz
  1  'x, y, z'
loop_
 _atom_site_type_symbol
 _atom_site_label
 _atom_site_symmetry_multiplicity
 _atom_site_fract_x
 _atom_site_fract_y
 _atom_site_fract_z
 _atom_site_occupancy
  H  H0  1  0.48786300  0.22483600  0.18286400  1
  H  H1  1  0.51213700  0.77516400  0.81713600  1
  H  H2  1  0.05097500  0.34612600  0.87060600  1
  H  H3  1  0.94902500  0.65387400  0.12939400  1
  H  H4  1  0.58479500  0.20176900  0.33258100  1
  H  H5  1  0.41520500  0.79823100  0.66741900  1
  H  H6  1  0.14900900  0.40702700  0.58676100  1
  H  H7  1  0.85099100  0.59297300  0.41323900  1
  H  H8  1  0.08236600  0.18991900  0.10916200  1
  H  H9  1  0.91763400  0.81008100  0.89083800  1
  H  H10  1  0.28538400  0.40296900  0.73262900  1
  H  H11  1  0.71461600  0.59703100  0.26737100  1
  H  H12  1  0.26069100  0.70019300  0.18088400  1
  H  H13  1  0.73930900  0.29980700  0.81911600  1
  H  H14  1  0.87899600  0.09645200  0.18862400  1
  H  H15  1  0.12100400  0.90354800  0.81137600  1
  Pd  Pd16  1  0.50000000  0.00000000  0.50000000  1
  C  C17  1  0.07584500  0.63947800  0.30512600  1
  C  C18  1  0.92415500  0.36052200  0.69487400  1
  C  C19  1  0.22943800  0.14778000  0.27418200  1
  C  C20  1  0.77056200  0.85222000  0.72581800  1
  S  S21  1  0.16761900  0.09401700  0.40488000  1
  S  S22  1  0.83238100  0.90598300  0.59512000  1
  S  S23  1  0.33225600  0.66722900  0.41953300  1
  S  S24  1  0.66774400  0.33277100  0.58046700  1
  N  N25  1  0.54717600  0.74135200  0.03273000  1
  N  N26  1  0.45282400  0.25864800  0.96727000  1
  N  N27  1  0.45054800  0.19423000  0.26100700  1
  N  N28  1  0.54945200  0.80577000  0.73899300  1
  N  N29  1  0.13818000  0.41256900  0.67310400  1
  N  N30  1  0.86182000  0.58743100  0.32689600  1
  N  N31  1  0.04868700  0.14662200  0.18435500  1
  N  N32  1  0.95131300  0.85337800  0.81564500  1
  N  N33  1  0.09491700  0.65944800  0.19634500  1
  N  N34  1  0.90508300  0.34055200  0.80365500  1
  O  O35  1  0.56324300  0.76981300  0.14485000  1
  O  O36  1  0.43675700  0.23018700  0.85515000  1
  O  O37  1  0.28518800  0.30922700  0.00750800  1
  O  O38  1  0.71481200  0.69077300  0.99249200  1
  O  O39  1  0.63137700  0.23753200  0.03855700  1
  O  O40  1  0.36862300  0.76246800  0.96144300  1
