# generated using pymatgen
data_H6C2SN4
_symmetry_space_group_name_H-M   'P 1'
_cell_length_a   5.55036900
_cell_length_b   7.38449327
_cell_length_c   14.97522629
_cell_angle_alpha   95.40217626
_cell_angle_beta   90.00000000
_cell_angle_gamma   112.07453186
_symmetry_Int_Tables_number   1
_chemical_formula_structural   H6C2SN4
_chemical_formula_sum   'H24 C8 S4 N16'
_cell_volume   565.84862228
_cell_formula_units_Z   4
loop_
 _symmetry_equiv_pos_site_id
 _symmetry_equiv_pos_as_xyz
  1  'x, y, z'
loop_
 _atom_site_type_symbol
 _atom_site_label
 _atom_site_symmetry_multiplicity
 _atom_site_fract_x
 _atom_site_fract_y
 _atom_site_fract_z
 _atom_site_occupancy
  H  H0  1  0.55453700  0.12086900  0.86965800  1
  H  H1  1  0.44546300  0.87913100  0.13034200  1
  H  H2  1  0.43366800  0.87913100  0.63034200  1
  H  H3  1  0.56633200  0.12086900  0.36965800  1
  H  H4  1  0.75954100  0.90023000  0.48071300  1
  H  H5  1  0.24045900  0.09977000  0.51928700  1
  H  H6  1  0.85931100  0.09977000  0.01928700  1
  H  H7  1  0.14068900  0.90023000  0.98071300  1
  H  H8  1  0.38793000  0.59953800  0.84053500  1
  H  H9  1  0.61207000  0.40046200  0.15946500  1
  H  H10  1  0.78839200  0.40046200  0.65946500  1
  H  H11  1  0.21160800  0.59953800  0.34053500  1
  H  H12  1  0.55916500  0.66652100  0.50846300  1
  H  H13  1  0.44083500  0.33347900  0.49153700  1
  H  H14  1  0.89264300  0.33347900  0.99153700  1
  H  H15  1  0.10735700  0.66652100  0.00846300  1
  H  H16  1  0.23608400  0.08597100  0.83729900  1
  H  H17  1  0.76391600  0.91402900  0.16270100  1
  H  H18  1  0.15011300  0.91402900  0.66270100  1
  H  H19  1  0.84988700  0.08597100  0.33729900  1
  H  H20  1  0.79574700  0.63324500  0.70224400  1
  H  H21  1  0.20425300  0.36675500  0.29775600  1
  H  H22  1  0.16250100  0.36675500  0.79775600  1
  H  H23  1  0.83749900  0.63324500  0.20224400  1
  C  C24  1  0.49222800  0.37523100  0.86420600  1
  C  C25  1  0.50777200  0.62476900  0.13579400  1
  C  C26  1  0.11699700  0.62476900  0.63579400  1
  C  C27  1  0.88300300  0.37523100  0.36420600  1
  C  C28  1  0.83016700  0.67697000  0.41035000  1
  C  C29  1  0.16983300  0.32303000  0.58965000  1
  C  C30  1  0.15319800  0.32303000  0.08965000  1
  C  C31  1  0.84680200  0.67697000  0.91035000  1
  S  S32  1  0.78201200  0.84321800  0.84911000  1
  S  S33  1  0.21798800  0.15678200  0.15089000  1
  S  S34  1  0.93879400  0.15678200  0.65089000  1
  S  S35  1  0.06120600  0.84321800  0.34911000  1
  N  N36  1  0.72662800  0.48014600  0.90484400  1
  N  N37  1  0.27337200  0.51985400  0.09515600  1
  N  N38  1  0.24648200  0.51985400  0.59515600  1
  N  N39  1  0.75351800  0.48014600  0.40484400  1
  N  N40  1  0.42492700  0.17878600  0.85123800  1
  N  N41  1  0.57507300  0.82121400  0.14876200  1
  N  N42  1  0.24614100  0.82121400  0.64876200  1
  N  N43  1  0.75385900  0.17878600  0.35123800  1
  N  N44  1  0.69832400  0.75239800  0.46858200  1
  N  N45  1  0.30167600  0.24760200  0.53141800  1
  N  N46  1  0.94592600  0.24760200  0.03141800  1
  N  N47  1  0.05407400  0.75239800  0.96858200  1
  N  N48  1  0.31788100  0.44956500  0.83988900  1
  N  N49  1  0.68211900  0.55043500  0.16011100  1
  N  N50  1  0.86831600  0.55043500  0.66011100  1
  N  N51  1  0.13168400  0.44956500  0.33988900  1
