# generated using pymatgen
data_H5ClO4
_symmetry_space_group_name_H-M   'P 1'
_cell_length_a   7.07725200
_cell_length_b   7.43108600
_cell_length_c   10.31197000
_cell_angle_alpha   90.00000000
_cell_angle_beta   90.00000000
_cell_angle_gamma   90.00000000
_symmetry_Int_Tables_number   1
_chemical_formula_structural   H5ClO4
_chemical_formula_sum   'H20 Cl4 O16'
_cell_volume   542.32370530
_cell_formula_units_Z   4
loop_
 _symmetry_equiv_pos_site_id
 _symmetry_equiv_pos_as_xyz
  1  'x, y, z'
loop_
 _atom_site_type_symbol
 _atom_site_label
 _atom_site_symmetry_multiplicity
 _atom_site_fract_x
 _atom_site_fract_y
 _atom_site_fract_z
 _atom_site_occupancy
  H  H0  1  0.60084000  0.33782600  0.14225400  1
  H  H1  1  0.10084000  0.66217400  0.85774600  1
  H  H2  1  0.60084000  0.16217400  0.64225400  1
  H  H3  1  0.10084000  0.83782600  0.35774600  1
  H  H4  1  0.56135600  0.80384100  0.44928800  1
  H  H5  1  0.06135600  0.19615900  0.55071200  1
  H  H6  1  0.56135600  0.69615900  0.94928800  1
  H  H7  1  0.06135600  0.30384100  0.05071200  1
  H  H8  1  0.60279500  0.35778600  0.21335700  1
  H  H9  1  0.10279500  0.64221400  0.78664300  1
  H  H10  1  0.60279500  0.14221400  0.71335700  1
  H  H11  1  0.10279500  0.85778600  0.28664300  1
  H  H12  1  0.90171200  0.32114100  0.18987600  1
  H  H13  1  0.40171200  0.67885900  0.81012400  1
  H  H14  1  0.90171200  0.17885900  0.68987600  1
  H  H15  1  0.40171200  0.82114100  0.31012400  1
  H  H16  1  0.99406400  0.35023600  0.21967900  1
  H  H17  1  0.49406400  0.64976400  0.78032100  1
  H  H18  1  0.99406400  0.14976400  0.71967900  1
  H  H19  1  0.49406400  0.85023600  0.28032100  1
  Cl  Cl20  1  0.79083100  0.82986000  0.04795400  1
  Cl  Cl21  1  0.29083100  0.17014000  0.95204600  1
  Cl  Cl22  1  0.79083100  0.67014000  0.54795400  1
  Cl  Cl23  1  0.29083100  0.32986000  0.45204600  1
  O  O24  1  0.59428100  0.70642700  0.04273500  1
  O  O25  1  0.09428100  0.29357300  0.95726500  1
  O  O26  1  0.59428100  0.79357300  0.54273500  1
  O  O27  1  0.09428100  0.20642700  0.45726500  1
  O  O28  1  0.79838300  0.58078100  0.42493300  1
  O  O29  1  0.29838300  0.41921900  0.57506700  1
  O  O30  1  0.79838300  0.91921900  0.92493300  1
  O  O31  1  0.29838300  0.08078100  0.07506700  1
  O  O32  1  0.93971100  0.70382600  0.06985000  1
  O  O33  1  0.43971100  0.29617400  0.93015000  1
  O  O34  1  0.93971100  0.79617400  0.56985000  1
  O  O35  1  0.43971100  0.20382600  0.43015000  1
  O  O36  1  0.75732700  0.94602200  0.15609000  1
  O  O37  1  0.25732700  0.05397800  0.84391000  1
  O  O38  1  0.75732700  0.55397800  0.65609000  1
  O  O39  1  0.25732700  0.44602200  0.34391000  1
