# generated using pymatgen
data_GaS2NO8
_symmetry_space_group_name_H-M   'P 1'
_cell_length_a   4.87612378
_cell_length_b   4.87612378
_cell_length_c   8.53414800
_cell_angle_alpha   90.00000000
_cell_angle_beta   90.00000000
_cell_angle_gamma   119.99999699
_symmetry_Int_Tables_number   1
_chemical_formula_structural   GaS2NO8
_chemical_formula_sum   'Ga1 S2 N1 O8'
_cell_volume   175.72771340
_cell_formula_units_Z   1
loop_
 _symmetry_equiv_pos_site_id
 _symmetry_equiv_pos_as_xyz
  1  'x, y, z'
loop_
 _atom_site_type_symbol
 _atom_site_label
 _atom_site_symmetry_multiplicity
 _atom_site_fract_x
 _atom_site_fract_y
 _atom_site_fract_z
 _atom_site_occupancy
  Ga  Ga0  1  0.00000000  0.00000000  0.00000000  1
  S  S1  1  0.33333300  0.66666700  0.20510800  1
  S  S2  1  0.66666700  0.33333300  0.79489200  1
  N  N3  1  0.00000000  0.00000000  0.50000000  1
  O  O4  1  0.08203200  0.35226100  0.14457400  1
  O  O5  1  0.64773900  0.72977100  0.14457400  1
  O  O6  1  0.35226100  0.08203200  0.85542600  1
  O  O7  1  0.27022900  0.91796800  0.14457400  1
  O  O8  1  0.72977100  0.64773900  0.85542600  1
  O  O9  1  0.91796800  0.27022900  0.85542600  1
  O  O10  1  0.33333300  0.66666700  0.37519200  1
  O  O11  1  0.66666700  0.33333300  0.62480800  1
