# generated using pymatgen
data_K3FeH3(CO2)6
_symmetry_space_group_name_H-M   'P 1'
_cell_length_a   20.97480700
_cell_length_b   7.46426300
_cell_length_c   10.81588821
_cell_angle_alpha   74.08715625
_cell_angle_beta   90.00000000
_cell_angle_gamma   90.00000000
_symmetry_Int_Tables_number   1
_chemical_formula_structural   K3FeH3(CO2)6
_chemical_formula_sum   'K12 Fe4 H12 C24 O48'
_cell_volume   1628.46197897
_cell_formula_units_Z   4
loop_
 _symmetry_equiv_pos_site_id
 _symmetry_equiv_pos_as_xyz
  1  'x, y, z'
loop_
 _atom_site_type_symbol
 _atom_site_label
 _atom_site_symmetry_multiplicity
 _atom_site_fract_x
 _atom_site_fract_y
 _atom_site_fract_z
 _atom_site_occupancy
  K  K0  1  0.08886200  0.46613500  0.82361100  1
  K  K1  1  0.91113800  0.53386500  0.17638900  1
  K  K2  1  0.58886200  0.53386500  0.67638900  1
  K  K3  1  0.41113800  0.46613500  0.32361100  1
  K  K4  1  0.59020300  0.98028100  0.82509500  1
  K  K5  1  0.40979700  0.01971900  0.17490500  1
  K  K6  1  0.09020300  0.01971900  0.67490500  1
  K  K7  1  0.90979700  0.98028100  0.32509500  1
  K  K8  1  0.92035500  0.75402500  0.74782600  1
  K  K9  1  0.07964500  0.24597500  0.25217400  1
  K  K10  1  0.42035500  0.24597500  0.75217400  1
  K  K11  1  0.57964500  0.75402500  0.24782600  1
  Fe  Fe12  1  0.36842300  0.74992000  0.75108500  1
  Fe  Fe13  1  0.63157700  0.25008000  0.24891500  1
  Fe  Fe14  1  0.86842300  0.25008000  0.74891500  1
  Fe  Fe15  1  0.13157700  0.74992000  0.25108500  1
  H  H16  1  0.00163400  0.24247200  0.75688500  1
  H  H17  1  0.99836600  0.75752800  0.24311500  1
  H  H18  1  0.50163400  0.75752800  0.74311500  1
  H  H19  1  0.49836600  0.24247200  0.25688500  1
  H  H20  1  0.31912200  0.42970000  0.54087000  1
  H  H21  1  0.68087800  0.57030000  0.45913000  1
  H  H22  1  0.81912200  0.57030000  0.95913000  1
  H  H23  1  0.18087800  0.42970000  0.04087000  1
  H  H24  1  0.81295500  0.89882600  0.54601600  1
  H  H25  1  0.18704500  0.10117400  0.45398400  1
  H  H26  1  0.31295500  0.10117400  0.95398400  1
  H  H27  1  0.68704500  0.89882600  0.04601600  1
  C  C28  1  0.24143500  0.84753400  0.79490200  1
  C  C29  1  0.75856500  0.15246600  0.20509800  1
  C  C30  1  0.74143500  0.15246600  0.70509800  1
  C  C31  1  0.25856500  0.84753400  0.29490200  1
  C  C32  1  0.44141000  0.72957700  0.98306600  1
  C  C33  1  0.55859000  0.27042300  0.01693400  1
  C  C34  1  0.94141000  0.27042300  0.51693400  1
  C  C35  1  0.05859000  0.72957700  0.48306600  1
  C  C36  1  0.41546500  0.52982000  0.99207700  1
  C  C37  1  0.58453500  0.47018000  0.00792300  1
  C  C38  1  0.91546500  0.47018000  0.50792300  1
  C  C39  1  0.08453500  0.52982000  0.49207700  1
  C  C40  1  0.23608100  0.70314300  0.71461700  1
  C  C41  1  0.76391900  0.29685700  0.28538300  1
  C  C42  1  0.73608100  0.29685700  0.78538300  1
  C  C43  1  0.26391900  0.70314300  0.21461700  1
  C  C44  1  0.43595800  0.76446100  0.51417700  1
  C  C45  1  0.56404200  0.23553900  0.48582300  1
  C  C46  1  0.93595800  0.23553900  0.98582300  1
  C  C47  1  0.06404200  0.76446100  0.01417700  1
  C  C48  1  0.41445600  0.96695000  0.50774800  1
  C  C49  1  0.58554400  0.03305000  0.49225200  1
  C  C50  1  0.91445600  0.03305000  0.99225200  1
  C  C51  1  0.08554400  0.96695000  0.00774800  1
  O  O52  1  0.07722700  0.40085700  0.59179500  1
  O  O53  1  0.92277300  0.59914300  0.40820500  1
  O  O54  1  0.57722700  0.59914300  0.90820500  1
  O  O55  1  0.42277300  0.40085700  0.09179500  1
  O  O56  1  0.92374400  0.90381800  0.09104500  1
  O  O57  1  0.07625600  0.09618200  0.90895500  1
  O  O58  1  0.42374400  0.09618200  0.40895500  1
  O  O59  1  0.57625600  0.90381800  0.59104500  1
  O  O60  1  0.42180700  0.64231000  0.62099600  1
  O  O61  1  0.57819300  0.35769000  0.37900400  1
  O  O62  1  0.92180700  0.35769000  0.87900400  1
  O  O63  1  0.07819300  0.64231000  0.12099600  1
  O  O64  1  0.38814100  0.98593000  0.61171400  1
  O  O65  1  0.61185900  0.01407000  0.38828600  1
  O  O66  1  0.88814100  0.01407000  0.88828600  1
  O  O67  1  0.11185900  0.98593000  0.11171400  1
  O  O68  1  0.19303600  0.92178600  0.82385200  1
  O  O69  1  0.80696400  0.07821400  0.17614800  1
  O  O70  1  0.69303600  0.07821400  0.67614800  1
  O  O71  1  0.30696400  0.92178600  0.32385200  1
  O  O72  1  0.38779300  0.51306400  0.88863500  1
  O  O73  1  0.61220700  0.48693600  0.11136500  1
  O  O74  1  0.88779300  0.48693600  0.61136500  1
  O  O75  1  0.11220700  0.51306400  0.38863500  1
  O  O76  1  0.42906800  0.85105700  0.87496400  1
  O  O77  1  0.57093200  0.14894300  0.12503600  1
  O  O78  1  0.92906800  0.14894300  0.62503600  1
  O  O79  1  0.07093200  0.85105700  0.37496400  1
  O  O80  1  0.03543600  0.73234600  0.92117100  1
  O  O81  1  0.96456400  0.26765400  0.07882900  1
  O  O82  1  0.53543600  0.26765400  0.57882900  1
  O  O83  1  0.46456400  0.73234600  0.42117100  1
  O  O84  1  0.02867200  0.76004000  0.57509200  1
  O  O85  1  0.97132800  0.23996000  0.42490800  1
  O  O86  1  0.52867200  0.23996000  0.92490800  1
  O  O87  1  0.47132800  0.76004000  0.07509200  1
  O  O88  1  0.18283500  0.65632000  0.68420400  1
  O  O89  1  0.81716500  0.34368000  0.31579600  1
  O  O90  1  0.68283500  0.34368000  0.81579600  1
  O  O91  1  0.31716500  0.65632000  0.18420400  1
  O  O92  1  0.29961100  0.87823600  0.82496900  1
  O  O93  1  0.70038900  0.12176400  0.17503100  1
  O  O94  1  0.79961100  0.12176400  0.67503100  1
  O  O95  1  0.20038900  0.87823600  0.32496900  1
  O  O96  1  0.29066200  0.64303900  0.68616000  1
  O  O97  1  0.70933800  0.35696100  0.31384000  1
  O  O98  1  0.79066200  0.35696100  0.81384000  1
  O  O99  1  0.20933800  0.64303900  0.18616000  1
