# generated using pymatgen
data_Na8Te4W7O36
_symmetry_space_group_name_H-M   'P 1'
_cell_length_a   17.58959534
_cell_length_b   17.58959534
_cell_length_c   13.38472752
_cell_angle_alpha   68.20278178
_cell_angle_beta   68.20278178
_cell_angle_gamma   24.39315711
_symmetry_Int_Tables_number   1
_chemical_formula_structural   Na8Te4W7O36
_chemical_formula_sum   'Na16 Te8 W14 O72'
_cell_volume   1582.05601480
_cell_formula_units_Z   2
loop_
 _symmetry_equiv_pos_site_id
 _symmetry_equiv_pos_as_xyz
  1  'x, y, z'
loop_
 _atom_site_type_symbol
 _atom_site_label
 _atom_site_symmetry_multiplicity
 _atom_site_fract_x
 _atom_site_fract_y
 _atom_site_fract_z
 _atom_site_occupancy
  Na  Na0  1  0.57363900  0.61783700  0.79447100  1
  Na  Na1  1  0.61783700  0.57363900  0.29447100  1
  Na  Na2  1  0.01830300  0.98423600  0.68269100  1
  Na  Na3  1  0.98423600  0.01830300  0.18269100  1
  Na  Na4  1  0.35400400  0.84696400  0.54862900  1
  Na  Na5  1  0.84696400  0.35400400  0.04862900  1
  Na  Na6  1  0.27049900  0.32865700  0.63921500  1
  Na  Na7  1  0.32865700  0.27049900  0.13921500  1
  Na  Na8  1  0.78073600  0.80233600  0.65185400  1
  Na  Na9  1  0.80233600  0.78073600  0.15185400  1
  Na  Na10  1  0.91896300  0.87945100  0.89975600  1
  Na  Na11  1  0.87945100  0.91896300  0.39975600  1
  Na  Na12  1  0.03810400  0.55081500  0.39351600  1
  Na  Na13  1  0.55081500  0.03810400  0.89351600  1
  Na  Na14  1  0.68565700  0.70899500  0.90484300  1
  Na  Na15  1  0.70899500  0.68565700  0.40484300  1
  Te  Te16  1  0.53717800  0.49849100  0.66858400  1
  Te  Te17  1  0.49849100  0.53717800  0.16858400  1
  Te  Te18  1  0.38346600  0.38445200  0.40639900  1
  Te  Te19  1  0.38445200  0.38346600  0.90639900  1
  Te  Te20  1  0.20135600  0.20795400  0.89105300  1
  Te  Te21  1  0.20795400  0.20135600  0.39105300  1
  Te  Te22  1  0.08445800  0.10598000  0.75554200  1
  Te  Te23  1  0.10598000  0.08445800  0.25554200  1
  W  W24  1  0.01487300  0.57892000  0.88338500  1
  W  W25  1  0.57892000  0.01487300  0.38338500  1
  W  W26  1  0.64446700  0.12598300  0.64930500  1
  W  W27  1  0.12598300  0.64446700  0.14930500  1
  W  W28  1  0.93423100  0.46667800  0.64094300  1
  W  W29  1  0.46667800  0.93423100  0.14094300  1
  W  W30  1  0.43867000  0.95727000  0.63614700  1
  W  W31  1  0.95727000  0.43867000  0.13614700  1
  W  W32  1  0.74557000  0.26864100  0.94012700  1
  W  W33  1  0.26864100  0.74557000  0.44012700  1
  W  W34  1  0.14696800  0.64182800  0.63793900  1
  W  W35  1  0.64182800  0.14696800  0.13793900  1
  W  W36  1  0.23090800  0.77270700  0.95301100  1
  W  W37  1  0.77270700  0.23090800  0.45301100  1
  O  O38  1  0.46624300  0.77956300  0.96243800  1
  O  O39  1  0.77956300  0.46624300  0.46243800  1
  O  O40  1  0.52043100  0.89877200  0.74990700  1
  O  O41  1  0.89877200  0.52043100  0.24990700  1
  O  O42  1  0.95421200  0.32084600  0.68267500  1
  O  O43  1  0.32084600  0.95421200  0.18267500  1
  O  O44  1  0.19085400  0.58327900  0.99220400  1
  O  O45  1  0.58327900  0.19085400  0.49220400  1
  O  O46  1  0.79275600  0.20725900  0.81695400  1
  O  O47  1  0.20725900  0.79275600  0.31695400  1
  O  O48  1  0.90077300  0.88588500  0.58923300  1
  O  O49  1  0.88588500  0.90077300  0.08923300  1
  O  O50  1  0.25236300  0.64439400  0.52276000  1
  O  O51  1  0.64439400  0.25236300  0.02276000  1
  O  O52  1  0.56431100  0.57984000  0.66162800  1
  O  O53  1  0.57984000  0.56431100  0.16162800  1
  O  O54  1  0.50367300  0.00502600  0.53115900  1
  O  O55  1  0.00502600  0.50367300  0.03115900  1
  O  O56  1  0.39328800  0.38452600  0.67185200  1
  O  O57  1  0.38452600  0.39328800  0.17185200  1
  O  O58  1  0.28551500  0.36905200  0.91666400  1
  O  O59  1  0.36905200  0.28551500  0.41666400  1
  O  O60  1  0.58731100  0.06853400  0.69670600  1
  O  O61  1  0.06853400  0.58731100  0.19670600  1
  O  O62  1  0.90199900  0.75395800  0.93007400  1
  O  O63  1  0.75395800  0.90199900  0.43007400  1
  O  O64  1  0.87071200  0.27134500  0.86533600  1
  O  O65  1  0.27134500  0.87071200  0.36533600  1
  O  O66  1  0.67694900  0.22328300  0.56201600  1
  O  O67  1  0.22328300  0.67694900  0.06201600  1
  O  O68  1  0.00965600  0.40410500  0.47819000  1
  O  O69  1  0.40410500  0.00965600  0.97819000  1
  O  O70  1  0.81604000  0.71621500  0.84919100  1
  O  O71  1  0.71621500  0.81604000  0.34919100  1
  O  O72  1  0.17152500  0.79735400  0.84498200  1
  O  O73  1  0.79735400  0.17152500  0.34498200  1
  O  O74  1  0.18897900  0.54549400  0.51791400  1
  O  O75  1  0.54549400  0.18897900  0.01791400  1
  O  O76  1  0.94170100  0.29835800  0.46689600  1
  O  O77  1  0.29835800  0.94170100  0.96689600  1
  O  O78  1  0.32766900  0.94588900  0.71461600  1
  O  O79  1  0.94588900  0.32766900  0.21461600  1
  O  O80  1  0.33969100  0.70678800  0.57078500  1
  O  O81  1  0.70678800  0.33969100  0.07078500  1
  O  O82  1  0.20179400  0.21430000  0.65631400  1
  O  O83  1  0.21430000  0.20179400  0.15631400  1
  O  O84  1  0.07104900  0.59764800  0.73119600  1
  O  O85  1  0.59764800  0.07104900  0.23119600  1
  O  O86  1  0.67727000  0.69294200  0.60544300  1
  O  O87  1  0.69294200  0.67727000  0.10544300  1
  O  O88  1  0.96060200  0.55380700  0.58873800  1
  O  O89  1  0.55380700  0.96060200  0.08873800  1
  O  O90  1  0.87726600  0.49957400  0.78172600  1
  O  O91  1  0.49957400  0.87726600  0.28172600  1
  O  O92  1  0.73901400  0.31711800  0.56706000  1
  O  O93  1  0.31711800  0.73901400  0.06706000  1
  O  O94  1  0.20194300  0.32399400  0.83928400  1
  O  O95  1  0.32399400  0.20194300  0.33928400  1
  O  O96  1  0.97882300  0.02032200  0.00013700  1
  O  O97  1  0.02032200  0.97882300  0.50013700  1
  O  O98  1  0.70541100  0.07886200  0.77289300  1
  O  O99  1  0.07886200  0.70541100  0.27289300  1
  O  O100  1  0.50219600  0.53243400  0.90689500  1
  O  O101  1  0.53243400  0.50219600  0.40689500  1
  O  O102  1  0.99956600  0.36154200  0.00064700  1
  O  O103  1  0.36154200  0.99956600  0.50064700  1
  O  O104  1  0.23295300  0.89554700  0.86043200  1
  O  O105  1  0.89554700  0.23295300  0.36043200  1
  O  O106  1  0.11222000  0.71550000  0.73990400  1
  O  O107  1  0.71550000  0.11222000  0.23990400  1
  O  O108  1  0.08565400  0.05740700  0.65591500  1
  O  O109  1  0.05740700  0.08565400  0.15591500  1
