# generated using pymatgen
data_H4NF3
_symmetry_space_group_name_H-M   'P 1'
_cell_length_a   9.93191518
_cell_length_b   9.93191518
_cell_length_c   9.93191518
_cell_angle_alpha   135.88580383
_cell_angle_beta   135.88580383
_cell_angle_gamma   64.15693376
_symmetry_Int_Tables_number   1
_chemical_formula_structural   H4NF3
_chemical_formula_sum   'H16 N4 F12'
_cell_volume   468.27119359
_cell_formula_units_Z   4
loop_
 _symmetry_equiv_pos_site_id
 _symmetry_equiv_pos_as_xyz
  1  'x, y, z'
loop_
 _atom_site_type_symbol
 _atom_site_label
 _atom_site_symmetry_multiplicity
 _atom_site_fract_x
 _atom_site_fract_y
 _atom_site_fract_z
 _atom_site_occupancy
  H  H0  1  0.90859100  0.71765100  0.43744100  1
  H  H1  1  0.28021000  0.47115000  0.56255900  1
  H  H2  1  0.46765100  0.53021000  0.30906000  1
  H  H3  1  0.84140900  0.53234900  0.06255900  1
  H  H4  1  0.22115000  0.15859100  0.69094000  1
  H  H5  1  0.46979000  0.77885000  0.93744100  1
  H  H6  1  0.28234900  0.71979000  0.19094000  1
  H  H7  1  0.52885000  0.09140900  0.80906000  1
  H  H8  1  0.26520300  0.20704800  0.29334800  1
  H  H9  1  0.91369900  0.97185500  0.70665200  1
  H  H10  1  0.95704800  0.16369900  0.44184500  1
  H  H11  1  0.48479700  0.04295200  0.20665200  1
  H  H12  1  0.72185500  0.51520300  0.55815500  1
  H  H13  1  0.83630100  0.27814500  0.79334800  1
  H  H14  1  0.79295200  0.08630100  0.05815500  1
  H  H15  1  0.02814500  0.73479700  0.94184500  1
  N  N16  1  0.87500000  0.62500000  0.25000000  1
  N  N17  1  0.37500000  0.62500000  0.75000000  1
  N  N18  1  0.37500000  0.62500000  0.25000000  1
  N  N19  1  0.37500000  0.12500000  0.75000000  1
  F  F20  1  0.17636000  0.29718200  0.35121800  1
  F  F21  1  0.94596300  0.82514100  0.64878200  1
  F  F22  1  0.04718200  0.19596300  0.62082200  1
  F  F23  1  0.57364000  0.95281800  0.14878200  1
  F  F24  1  0.57514100  0.42636000  0.37917800  1
  F  F25  1  0.80403700  0.42485900  0.85121800  1
  F  F26  1  0.70281800  0.05403700  0.87917800  1
  F  F27  1  0.17485900  0.82364000  0.12082200  1
  F  F28  1  0.37500000  0.12500000  0.25000000  1
  F  F29  1  0.87500000  0.12500000  0.75000000  1
  F  F30  1  0.87500000  0.12500000  0.25000000  1
  F  F31  1  0.87500000  0.62500000  0.75000000  1
