# generated using pymatgen
data_H7C2N9O2
_symmetry_space_group_name_H-M   'P 1'
_cell_length_a   6.51307000
_cell_length_b   8.05973323
_cell_length_c   17.45242345
_cell_angle_alpha   102.77705150
_cell_angle_beta   89.99998965
_cell_angle_gamma   90.00001569
_symmetry_Int_Tables_number   1
_chemical_formula_structural   H7C2N9O2
_chemical_formula_sum   'H28 C8 N36 O8'
_cell_volume   893.45518859
_cell_formula_units_Z   4
loop_
 _symmetry_equiv_pos_site_id
 _symmetry_equiv_pos_as_xyz
  1  'x, y, z'
loop_
 _atom_site_type_symbol
 _atom_site_label
 _atom_site_symmetry_multiplicity
 _atom_site_fract_x
 _atom_site_fract_y
 _atom_site_fract_z
 _atom_site_occupancy
  H  H0  1  0.26325700  0.56482000  0.87874900  1
  H  H1  1  0.73674300  0.43518000  0.12125100  1
  H  H2  1  0.76325800  0.93518000  0.62125100  1
  H  H3  1  0.23674200  0.06482000  0.37874900  1
  H  H4  1  0.53464200  0.20787000  0.94233700  1
  H  H5  1  0.46535800  0.79213000  0.05766300  1
  H  H6  1  0.03464200  0.29213000  0.55766300  1
  H  H7  1  0.96535800  0.70787000  0.44233700  1
  H  H8  1  0.25390800  0.72945700  0.61332400  1
  H  H9  1  0.74609200  0.27054300  0.38667600  1
  H  H10  1  0.75390800  0.77054300  0.88667600  1
  H  H11  1  0.24609200  0.22945700  0.11332400  1
  H  H12  1  0.48068000  0.59235200  0.82027600  1
  H  H13  1  0.51932000  0.40764800  0.17972400  1
  H  H14  1  0.98068000  0.90764800  0.67972400  1
  H  H15  1  0.01932000  0.09235200  0.32027600  1
  H  H16  1  0.23555800  0.64729500  0.51286500  1
  H  H17  1  0.76444200  0.35270500  0.48713500  1
  H  H18  1  0.73555800  0.85270500  0.98713500  1
  H  H19  1  0.26444200  0.14729500  0.01286500  1
  H  H20  1  0.59224900  0.74962400  0.47333900  1
  H  H21  1  0.40775100  0.25037600  0.52666100  1
  H  H22  1  0.09224900  0.75037600  0.02666100  1
  H  H23  1  0.90775100  0.24962400  0.97333900  1
  H  H24  1  0.30750500  0.07385100  0.54550900  1
  H  H25  1  0.69249500  0.92614900  0.45449100  1
  H  H26  1  0.80750500  0.42614900  0.95449100  1
  H  H27  1  0.19249500  0.57385100  0.04550900  1
  C  C28  1  0.49275000  0.70300100  0.93862200  1
  C  C29  1  0.50725000  0.29699900  0.06137800  1
  C  C30  1  0.99275000  0.79699900  0.56137800  1
  C  C31  1  0.00725000  0.20300100  0.43862200  1
  C  C32  1  0.30084700  0.02948200  0.80019000  1
  C  C33  1  0.69915300  0.97051800  0.19981000  1
  C  C34  1  0.80084700  0.47051800  0.69981000  1
  C  C35  1  0.19915300  0.52948200  0.30019000  1
  N  N36  1  0.46207300  0.06332700  0.74920400  1
  N  N37  1  0.53792700  0.93667300  0.25079600  1
  N  N38  1  0.96207300  0.43667300  0.75079500  1
  N  N39  1  0.03792700  0.56332700  0.24920500  1
  N  N40  1  0.40666500  0.61200000  0.87370100  1
  N  N41  1  0.59333500  0.38800000  0.12629900  1
  N  N42  1  0.90666400  0.88800000  0.62629900  1
  N  N43  1  0.09333600  0.11200000  0.37370100  1
  N  N44  1  0.30883100  0.08379400  0.87815600  1
  N  N45  1  0.69116900  0.91620600  0.12184400  1
  N  N46  1  0.80883100  0.41620600  0.62184400  1
  N  N47  1  0.19116900  0.58379400  0.37815600  1
  N  N48  1  0.13073600  0.93971400  0.77566600  1
  N  N49  1  0.86926400  0.06028600  0.22433400  1
  N  N50  1  0.63073700  0.56028600  0.72433300  1
  N  N51  1  0.36926300  0.43971400  0.27566700  1
  N  N52  1  0.13540000  0.02553100  0.90338400  1
  N  N53  1  0.86460000  0.97446900  0.09661600  1
  N  N54  1  0.63539900  0.47447000  0.59661600  1
  N  N55  1  0.36460100  0.52553000  0.40338400  1
  N  N56  1  0.30369800  0.15487900  0.50805200  1
  N  N57  1  0.69630200  0.84512100  0.49194800  1
  N  N58  1  0.80369800  0.34512000  0.99194800  1
  N  N59  1  0.19630200  0.65488000  0.00805200  1
  N  N60  1  0.60766800  0.27424800  0.99219700  1
  N  N61  1  0.39233200  0.72575200  0.00780300  1
  N  N62  1  0.10766700  0.22575200  0.50780300  1
  N  N63  1  0.89233300  0.77424800  0.49219700  1
  N  N64  1  0.18019700  0.72822400  0.56189900  1
  N  N65  1  0.81980300  0.27177600  0.43810100  1
  N  N66  1  0.68019700  0.77177500  0.93810100  1
  N  N67  1  0.31980300  0.22822500  0.06189900  1
  N  N68  1  0.02836700  0.93808700  0.84168400  1
  N  N69  1  0.97163300  0.06191300  0.15831600  1
  N  N70  1  0.52836700  0.56191300  0.65831600  1
  N  N71  1  0.47163300  0.43808700  0.34168400  1
  O  O72  1  0.11605900  0.35933500  0.71961700  1
  O  O73  1  0.88394100  0.64066500  0.28038300  1
  O  O74  1  0.61605800  0.14066400  0.78038300  1
  O  O75  1  0.38394200  0.85933600  0.21961700  1
  O  O76  1  0.43792300  0.01108800  0.67697900  1
  O  O77  1  0.56207700  0.98891200  0.32302100  1
  O  O78  1  0.93792300  0.48891200  0.82302100  1
  O  O79  1  0.06207700  0.51108800  0.17697900  1
