# generated using pymatgen
data_Ho2S3O20
_symmetry_space_group_name_H-M   'P 1'
_cell_length_a   7.49083040
_cell_length_b   7.49083040
_cell_length_c   18.24898777
_cell_angle_alpha   81.65318060
_cell_angle_beta   81.65318060
_cell_angle_gamma   52.23414490
_symmetry_Int_Tables_number   1
_chemical_formula_structural   Ho2S3O20
_chemical_formula_sum   'Ho4 S6 O40'
_cell_volume   798.84107083
_cell_formula_units_Z   2
loop_
 _symmetry_equiv_pos_site_id
 _symmetry_equiv_pos_as_xyz
  1  'x, y, z'
loop_
 _atom_site_type_symbol
 _atom_site_label
 _atom_site_symmetry_multiplicity
 _atom_site_fract_x
 _atom_site_fract_y
 _atom_site_fract_z
 _atom_site_occupancy
  Ho  Ho0  1  0.81311200  0.84922800  0.89408700  1
  Ho  Ho1  1  0.18688800  0.15077200  0.10591300  1
  Ho  Ho2  1  0.15077200  0.18688800  0.60591300  1
  Ho  Ho3  1  0.84922800  0.81311200  0.39408700  1
  S  S4  1  0.75720300  0.81141700  0.58996600  1
  S  S5  1  0.24279700  0.18858300  0.41003400  1
  S  S6  1  0.18858300  0.24279700  0.91003400  1
  S  S7  1  0.81141700  0.75720300  0.08996600  1
  S  S8  1  0.70615700  0.29384300  0.75000000  1
  S  S9  1  0.29384300  0.70615700  0.25000000  1
  O  O10  1  0.34106000  0.27040800  0.68399000  1
  O  O11  1  0.65894000  0.72959200  0.31601000  1
  O  O12  1  0.72959200  0.65894000  0.81601000  1
  O  O13  1  0.27040800  0.34106000  0.18399000  1
  O  O14  1  0.31043400  0.37837900  0.57064100  1
  O  O15  1  0.68956600  0.62162100  0.42935900  1
  O  O16  1  0.62162100  0.68956600  0.92935900  1
  O  O17  1  0.37837900  0.31043400  0.07064100  1
  O  O18  1  0.52407600  0.88295000  0.61271000  1
  O  O19  1  0.47592400  0.11705000  0.38729000  1
  O  O20  1  0.11705000  0.47592400  0.88729000  1
  O  O21  1  0.88295000  0.52407600  0.11271000  1
  O  O22  1  0.76738000  0.90889500  0.51435400  1
  O  O23  1  0.23262000  0.09110500  0.48564600  1
  O  O24  1  0.09110500  0.23262000  0.98564600  1
  O  O25  1  0.90889500  0.76738000  0.01435400  1
  O  O26  1  0.53143300  0.39072700  0.69508800  1
  O  O27  1  0.46856700  0.60927300  0.30491200  1
  O  O28  1  0.60927300  0.46856700  0.80491200  1
  O  O29  1  0.39072700  0.53143300  0.19508800  1
  O  O30  1  0.81493700  0.88682500  0.64759000  1
  O  O31  1  0.18506300  0.11317500  0.35241000  1
  O  O32  1  0.11317500  0.18506300  0.85241000  1
  O  O33  1  0.88682500  0.81493700  0.14759000  1
  O  O34  1  0.43958100  0.09000300  0.91089800  1
  O  O35  1  0.56041900  0.90999700  0.08910200  1
  O  O36  1  0.90999700  0.56041900  0.58910200  1
  O  O37  1  0.09000300  0.43958100  0.41089800  1
  O  O38  1  0.10320000  0.88637500  0.62826500  1
  O  O39  1  0.89680000  0.11362500  0.37173500  1
  O  O40  1  0.11362500  0.89680000  0.87173500  1
  O  O41  1  0.88637500  0.10320000  0.12826500  1
  O  O42  1  0.79926300  0.13408100  0.93481300  1
  O  O43  1  0.20073700  0.86591900  0.06518700  1
  O  O44  1  0.86591900  0.20073700  0.56518700  1
  O  O45  1  0.13408100  0.79926300  0.43481300  1
  O  O46  1  0.75580200  0.08036200  0.78864100  1
  O  O47  1  0.24419800  0.91963800  0.21135900  1
  O  O48  1  0.91963800  0.24419800  0.71135900  1
  O  O49  1  0.08036200  0.75580200  0.28864100  1
