# generated using pymatgen
data_Fe3(AsO4)2
_symmetry_space_group_name_H-M   'P 1'
_cell_length_a   4.80874630
_cell_length_b   8.60040778
_cell_length_c   8.60040778
_cell_angle_alpha   109.68438105
_cell_angle_beta   96.55265405
_cell_angle_gamma   96.55265405
_symmetry_Int_Tables_number   1
_chemical_formula_structural   Fe3(AsO4)2
_chemical_formula_sum   'Fe3 As2 O8'
_cell_volume   328.26064682
_cell_formula_units_Z   1
loop_
 _symmetry_equiv_pos_site_id
 _symmetry_equiv_pos_as_xyz
  1  'x, y, z'
loop_
 _atom_site_type_symbol
 _atom_site_label
 _atom_site_symmetry_multiplicity
 _atom_site_fract_x
 _atom_site_fract_y
 _atom_site_fract_z
 _atom_site_occupancy
  Fe  Fe0  1  0.00000000  0.59949500  0.40050500  1
  Fe  Fe1  1  0.00000000  0.40050500  0.59949500  1
  Fe  Fe2  1  0.00000000  0.00000000  0.00000000  1
  As  As3  1  0.62858900  0.68862300  0.68862300  1
  As  As4  1  0.37141100  0.31137700  0.31137700  1
  O  O5  1  0.76654500  0.53750900  0.74859200  1
  O  O6  1  0.23345500  0.46249100  0.25140800  1
  O  O7  1  0.23345500  0.25140800  0.46249100  1
  O  O8  1  0.76654500  0.74859200  0.53750900  1
  O  O9  1  0.66562500  0.86756600  0.86756600  1
  O  O10  1  0.33437500  0.13243400  0.13243400  1
  O  O11  1  0.73106100  0.37551100  0.37551100  1
  O  O12  1  0.26893900  0.62448900  0.62448900  1
