# generated using pymatgen
data_H7C2SIN4
_symmetry_space_group_name_H-M   'P 1'
_cell_length_a   8.11176800
_cell_length_b   13.44043221
_cell_length_c   10.89058124
_cell_angle_alpha   120.01534818
_cell_angle_beta   90.00000000
_cell_angle_gamma   90.00000000
_symmetry_Int_Tables_number   1
_chemical_formula_structural   H7C2SIN4
_chemical_formula_sum   'H28 C8 S4 I4 N16'
_cell_volume   1028.11870038
_cell_formula_units_Z   4
loop_
 _symmetry_equiv_pos_site_id
 _symmetry_equiv_pos_as_xyz
  1  'x, y, z'
loop_
 _atom_site_type_symbol
 _atom_site_label
 _atom_site_symmetry_multiplicity
 _atom_site_fract_x
 _atom_site_fract_y
 _atom_site_fract_z
 _atom_site_occupancy
  H  H0  1  0.96154300  0.87034200  0.74523000  1
  H  H1  1  0.03845700  0.12965800  0.25477000  1
  H  H2  1  0.46154300  0.12965800  0.75477000  1
  H  H3  1  0.53845700  0.87034200  0.24523000  1
  H  H4  1  0.43031500  0.89997300  0.88426100  1
  H  H5  1  0.56968500  0.10002700  0.11573900  1
  H  H6  1  0.93031500  0.10002700  0.61573900  1
  H  H7  1  0.06968500  0.89997300  0.38426100  1
  H  H8  1  0.72489500  0.57605100  0.92040800  1
  H  H9  1  0.27510500  0.42394900  0.07959200  1
  H  H10  1  0.22489500  0.42394900  0.57959200  1
  H  H11  1  0.77510500  0.57605100  0.42040800  1
  H  H12  1  0.51715000  0.60959100  0.91583400  1
  H  H13  1  0.48285000  0.39040900  0.08416600  1
  H  H14  1  0.01715000  0.39040900  0.58416600  1
  H  H15  1  0.98285000  0.60959100  0.41583400  1
  H  H16  1  0.41535300  0.77504700  0.71583300  1
  H  H17  1  0.58464700  0.22495300  0.28416700  1
  H  H18  1  0.91535300  0.22495300  0.78416700  1
  H  H19  1  0.08464700  0.77504700  0.21583300  1
  H  H20  1  0.60763100  0.70185200  0.58126800  1
  H  H21  1  0.39236900  0.29814800  0.41873200  1
  H  H22  1  0.10763100  0.29814800  0.91873200  1
  H  H23  1  0.89236900  0.70185200  0.08126800  1
  H  H24  1  0.59675000  0.22764500  0.89707500  1
  H  H25  1  0.40325000  0.77235500  0.10292500  1
  H  H26  1  0.09675000  0.77235500  0.60292500  1
  H  H27  1  0.90325000  0.22764500  0.39707500  1
  C  C28  1  0.85483900  0.72944600  0.58737600  1
  C  C29  1  0.14516100  0.27055400  0.41262400  1
  C  C30  1  0.35483900  0.27055400  0.91262400  1
  C  C31  1  0.64516100  0.72944600  0.08737600  1
  C  C32  1  0.64763900  0.84447100  0.77644300  1
  C  C33  1  0.35236100  0.15552900  0.22355700  1
  C  C34  1  0.14763900  0.15552900  0.72355700  1
  C  C35  1  0.85236100  0.84447100  0.27644300  1
  S  S36  1  0.76557200  0.95174500  0.89660700  1
  S  S37  1  0.23442800  0.04825500  0.10339300  1
  S  S38  1  0.26557200  0.04825500  0.60339300  1
  S  S39  1  0.73442800  0.95174500  0.39660700  1
  I  I40  1  0.66249600  0.36211000  0.56446700  1
  I  I41  1  0.33750400  0.63789000  0.43553300  1
  I  I42  1  0.16249600  0.63789000  0.93553300  1
  I  I43  1  0.83750400  0.36211000  0.06446700  1
  N  N44  1  0.48635000  0.83636400  0.79610600  1
  N  N45  1  0.51365000  0.16363600  0.20389400  1
  N  N46  1  0.98635000  0.16363600  0.70389400  1
  N  N47  1  0.01365000  0.83636400  0.29610600  1
  N  N48  1  0.70114300  0.75401100  0.64706000  1
  N  N49  1  0.29885700  0.24598900  0.35294000  1
  N  N50  1  0.20114300  0.24598900  0.85294000  1
  N  N51  1  0.79885700  0.75401100  0.14706000  1
  N  N52  1  0.98193800  0.79795500  0.64796800  1
  N  N53  1  0.01806200  0.20204500  0.35203200  1
  N  N54  1  0.48193800  0.20204500  0.85203200  1
  N  N55  1  0.51806200  0.79795500  0.14796800  1
  N  N56  1  0.63057400  0.63285900  0.96232800  1
  N  N57  1  0.36942600  0.36714100  0.03767200  1
  N  N58  1  0.13057400  0.36714100  0.53767200  1
  N  N59  1  0.86942600  0.63285900  0.46232800  1
