# generated using pymatgen
data_H8C3S(N3O2)2
_symmetry_space_group_name_H-M   'P 1'
_cell_length_a   8.65246700
_cell_length_b   10.47450548
_cell_length_c   11.54786522
_cell_angle_alpha   72.18795858
_cell_angle_beta   67.99824720
_cell_angle_gamma   65.60498897
_symmetry_Int_Tables_number   1
_chemical_formula_structural   H8C3S(N3O2)2
_chemical_formula_sum   'H32 C12 S4 N24 O16'
_cell_volume   869.45560234
_cell_formula_units_Z   4
loop_
 _symmetry_equiv_pos_site_id
 _symmetry_equiv_pos_as_xyz
  1  'x, y, z'
loop_
 _atom_site_type_symbol
 _atom_site_label
 _atom_site_symmetry_multiplicity
 _atom_site_fract_x
 _atom_site_fract_y
 _atom_site_fract_z
 _atom_site_occupancy
  H  H0  1  0.64359400  0.32952000  0.22777300  1
  H  H1  1  0.35640600  0.67048000  0.77222700  1
  H  H2  1  0.20088600  0.17048000  0.27222700  1
  H  H3  1  0.79911400  0.82952000  0.72777300  1
  H  H4  1  0.18615700  0.85946600  0.00596800  1
  H  H5  1  0.81384300  0.14053400  0.99403200  1
  H  H6  1  0.05159100  0.64053400  0.49403200  1
  H  H7  1  0.94840900  0.35946600  0.50596800  1
  H  H8  1  0.72745500  0.66439300  0.43616900  1
  H  H9  1  0.27254500  0.33560700  0.56383100  1
  H  H10  1  0.82801800  0.83560700  0.06383100  1
  H  H11  1  0.17198200  0.16439300  0.93616900  1
  H  H12  1  0.16625100  0.69193100  0.08702600  1
  H  H13  1  0.83374900  0.30806900  0.91297400  1
  H  H14  1  0.94520700  0.80806900  0.41297400  1
  H  H15  1  0.05479300  0.19193100  0.58702600  1
  H  H16  1  0.57436200  0.89304200  0.37260700  1
  H  H17  1  0.42563800  0.10695800  0.62739300  1
  H  H18  1  0.84001100  0.60695800  0.12739300  1
  H  H19  1  0.15998900  0.39304200  0.87260700  1
  H  H20  1  0.63497200  0.52776200  0.49151600  1
  H  H21  1  0.36502800  0.47223800  0.50848400  1
  H  H22  1  0.65425000  0.97223800  0.00848400  1
  H  H23  1  0.34575000  0.02776200  0.99151600  1
  H  H24  1  0.41651100  0.12292500  0.28687500  1
  H  H25  1  0.58348900  0.87707500  0.71312500  1
  H  H26  1  0.82631100  0.37707500  0.21312500  1
  H  H27  1  0.17368900  0.62292500  0.78687500  1
  H  H28  1  0.38999100  0.51284000  0.15959600  1
  H  H29  1  0.61000900  0.48716000  0.84040400  1
  H  H30  1  0.06242700  0.98716000  0.34040400  1
  H  H31  1  0.93757300  0.01284000  0.65959600  1
  C  C32  1  0.62589200  0.53963600  0.15162300  1
  C  C33  1  0.37410800  0.46036400  0.84837700  1
  C  C34  1  0.31715100  0.96036400  0.34837700  1
  C  C35  1  0.68284900  0.03963600  0.65162300  1
  C  C36  1  0.47124200  0.72484400  0.43352200  1
  C  C37  1  0.52875800  0.27515600  0.56647800  1
  C  C38  1  0.62960800  0.77515600  0.06647800  1
  C  C39  1  0.37039200  0.22484400  0.93352200  1
  C  C40  1  0.39083900  0.72439300  0.07817100  1
  C  C41  1  0.60916100  0.27560700  0.92182900  1
  C  C42  1  0.19340300  0.77560700  0.42182900  1
  C  C43  1  0.80659700  0.22439300  0.57817100  1
  S  S44  1  0.77951600  0.04002000  0.27106200  1
  S  S45  1  0.22048400  0.95998000  0.72893800  1
  S  S46  1  0.09059800  0.45998000  0.22893800  1
  S  S47  1  0.90940200  0.54002000  0.77106200  1
  N  N48  1  0.62008600  0.63437700  0.46050200  1
  N  N49  1  0.37991400  0.36562300  0.53949800  1
  N  N50  1  0.71496500  0.86562300  0.03949800  1
  N  N51  1  0.28503500  0.13437700  0.96050200  1
  N  N52  1  0.23641300  0.76108900  0.05826000  1
  N  N53  1  0.76358700  0.23891100  0.94174000  1
  N  N54  1  0.05576300  0.73891100  0.44174000  1
  N  N55  1  0.94423700  0.26108900  0.55826000  1
  N  N56  1  0.31042200  0.09265700  0.29786600  1
  N  N57  1  0.68957800  0.90734300  0.70213400  1
  N  N58  1  0.70094500  0.40734300  0.20213400  1
  N  N59  1  0.29905500  0.59265700  0.79786600  1
  N  N60  1  0.47093200  0.82129100  0.04682700  1
  N  N61  1  0.52906800  0.17870900  0.95317300  1
  N  N62  1  0.33904900  0.67870900  0.45317300  1
  N  N63  1  0.66095100  0.32129100  0.54682700  1
  N  N64  1  0.46342300  0.58544800  0.13442800  1
  N  N65  1  0.53657700  0.41455200  0.86557200  1
  N  N66  1  0.18329900  0.91455200  0.36557200  1
  N  N67  1  0.81670100  0.08544800  0.63442800  1
  N  N68  1  0.46197000  0.86388300  0.38381300  1
  N  N69  1  0.53803000  0.13611700  0.61618700  1
  N  N70  1  0.70966500  0.63611700  0.11618700  1
  N  N71  1  0.29033500  0.36388300  0.88381300  1
  O  O72  1  0.28819100  0.41770200  0.18232500  1
  O  O73  1  0.71180900  0.58229800  0.81767500  1
  O  O74  1  0.88821800  0.08229800  0.31767500  1
  O  O75  1  0.11178200  0.91770200  0.68232500  1
  O  O76  1  0.87235500  0.00793900  0.14165500  1
  O  O77  1  0.12764500  0.99206100  0.85834500  1
  O  O78  1  0.02194900  0.49206100  0.35834500  1
  O  O79  1  0.97805100  0.50793900  0.64165500  1
  O  O80  1  0.60526500  0.15710800  0.27687100  1
  O  O81  1  0.39473500  0.84289200  0.72312900  1
  O  O82  1  0.03924400  0.34289200  0.22312900  1
  O  O83  1  0.96075600  0.65710800  0.77687100  1
  O  O84  1  0.74650100  0.90790600  0.36205700  1
  O  O85  1  0.25349900  0.09209400  0.63794300  1
  O  O86  1  0.01646400  0.59209400  0.13794300  1
  O  O87  1  0.98353600  0.40790600  0.86205700  1
