# generated using pymatgen
data_FePNO4F
_symmetry_space_group_name_H-M   'P 1'
_cell_length_a   6.37886100
_cell_length_b   10.88951100
_cell_length_c   12.97498600
_cell_angle_alpha   90.00000000
_cell_angle_beta   90.00000000
_cell_angle_gamma   90.00000000
_symmetry_Int_Tables_number   1
_chemical_formula_structural   FePNO4F
_chemical_formula_sum   'Fe8 P8 N8 O32 F8'
_cell_volume   901.27726195
_cell_formula_units_Z   8
loop_
 _symmetry_equiv_pos_site_id
 _symmetry_equiv_pos_as_xyz
  1  'x, y, z'
loop_
 _atom_site_type_symbol
 _atom_site_label
 _atom_site_symmetry_multiplicity
 _atom_site_fract_x
 _atom_site_fract_y
 _atom_site_fract_z
 _atom_site_occupancy
  Fe  Fe0  1  0.49870600  0.02641500  0.11381500  1
  Fe  Fe1  1  0.50129400  0.52641500  0.88618500  1
  Fe  Fe2  1  0.00129400  0.02641500  0.61381500  1
  Fe  Fe3  1  0.99870600  0.52641500  0.38618500  1
  Fe  Fe4  1  0.24942000  0.27563300  0.25160600  1
  Fe  Fe5  1  0.75058000  0.77563300  0.74839400  1
  Fe  Fe6  1  0.25058000  0.27563300  0.75160600  1
  Fe  Fe7  1  0.74942000  0.77563300  0.24839400  1
  P  P8  1  0.00205500  0.02751500  0.18449000  1
  P  P9  1  0.99794500  0.52751500  0.81551000  1
  P  P10  1  0.49794500  0.02751500  0.68449000  1
  P  P11  1  0.50205500  0.52751500  0.31551000  1
  P  P12  1  0.33109900  0.27652300  0.99954200  1
  P  P13  1  0.66890100  0.77652300  0.00045800  1
  P  P14  1  0.16890100  0.27652300  0.49954200  1
  P  P15  1  0.83109900  0.77652300  0.50045800  1
  N  N16  1  0.77653200  0.33169700  0.11847300  1
  N  N17  1  0.22346800  0.83169700  0.88152700  1
  N  N18  1  0.72346800  0.33169700  0.61847300  1
  N  N19  1  0.27653200  0.83169700  0.38152700  1
  N  N20  1  0.19806500  0.58709200  0.09885100  1
  N  N21  1  0.80193500  0.08709200  0.90114900  1
  N  N22  1  0.30193500  0.58709200  0.59885100  1
  N  N23  1  0.69806500  0.08709200  0.40114900  1
  O  O24  1  0.47444100  0.16251000  0.01382500  1
  O  O25  1  0.52555900  0.66251000  0.98617500  1
  O  O26  1  0.02555900  0.16251000  0.51382500  1
  O  O27  1  0.97444100  0.66251000  0.48617500  1
  O  O28  1  0.30949800  0.55006300  0.38562300  1
  O  O29  1  0.69050200  0.05006300  0.61437700  1
  O  O30  1  0.19050200  0.55006300  0.88562300  1
  O  O31  1  0.80949800  0.05006300  0.11437700  1
  O  O32  1  0.19129400  0.28816200  0.09703100  1
  O  O33  1  0.80870600  0.78816200  0.90296900  1
  O  O34  1  0.30870600  0.28816200  0.59703100  1
  O  O35  1  0.69129400  0.78816200  0.40296900  1
  O  O36  1  0.02719000  0.39201900  0.48951700  1
  O  O37  1  0.97281000  0.89201900  0.51048300  1
  O  O38  1  0.47281000  0.39201900  0.98951700  1
  O  O39  1  0.52719000  0.89201900  0.01048300  1
  O  O40  1  0.30509800  0.26115700  0.40261100  1
  O  O41  1  0.69490200  0.76115700  0.59738900  1
  O  O42  1  0.19490200  0.26115700  0.90261100  1
  O  O43  1  0.80509800  0.76115700  0.09738900  1
  O  O44  1  0.19332800  0.99989000  0.11580500  1
  O  O45  1  0.80667200  0.49989000  0.88419500  1
  O  O46  1  0.30667200  0.99989000  0.61580500  1
  O  O47  1  0.69332800  0.49989000  0.38419500  1
  O  O48  1  0.04058100  0.14074600  0.25391600  1
  O  O49  1  0.95941900  0.64074600  0.74608400  1
  O  O50  1  0.45941900  0.14074600  0.75391600  1
  O  O51  1  0.54058100  0.64074600  0.24608400  1
  O  O52  1  0.45584300  0.41507600  0.24483400  1
  O  O53  1  0.54415700  0.91507600  0.75516600  1
  O  O54  1  0.04415700  0.41507600  0.74483400  1
  O  O55  1  0.95584300  0.91507600  0.25516600  1
  F  F56  1  0.03188100  0.40120500  0.27579800  1
  F  F57  1  0.96811900  0.90120500  0.72420200  1
  F  F58  1  0.46811900  0.40120500  0.77579800  1
  F  F59  1  0.53188100  0.90120500  0.22420200  1
  F  F60  1  0.47090900  0.15399600  0.22472100  1
  F  F61  1  0.52909100  0.65399600  0.77527900  1
  F  F62  1  0.02909100  0.15399600  0.72472100  1
  F  F63  1  0.97090900  0.65399600  0.27527900  1
