# generated using pymatgen
data_HC9N10Cl7
_symmetry_space_group_name_H-M   'P 1'
_cell_length_a   9.47041089
_cell_length_b   8.64772011
_cell_length_c   17.70643532
_cell_angle_alpha   84.40021379
_cell_angle_beta   79.73477358
_cell_angle_gamma   56.79975098
_symmetry_Int_Tables_number   1
_chemical_formula_structural   HC9N10Cl7
_chemical_formula_sum   'H2 C18 N20 Cl14'
_cell_volume   1193.97620874
_cell_formula_units_Z   2
loop_
 _symmetry_equiv_pos_site_id
 _symmetry_equiv_pos_as_xyz
  1  'x, y, z'
loop_
 _atom_site_type_symbol
 _atom_site_label
 _atom_site_symmetry_multiplicity
 _atom_site_fract_x
 _atom_site_fract_y
 _atom_site_fract_z
 _atom_site_occupancy
  H  H0  1  0.31569700  0.36860700  0.75000000  1
  H  H1  1  0.68430300  0.63139300  0.25000000  1
  C  C2  1  0.43665500  0.94435300  0.79969900  1
  C  C3  1  0.56334500  0.05564700  0.20030100  1
  C  C4  1  0.61899100  0.94435300  0.70030100  1
  C  C5  1  0.38100900  0.05564700  0.29969900  1
  C  C6  1  0.66127200  0.67745600  0.75000000  1
  C  C7  1  0.33872800  0.32254400  0.25000000  1
  C  C8  1  0.22995800  0.59667200  0.67936800  1
  C  C9  1  0.77004200  0.40332800  0.32063200  1
  C  C10  1  0.17337100  0.59667200  0.82063200  1
  C  C11  1  0.82662900  0.40332800  0.17936800  1
  C  C12  1  0.21159600  0.82534800  0.60223800  1
  C  C13  1  0.78840400  0.17465200  0.39776200  1
  C  C14  1  0.96305600  0.82534800  0.89776200  1
  C  C15  1  0.03694400  0.17465200  0.10223800  1
  C  C16  1  0.23751100  0.58228600  0.55316100  1
  C  C17  1  0.76248900  0.41771400  0.44683900  1
  C  C18  1  0.18020300  0.58228600  0.94683900  1
  C  C19  1  0.81979700  0.41771400  0.05316100  1
  N  N20  1  0.52344300  0.75989800  0.80346200  1
  N  N21  1  0.47655700  0.24010200  0.19653800  1
  N  N22  1  0.71665900  0.75989800  0.69653800  1
  N  N23  1  0.28334100  0.24010200  0.30346200  1
  N  N24  1  0.25692300  0.49939600  0.87933600  1
  N  N25  1  0.74307700  0.50060400  0.12066400  1
  N  N26  1  0.24368000  0.49939600  0.62066400  1
  N  N27  1  0.75632000  0.50060400  0.37933600  1
  N  N28  1  0.22227100  0.74500900  0.53877300  1
  N  N29  1  0.77772900  0.25499100  0.46122700  1
  N  N30  1  0.03272000  0.74500900  0.96122700  1
  N  N31  1  0.96728000  0.25499100  0.03877300  1
  N  N32  1  0.47697100  0.04605900  0.75000000  1
  N  N33  1  0.52302900  0.95394100  0.25000000  1
  N  N34  1  0.21315200  0.76240000  0.67381300  1
  N  N35  1  0.78684800  0.23760000  0.32618700  1
  N  N36  1  0.02444800  0.76240000  0.82618700  1
  N  N37  1  0.97555200  0.23760000  0.17381300  1
  N  N38  1  0.24458300  0.51083400  0.75000000  1
  N  N39  1  0.75541700  0.48916600  0.25000000  1
  Cl  Cl40  1  0.71747200  0.53276400  0.97561800  1
  Cl  Cl41  1  0.28252800  0.46723600  0.02438200  1
  Cl  Cl42  1  0.74976400  0.53276400  0.52438200  1
  Cl  Cl43  1  0.25023600  0.46723600  0.47561800  1
  Cl  Cl44  1  0.77958400  0.44083100  0.75000000  1
  Cl  Cl45  1  0.22041600  0.55916900  0.25000000  1
  Cl  Cl46  1  0.76842500  0.03128300  0.91180200  1
  Cl  Cl47  1  0.23157500  0.96871700  0.08819800  1
  Cl  Cl48  1  0.20029200  0.03128300  0.58819800  1
  Cl  Cl49  1  0.79970800  0.96871700  0.41180200  1
  Cl  Cl50  1  0.68174700  0.06156800  0.63457200  1
  Cl  Cl51  1  0.31825300  0.93843200  0.36542800  1
  Cl  Cl52  1  0.25668500  0.06156800  0.86542800  1
  Cl  Cl53  1  0.74331500  0.93843200  0.13457200  1
