# generated using pymatgen
data_FeBP2NO9
_symmetry_space_group_name_H-M   'P 1'
_cell_length_a   8.42003700
_cell_length_b   9.56881000
_cell_length_c   9.70193854
_cell_angle_alpha   77.75940749
_cell_angle_beta   90.00000000
_cell_angle_gamma   90.00000000
_symmetry_Int_Tables_number   1
_chemical_formula_structural   FeBP2NO9
_chemical_formula_sum   'Fe4 B4 P8 N4 O36'
_cell_volume   763.91178347
_cell_formula_units_Z   4
loop_
 _symmetry_equiv_pos_site_id
 _symmetry_equiv_pos_as_xyz
  1  'x, y, z'
loop_
 _atom_site_type_symbol
 _atom_site_label
 _atom_site_symmetry_multiplicity
 _atom_site_fract_x
 _atom_site_fract_y
 _atom_site_fract_z
 _atom_site_occupancy
  Fe  Fe0  1  0.35097100  0.78697400  0.93379900  1
  Fe  Fe1  1  0.64902900  0.21302600  0.06620100  1
  Fe  Fe2  1  0.85097100  0.21302600  0.56620100  1
  Fe  Fe3  1  0.14902900  0.78697400  0.43379900  1
  B  B4  1  0.94223700  0.66363600  0.69423500  1
  B  B5  1  0.05776300  0.33636400  0.30576500  1
  B  B6  1  0.44223700  0.33636400  0.80576500  1
  B  B7  1  0.55776300  0.66363600  0.19423500  1
  P  P8  1  0.25755500  0.57615300  0.71809700  1
  P  P9  1  0.74244500  0.42384700  0.28190300  1
  P  P10  1  0.75755500  0.42384700  0.78190300  1
  P  P11  1  0.24244500  0.57615300  0.21809700  1
  P  P12  1  0.06428200  0.92477100  0.70524200  1
  P  P13  1  0.93571800  0.07522900  0.29475800  1
  P  P14  1  0.56428200  0.07522900  0.79475800  1
  P  P15  1  0.43571800  0.92477100  0.20524200  1
  N  N16  1  0.89734300  0.80820600  0.05585300  1
  N  N17  1  0.10265700  0.19179400  0.94414700  1
  N  N18  1  0.39734300  0.19179400  0.44414700  1
  N  N19  1  0.60265700  0.80820600  0.55585300  1
  O  O20  1  0.29665300  0.41349700  0.75438600  1
  O  O21  1  0.70334700  0.58650300  0.24561400  1
  O  O22  1  0.79665300  0.58650300  0.74561400  1
  O  O23  1  0.20334700  0.41349700  0.25438600  1
  O  O24  1  0.49177900  0.92653400  0.81043100  1
  O  O25  1  0.50822100  0.07346600  0.18956900  1
  O  O26  1  0.99177900  0.07346600  0.68956900  1
  O  O27  1  0.00822100  0.92653400  0.31043100  1
  O  O28  1  0.16571400  0.90854400  0.57839900  1
  O  O29  1  0.83428600  0.09145600  0.42160100  1
  O  O30  1  0.66571400  0.09145600  0.92160100  1
  O  O31  1  0.33428600  0.90854400  0.07839900  1
  O  O32  1  0.36607000  0.65743400  0.80068000  1
  O  O33  1  0.63393000  0.34256600  0.19932000  1
  O  O34  1  0.86607000  0.34256600  0.69932000  1
  O  O35  1  0.13393000  0.65743400  0.30068000  1
  O  O36  1  0.95384300  0.69399900  0.54117800  1
  O  O37  1  0.04615700  0.30600100  0.45882200  1
  O  O38  1  0.45384300  0.30600100  0.95882200  1
  O  O39  1  0.54615700  0.69399900  0.04117800  1
  O  O40  1  0.15905700  0.89079800  0.84396700  1
  O  O41  1  0.84094300  0.10920200  0.15603300  1
  O  O42  1  0.65905700  0.10920200  0.65603300  1
  O  O43  1  0.34094300  0.89079800  0.34396700  1
  O  O44  1  0.27778400  0.63386400  0.55871000  1
  O  O45  1  0.72221600  0.36613600  0.44129000  1
  O  O46  1  0.77778400  0.36613600  0.94129000  1
  O  O47  1  0.22221600  0.63386400  0.05871000  1
  O  O48  1  0.92199300  0.81093200  0.72047100  1
  O  O49  1  0.07800700  0.18906800  0.27952900  1
  O  O50  1  0.42199300  0.18906800  0.77952900  1
  O  O51  1  0.57800700  0.81093200  0.22047100  1
  O  O52  1  0.08053800  0.58658600  0.76395100  1
  O  O53  1  0.91946200  0.41341400  0.23604900  1
  O  O54  1  0.58053800  0.41341400  0.73604900  1
  O  O55  1  0.41946200  0.58658600  0.26395100  1
