# generated using pymatgen
data_P2N6O
_symmetry_space_group_name_H-M   'P 1'
_cell_length_a   8.38310300
_cell_length_b   13.72993700
_cell_length_c   17.15349738
_cell_angle_alpha   68.22154061
_cell_angle_beta   90.00000000
_cell_angle_gamma   90.00000000
_symmetry_Int_Tables_number   1
_chemical_formula_structural   P2N6O
_chemical_formula_sum   'P16 N48 O8'
_cell_volume   1833.43946628
_cell_formula_units_Z   8
loop_
 _symmetry_equiv_pos_site_id
 _symmetry_equiv_pos_as_xyz
  1  'x, y, z'
loop_
 _atom_site_type_symbol
 _atom_site_label
 _atom_site_symmetry_multiplicity
 _atom_site_fract_x
 _atom_site_fract_y
 _atom_site_fract_z
 _atom_site_occupancy
  P  P0  1  0.71571500  0.97482800  0.82908200  1
  P  P1  1  0.28428500  0.02517200  0.17091800  1
  P  P2  1  0.21571500  0.52517200  0.17091800  1
  P  P3  1  0.78428500  0.47482800  0.82908200  1
  P  P4  1  0.19544900  0.47766600  0.35112400  1
  P  P5  1  0.80455100  0.52233400  0.64887600  1
  P  P6  1  0.69544900  0.02233400  0.64887600  1
  P  P7  1  0.30455100  0.97766600  0.35112400  1
  P  P8  1  0.29128500  0.91135800  0.74055700  1
  P  P9  1  0.70871500  0.08864200  0.25944300  1
  P  P10  1  0.79128500  0.58864200  0.25944300  1
  P  P11  1  0.20871500  0.41135800  0.74055700  1
  P  P12  1  0.05108100  0.91068100  0.87609200  1
  P  P13  1  0.94891900  0.08931900  0.12390800  1
  P  P14  1  0.55108100  0.58931900  0.12390800  1
  P  P15  1  0.44891900  0.41068100  0.87609200  1
  N  N16  1  0.25408600  0.14888300  0.61257400  1
  N  N17  1  0.74591400  0.85111700  0.38742600  1
  N  N18  1  0.75408600  0.35111700  0.38742600  1
  N  N19  1  0.24591400  0.64888300  0.61257400  1
  N  N20  1  0.32796000  0.18890700  0.39057000  1
  N  N21  1  0.67204000  0.81109300  0.60943000  1
  N  N22  1  0.82796000  0.31109300  0.60943000  1
  N  N23  1  0.17204000  0.68890700  0.39057000  1
  N  N24  1  0.86867900  0.89851100  0.86572200  1
  N  N25  1  0.13132100  0.10148900  0.13427800  1
  N  N26  1  0.36867900  0.60148900  0.13427800  1
  N  N27  1  0.63132100  0.39851100  0.86572200  1
  N  N28  1  0.14367900  0.93340100  0.78951200  1
  N  N29  1  0.85632100  0.06659900  0.21048800  1
  N  N30  1  0.64367900  0.56659900  0.21048800  1
  N  N31  1  0.35632100  0.43340100  0.78951200  1
  N  N32  1  0.14354900  0.17873700  0.57530500  1
  N  N33  1  0.85645100  0.82126300  0.42469500  1
  N  N34  1  0.64354900  0.32126300  0.42469500  1
  N  N35  1  0.35645100  0.67873700  0.57530500  1
  N  N36  1  0.70113700  0.28547100  0.62094500  1
  N  N37  1  0.29886300  0.71452900  0.37905500  1
  N  N38  1  0.20113700  0.21452900  0.37905500  1
  N  N39  1  0.79886300  0.78547100  0.62094500  1
  N  N40  1  0.21809200  0.42228900  0.44413200  1
  N  N41  1  0.78190800  0.57771100  0.55586800  1
  N  N42  1  0.71809200  0.07771100  0.55586800  1
  N  N43  1  0.28190800  0.92228900  0.44413200  1
  N  N44  1  0.15490300  0.16405800  0.85422200  1
  N  N45  1  0.84509700  0.83594200  0.14577800  1
  N  N46  1  0.65490300  0.33594200  0.14577800  1
  N  N47  1  0.34509700  0.66405800  0.85422200  1
  N  N48  1  0.14170300  0.89546600  0.95941500  1
  N  N49  1  0.85829700  0.10453400  0.04058500  1
  N  N50  1  0.64170300  0.60453400  0.04058500  1
  N  N51  1  0.35829700  0.39546600  0.95941500  1
  N  N52  1  0.66047300  0.95288300  0.74169200  1
  N  N53  1  0.33952700  0.04711700  0.25830800  1
  N  N54  1  0.16047300  0.54711700  0.25830800  1
  N  N55  1  0.83952700  0.45288300  0.74169200  1
  N  N56  1  0.56246900  0.91482700  0.89434000  1
  N  N57  1  0.43753100  0.08517300  0.10566000  1
  N  N58  1  0.06246900  0.58517300  0.10566000  1
  N  N59  1  0.93753100  0.41482700  0.89434000  1
  N  N60  1  0.26621500  0.17511300  0.88551100  1
  N  N61  1  0.73378500  0.82488700  0.11448900  1
  N  N62  1  0.76621500  0.32488700  0.11448900  1
  N  N63  1  0.23378500  0.67511300  0.88551100  1
  O  O64  1  0.26600500  0.89191800  0.66189100  1
  O  O65  1  0.73399500  0.10808200  0.33810900  1
  O  O66  1  0.76600500  0.60808200  0.33810900  1
  O  O67  1  0.23399500  0.39191800  0.66189100  1
  O  O68  1  0.72935300  0.08747500  0.81693400  1
  O  O69  1  0.27064700  0.91252500  0.18306600  1
  O  O70  1  0.22935300  0.41252500  0.18306600  1
  O  O71  1  0.77064700  0.58747500  0.81693400  1
