# generated using pymatgen
data_Er3ScS6
_symmetry_space_group_name_H-M   'P 1'
_cell_length_a   3.87394900
_cell_length_b   10.88045100
_cell_length_c   11.14672177
_cell_angle_alpha   70.95941089
_cell_angle_beta   90.00000000
_cell_angle_gamma   90.00000000
_symmetry_Int_Tables_number   1
_chemical_formula_structural   Er3ScS6
_chemical_formula_sum   'Er6 Sc2 S12'
_cell_volume   444.13189721
_cell_formula_units_Z   2
loop_
 _symmetry_equiv_pos_site_id
 _symmetry_equiv_pos_as_xyz
  1  'x, y, z'
loop_
 _atom_site_type_symbol
 _atom_site_label
 _atom_site_symmetry_multiplicity
 _atom_site_fract_x
 _atom_site_fract_y
 _atom_site_fract_z
 _atom_site_occupancy
  Er  Er0  1  0.25000000  0.56802100  0.83092900  1
  Er  Er1  1  0.75000000  0.43197900  0.16907100  1
  Er  Er2  1  0.25000000  0.31556700  0.50196300  1
  Er  Er3  1  0.75000000  0.68443300  0.49803700  1
  Er  Er4  1  0.25000000  0.84170400  0.08149100  1
  Er  Er5  1  0.75000000  0.15829600  0.91850900  1
  Sc  Sc6  1  0.25000000  0.95963500  0.68513900  1
  Sc  Sc7  1  0.75000000  0.04036500  0.31486100  1
  S  S8  1  0.25000000  0.52054200  0.61345100  1
  S  S9  1  0.75000000  0.47945800  0.38654900  1
  S  S10  1  0.25000000  0.08249900  0.10168400  1
  S  S11  1  0.75000000  0.91750100  0.89831600  1
  S  S12  1  0.25000000  0.60419000  0.06136400  1
  S  S13  1  0.75000000  0.39581000  0.93863600  1
  S  S14  1  0.25000000  0.25033200  0.27923800  1
  S  S15  1  0.75000000  0.74966800  0.72076200  1
  S  S16  1  0.25000000  0.89805300  0.46224800  1
  S  S17  1  0.75000000  0.10194700  0.53775200  1
  S  S18  1  0.25000000  0.18457700  0.74827900  1
  S  S19  1  0.75000000  0.81542300  0.25172100  1
