# generated using pymatgen
data_KCr(SO10)2
_symmetry_space_group_name_H-M   'P 1'
_cell_length_a   11.47729100
_cell_length_b   11.47729100
_cell_length_c   11.47729100
_cell_angle_alpha   90.00000000
_cell_angle_beta   90.00000000
_cell_angle_gamma   90.00000000
_symmetry_Int_Tables_number   1
_chemical_formula_structural   KCr(SO10)2
_chemical_formula_sum   'K4 Cr4 S8 O80'
_cell_volume   1511.88298414
_cell_formula_units_Z   4
loop_
 _symmetry_equiv_pos_site_id
 _symmetry_equiv_pos_as_xyz
  1  'x, y, z'
loop_
 _atom_site_type_symbol
 _atom_site_label
 _atom_site_symmetry_multiplicity
 _atom_site_fract_x
 _atom_site_fract_y
 _atom_site_fract_z
 _atom_site_occupancy
  K  K0  1  0.00000000  0.00000000  0.00000000  1
  K  K1  1  0.50000000  0.00000000  0.50000000  1
  K  K2  1  0.00000000  0.50000000  0.50000000  1
  K  K3  1  0.50000000  0.50000000  0.00000000  1
  Cr  Cr4  1  0.50000000  0.50000000  0.50000000  1
  Cr  Cr5  1  0.00000000  0.50000000  0.00000000  1
  Cr  Cr6  1  0.50000000  0.00000000  0.00000000  1
  Cr  Cr7  1  0.00000000  0.00000000  0.50000000  1
  S  S8  1  0.19633100  0.19633100  0.19633100  1
  S  S9  1  0.80366900  0.80366900  0.80366900  1
  S  S10  1  0.30366900  0.80366900  0.69633100  1
  S  S11  1  0.80366900  0.69633100  0.30366900  1
  S  S12  1  0.69633100  0.19633100  0.30366900  1
  S  S13  1  0.19633100  0.30366900  0.69633100  1
  S  S14  1  0.69633100  0.30366900  0.80366900  1
  S  S15  1  0.30366900  0.69633100  0.19633100  1
  O  O16  1  0.98733400  0.98538800  0.31644900  1
  O  O17  1  0.01266600  0.01461200  0.68355100  1
  O  O18  1  0.51266600  0.01461200  0.81644900  1
  O  O19  1  0.01266600  0.48538800  0.18355100  1
  O  O20  1  0.31644900  0.98733400  0.98538800  1
  O  O21  1  0.48733400  0.98538800  0.18355100  1
  O  O22  1  0.98733400  0.51461200  0.81644900  1
  O  O23  1  0.68355100  0.01266600  0.01461200  1
  O  O24  1  0.48733400  0.51461200  0.68355100  1
  O  O25  1  0.81644900  0.51266600  0.01461200  1
  O  O26  1  0.51266600  0.48538800  0.31644900  1
  O  O27  1  0.18355100  0.48733400  0.98538800  1
  O  O28  1  0.18355100  0.01266600  0.48538800  1
  O  O29  1  0.81644900  0.98733400  0.51461200  1
  O  O30  1  0.68355100  0.48733400  0.51461200  1
  O  O31  1  0.31644900  0.51266600  0.48538800  1
  O  O32  1  0.98538800  0.31644900  0.98733400  1
  O  O33  1  0.01461200  0.68355100  0.01266600  1
  O  O34  1  0.48538800  0.18355100  0.01266600  1
  O  O35  1  0.51461200  0.81644900  0.98733400  1
  O  O36  1  0.51461200  0.68355100  0.48733400  1
  O  O37  1  0.48538800  0.31644900  0.51266600  1
  O  O38  1  0.01461200  0.81644900  0.51266600  1
  O  O39  1  0.98538800  0.18355100  0.48733400  1
  O  O40  1  0.24711400  0.47551800  0.41024400  1
  O  O41  1  0.75288600  0.52448200  0.58975600  1
  O  O42  1  0.25288600  0.52448200  0.91024400  1
  O  O43  1  0.75288600  0.97551800  0.08975600  1
  O  O44  1  0.41024400  0.24711400  0.47551800  1
  O  O45  1  0.74711400  0.47551800  0.08975600  1
  O  O46  1  0.24711400  0.02448200  0.91024400  1
  O  O47  1  0.58975600  0.75288600  0.52448200  1
  O  O48  1  0.74711400  0.02448200  0.58975600  1
  O  O49  1  0.91024400  0.25288600  0.52448200  1
  O  O50  1  0.25288600  0.97551800  0.41024400  1
  O  O51  1  0.08975600  0.74711400  0.47551800  1
  O  O52  1  0.08975600  0.75288600  0.97551800  1
  O  O53  1  0.91024400  0.24711400  0.02448200  1
  O  O54  1  0.58975600  0.74711400  0.02448200  1
  O  O55  1  0.41024400  0.25288600  0.97551800  1
  O  O56  1  0.47551800  0.41024400  0.24711400  1
  O  O57  1  0.52448200  0.58975600  0.75288600  1
  O  O58  1  0.97551800  0.08975600  0.75288600  1
  O  O59  1  0.02448200  0.91024400  0.24711400  1
  O  O60  1  0.02448200  0.58975600  0.74711400  1
  O  O61  1  0.97551800  0.41024400  0.25288600  1
  O  O62  1  0.52448200  0.91024400  0.25288600  1
  O  O63  1  0.47551800  0.08975600  0.74711400  1
  O  O64  1  0.07085000  0.19380500  0.23359600  1
  O  O65  1  0.92915000  0.80619500  0.76640400  1
  O  O66  1  0.42915000  0.80619500  0.73359600  1
  O  O67  1  0.92915000  0.69380500  0.26640400  1
  O  O68  1  0.23359600  0.07085000  0.19380500  1
  O  O69  1  0.57085000  0.19380500  0.26640400  1
  O  O70  1  0.07085000  0.30619500  0.73359600  1
  O  O71  1  0.76640400  0.92915000  0.80619500  1
  O  O72  1  0.57085000  0.30619500  0.76640400  1
  O  O73  1  0.73359600  0.42915000  0.80619500  1
  O  O74  1  0.42915000  0.69380500  0.23359600  1
  O  O75  1  0.26640400  0.57085000  0.19380500  1
  O  O76  1  0.26640400  0.92915000  0.69380500  1
  O  O77  1  0.73359600  0.07085000  0.30619500  1
  O  O78  1  0.76640400  0.57085000  0.30619500  1
  O  O79  1  0.23359600  0.42915000  0.69380500  1
  O  O80  1  0.19380500  0.23359600  0.07085000  1
  O  O81  1  0.80619500  0.76640400  0.92915000  1
  O  O82  1  0.69380500  0.26640400  0.92915000  1
  O  O83  1  0.30619500  0.73359600  0.07085000  1
  O  O84  1  0.30619500  0.76640400  0.57085000  1
  O  O85  1  0.69380500  0.23359600  0.42915000  1
  O  O86  1  0.80619500  0.73359600  0.42915000  1
  O  O87  1  0.19380500  0.26640400  0.57085000  1
  O  O88  1  0.26948400  0.26948400  0.26948400  1
  O  O89  1  0.73051600  0.73051600  0.73051600  1
  O  O90  1  0.23051600  0.73051600  0.76948400  1
  O  O91  1  0.73051600  0.76948400  0.23051600  1
  O  O92  1  0.76948400  0.26948400  0.23051600  1
  O  O93  1  0.26948400  0.23051600  0.76948400  1
  O  O94  1  0.76948400  0.23051600  0.73051600  1
  O  O95  1  0.23051600  0.76948400  0.26948400  1
