# generated using pymatgen
data_H4CN5O
_symmetry_space_group_name_H-M   'P 1'
_cell_length_a   7.33890881
_cell_length_b   7.95953400
_cell_length_c   16.78664470
_cell_angle_alpha   90.00000000
_cell_angle_beta   95.14961734
_cell_angle_gamma   90.00000000
_symmetry_Int_Tables_number   1
_chemical_formula_structural   H4CN5O
_chemical_formula_sum   'H32 C8 N40 O8'
_cell_volume   976.62209733
_cell_formula_units_Z   8
loop_
 _symmetry_equiv_pos_site_id
 _symmetry_equiv_pos_as_xyz
  1  'x, y, z'
loop_
 _atom_site_type_symbol
 _atom_site_label
 _atom_site_symmetry_multiplicity
 _atom_site_fract_x
 _atom_site_fract_y
 _atom_site_fract_z
 _atom_site_occupancy
  H  H0  1  0.53312900  0.34634300  0.27595400  1
  H  H1  1  0.46687100  0.84634300  0.72404600  1
  H  H2  1  0.85987400  0.33653000  0.17526400  1
  H  H3  1  0.14012600  0.83653000  0.82473600  1
  H  H4  1  0.11696400  0.13681200  0.40030000  1
  H  H5  1  0.88303600  0.63681200  0.59970000  1
  H  H6  1  0.34929300  0.03830500  0.31039500  1
  H  H7  1  0.65070700  0.53830500  0.68960500  1
  H  H8  1  0.43069500  0.13744000  0.15392100  1
  H  H9  1  0.56930500  0.63744000  0.84607900  1
  H  H10  1  0.12770600  0.03825200  0.85132800  1
  H  H11  1  0.87229400  0.53825200  0.14867200  1
  H  H12  1  0.37931600  0.48914600  0.37223600  1
  H  H13  1  0.62068400  0.98914600  0.62776400  1
  H  H14  1  0.13401700  0.45671700  0.82515700  1
  H  H15  1  0.86598300  0.95671700  0.17484300  1
  H  H16  1  0.89986100  0.51072300  0.32710700  1
  H  H17  1  0.10013900  0.01072300  0.67289300  1
  H  H18  1  0.08416000  0.52836500  0.40510400  1
  H  H19  1  0.91584000  0.02836500  0.59489600  1
  H  H20  1  0.18009500  0.43110300  0.17341200  1
  H  H21  1  0.81990500  0.93110300  0.82658800  1
  H  H22  1  0.46396800  0.93031200  0.15200600  1
  H  H23  1  0.53603200  0.43031200  0.84799400  1
  H  H24  1  0.53251100  0.54554800  0.24580400  1
  H  H25  1  0.46748900  0.04554800  0.75419600  1
  H  H26  1  0.14463800  0.01851800  0.11385900  1
  H  H27  1  0.85536200  0.51851800  0.88614100  1
  H  H28  1  0.17127700  0.93586000  0.41615500  1
  H  H29  1  0.82872300  0.43586000  0.58384500  1
  H  H30  1  0.12055700  0.47982500  0.71844400  1
  H  H31  1  0.87944300  0.97982500  0.28155600  1
  C  C32  1  0.24189300  0.45346200  0.99831000  1
  C  C33  1  0.75810700  0.95346200  0.00169000  1
  C  C34  1  0.15051500  0.47776200  0.29225800  1
  C  C35  1  0.84948500  0.97776200  0.70774200  1
  C  C36  1  0.68235400  0.02185300  0.44057100  1
  C  C37  1  0.31764600  0.52185300  0.55942900  1
  C  C38  1  0.11784000  0.00333700  0.23509100  1
  C  C39  1  0.88216000  0.50333700  0.76490900  1
  N  N40  1  0.15756700  0.22523200  0.94304200  1
  N  N41  1  0.84243300  0.72523200  0.05695800  1
  N  N42  1  0.03319300  0.49541000  0.34796400  1
  N  N43  1  0.96680700  0.99541000  0.65203600  1
  N  N44  1  0.89946700  0.45379500  0.19482600  1
  N  N45  1  0.10053300  0.95379500  0.80517400  1
  N  N46  1  0.33215200  0.48423200  0.31292000  1
  N  N47  1  0.66784800  0.98423200  0.68708000  1
  N  N48  1  0.06459100  0.49347200  0.77156900  1
  N  N49  1  0.93540900  0.99347200  0.22843100  1
  N  N50  1  0.20997000  0.01968600  0.30715700  1
  N  N51  1  0.79003000  0.51968600  0.69284300  1
  N  N52  1  0.30416500  0.62361000  0.00877900  1
  N  N53  1  0.69583500  0.12361000  0.99122100  1
  N  N54  1  0.28907000  0.34780200  0.57637200  1
  N  N55  1  0.71093000  0.84780200  0.42362800  1
  N  N56  1  0.16272800  0.20618600  0.02257700  1
  N  N57  1  0.83727200  0.70618600  0.97742300  1
  N  N58  1  0.45186000  0.44434400  0.25531000  1
  N  N59  1  0.54814000  0.94434400  0.74469000  1
  N  N60  1  0.20733200  0.38151400  0.92637100  1
  N  N61  1  0.79266800  0.88151400  0.07362900  1
  N  N62  1  0.69893300  0.25546800  0.49969500  1
  N  N63  1  0.30106700  0.75546800  0.50030500  1
  N  N64  1  0.08917700  0.45371200  0.21565200  1
  N  N65  1  0.91082300  0.95371200  0.78434800  1
  N  N66  1  0.60539700  0.27574700  0.42789000  1
  N  N67  1  0.39460300  0.77574700  0.57211000  1
  N  N68  1  0.59331900  0.12876800  0.38913600  1
  N  N69  1  0.40668100  0.62876800  0.61086400  1
  N  N70  1  0.11133500  0.01969800  0.37508200  1
  N  N71  1  0.88866500  0.51969800  0.62491800  1
  N  N72  1  0.21124300  0.99804300  0.16952800  1
  N  N73  1  0.78875700  0.49804300  0.83047200  1
  N  N74  1  0.21597800  0.34958900  0.05893100  1
  N  N75  1  0.78402200  0.84958900  0.94106900  1
  N  N76  1  0.25158700  0.59492200  0.49103300  1
  N  N77  1  0.74841300  0.09492200  0.50896700  1
  N  N78  1  0.40073800  0.02520400  0.17972400  1
  N  N79  1  0.59926200  0.52520400  0.82027600  1
  O  O80  1  0.20908900  0.26006600  0.52276500  1
  O  O81  1  0.79091100  0.76006600  0.47723500  1
  O  O82  1  0.34416200  0.29641600  0.64445500  1
  O  O83  1  0.65583800  0.79641600  0.35554500  1
  O  O84  1  0.33254500  0.67610200  0.07850400  1
  O  O85  1  0.66745500  0.17610200  0.92149600  1
  O  O86  1  0.67339900  0.20667200  0.05259200  1
  O  O87  1  0.32660100  0.70667200  0.94740800  1
