# generated using pymatgen
data_DyCrTeO6
_symmetry_space_group_name_H-M   'P 1'
_cell_length_a   5.40637380
_cell_length_b   5.40637380
_cell_length_c   8.65425300
_cell_angle_alpha   90.00000000
_cell_angle_beta   90.00000000
_cell_angle_gamma   119.99999760
_symmetry_Int_Tables_number   1
_chemical_formula_structural   DyCrTeO6
_chemical_formula_sum   'Dy2 Cr2 Te2 O12'
_cell_volume   219.06468413
_cell_formula_units_Z   2
loop_
 _symmetry_equiv_pos_site_id
 _symmetry_equiv_pos_as_xyz
  1  'x, y, z'
loop_
 _atom_site_type_symbol
 _atom_site_label
 _atom_site_symmetry_multiplicity
 _atom_site_fract_x
 _atom_site_fract_y
 _atom_site_fract_z
 _atom_site_occupancy
  Dy  Dy0  1  0.33333300  0.66666700  0.75000000  1
  Dy  Dy1  1  0.66666700  0.33333300  0.25000000  1
  Cr  Cr2  1  0.00000000  0.00000000  0.00000000  1
  Cr  Cr3  1  0.00000000  0.00000000  0.50000000  1
  Te  Te4  1  0.66666700  0.33333300  0.75000000  1
  Te  Te5  1  0.33333300  0.66666700  0.25000000  1
  O  O6  1  0.95698000  0.31070400  0.87584500  1
  O  O7  1  0.04302000  0.68929600  0.12415500  1
  O  O8  1  0.35372400  0.04302000  0.87584500  1
  O  O9  1  0.35372400  0.31070400  0.62415500  1
  O  O10  1  0.64627600  0.95698000  0.12415500  1
  O  O11  1  0.64627600  0.68929600  0.37584500  1
  O  O12  1  0.68929600  0.64627600  0.87584500  1
  O  O13  1  0.68929600  0.04302000  0.62415500  1
  O  O14  1  0.31070400  0.35372400  0.12415500  1
  O  O15  1  0.31070400  0.95698000  0.37584500  1
  O  O16  1  0.95698000  0.64627600  0.62415500  1
  O  O17  1  0.04302000  0.35372400  0.37584500  1
