# generated using pymatgen
data_Na3InH3(SO4)3
_symmetry_space_group_name_H-M   'P 1'
_cell_length_a   15.57071993
_cell_length_b   15.57071993
_cell_length_c   9.00518800
_cell_angle_alpha   90.00000000
_cell_angle_beta   90.00000000
_cell_angle_gamma   119.99999972
_symmetry_Int_Tables_number   1
_chemical_formula_structural   Na3InH3(SO4)3
_chemical_formula_sum   'Na18 In6 H18 S18 O72'
_cell_volume   1890.77914474
_cell_formula_units_Z   6
loop_
 _symmetry_equiv_pos_site_id
 _symmetry_equiv_pos_as_xyz
  1  'x, y, z'
loop_
 _atom_site_type_symbol
 _atom_site_label
 _atom_site_symmetry_multiplicity
 _atom_site_fract_x
 _atom_site_fract_y
 _atom_site_fract_z
 _atom_site_occupancy
  Na  Na0  1  0.20189400  0.24093700  0.08149000  1
  Na  Na1  1  0.79810600  0.75906300  0.91851000  1
  Na  Na2  1  0.75906300  0.96095600  0.08149000  1
  Na  Na3  1  0.24093700  0.03904400  0.91851000  1
  Na  Na4  1  0.03904400  0.79810600  0.08149000  1
  Na  Na5  1  0.96095600  0.20189400  0.91851000  1
  Na  Na6  1  0.35368700  0.44676500  0.40765500  1
  Na  Na7  1  0.64631300  0.55323500  0.59234500  1
  Na  Na8  1  0.55323500  0.90692200  0.40765500  1
  Na  Na9  1  0.44676500  0.09307800  0.59234500  1
  Na  Na10  1  0.09307800  0.64631300  0.40765500  1
  Na  Na11  1  0.90692200  0.35368700  0.59234500  1
  Na  Na12  1  0.11084200  0.42039300  0.20930700  1
  Na  Na13  1  0.88915800  0.57960700  0.79069300  1
  Na  Na14  1  0.57960700  0.69044900  0.20930700  1
  Na  Na15  1  0.42039300  0.30955100  0.79069300  1
  Na  Na16  1  0.30955100  0.88915800  0.20930700  1
  Na  Na17  1  0.69044900  0.11084200  0.79069300  1
  In  In18  1  0.66666700  0.33333300  0.69409800  1
  In  In19  1  0.33333300  0.66666700  0.30590200  1
  In  In20  1  0.00000000  0.00000000  0.50000000  1
  In  In21  1  0.66666700  0.33333300  0.19647200  1
  In  In22  1  0.33333300  0.66666700  0.80352800  1
  In  In23  1  0.00000000  0.00000000  0.00000000  1
  H  H24  1  0.23229600  0.25657000  0.38302500  1
  H  H25  1  0.76770400  0.74343000  0.61697500  1
  H  H26  1  0.74343000  0.97572600  0.38302500  1
  H  H27  1  0.25657000  0.02427400  0.61697500  1
  H  H28  1  0.02427400  0.76770400  0.38302500  1
  H  H29  1  0.97572600  0.23229600  0.61697500  1
  H  H30  1  0.92649600  0.35374200  0.28454900  1
  H  H31  1  0.07350400  0.64625800  0.71545100  1
  H  H32  1  0.64625800  0.57275400  0.28454900  1
  H  H33  1  0.35374200  0.42724600  0.71545100  1
  H  H34  1  0.42724600  0.07350400  0.28454900  1
  H  H35  1  0.57275400  0.92649600  0.71545100  1
  H  H36  1  0.68329400  0.08998100  0.09901500  1
  H  H37  1  0.31670600  0.91001900  0.90098500  1
  H  H38  1  0.91001900  0.59331300  0.09901500  1
  H  H39  1  0.08998100  0.40668700  0.90098500  1
  H  H40  1  0.40668700  0.31670600  0.09901500  1
  H  H41  1  0.59331300  0.68329400  0.90098500  1
  S  S42  1  0.34469800  0.50989700  0.06761100  1
  S  S43  1  0.65530200  0.49010300  0.93238900  1
  S  S44  1  0.49010300  0.83480100  0.06761100  1
  S  S45  1  0.50989700  0.16519900  0.93238900  1
  S  S46  1  0.16519900  0.65530200  0.06761100  1
  S  S47  1  0.83480100  0.34469800  0.93238900  1
  S  S48  1  0.98038600  0.15480000  0.24768800  1
  S  S49  1  0.01961400  0.84520000  0.75231200  1
  S  S50  1  0.84520000  0.82558600  0.24768800  1
  S  S51  1  0.15480000  0.17441400  0.75231200  1
  S  S52  1  0.17441400  0.01961400  0.24768800  1
  S  S53  1  0.82558600  0.98038600  0.75231200  1
  S  S54  1  0.67935300  0.17660800  0.45674700  1
  S  S55  1  0.32064700  0.82339200  0.54325300  1
  S  S56  1  0.82339200  0.50274500  0.45674700  1
  S  S57  1  0.17660800  0.49725500  0.54325300  1
  S  S58  1  0.49725500  0.32064700  0.45674700  1
  S  S59  1  0.50274500  0.67935300  0.54325300  1
  O  O60  1  0.05679000  0.24642300  0.17083300  1
  O  O61  1  0.94321000  0.75357700  0.82916700  1
  O  O62  1  0.75357700  0.81036700  0.17083300  1
  O  O63  1  0.24642300  0.18963300  0.82916700  1
  O  O64  1  0.18963300  0.94321000  0.17083300  1
  O  O65  1  0.81036700  0.05679000  0.82916700  1
  O  O66  1  0.93478900  0.07396200  0.12435700  1
  O  O67  1  0.06521100  0.92603800  0.87564300  1
  O  O68  1  0.92603800  0.86082700  0.12435700  1
  O  O69  1  0.07396200  0.13917300  0.87564300  1
  O  O70  1  0.13917300  0.06521100  0.12435700  1
  O  O71  1  0.86082700  0.93478900  0.87564300  1
  O  O72  1  0.57385600  0.20048600  0.06794200  1
  O  O73  1  0.42614400  0.79951400  0.93205800  1
  O  O74  1  0.79951400  0.37337000  0.06794200  1
  O  O75  1  0.20048600  0.62663000  0.93205800  1
  O  O76  1  0.62663000  0.42614400  0.06794200  1
  O  O77  1  0.37337000  0.57385600  0.93205800  1
  O  O78  1  0.43381100  0.53042900  0.15164300  1
  O  O79  1  0.56618900  0.46957100  0.84835700  1
  O  O80  1  0.46957100  0.90338200  0.15164300  1
  O  O81  1  0.53042900  0.09661800  0.84835700  1
  O  O82  1  0.09661800  0.56618900  0.15164300  1
  O  O83  1  0.90338200  0.43381100  0.84835700  1
  O  O84  1  0.27965400  0.53491400  0.16688900  1
  O  O85  1  0.72034600  0.46508600  0.83311100  1
  O  O86  1  0.46508600  0.74474000  0.16688900  1
  O  O87  1  0.53491400  0.25526000  0.83311100  1
  O  O88  1  0.25526000  0.72034600  0.16688900  1
  O  O89  1  0.74474000  0.27965400  0.83311100  1
  O  O90  1  0.61726900  0.07309200  0.41188700  1
  O  O91  1  0.38273100  0.92690800  0.58811300  1
  O  O92  1  0.92690800  0.54417700  0.41188700  1
  O  O93  1  0.07309200  0.45582300  0.58811300  1
  O  O94  1  0.45582300  0.38273100  0.41188700  1
  O  O95  1  0.54417700  0.61726900  0.58811300  1
  O  O96  1  0.19406900  0.42791400  0.45473100  1
  O  O97  1  0.80593100  0.57208600  0.54526900  1
  O  O98  1  0.57208600  0.76615500  0.45473100  1
  O  O99  1  0.42791400  0.23384500  0.54526900  1
  O  O100  1  0.23384500  0.80593100  0.45473100  1
  O  O101  1  0.76615500  0.19406900  0.54526900  1
  O  O102  1  0.03457600  0.12521700  0.35579100  1
  O  O103  1  0.96542400  0.87478300  0.64420900  1
  O  O104  1  0.87478300  0.90935800  0.35579100  1
  O  O105  1  0.12521700  0.09064200  0.64420900  1
  O  O106  1  0.09064200  0.96542400  0.35579100  1
  O  O107  1  0.90935800  0.03457600  0.64420900  1
  O  O108  1  0.41237200  0.61400900  0.44451800  1
  O  O109  1  0.58762800  0.38599100  0.55548200  1
  O  O110  1  0.38599100  0.79836300  0.44451800  1
  O  O111  1  0.61400900  0.20163700  0.55548200  1
  O  O112  1  0.20163700  0.58762800  0.44451800  1
  O  O113  1  0.79836300  0.41237200  0.55548200  1
  O  O114  1  0.71226200  0.24459700  0.32511700  1
  O  O115  1  0.28773800  0.75540300  0.67488300  1
  O  O116  1  0.75540300  0.46766500  0.32511700  1
  O  O117  1  0.24459700  0.53233500  0.67488300  1
  O  O118  1  0.53233500  0.28773800  0.32511700  1
  O  O119  1  0.46766500  0.71226200  0.67488300  1
  O  O120  1  0.90054800  0.16333200  0.31351700  1
  O  O121  1  0.09945200  0.83666800  0.68648300  1
  O  O122  1  0.83666800  0.73721600  0.31351700  1
  O  O123  1  0.16333200  0.26278400  0.68648300  1
  O  O124  1  0.26278400  0.09945200  0.31351700  1
  O  O125  1  0.73721600  0.90054800  0.68648300  1
  O  O126  1  0.28252800  0.40461300  0.02854300  1
  O  O127  1  0.71747200  0.59538700  0.97145700  1
  O  O128  1  0.59538700  0.87791500  0.02854300  1
  O  O129  1  0.40461300  0.12208500  0.97145700  1
  O  O130  1  0.12208500  0.71747200  0.02854300  1
  O  O131  1  0.87791500  0.28252800  0.97145700  1
