# generated using pymatgen
data_FePO5
_symmetry_space_group_name_H-M   'P 1'
_cell_length_a   8.52057140
_cell_length_b   8.52057140
_cell_length_c   9.18113128
_cell_angle_alpha   76.21920003
_cell_angle_beta   76.21920003
_cell_angle_gamma   77.29516632
_symmetry_Int_Tables_number   1
_chemical_formula_structural   FePO5
_chemical_formula_sum   'Fe6 P6 O30'
_cell_volume   619.24890116
_cell_formula_units_Z   6
loop_
 _symmetry_equiv_pos_site_id
 _symmetry_equiv_pos_as_xyz
  1  'x, y, z'
loop_
 _atom_site_type_symbol
 _atom_site_label
 _atom_site_symmetry_multiplicity
 _atom_site_fract_x
 _atom_site_fract_y
 _atom_site_fract_z
 _atom_site_occupancy
  Fe  Fe0  1  0.77636400  0.22363600  0.25000000  1
  Fe  Fe1  1  0.22363600  0.77636400  0.75000000  1
  Fe  Fe2  1  0.39674200  0.24783600  0.06911300  1
  Fe  Fe3  1  0.60325800  0.75216400  0.93088700  1
  Fe  Fe4  1  0.75216400  0.60325800  0.43088700  1
  Fe  Fe5  1  0.24783600  0.39674200  0.56911300  1
  P  P6  1  0.65952600  0.92105800  0.17550600  1
  P  P7  1  0.34047400  0.07894200  0.82449400  1
  P  P8  1  0.07894200  0.34047400  0.32449400  1
  P  P9  1  0.92105800  0.65952600  0.67550600  1
  P  P10  1  0.51281400  0.48718600  0.25000000  1
  P  P11  1  0.48718600  0.51281400  0.75000000  1
  O  O12  1  0.79197700  0.02015100  0.18436900  1
  O  O13  1  0.20802300  0.97984900  0.81563100  1
  O  O14  1  0.97984900  0.20802300  0.31563100  1
  O  O15  1  0.02015100  0.79197700  0.68436900  1
  O  O16  1  0.13947900  0.86052100  0.25000000  1
  O  O17  1  0.86052100  0.13947900  0.75000000  1
  O  O18  1  0.73269500  0.83414200  0.03976500  1
  O  O19  1  0.26730500  0.16585800  0.96023500  1
  O  O20  1  0.16585800  0.26730500  0.46023500  1
  O  O21  1  0.83414200  0.73269500  0.53976500  1
  O  O22  1  0.63126800  0.79587800  0.32719700  1
  O  O23  1  0.36873200  0.20412200  0.67280300  1
  O  O24  1  0.20412200  0.36873200  0.17280300  1
  O  O25  1  0.79587800  0.63126800  0.82719700  1
  O  O26  1  0.48921500  0.62970000  0.11532300  1
  O  O27  1  0.51078500  0.37030000  0.88467700  1
  O  O28  1  0.37030000  0.51078500  0.38467700  1
  O  O29  1  0.62970000  0.48921500  0.61532300  1
  O  O30  1  0.70292700  0.11634500  0.44245300  1
  O  O31  1  0.29707300  0.88365500  0.55754700  1
  O  O32  1  0.88365500  0.29707300  0.05754700  1
  O  O33  1  0.11634500  0.70292700  0.94245300  1
  O  O34  1  0.49491800  0.03255800  0.15586900  1
  O  O35  1  0.50508200  0.96744200  0.84413100  1
  O  O36  1  0.96744200  0.50508200  0.34413100  1
  O  O37  1  0.03255800  0.49491800  0.65586900  1
  O  O38  1  0.53686800  0.31776200  0.19953600  1
  O  O39  1  0.46313200  0.68223800  0.80046400  1
  O  O40  1  0.68223800  0.46313200  0.30046400  1
  O  O41  1  0.31776200  0.53686800  0.69953600  1
