# generated using pymatgen
data_Dy4Pt
_symmetry_space_group_name_H-M   'P 1'
_cell_length_a   7.75828934
_cell_length_b   7.75828934
_cell_length_c   7.75828934
_cell_angle_alpha   60.00000000
_cell_angle_beta   60.00000000
_cell_angle_gamma   60.00000000
_symmetry_Int_Tables_number   1
_chemical_formula_structural   Dy4Pt
_chemical_formula_sum   'Dy8 Pt2'
_cell_volume   330.20444743
_cell_formula_units_Z   2
loop_
 _symmetry_equiv_pos_site_id
 _symmetry_equiv_pos_as_xyz
  1  'x, y, z'
loop_
 _atom_site_type_symbol
 _atom_site_label
 _atom_site_symmetry_multiplicity
 _atom_site_fract_x
 _atom_site_fract_y
 _atom_site_fract_z
 _atom_site_occupancy
  Dy  Dy0  1  0.61062700  0.61062700  0.61062700  1
  Dy  Dy1  1  0.16812000  0.61062700  0.61062700  1
  Dy  Dy2  1  0.61062700  0.16812000  0.61062700  1
  Dy  Dy3  1  0.58188000  0.13937300  0.13937300  1
  Dy  Dy4  1  0.13937300  0.13937300  0.13937300  1
  Dy  Dy5  1  0.61062700  0.61062700  0.16812000  1
  Dy  Dy6  1  0.13937300  0.58188000  0.13937300  1
  Dy  Dy7  1  0.13937300  0.13937300  0.58188000  1
  Pt  Pt8  1  0.00000000  0.00000000  0.00000000  1
  Pt  Pt9  1  0.75000000  0.75000000  0.75000000  1
