# generated using pymatgen
data_Dy5Ni2Bi
_symmetry_space_group_name_H-M   'P 1'
_cell_length_a   8.68952315
_cell_length_b   8.68952315
_cell_length_c   8.68952315
_cell_angle_alpha   127.67800532
_cell_angle_beta   127.67800532
_cell_angle_gamma   77.14723029
_symmetry_Int_Tables_number   1
_chemical_formula_structural   Dy5Ni2Bi
_chemical_formula_sum   'Dy10 Ni4 Bi2'
_cell_volume   398.85775358
_cell_formula_units_Z   2
loop_
 _symmetry_equiv_pos_site_id
 _symmetry_equiv_pos_as_xyz
  1  'x, y, z'
loop_
 _atom_site_type_symbol
 _atom_site_label
 _atom_site_symmetry_multiplicity
 _atom_site_fract_x
 _atom_site_fract_y
 _atom_site_fract_z
 _atom_site_occupancy
  Dy  Dy0  1  0.00000000  0.00000000  0.00000000  1
  Dy  Dy1  1  0.50000000  0.50000000  0.00000000  1
  Dy  Dy2  1  0.79054200  0.29054200  0.81397400  1
  Dy  Dy3  1  0.20945800  0.70945800  0.18602600  1
  Dy  Dy4  1  0.47656700  0.97656700  0.18602600  1
  Dy  Dy5  1  0.29054200  0.47656700  0.50000000  1
  Dy  Dy6  1  0.02343300  0.20945800  0.50000000  1
  Dy  Dy7  1  0.52343300  0.02343300  0.81397400  1
  Dy  Dy8  1  0.70945800  0.52343300  0.50000000  1
  Dy  Dy9  1  0.97656700  0.79054200  0.50000000  1
  Ni  Ni10  1  0.13095400  0.63095400  0.76190800  1
  Ni  Ni11  1  0.86904600  0.36904600  0.23809200  1
  Ni  Ni12  1  0.63095400  0.86904600  0.50000000  1
  Ni  Ni13  1  0.36904600  0.13095400  0.50000000  1
  Bi  Bi14  1  0.25000000  0.25000000  0.00000000  1
  Bi  Bi15  1  0.75000000  0.75000000  0.00000000  1
