# generated using pymatgen
data_Er4Rh
_symmetry_space_group_name_H-M   'P 1'
_cell_length_a   7.55556324
_cell_length_b   7.55556324
_cell_length_c   7.55556324
_cell_angle_alpha   60.00000000
_cell_angle_beta   60.00000000
_cell_angle_gamma   60.00000000
_symmetry_Int_Tables_number   1
_chemical_formula_structural   Er4Rh
_chemical_formula_sum   'Er8 Rh2'
_cell_volume   304.98995539
_cell_formula_units_Z   2
loop_
 _symmetry_equiv_pos_site_id
 _symmetry_equiv_pos_as_xyz
  1  'x, y, z'
loop_
 _atom_site_type_symbol
 _atom_site_label
 _atom_site_symmetry_multiplicity
 _atom_site_fract_x
 _atom_site_fract_y
 _atom_site_fract_z
 _atom_site_occupancy
  Er  Er0  1  0.61104200  0.61104200  0.61104200  1
  Er  Er1  1  0.16687300  0.61104200  0.61104200  1
  Er  Er2  1  0.61104200  0.16687300  0.61104200  1
  Er  Er3  1  0.58312700  0.13895800  0.13895800  1
  Er  Er4  1  0.13895800  0.13895800  0.13895800  1
  Er  Er5  1  0.61104200  0.61104200  0.16687300  1
  Er  Er6  1  0.13895800  0.58312700  0.13895800  1
  Er  Er7  1  0.13895800  0.13895800  0.58312700  1
  Rh  Rh8  1  0.00000000  0.00000000  0.00000000  1
  Rh  Rh9  1  0.75000000  0.75000000  0.75000000  1
