# generated using pymatgen
data_GaPbF5
_symmetry_space_group_name_H-M   'P 1'
_cell_length_a   11.08751903
_cell_length_b   11.08751903
_cell_length_c   11.08751903
_cell_angle_alpha   96.58697672
_cell_angle_beta   96.58697672
_cell_angle_gamma   140.40575737
_symmetry_Int_Tables_number   1
_chemical_formula_structural   GaPbF5
_chemical_formula_sum   'Ga8 Pb8 F40'
_cell_volume   817.37477077
_cell_formula_units_Z   8
loop_
 _symmetry_equiv_pos_site_id
 _symmetry_equiv_pos_as_xyz
  1  'x, y, z'
loop_
 _atom_site_type_symbol
 _atom_site_label
 _atom_site_symmetry_multiplicity
 _atom_site_fract_x
 _atom_site_fract_y
 _atom_site_fract_z
 _atom_site_occupancy
  Ga  Ga0  1  0.71570000  0.71570000  0.00000000  1
  Ga  Ga1  1  0.64496700  0.16225100  0.85031500  1
  Ga  Ga2  1  0.31193600  0.79465200  0.14968500  1
  Ga  Ga3  1  0.16225100  0.31193600  0.51728400  1
  Ga  Ga4  1  0.79465200  0.64496700  0.48271600  1
  Ga  Ga5  1  0.21819800  0.21819800  0.00000000  1
  Ga  Ga6  1  0.97217200  0.47217200  0.50000000  1
  Ga  Ga7  1  0.47217200  0.97217200  0.50000000  1
  Pb  Pb8  1  0.93938600  0.21471300  0.17807300  1
  Pb  Pb9  1  0.03664000  0.76131300  0.82192700  1
  Pb  Pb10  1  0.21471300  0.03664000  0.27532700  1
  Pb  Pb11  1  0.76131300  0.93938600  0.72467300  1
  Pb  Pb12  1  0.72727900  0.41707800  0.17433500  1
  Pb  Pb13  1  0.24274300  0.55294500  0.82566500  1
  Pb  Pb14  1  0.41707800  0.24274300  0.68979900  1
  Pb  Pb15  1  0.55294500  0.72727900  0.31020100  1
  F  F16  1  0.51191700  0.90242300  0.81147900  1
  F  F17  1  0.09094400  0.70043800  0.18852100  1
  F  F18  1  0.90242300  0.09094400  0.39050500  1
  F  F19  1  0.70043800  0.51191700  0.60949500  1
  F  F20  1  0.72336200  0.22336200  0.50000000  1
  F  F21  1  0.22336200  0.72336200  0.50000000  1
  F  F22  1  0.46742600  0.46742600  0.00000000  1
  F  F23  1  0.40986800  0.06368400  0.86257300  1
  F  F24  1  0.20111100  0.54729500  0.13742700  1
  F  F25  1  0.06368400  0.20111100  0.65381600  1
  F  F26  1  0.54729500  0.40986800  0.34618400  1
  F  F27  1  0.75525000  0.24543700  0.03062900  1
  F  F28  1  0.21480800  0.72462100  0.96937100  1
  F  F29  1  0.24543700  0.21480800  0.49018700  1
  F  F30  1  0.72462100  0.75525000  0.50981300  1
  F  F31  1  0.55180100  0.90310100  0.14217400  1
  F  F32  1  0.76092700  0.40962600  0.85782600  1
  F  F33  1  0.90310100  0.76092700  0.35130000  1
  F  F34  1  0.40962600  0.55180000  0.64870000  1
  F  F35  1  0.96569000  0.96569000  0.00000000  1
  F  F36  1  0.91222700  0.36305300  0.32175200  1
  F  F37  1  0.04130100  0.59047500  0.67824800  1
  F  F38  1  0.36305300  0.04130100  0.45082600  1
  F  F39  1  0.59047500  0.91222700  0.54917400  1
  F  F40  1  0.33169400  0.16419200  0.07346200  1
  F  F41  1  0.09073100  0.25823200  0.92653800  1
  F  F42  1  0.16419200  0.09073100  0.83249900  1
  F  F43  1  0.25823200  0.33169400  0.16750100  1
  F  F44  1  0.51717300  0.08834700  0.66718100  1
  F  F45  1  0.42116600  0.84999200  0.33281900  1
  F  F46  1  0.08834700  0.42116600  0.57117400  1
  F  F47  1  0.84999200  0.51717300  0.42882600  1
  F  F48  1  0.59884600  0.76442400  0.92251700  1
  F  F49  1  0.84190700  0.67632900  0.07748300  1
  F  F50  1  0.76442400  0.84190700  0.16557800  1
  F  F51  1  0.67632900  0.59884600  0.83442200  1
  F  F52  1  0.43792300  0.05186100  0.19884500  1
  F  F53  1  0.85301600  0.23907800  0.80115500  1
  F  F54  1  0.05186100  0.85301600  0.61393800  1
  F  F55  1  0.23907800  0.43792300  0.38606200  1
