# generated using pymatgen
data_Er16In4Ir4O
_symmetry_space_group_name_H-M   'P 1'
_cell_length_a   9.55097332
_cell_length_b   9.55097332
_cell_length_c   9.55097332
_cell_angle_alpha   60.00000000
_cell_angle_beta   60.00000000
_cell_angle_gamma   60.00000000
_symmetry_Int_Tables_number   1
_chemical_formula_structural   Er16In4Ir4O
_chemical_formula_sum   'Er16 In4 Ir4 O1'
_cell_volume   616.06693104
_cell_formula_units_Z   1
loop_
 _symmetry_equiv_pos_site_id
 _symmetry_equiv_pos_as_xyz
  1  'x, y, z'
loop_
 _atom_site_type_symbol
 _atom_site_label
 _atom_site_symmetry_multiplicity
 _atom_site_fract_x
 _atom_site_fract_y
 _atom_site_fract_z
 _atom_site_occupancy
  Er  Er0  1  0.40079600  0.40079600  0.40079600  1
  Er  Er1  1  0.40079600  0.40079600  0.79761200  1
  Er  Er2  1  0.40079600  0.79761200  0.40079600  1
  Er  Er3  1  0.79761200  0.40079600  0.40079600  1
  Er  Er4  1  0.81570700  0.18429300  0.18429300  1
  Er  Er5  1  0.18429300  0.81570700  0.81570700  1
  Er  Er6  1  0.18429300  0.81570700  0.18429300  1
  Er  Er7  1  0.81570700  0.18429300  0.81570700  1
  Er  Er8  1  0.18429300  0.18429300  0.81570700  1
  Er  Er9  1  0.81570700  0.81570700  0.18429300  1
  Er  Er10  1  0.94135800  0.55864200  0.55864200  1
  Er  Er11  1  0.55864200  0.94135800  0.94135800  1
  Er  Er12  1  0.55864200  0.94135800  0.55864200  1
  Er  Er13  1  0.94135800  0.55864200  0.94135800  1
  Er  Er14  1  0.55864200  0.55864200  0.94135800  1
  Er  Er15  1  0.94135800  0.94135800  0.55864200  1
  In  In16  1  0.16647800  0.16647800  0.16647800  1
  In  In17  1  0.16647800  0.16647800  0.50056500  1
  In  In18  1  0.16647800  0.50056500  0.16647800  1
  In  In19  1  0.50056500  0.16647800  0.16647800  1
  Ir  Ir20  1  0.60879700  0.60879700  0.60879700  1
  Ir  Ir21  1  0.60879700  0.60879700  0.17360800  1
  Ir  Ir22  1  0.60879700  0.17360800  0.60879700  1
  Ir  Ir23  1  0.17360800  0.60879700  0.60879700  1
  O  O24  1  0.00000000  0.00000000  0.00000000  1
