# generated using pymatgen
data_Eu2HgO4
_symmetry_space_group_name_H-M   'P 1'
_cell_length_a   3.77680000
_cell_length_b   7.22487794
_cell_length_c   9.08256477
_cell_angle_alpha   77.30956180
_cell_angle_beta   77.99982199
_cell_angle_gamma   74.84836310
_symmetry_Int_Tables_number   1
_chemical_formula_structural   Eu2HgO4
_chemical_formula_sum   'Eu4 Hg2 O8'
_cell_volume   230.37623274
_cell_formula_units_Z   2
loop_
 _symmetry_equiv_pos_site_id
 _symmetry_equiv_pos_as_xyz
  1  'x, y, z'
loop_
 _atom_site_type_symbol
 _atom_site_label
 _atom_site_symmetry_multiplicity
 _atom_site_fract_x
 _atom_site_fract_y
 _atom_site_fract_z
 _atom_site_occupancy
  Eu  Eu0  1  0.62058500  0.21567500  0.54315600  1
  Eu  Eu1  1  0.37941500  0.78432500  0.45684400  1
  Eu  Eu2  1  0.83712500  0.52760700  0.79814400  1
  Eu  Eu3  1  0.16287500  0.47239300  0.20185600  1
  Hg  Hg4  1  0.88544100  0.06673400  0.16238300  1
  Hg  Hg5  1  0.11455900  0.93326600  0.83761700  1
  O  O6  1  0.96510300  0.78890400  0.28089000  1
  O  O7  1  0.03489700  0.21109600  0.71911000  1
  O  O8  1  0.58169500  0.48577000  0.35083900  1
  O  O9  1  0.41830500  0.51423000  0.64916100  1
  O  O10  1  0.79332900  0.35233400  0.06100900  1
  O  O11  1  0.20667100  0.64766600  0.93899100  1
  O  O12  1  0.76752300  0.85209200  0.61286200  1
  O  O13  1  0.23247700  0.14790800  0.38713800  1
