# generated using pymatgen
data_DyBeNF6
_symmetry_space_group_name_H-M   'P 1'
_cell_length_a   5.86447600
_cell_length_b   6.63034700
_cell_length_c   7.49862174
_cell_angle_alpha   66.17291093
_cell_angle_beta   90.00000000
_cell_angle_gamma   90.00000000
_symmetry_Int_Tables_number   1
_chemical_formula_structural   DyBeNF6
_chemical_formula_sum   'Dy2 Be2 N2 F12'
_cell_volume   266.72163711
_cell_formula_units_Z   2
loop_
 _symmetry_equiv_pos_site_id
 _symmetry_equiv_pos_as_xyz
  1  'x, y, z'
loop_
 _atom_site_type_symbol
 _atom_site_label
 _atom_site_symmetry_multiplicity
 _atom_site_fract_x
 _atom_site_fract_y
 _atom_site_fract_z
 _atom_site_occupancy
  Dy  Dy0  1  0.25000000  0.37506900  0.21947500  1
  Dy  Dy1  1  0.75000000  0.62493100  0.78052500  1
  Be  Be2  1  0.25000000  0.78218600  0.45099100  1
  Be  Be3  1  0.75000000  0.21781400  0.54900900  1
  N  N4  1  0.25000000  0.21742000  0.84586900  1
  N  N5  1  0.75000000  0.78258000  0.15413100  1
  F  F6  1  0.46372600  0.75102000  0.58490100  1
  F  F7  1  0.53627400  0.24898000  0.41509900  1
  F  F8  1  0.96372600  0.24898000  0.41509900  1
  F  F9  1  0.03627400  0.75102000  0.58490100  1
  F  F10  1  0.25000000  0.60381800  0.36551300  1
  F  F11  1  0.75000000  0.39618200  0.63448700  1
  F  F12  1  0.54748100  0.64740100  0.04893500  1
  F  F13  1  0.45251900  0.35259900  0.95106500  1
  F  F14  1  0.04748100  0.35259900  0.95106500  1
  F  F15  1  0.95251900  0.64740100  0.04893500  1
  F  F16  1  0.25000000  0.01633900  0.28198300  1
  F  F17  1  0.75000000  0.98366100  0.71801700  1
