# generated using pymatgen
data_Er4MgGe4
_symmetry_space_group_name_H-M   'P 1'
_cell_length_a   7.17279100
_cell_length_b   7.71721800
_cell_length_c   14.45865100
_cell_angle_alpha   90.00000000
_cell_angle_beta   90.00000000
_cell_angle_gamma   90.00000000
_symmetry_Int_Tables_number   1
_chemical_formula_structural   Er4MgGe4
_chemical_formula_sum   'Er16 Mg4 Ge16'
_cell_volume   800.34404912
_cell_formula_units_Z   4
loop_
 _symmetry_equiv_pos_site_id
 _symmetry_equiv_pos_as_xyz
  1  'x, y, z'
loop_
 _atom_site_type_symbol
 _atom_site_label
 _atom_site_symmetry_multiplicity
 _atom_site_fract_x
 _atom_site_fract_y
 _atom_site_fract_z
 _atom_site_occupancy
  Er  Er0  1  0.00892900  0.18268900  0.09453500  1
  Er  Er1  1  0.99107100  0.81731100  0.90546500  1
  Er  Er2  1  0.49107100  0.68268900  0.90546500  1
  Er  Er3  1  0.99107100  0.81731100  0.59453500  1
  Er  Er4  1  0.50892900  0.31731100  0.09453500  1
  Er  Er5  1  0.00892900  0.18268900  0.40546500  1
  Er  Er6  1  0.50892900  0.31731100  0.40546500  1
  Er  Er7  1  0.49107100  0.68268900  0.59453500  1
  Er  Er8  1  0.33087200  0.17722300  0.62658100  1
  Er  Er9  1  0.66912800  0.82277700  0.37341900  1
  Er  Er10  1  0.16912800  0.67722300  0.37341900  1
  Er  Er11  1  0.66912800  0.82277700  0.12658100  1
  Er  Er12  1  0.83087200  0.32277700  0.62658100  1
  Er  Er13  1  0.33087200  0.17722300  0.87341900  1
  Er  Er14  1  0.83087200  0.32277700  0.87341900  1
  Er  Er15  1  0.16912800  0.67722300  0.12658100  1
  Mg  Mg16  1  0.16088000  0.51571200  0.75000000  1
  Mg  Mg17  1  0.83912000  0.48428800  0.25000000  1
  Mg  Mg18  1  0.33912000  0.01571200  0.25000000  1
  Mg  Mg19  1  0.66088000  0.98428800  0.75000000  1
  Ge  Ge20  1  0.02491000  0.09164600  0.75000000  1
  Ge  Ge21  1  0.97509000  0.90835400  0.25000000  1
  Ge  Ge22  1  0.47509000  0.59164600  0.25000000  1
  Ge  Ge23  1  0.52491000  0.40835400  0.75000000  1
  Ge  Ge24  1  0.17208600  0.46589200  0.53617500  1
  Ge  Ge25  1  0.82791400  0.53410800  0.46382500  1
  Ge  Ge26  1  0.32791400  0.96589200  0.46382500  1
  Ge  Ge27  1  0.82791400  0.53410800  0.03617500  1
  Ge  Ge28  1  0.67208600  0.03410800  0.53617500  1
  Ge  Ge29  1  0.17208600  0.46589200  0.96382500  1
  Ge  Ge30  1  0.67208600  0.03410800  0.96382500  1
  Ge  Ge31  1  0.32791400  0.96589200  0.03617500  1
  Ge  Ge32  1  0.28927400  0.86105900  0.75000000  1
  Ge  Ge33  1  0.71072600  0.13894100  0.25000000  1
  Ge  Ge34  1  0.21072600  0.36105900  0.25000000  1
  Ge  Ge35  1  0.78927400  0.63894100  0.75000000  1
