# generated using pymatgen
data_EuHo2O4
_symmetry_space_group_name_H-M   'P 1'
_cell_length_a   3.40132400
_cell_length_b   10.01944900
_cell_length_c   11.91330400
_cell_angle_alpha   90.00000000
_cell_angle_beta   90.00000000
_cell_angle_gamma   90.00000000
_symmetry_Int_Tables_number   1
_chemical_formula_structural   EuHo2O4
_chemical_formula_sum   'Eu4 Ho8 O16'
_cell_volume   405.99816121
_cell_formula_units_Z   4
loop_
 _symmetry_equiv_pos_site_id
 _symmetry_equiv_pos_as_xyz
  1  'x, y, z'
loop_
 _atom_site_type_symbol
 _atom_site_label
 _atom_site_symmetry_multiplicity
 _atom_site_fract_x
 _atom_site_fract_y
 _atom_site_fract_z
 _atom_site_occupancy
  Eu  Eu0  1  0.25000000  0.74899000  0.14892600  1
  Eu  Eu1  1  0.75000000  0.25101000  0.85107400  1
  Eu  Eu2  1  0.75000000  0.75101000  0.64892600  1
  Eu  Eu3  1  0.25000000  0.24899000  0.35107400  1
  Ho  Ho4  1  0.25000000  0.57591300  0.88893500  1
  Ho  Ho5  1  0.75000000  0.42408700  0.11106500  1
  Ho  Ho6  1  0.75000000  0.92408700  0.38893500  1
  Ho  Ho7  1  0.25000000  0.07591300  0.61106500  1
  Ho  Ho8  1  0.25000000  0.07867800  0.11193400  1
  Ho  Ho9  1  0.75000000  0.92132200  0.88806600  1
  Ho  Ho10  1  0.75000000  0.42132200  0.61193400  1
  Ho  Ho11  1  0.25000000  0.57867800  0.38806600  1
  O  O12  1  0.25000000  0.78770500  0.82405700  1
  O  O13  1  0.75000000  0.21229500  0.17594300  1
  O  O14  1  0.75000000  0.71229500  0.32405700  1
  O  O15  1  0.25000000  0.28770500  0.67594300  1
  O  O16  1  0.25000000  0.98586300  0.28332300  1
  O  O17  1  0.75000000  0.01413700  0.71667700  1
  O  O18  1  0.75000000  0.51413700  0.78332300  1
  O  O19  1  0.25000000  0.48586300  0.21667700  1
  O  O20  1  0.25000000  0.57588100  0.57805800  1
  O  O21  1  0.75000000  0.42411900  0.42194200  1
  O  O22  1  0.75000000  0.92411900  0.07805800  1
  O  O23  1  0.25000000  0.07588100  0.92194200  1
  O  O24  1  0.25000000  0.87278900  0.51990500  1
  O  O25  1  0.75000000  0.12721100  0.48009500  1
  O  O26  1  0.75000000  0.62721100  0.01990500  1
  O  O27  1  0.25000000  0.37278900  0.98009500  1
