# generated using pymatgen
data_Eu2ZnPtO6
_symmetry_space_group_name_H-M   'P 1'
_cell_length_a   5.79662200
_cell_length_b   5.53434100
_cell_length_c   9.57966510
_cell_angle_alpha   54.85609485
_cell_angle_beta   90.00000000
_cell_angle_gamma   90.00000000
_symmetry_Int_Tables_number   1
_chemical_formula_structural   Eu2ZnPtO6
_chemical_formula_sum   'Eu4 Zn2 Pt2 O12'
_cell_volume   251.29851608
_cell_formula_units_Z   2
loop_
 _symmetry_equiv_pos_site_id
 _symmetry_equiv_pos_as_xyz
  1  'x, y, z'
loop_
 _atom_site_type_symbol
 _atom_site_label
 _atom_site_symmetry_multiplicity
 _atom_site_fract_x
 _atom_site_fract_y
 _atom_site_fract_z
 _atom_site_occupancy
  Eu  Eu0  1  0.06286700  0.73128300  0.75280400  1
  Eu  Eu1  1  0.93713300  0.26871700  0.24719600  1
  Eu  Eu2  1  0.56286700  0.26871700  0.74719600  1
  Eu  Eu3  1  0.43713300  0.73128300  0.25280400  1
  Zn  Zn4  1  0.50000000  0.50000000  0.00000000  1
  Zn  Zn5  1  0.00000000  0.50000000  0.50000000  1
  Pt  Pt6  1  0.50000000  0.00000000  0.50000000  1
  Pt  Pt7  1  0.00000000  0.00000000  0.00000000  1
  O  O8  1  0.46284800  0.85631000  0.74716500  1
  O  O9  1  0.53715200  0.14369000  0.25283500  1
  O  O10  1  0.96284800  0.14369000  0.75283500  1
  O  O11  1  0.03715200  0.85631000  0.24716500  1
  O  O12  1  0.79289500  0.75627700  0.55565300  1
  O  O13  1  0.20710500  0.24372300  0.44434700  1
  O  O14  1  0.29289500  0.24372300  0.94434700  1
  O  O15  1  0.70710500  0.75627700  0.05565300  1
  O  O16  1  0.30790800  0.65143100  0.54793400  1
  O  O17  1  0.69209200  0.34856900  0.45206600  1
  O  O18  1  0.80790800  0.34856900  0.95206600  1
  O  O19  1  0.19209200  0.65143100  0.04793400  1
