# generated using pymatgen
data_Eu2MgPtO6
_symmetry_space_group_name_H-M   'P 1'
_cell_length_a   5.70614100
_cell_length_b   5.54268600
_cell_length_c   9.64720622
_cell_angle_alpha   54.95401404
_cell_angle_beta   90.00000000
_cell_angle_gamma   90.00000000
_symmetry_Int_Tables_number   1
_chemical_formula_structural   Eu2MgPtO6
_chemical_formula_sum   'Eu4 Mg2 Pt2 O12'
_cell_volume   249.79548152
_cell_formula_units_Z   2
loop_
 _symmetry_equiv_pos_site_id
 _symmetry_equiv_pos_as_xyz
  1  'x, y, z'
loop_
 _atom_site_type_symbol
 _atom_site_label
 _atom_site_symmetry_multiplicity
 _atom_site_fract_x
 _atom_site_fract_y
 _atom_site_fract_z
 _atom_site_occupancy
  Eu  Eu0  1  0.44385300  0.23975700  0.74750800  1
  Eu  Eu1  1  0.55614700  0.76024300  0.25249200  1
  Eu  Eu2  1  0.94385300  0.76024300  0.75249200  1
  Eu  Eu3  1  0.05614700  0.23975700  0.24750800  1
  Mg  Mg4  1  0.00000000  0.50000000  0.50000000  1
  Mg  Mg5  1  0.50000000  0.50000000  0.00000000  1
  Pt  Pt6  1  0.00000000  0.00000000  0.00000000  1
  Pt  Pt7  1  0.50000000  0.00000000  0.50000000  1
  O  O8  1  0.03260700  0.34356300  0.75278800  1
  O  O9  1  0.96739300  0.65643700  0.24721200  1
  O  O10  1  0.53260700  0.65643700  0.74721200  1
  O  O11  1  0.46739300  0.34356300  0.25278800  1
  O  O12  1  0.70664600  0.85861700  0.94802900  1
  O  O13  1  0.29335400  0.14138300  0.05197100  1
  O  O14  1  0.20664600  0.14138300  0.55197100  1
  O  O15  1  0.79335400  0.85861700  0.44802900  1
  O  O16  1  0.19661600  0.74925900  0.95296200  1
  O  O17  1  0.80338400  0.25074100  0.04703800  1
  O  O18  1  0.69661600  0.25074100  0.54703800  1
  O  O19  1  0.30338400  0.74925900  0.45296200  1
