# generated using pymatgen
data_ErMnGa
_symmetry_space_group_name_H-M   'P 1'
_cell_length_a   8.14375089
_cell_length_b   8.14375089
_cell_length_c   8.14375089
_cell_angle_alpha   128.32644858
_cell_angle_beta   119.76630575
_cell_angle_gamma   83.30380425
_symmetry_Int_Tables_number   1
_chemical_formula_structural   ErMnGa
_chemical_formula_sum   'Er6 Mn6 Ga6'
_cell_volume   352.99187789
_cell_formula_units_Z   6
loop_
 _symmetry_equiv_pos_site_id
 _symmetry_equiv_pos_as_xyz
  1  'x, y, z'
loop_
 _atom_site_type_symbol
 _atom_site_label
 _atom_site_symmetry_multiplicity
 _atom_site_fract_x
 _atom_site_fract_y
 _atom_site_fract_z
 _atom_site_occupancy
  Er  Er0  1  0.53086200  0.26044900  0.22958700  1
  Er  Er1  1  0.46913800  0.69872500  0.72958700  1
  Er  Er2  1  0.25113000  0.83725200  0.08612300  1
  Er  Er3  1  0.74887000  0.83499300  0.58612300  1
  Er  Er4  1  0.94851400  0.64971800  0.20120400  1
  Er  Er5  1  0.05148600  0.25269100  0.70120400  1
  Mn  Mn6  1  0.50000000  0.48744100  0.98744100  1
  Mn  Mn7  1  0.00000000  0.48744100  0.48744100  1
  Mn  Mn8  1  0.90041100  0.01653800  0.15070400  1
  Mn  Mn9  1  0.09958900  0.25029300  0.11612600  1
  Mn  Mn10  1  0.63416700  0.25029300  0.65070400  1
  Mn  Mn11  1  0.36583300  0.01653800  0.61612600  1
  Ga  Ga12  1  0.73058900  0.23008000  0.99949100  1
  Ga  Ga13  1  0.26941100  0.26890200  0.49949100  1
  Ga  Ga14  1  0.67216300  0.92217700  0.25911000  1
  Ga  Ga15  1  0.32783700  0.58694700  0.25001400  1
  Ga  Ga16  1  0.83693300  0.58694700  0.75911000  1
  Ga  Ga17  1  0.16306700  0.92217700  0.75001400  1
