# generated using pymatgen
data_MnSn3F6
_symmetry_space_group_name_H-M   'P 1'
_cell_length_a   11.03725800
_cell_length_b   11.34785344
_cell_length_c   20.83448196
_cell_angle_alpha   83.66464779
_cell_angle_beta   84.85178774
_cell_angle_gamma   62.95300016
_symmetry_Int_Tables_number   1
_chemical_formula_structural   MnSn3F6
_chemical_formula_sum   'Mn1 Sn3 F6'
_cell_volume   2307.61010907
_cell_formula_units_Z   1
loop_
 _symmetry_equiv_pos_site_id
 _symmetry_equiv_pos_as_xyz
  1  'x, y, z'
loop_
 _atom_site_type_symbol
 _atom_site_label
 _atom_site_symmetry_multiplicity
 _atom_site_fract_x
 _atom_site_fract_y
 _atom_site_fract_z
 _atom_site_occupancy
  Mn  Mn0  1  0.00000000  0.00000000  0.00000000  1
  Sn  Sn1  1  0.00000000  0.00000000  0.50000000  1
  Sn  Sn2  1  0.00000000  0.50000000  0.00000000  1
  Sn  Sn3  1  0.50000000  0.50000000  0.00000000  1
  F  F4  1  0.60667800  0.39879900  0.92020400  1
  F  F5  1  0.39332200  0.60120100  0.07979600  1
  F  F6  1  0.00463900  0.92113700  0.59455700  1
  F  F7  1  0.99536100  0.07886300  0.40544300  1
  F  F8  1  0.91409100  0.70434800  0.00444400  1
  F  F9  1  0.08590900  0.29565200  0.99555600  1
