# generated using pymatgen
data_CsSb4F13
_symmetry_space_group_name_H-M   'P 1'
_cell_length_a   7.93045594
_cell_length_b   7.93045594
_cell_length_c   7.93045594
_cell_angle_alpha   101.25314016
_cell_angle_beta   101.25314016
_cell_angle_gamma   127.56867079
_symmetry_Int_Tables_number   1
_chemical_formula_structural   CsSb4F13
_chemical_formula_sum   'Cs1 Sb4 F13'
_cell_volume   354.66660399
_cell_formula_units_Z   1
loop_
 _symmetry_equiv_pos_site_id
 _symmetry_equiv_pos_as_xyz
  1  'x, y, z'
loop_
 _atom_site_type_symbol
 _atom_site_label
 _atom_site_symmetry_multiplicity
 _atom_site_fract_x
 _atom_site_fract_y
 _atom_site_fract_z
 _atom_site_occupancy
  Cs  Cs0  1  0.50000000  0.50000000  0.00000000  1
  Sb  Sb1  1  0.27276900  0.00294400  0.27571200  1
  Sb  Sb2  1  0.72723100  0.99705600  0.72428800  1
  Sb  Sb3  1  0.99705600  0.27276900  0.26982500  1
  Sb  Sb4  1  0.00294400  0.72723100  0.73017500  1
  F  F5  1  0.11534800  0.43078700  0.54613600  1
  F  F6  1  0.88465200  0.56921300  0.45386400  1
  F  F7  1  0.56921300  0.11534800  0.68456100  1
  F  F8  1  0.43078700  0.88465200  0.31543900  1
  F  F9  1  0.00000000  0.00000000  0.00000000  1
  F  F10  1  0.31824500  0.41617600  0.31725600  1
  F  F11  1  0.68175500  0.58382400  0.68274400  1
  F  F12  1  0.09892000  0.00098900  0.68274400  1
  F  F13  1  0.00098900  0.31824500  0.90206900  1
  F  F14  1  0.90108000  0.99901100  0.31725600  1
  F  F15  1  0.99901100  0.68175500  0.09793100  1
  F  F16  1  0.41617600  0.09892000  0.09793100  1
  F  F17  1  0.58382400  0.90108000  0.90206900  1
