# generated using pymatgen
data_CsRbMo3O10
_symmetry_space_group_name_H-M   'P 1'
_cell_length_a   8.54657795
_cell_length_b   8.65324019
_cell_length_c   8.75867312
_cell_angle_alpha   63.23732100
_cell_angle_beta   85.64920929
_cell_angle_gamma   74.63292886
_symmetry_Int_Tables_number   1
_chemical_formula_structural   CsRbMo3O10
_chemical_formula_sum   'Cs2 Rb2 Mo6 O20'
_cell_volume   556.97614542
_cell_formula_units_Z   2
loop_
 _symmetry_equiv_pos_site_id
 _symmetry_equiv_pos_as_xyz
  1  'x, y, z'
loop_
 _atom_site_type_symbol
 _atom_site_label
 _atom_site_symmetry_multiplicity
 _atom_site_fract_x
 _atom_site_fract_y
 _atom_site_fract_z
 _atom_site_occupancy
  Cs  Cs0  1  0.30867500  0.73354300  0.09028300  1
  Cs  Cs1  1  0.69132500  0.26645700  0.90971700  1
  Rb  Rb2  1  0.15373700  0.47606200  0.72630900  1
  Rb  Rb3  1  0.84626300  0.52393800  0.27369100  1
  Mo  Mo4  1  0.54726500  0.19584300  0.46544000  1
  Mo  Mo5  1  0.45273500  0.80415700  0.53456000  1
  Mo  Mo6  1  0.03317200  0.06050900  0.64433400  1
  Mo  Mo7  1  0.96682800  0.93949100  0.35566600  1
  Mo  Mo8  1  0.23481500  0.15895800  0.19757600  1
  Mo  Mo9  1  0.76518500  0.84104200  0.80242400  1
  O  O10  1  0.05534800  0.09283100  0.14021900  1
  O  O11  1  0.94465200  0.90716900  0.85978100  1
  O  O12  1  0.03180000  0.14743300  0.40234100  1
  O  O13  1  0.96820000  0.85256700  0.59765900  1
  O  O14  1  0.40395600  0.09719300  0.37556800  1
  O  O15  1  0.59604400  0.90280700  0.62443200  1
  O  O16  1  0.73319200  0.13245900  0.60516800  1
  O  O17  1  0.26680800  0.86754100  0.39483200  1
  O  O18  1  0.35978900  0.13573900  0.03862800  1
  O  O19  1  0.64021100  0.86426100  0.96137200  1
  O  O20  1  0.75802500  0.03487200  0.30416400  1
  O  O21  1  0.24197500  0.96512800  0.69583600  1
  O  O22  1  0.57387900  0.37346400  0.27083900  1
  O  O23  1  0.42612100  0.62653600  0.72916100  1
  O  O24  1  0.17120000  0.39208000  0.12115400  1
  O  O25  1  0.82880000  0.60792000  0.87884600  1
  O  O26  1  0.01125700  0.73810900  0.33778900  1
  O  O27  1  0.98874300  0.26189100  0.66221100  1
  O  O28  1  0.40006800  0.29916200  0.56112000  1
  O  O29  1  0.59993200  0.70083800  0.43888000  1
