# generated using pymatgen
data_ErMn2O3
_symmetry_space_group_name_H-M   'P 1'
_cell_length_a   5.97832400
_cell_length_b   6.43970000
_cell_length_c   9.21068800
_cell_angle_alpha   90.00000000
_cell_angle_beta   90.00000000
_cell_angle_gamma   90.00000000
_symmetry_Int_Tables_number   1
_chemical_formula_structural   ErMn2O3
_chemical_formula_sum   'Er4 Mn8 O12'
_cell_volume   354.59871335
_cell_formula_units_Z   4
loop_
 _symmetry_equiv_pos_site_id
 _symmetry_equiv_pos_as_xyz
  1  'x, y, z'
loop_
 _atom_site_type_symbol
 _atom_site_label
 _atom_site_symmetry_multiplicity
 _atom_site_fract_x
 _atom_site_fract_y
 _atom_site_fract_z
 _atom_site_occupancy
  Er  Er0  1  0.50000000  0.39158500  0.33079200  1
  Er  Er1  1  0.50000000  0.60841500  0.66920800  1
  Er  Er2  1  0.50000000  0.10841500  0.83079200  1
  Er  Er3  1  0.50000000  0.89158500  0.16920800  1
  Mn  Mn4  1  0.23636300  0.00000000  0.50000000  1
  Mn  Mn5  1  0.76363700  0.00000000  0.50000000  1
  Mn  Mn6  1  0.76363700  0.50000000  0.00000000  1
  Mn  Mn7  1  0.23636300  0.50000000  0.00000000  1
  Mn  Mn8  1  0.00000000  0.09942900  0.15120800  1
  Mn  Mn9  1  0.00000000  0.90057100  0.84879200  1
  Mn  Mn10  1  0.00000000  0.40057100  0.65120800  1
  Mn  Mn11  1  0.00000000  0.59942900  0.34879200  1
  O  O12  1  0.26943300  0.10416800  0.30229600  1
  O  O13  1  0.73056700  0.89583200  0.69770400  1
  O  O14  1  0.26943300  0.89583200  0.69770400  1
  O  O15  1  0.73056700  0.39583200  0.80229600  1
  O  O16  1  0.73056700  0.10416800  0.30229600  1
  O  O17  1  0.26943300  0.60416800  0.19770400  1
  O  O18  1  0.73056700  0.60416800  0.19770400  1
  O  O19  1  0.26943300  0.39583200  0.80229600  1
  O  O20  1  0.25834100  0.00000000  0.00000000  1
  O  O21  1  0.74165900  0.00000000  0.00000000  1
  O  O22  1  0.74165900  0.50000000  0.50000000  1
  O  O23  1  0.25834100  0.50000000  0.50000000  1
