# generated using pymatgen
data_Ho5Cl11
_symmetry_space_group_name_H-M   'P 1'
_cell_length_a   33.55319500
_cell_length_b   6.63795600
_cell_length_c   6.89170843
_cell_angle_alpha   86.75861988
_cell_angle_beta   90.00000000
_cell_angle_gamma   90.00000000
_symmetry_Int_Tables_number   1
_chemical_formula_structural   Ho5Cl11
_chemical_formula_sum   'Ho20 Cl44'
_cell_volume   1532.49758956
_cell_formula_units_Z   4
loop_
 _symmetry_equiv_pos_site_id
 _symmetry_equiv_pos_as_xyz
  1  'x, y, z'
loop_
 _atom_site_type_symbol
 _atom_site_label
 _atom_site_symmetry_multiplicity
 _atom_site_fract_x
 _atom_site_fract_y
 _atom_site_fract_z
 _atom_site_occupancy
  Ho  Ho0  1  0.93789700  0.42603100  0.13847300  1
  Ho  Ho1  1  0.06210300  0.57396900  0.86152700  1
  Ho  Ho2  1  0.43789700  0.57396900  0.86152700  1
  Ho  Ho3  1  0.56210300  0.42603100  0.13847300  1
  Ho  Ho4  1  0.44182400  0.96353900  0.39339000  1
  Ho  Ho5  1  0.55817600  0.03646100  0.60661000  1
  Ho  Ho6  1  0.94182400  0.03646100  0.60661000  1
  Ho  Ho7  1  0.05817600  0.96353900  0.39339000  1
  Ho  Ho8  1  0.35197100  0.52405500  0.17522800  1
  Ho  Ho9  1  0.64802900  0.47594500  0.82477200  1
  Ho  Ho10  1  0.85197100  0.47594500  0.82477200  1
  Ho  Ho11  1  0.14802900  0.52405500  0.17522800  1
  Ho  Ho12  1  0.25000000  0.99782300  0.32311400  1
  Ho  Ho13  1  0.75000000  0.00217700  0.67688600  1
  Ho  Ho14  1  0.36260700  0.93887000  0.69885800  1
  Ho  Ho15  1  0.63739300  0.06113000  0.30114200  1
  Ho  Ho16  1  0.86260700  0.06113000  0.30114200  1
  Ho  Ho17  1  0.13739300  0.93887000  0.69885800  1
  Ho  Ho18  1  0.25000000  0.49168200  0.81946500  1
  Ho  Ho19  1  0.75000000  0.50831800  0.18053500  1
  Cl  Cl20  1  0.82853000  0.84616000  0.62845300  1
  Cl  Cl21  1  0.17147000  0.15384000  0.37154700  1
  Cl  Cl22  1  0.32853000  0.15384000  0.37154700  1
  Cl  Cl23  1  0.67147000  0.84616000  0.62845300  1
  Cl  Cl24  1  0.29794600  0.70025900  0.52750500  1
  Cl  Cl25  1  0.70205400  0.29974100  0.47249500  1
  Cl  Cl26  1  0.79794600  0.29974100  0.47249500  1
  Cl  Cl27  1  0.20205400  0.70025900  0.52750500  1
  Cl  Cl28  1  0.29773800  0.79537800  0.01980000  1
  Cl  Cl29  1  0.70226200  0.20462200  0.98020000  1
  Cl  Cl30  1  0.79773800  0.20462200  0.98020000  1
  Cl  Cl31  1  0.20226200  0.79537800  0.01980000  1
  Cl  Cl32  1  0.82528100  0.68107800  0.12312500  1
  Cl  Cl33  1  0.17471900  0.31892200  0.87687500  1
  Cl  Cl34  1  0.32528100  0.31892200  0.87687500  1
  Cl  Cl35  1  0.67471900  0.68107800  0.12312500  1
  Cl  Cl36  1  0.39619700  0.85991400  0.06580700  1
  Cl  Cl37  1  0.60380300  0.14008600  0.93419300  1
  Cl  Cl38  1  0.89619700  0.14008600  0.93419300  1
  Cl  Cl39  1  0.10380300  0.85991400  0.06580700  1
  Cl  Cl40  1  0.25000000  0.12828400  0.67278700  1
  Cl  Cl41  1  0.75000000  0.87171600  0.32721300  1
  Cl  Cl42  1  0.41825700  0.31661000  0.16005200  1
  Cl  Cl43  1  0.58174300  0.68339000  0.83994800  1
  Cl  Cl44  1  0.91825700  0.68339000  0.83994800  1
  Cl  Cl45  1  0.08174300  0.31661000  0.16005200  1
  Cl  Cl46  1  0.48747600  0.71010500  0.13802400  1
  Cl  Cl47  1  0.51252400  0.28989500  0.86197600  1
  Cl  Cl48  1  0.98747600  0.28989500  0.86197600  1
  Cl  Cl49  1  0.01252400  0.71010500  0.13802400  1
  Cl  Cl50  1  0.92146600  0.79354600  0.32034200  1
  Cl  Cl51  1  0.07853400  0.20645400  0.67965800  1
  Cl  Cl52  1  0.42146600  0.20645400  0.67965800  1
  Cl  Cl53  1  0.57853400  0.79354600  0.32034200  1
  Cl  Cl54  1  0.49213400  0.77687400  0.63390800  1
  Cl  Cl55  1  0.50786600  0.22312600  0.36609200  1
  Cl  Cl56  1  0.99213400  0.22312600  0.36609200  1
  Cl  Cl57  1  0.00786600  0.77687400  0.63390800  1
  Cl  Cl58  1  0.25000000  0.38499900  0.19542700  1
  Cl  Cl59  1  0.75000000  0.61500100  0.80457300  1
  Cl  Cl60  1  0.39527100  0.63531600  0.49894400  1
  Cl  Cl61  1  0.60472900  0.36468400  0.50105600  1
  Cl  Cl62  1  0.89527100  0.36468400  0.50105600  1
  Cl  Cl63  1  0.10472900  0.63531600  0.49894400  1
