# generated using pymatgen
data_Dy2(MoO4)3
_symmetry_space_group_name_H-M   'P 1'
_cell_length_a   6.92076674
_cell_length_b   6.92076674
_cell_length_c   11.42452167
_cell_angle_alpha   79.35814690
_cell_angle_beta   79.35814690
_cell_angle_gamma   112.45982913
_symmetry_Int_Tables_number   1
_chemical_formula_structural   Dy2(MoO4)3
_chemical_formula_sum   'Dy4 Mo6 O24'
_cell_volume   476.97124423
_cell_formula_units_Z   2
loop_
 _symmetry_equiv_pos_site_id
 _symmetry_equiv_pos_as_xyz
  1  'x, y, z'
loop_
 _atom_site_type_symbol
 _atom_site_label
 _atom_site_symmetry_multiplicity
 _atom_site_fract_x
 _atom_site_fract_y
 _atom_site_fract_z
 _atom_site_occupancy
  Dy  Dy0  1  0.54407200  0.78832600  0.90881400  1
  Dy  Dy1  1  0.45592800  0.21167400  0.09118600  1
  Dy  Dy2  1  0.21167400  0.45592800  0.59118600  1
  Dy  Dy3  1  0.78832600  0.54407200  0.40881400  1
  Mo  Mo4  1  0.74560600  0.96184000  0.55085800  1
  Mo  Mo5  1  0.25439400  0.03816000  0.44914200  1
  Mo  Mo6  1  0.03816000  0.25439400  0.94914200  1
  Mo  Mo7  1  0.96184000  0.74560600  0.05085800  1
  Mo  Mo8  1  0.63127600  0.36872400  0.75000000  1
  Mo  Mo9  1  0.36872400  0.63127600  0.25000000  1
  O  O10  1  0.57602400  0.15818000  0.89233800  1
  O  O11  1  0.42397600  0.84182000  0.10766200  1
  O  O12  1  0.84182000  0.42397600  0.60766200  1
  O  O13  1  0.15818000  0.57602400  0.39233800  1
  O  O14  1  0.37608200  0.29349900  0.71742400  1
  O  O15  1  0.62391800  0.70650100  0.28257600  1
  O  O16  1  0.70650100  0.62391800  0.78257600  1
  O  O17  1  0.29349900  0.37608200  0.21742400  1
  O  O18  1  0.58360300  0.68350800  0.53791800  1
  O  O19  1  0.41639700  0.31649200  0.46208200  1
  O  O20  1  0.31649200  0.41639700  0.96208200  1
  O  O21  1  0.68350800  0.58360300  0.03791800  1
  O  O22  1  0.89775400  0.97506400  0.92326500  1
  O  O23  1  0.10224600  0.02493600  0.07673500  1
  O  O24  1  0.02493600  0.10224600  0.57673500  1
  O  O25  1  0.97506400  0.89775400  0.42326500  1
  O  O26  1  0.59468800  0.94991000  0.70100900  1
  O  O27  1  0.40531200  0.05009000  0.29899100  1
  O  O28  1  0.05009000  0.40531200  0.79899100  1
  O  O29  1  0.94991000  0.59468800  0.20100900  1
  O  O30  1  0.26787800  0.83167600  0.55883900  1
  O  O31  1  0.73212200  0.16832400  0.44116100  1
  O  O32  1  0.16832400  0.73212200  0.94116100  1
  O  O33  1  0.83167600  0.26787800  0.05883900  1
