# generated using pymatgen
data_Cu(Cl2O)2
_symmetry_space_group_name_H-M   'P 1'
_cell_length_a   7.81501200
_cell_length_b   6.95795376
_cell_length_c   6.54969832
_cell_angle_alpha   70.62503641
_cell_angle_beta   57.13064661
_cell_angle_gamma   52.24431698
_symmetry_Int_Tables_number   1
_chemical_formula_structural   Cu(Cl2O)2
_chemical_formula_sum   'Cu2 Cl8 O4'
_cell_volume   236.50366914
_cell_formula_units_Z   2
loop_
 _symmetry_equiv_pos_site_id
 _symmetry_equiv_pos_as_xyz
  1  'x, y, z'
loop_
 _atom_site_type_symbol
 _atom_site_label
 _atom_site_symmetry_multiplicity
 _atom_site_fract_x
 _atom_site_fract_y
 _atom_site_fract_z
 _atom_site_occupancy
  Cu  Cu0  1  0.75000000  0.75000000  0.75000000  1
  Cu  Cu1  1  0.50000000  0.50000000  0.50000000  1
  Cl  Cl2  1  0.94115000  0.31452900  0.42754100  1
  Cl  Cl3  1  0.42754100  0.31678100  0.94115000  1
  Cl  Cl4  1  0.31452900  0.94115000  0.31678100  1
  Cl  Cl5  1  0.30885000  0.93547100  0.82245900  1
  Cl  Cl6  1  0.31678100  0.42754100  0.31452900  1
  Cl  Cl7  1  0.82245900  0.93321900  0.30885000  1
  Cl  Cl8  1  0.93547100  0.30885000  0.93321900  1
  Cl  Cl9  1  0.93321900  0.82245900  0.93547100  1
  O  O10  1  0.62500000  0.62500000  0.12500000  1
  O  O11  1  0.12500000  0.62500000  0.62500000  1
  O  O12  1  0.62500000  0.62500000  0.62500000  1
  O  O13  1  0.62500000  0.12500000  0.62500000  1
