# generated using pymatgen
data_DyMoO5
_symmetry_space_group_name_H-M   'P 1'
_cell_length_a   12.60497000
_cell_length_b   5.36064100
_cell_length_c   6.94249589
_cell_angle_alpha   63.07125370
_cell_angle_beta   90.00000000
_cell_angle_gamma   90.00000000
_symmetry_Int_Tables_number   1
_chemical_formula_structural   DyMoO5
_chemical_formula_sum   'Dy4 Mo4 O20'
_cell_volume   418.24410100
_cell_formula_units_Z   4
loop_
 _symmetry_equiv_pos_site_id
 _symmetry_equiv_pos_as_xyz
  1  'x, y, z'
loop_
 _atom_site_type_symbol
 _atom_site_label
 _atom_site_symmetry_multiplicity
 _atom_site_fract_x
 _atom_site_fract_y
 _atom_site_fract_z
 _atom_site_occupancy
  Dy  Dy0  1  0.05809800  0.65780000  0.71478900  1
  Dy  Dy1  1  0.94190200  0.34220000  0.28521100  1
  Dy  Dy2  1  0.55809800  0.34220000  0.78521100  1
  Dy  Dy3  1  0.44190200  0.65780000  0.21478900  1
  Mo  Mo4  1  0.36354900  0.91491600  0.64465700  1
  Mo  Mo5  1  0.63645100  0.08508400  0.35534300  1
  Mo  Mo6  1  0.86354900  0.08508400  0.85534300  1
  Mo  Mo7  1  0.13645100  0.91491600  0.14465700  1
  O  O8  1  0.44410000  0.45811100  0.98645500  1
  O  O9  1  0.55590000  0.54188900  0.01354500  1
  O  O10  1  0.94410000  0.54188900  0.51354500  1
  O  O11  1  0.05590000  0.45811100  0.48645500  1
  O  O12  1  0.92440800  0.98555000  0.65805200  1
  O  O13  1  0.07559200  0.01445000  0.34194800  1
  O  O14  1  0.42440800  0.01445000  0.84194800  1
  O  O15  1  0.57559200  0.98555000  0.15805200  1
  O  O16  1  0.43956900  0.70189500  0.54199000  1
  O  O17  1  0.56043100  0.29810500  0.45801000  1
  O  O18  1  0.93956900  0.29810500  0.95801000  1
  O  O19  1  0.06043100  0.70189500  0.04199000  1
  O  O20  1  0.23353600  0.78248800  0.72612500  1
  O  O21  1  0.76646400  0.21751200  0.27387500  1
  O  O22  1  0.73353600  0.21751200  0.77387500  1
  O  O23  1  0.26646400  0.78248800  0.22612500  1
  O  O24  1  0.65543200  0.76267000  0.58594100  1
  O  O25  1  0.34456800  0.23733000  0.41405900  1
  O  O26  1  0.15543200  0.23733000  0.91405900  1
  O  O27  1  0.84456800  0.76267000  0.08594100  1
