# generated using pymatgen
data_ErMoO5
_symmetry_space_group_name_H-M   'P 1'
_cell_length_a   5.31115876
_cell_length_b   6.61527916
_cell_length_c   12.44113300
_cell_angle_alpha   90.00000000
_cell_angle_beta   90.00000000
_cell_angle_gamma   110.74802225
_symmetry_Int_Tables_number   1
_chemical_formula_structural   ErMoO5
_chemical_formula_sum   'Er4 Mo4 O20'
_cell_volume   408.76855615
_cell_formula_units_Z   4
loop_
 _symmetry_equiv_pos_site_id
 _symmetry_equiv_pos_as_xyz
  1  'x, y, z'
loop_
 _atom_site_type_symbol
 _atom_site_label
 _atom_site_symmetry_multiplicity
 _atom_site_fract_x
 _atom_site_fract_y
 _atom_site_fract_z
 _atom_site_occupancy
  Er  Er0  1  0.14446200  0.78878900  0.44686200  1
  Er  Er1  1  0.85553800  0.21121100  0.55313800  1
  Er  Er2  1  0.35553800  0.71121100  0.94686200  1
  Er  Er3  1  0.64446200  0.28878900  0.05313800  1
  Mo  Mo4  1  0.94498600  0.85666800  0.13968000  1
  Mo  Mo5  1  0.05501400  0.14333200  0.86032000  1
  Mo  Mo6  1  0.55501400  0.64333200  0.63968000  1
  Mo  Mo7  1  0.44498600  0.35666800  0.36032000  1
  O  O8  1  0.05307700  0.54551600  0.08110800  1
  O  O9  1  0.94692300  0.45448400  0.91889200  1
  O  O10  1  0.44692300  0.95448400  0.58110800  1
  O  O11  1  0.55307700  0.04551600  0.41889200  1
  O  O12  1  0.85460400  0.84299400  0.57289300  1
  O  O13  1  0.14539600  0.15700600  0.42710700  1
  O  O14  1  0.64539600  0.65700600  0.07289300  1
  O  O15  1  0.35460400  0.34299400  0.92710700  1
  O  O16  1  0.26379000  0.96645700  0.06293500  1
  O  O17  1  0.73621000  0.03354300  0.93706500  1
  O  O18  1  0.23621000  0.53354300  0.56293500  1
  O  O19  1  0.76379000  0.46645700  0.43706500  1
  O  O20  1  0.99447100  0.78924800  0.27399500  1
  O  O21  1  0.00552900  0.21075200  0.72600500  1
  O  O22  1  0.50552900  0.71075200  0.77399500  1
  O  O23  1  0.49447100  0.28924800  0.22600500  1
  O  O24  1  0.15484800  0.91635400  0.84676800  1
  O  O25  1  0.84515200  0.08364600  0.15323200  1
  O  O26  1  0.34515200  0.58364600  0.34676800  1
  O  O27  1  0.65484800  0.41635400  0.65323200  1
