# generated using pymatgen
data_Dy2(MoO4)3
_symmetry_space_group_name_H-M   'P 1'
_cell_length_a   10.46201400
_cell_length_b   10.47731600
_cell_length_c   10.72538400
_cell_angle_alpha   90.00000000
_cell_angle_beta   90.00000000
_cell_angle_gamma   90.00000000
_symmetry_Int_Tables_number   1
_chemical_formula_structural   Dy2(MoO4)3
_chemical_formula_sum   'Dy8 Mo12 O48'
_cell_volume   1175.65038279
_cell_formula_units_Z   4
loop_
 _symmetry_equiv_pos_site_id
 _symmetry_equiv_pos_as_xyz
  1  'x, y, z'
loop_
 _atom_site_type_symbol
 _atom_site_label
 _atom_site_symmetry_multiplicity
 _atom_site_fract_x
 _atom_site_fract_y
 _atom_site_fract_z
 _atom_site_occupancy
  Dy  Dy0  1  0.00590000  0.18818100  0.47437800  1
  Dy  Dy1  1  0.99410000  0.81181900  0.47437800  1
  Dy  Dy2  1  0.50590000  0.31181900  0.47437800  1
  Dy  Dy3  1  0.49410000  0.68818100  0.47437800  1
  Dy  Dy4  1  0.31155400  0.00381000  0.00006900  1
  Dy  Dy5  1  0.68844600  0.99619000  0.00006900  1
  Dy  Dy6  1  0.81155400  0.49619000  0.00006900  1
  Dy  Dy7  1  0.18844600  0.50381000  0.00006900  1
  Mo  Mo8  1  0.49695100  0.29351200  0.09455600  1
  Mo  Mo9  1  0.50304900  0.70648800  0.09455600  1
  Mo  Mo10  1  0.99695100  0.20648800  0.09455600  1
  Mo  Mo11  1  0.00304900  0.79351200  0.09455600  1
  Mo  Mo12  1  0.29429800  0.01143600  0.38030600  1
  Mo  Mo13  1  0.70570200  0.98856400  0.38030600  1
  Mo  Mo14  1  0.79429800  0.48856400  0.38030600  1
  Mo  Mo15  1  0.20570200  0.51143600  0.38030600  1
  Mo  Mo16  1  0.25711100  0.25641700  0.73744100  1
  Mo  Mo17  1  0.74288900  0.74358300  0.73744100  1
  Mo  Mo18  1  0.75711100  0.24358300  0.73744100  1
  Mo  Mo19  1  0.24288900  0.75641700  0.73744100  1
  O  O20  1  0.00651000  0.37420800  0.04621500  1
  O  O21  1  0.99349000  0.62579200  0.04621500  1
  O  O22  1  0.50651000  0.12579200  0.04621500  1
  O  O23  1  0.49349000  0.87420800  0.04621500  1
  O  O24  1  0.30720600  0.01113300  0.21513200  1
  O  O25  1  0.69279400  0.98886700  0.21513200  1
  O  O26  1  0.80720600  0.48886700  0.21513200  1
  O  O27  1  0.19279400  0.51113300  0.21513200  1
  O  O28  1  0.18309600  0.37563000  0.83283400  1
  O  O29  1  0.81690400  0.62437000  0.83283400  1
  O  O30  1  0.68309600  0.12437000  0.83283400  1
  O  O31  1  0.31690400  0.87563000  0.83283400  1
  O  O32  1  0.11393700  0.38356700  0.44448700  1
  O  O33  1  0.88606300  0.61643300  0.44448700  1
  O  O34  1  0.61393700  0.11643300  0.44448700  1
  O  O35  1  0.38606300  0.88356700  0.44448700  1
  O  O36  1  0.34574100  0.16510000  0.43189900  1
  O  O37  1  0.65425900  0.83490000  0.43189900  1
  O  O38  1  0.84574100  0.33490000  0.43189900  1
  O  O39  1  0.15425900  0.66510000  0.43189900  1
  O  O40  1  0.37718000  0.32842700  0.64188200  1
  O  O41  1  0.62282000  0.67157300  0.64188200  1
  O  O42  1  0.87718000  0.17157300  0.64188200  1
  O  O43  1  0.12282000  0.82842700  0.64188200  1
  O  O44  1  0.37349600  0.49399700  0.42749200  1
  O  O45  1  0.62650400  0.50600300  0.42749200  1
  O  O46  1  0.87349600  0.00600300  0.42749200  1
  O  O47  1  0.12650400  0.99399700  0.42749200  1
  O  O48  1  0.11866800  0.11539600  0.01865800  1
  O  O49  1  0.88133200  0.88460400  0.01865800  1
  O  O50  1  0.61866800  0.38460400  0.01865800  1
  O  O51  1  0.38133200  0.61539600  0.01865800  1
  O  O52  1  0.14290100  0.18136400  0.63699000  1
  O  O53  1  0.85709900  0.81863600  0.63699000  1
  O  O54  1  0.64290100  0.31863600  0.63699000  1
  O  O55  1  0.35709900  0.68136400  0.63699000  1
  O  O56  1  0.32915600  0.14090000  0.83802200  1
  O  O57  1  0.67084400  0.85910000  0.83802200  1
  O  O58  1  0.82915600  0.35910000  0.83802200  1
  O  O59  1  0.17084400  0.64090000  0.83802200  1
  O  O60  1  0.34018000  0.34705900  0.05528900  1
  O  O61  1  0.65982000  0.65294100  0.05528900  1
  O  O62  1  0.84018000  0.15294100  0.05528900  1
  O  O63  1  0.15982000  0.84705900  0.05528900  1
  O  O64  1  0.02002100  0.19465200  0.25868900  1
  O  O65  1  0.97997900  0.80534800  0.25868900  1
  O  O66  1  0.52002100  0.30534800  0.25868900  1
  O  O67  1  0.47997900  0.69465200  0.25868900  1
