# generated using pymatgen
data_Dy4Ni
_symmetry_space_group_name_H-M   'P 1'
_cell_length_a   7.48690741
_cell_length_b   7.48690741
_cell_length_c   7.48690741
_cell_angle_alpha   60.00000000
_cell_angle_beta   60.00000000
_cell_angle_gamma   60.00000000
_symmetry_Int_Tables_number   1
_chemical_formula_structural   Dy4Ni
_chemical_formula_sum   'Dy8 Ni2'
_cell_volume   296.75113525
_cell_formula_units_Z   2
loop_
 _symmetry_equiv_pos_site_id
 _symmetry_equiv_pos_as_xyz
  1  'x, y, z'
loop_
 _atom_site_type_symbol
 _atom_site_label
 _atom_site_symmetry_multiplicity
 _atom_site_fract_x
 _atom_site_fract_y
 _atom_site_fract_z
 _atom_site_occupancy
  Dy  Dy0  1  0.38726400  0.38726400  0.38726400  1
  Dy  Dy1  1  0.38726400  0.38726400  0.83820700  1
  Dy  Dy2  1  0.38726400  0.83820700  0.38726400  1
  Dy  Dy3  1  0.86273600  0.86273600  0.41179300  1
  Dy  Dy4  1  0.86273600  0.86273600  0.86273600  1
  Dy  Dy5  1  0.83820700  0.38726400  0.38726400  1
  Dy  Dy6  1  0.86273600  0.41179300  0.86273600  1
  Dy  Dy7  1  0.41179300  0.86273600  0.86273600  1
  Ni  Ni8  1  0.00000000  0.00000000  0.00000000  1
  Ni  Ni9  1  0.25000000  0.25000000  0.25000000  1
