# generated using pymatgen
data_Dy2Cu(GeO4)2
_symmetry_space_group_name_H-M   'P 1'
_cell_length_a   8.94351527
_cell_length_b   8.94351527
_cell_length_c   5.14717169
_cell_angle_alpha   73.64102099
_cell_angle_beta   73.64102099
_cell_angle_gamma   114.88485711
_symmetry_Int_Tables_number   1
_chemical_formula_structural   Dy2Cu(GeO4)2
_chemical_formula_sum   'Dy4 Cu2 Ge4 O16'
_cell_volume   318.24196553
_cell_formula_units_Z   2
loop_
 _symmetry_equiv_pos_site_id
 _symmetry_equiv_pos_as_xyz
  1  'x, y, z'
loop_
 _atom_site_type_symbol
 _atom_site_label
 _atom_site_symmetry_multiplicity
 _atom_site_fract_x
 _atom_site_fract_y
 _atom_site_fract_z
 _atom_site_occupancy
  Dy  Dy0  1  0.45999800  0.70027300  0.18432900  1
  Dy  Dy1  1  0.70027300  0.45999800  0.18432900  1
  Dy  Dy2  1  0.19766500  0.95601700  0.67822100  1
  Dy  Dy3  1  0.95601700  0.19766500  0.67822100  1
  Cu  Cu4  1  0.65991800  0.07430600  0.37793200  1
  Cu  Cu5  1  0.07430600  0.65991800  0.37793200  1
  Ge  Ge6  1  0.83711300  0.83711300  0.37464000  1
  Ge  Ge7  1  0.53248800  0.11155300  0.91828400  1
  Ge  Ge8  1  0.11155300  0.53248800  0.91828400  1
  Ge  Ge9  1  0.33350900  0.33350900  0.97849200  1
  O  O10  1  0.37304100  0.90476700  0.92511200  1
  O  O11  1  0.90476700  0.37304100  0.92511200  1
  O  O12  1  0.74844900  0.93579300  0.58371500  1
  O  O13  1  0.93579300  0.74844900  0.58371500  1
  O  O14  1  0.50788200  0.50788200  0.01167900  1
  O  O15  1  0.73614700  0.25355200  0.54974100  1
  O  O16  1  0.25355200  0.73614700  0.54974100  1
  O  O17  1  0.42675200  0.24255700  0.75447000  1
  O  O18  1  0.24255700  0.42675200  0.75447000  1
  O  O19  1  0.66324700  0.66324700  0.33550600  1
  O  O20  1  0.16374900  0.16374900  0.35639200  1
  O  O21  1  0.50120100  0.16122100  0.24325400  1
  O  O22  1  0.16122100  0.50120100  0.24325400  1
  O  O23  1  0.00370400  0.00370400  0.98727500  1
  O  O24  1  0.65439200  0.99630600  0.07055000  1
  O  O25  1  0.99630600  0.65439200  0.07055000  1
