# generated using pymatgen
data_ErCu5Sn
_symmetry_space_group_name_H-M   'P 1'
_cell_length_a   4.98780500
_cell_length_b   8.18533600
_cell_length_c   10.53493900
_cell_angle_alpha   90.00000000
_cell_angle_beta   90.00000000
_cell_angle_gamma   90.00000000
_symmetry_Int_Tables_number   1
_chemical_formula_structural   ErCu5Sn
_chemical_formula_sum   'Er4 Cu20 Sn4'
_cell_volume   430.10847784
_cell_formula_units_Z   4
loop_
 _symmetry_equiv_pos_site_id
 _symmetry_equiv_pos_as_xyz
  1  'x, y, z'
loop_
 _atom_site_type_symbol
 _atom_site_label
 _atom_site_symmetry_multiplicity
 _atom_site_fract_x
 _atom_site_fract_y
 _atom_site_fract_z
 _atom_site_occupancy
  Er  Er0  1  0.25000000  0.75240700  0.06348300  1
  Er  Er1  1  0.75000000  0.24759300  0.93651700  1
  Er  Er2  1  0.75000000  0.74759300  0.56348300  1
  Er  Er3  1  0.25000000  0.25240700  0.43651700  1
  Cu  Cu4  1  0.25000000  0.81338200  0.74523200  1
  Cu  Cu5  1  0.75000000  0.18661800  0.25476800  1
  Cu  Cu6  1  0.75000000  0.68661800  0.24523200  1
  Cu  Cu7  1  0.25000000  0.31338200  0.75476800  1
  Cu  Cu8  1  0.50179200  0.56499300  0.81342300  1
  Cu  Cu9  1  0.49820800  0.43500700  0.18657700  1
  Cu  Cu10  1  0.49820800  0.93500700  0.31342300  1
  Cu  Cu11  1  0.00179200  0.43500700  0.18657700  1
  Cu  Cu12  1  0.50179200  0.06499300  0.68657700  1
  Cu  Cu13  1  0.99820800  0.56499300  0.81342300  1
  Cu  Cu14  1  0.99820800  0.06499300  0.68657700  1
  Cu  Cu15  1  0.00179200  0.93500700  0.31342300  1
  Cu  Cu16  1  0.25000000  0.91272400  0.51819200  1
  Cu  Cu17  1  0.75000000  0.08727600  0.48180800  1
  Cu  Cu18  1  0.75000000  0.58727600  0.01819200  1
  Cu  Cu19  1  0.25000000  0.41272400  0.98180800  1
  Cu  Cu20  1  0.25000000  0.55864100  0.60148900  1
  Cu  Cu21  1  0.75000000  0.44135900  0.39851100  1
  Cu  Cu22  1  0.75000000  0.94135900  0.10148900  1
  Cu  Cu23  1  0.25000000  0.05864100  0.89851100  1
  Sn  Sn24  1  0.25000000  0.63979500  0.36128200  1
  Sn  Sn25  1  0.75000000  0.36020500  0.63871800  1
  Sn  Sn26  1  0.75000000  0.86020500  0.86128200  1
  Sn  Sn27  1  0.25000000  0.13979500  0.13871800  1
