# generated using pymatgen
data_CsP7
_symmetry_space_group_name_H-M   'P 1'
_cell_length_a   9.59801200
_cell_length_b   9.77334900
_cell_length_c   9.90909400
_cell_angle_alpha   90.00000000
_cell_angle_beta   90.00000000
_cell_angle_gamma   90.00000000
_symmetry_Int_Tables_number   1
_chemical_formula_structural   CsP7
_chemical_formula_sum   'Cs4 P28'
_cell_volume   929.51979786
_cell_formula_units_Z   4
loop_
 _symmetry_equiv_pos_site_id
 _symmetry_equiv_pos_as_xyz
  1  'x, y, z'
loop_
 _atom_site_type_symbol
 _atom_site_label
 _atom_site_symmetry_multiplicity
 _atom_site_fract_x
 _atom_site_fract_y
 _atom_site_fract_z
 _atom_site_occupancy
  Cs  Cs0  1  0.71539200  0.25628200  0.25262100  1
  Cs  Cs1  1  0.28460800  0.75628200  0.74737900  1
  Cs  Cs2  1  0.28460800  0.25628200  0.75262100  1
  Cs  Cs3  1  0.71539200  0.75628200  0.24737900  1
  P  P4  1  0.33284100  0.38455400  0.13405900  1
  P  P5  1  0.66715900  0.88455400  0.86594100  1
  P  P6  1  0.66715900  0.38455400  0.63405900  1
  P  P7  1  0.33284100  0.88455400  0.36594100  1
  P  P8  1  0.11287400  0.15957800  0.31879200  1
  P  P9  1  0.88712600  0.65957800  0.68120800  1
  P  P10  1  0.88712600  0.15957800  0.81879200  1
  P  P11  1  0.11287400  0.65957800  0.18120800  1
  P  P12  1  0.06899600  0.00112700  0.16351500  1
  P  P13  1  0.93100400  0.50112700  0.83648500  1
  P  P14  1  0.93100400  0.00112700  0.66351500  1
  P  P15  1  0.06899600  0.50112700  0.33648500  1
  P  P16  1  0.40909300  0.99912800  0.18391200  1
  P  P17  1  0.59090700  0.49912800  0.81608800  1
  P  P18  1  0.59090700  0.99912800  0.68391200  1
  P  P19  1  0.40909300  0.49912800  0.31608800  1
  P  P20  1  0.24834600  0.00042100  0.03356500  1
  P  P21  1  0.75165400  0.50042100  0.96643500  1
  P  P22  1  0.75165400  0.00042100  0.53356500  1
  P  P23  1  0.24834600  0.50042100  0.46643500  1
  P  P24  1  0.11167400  0.34138900  0.18217400  1
  P  P25  1  0.88832600  0.84138900  0.81782600  1
  P  P26  1  0.88832600  0.34138900  0.68217400  1
  P  P27  1  0.11167400  0.84138900  0.31782600  1
  P  P28  1  0.33425100  0.11472100  0.36612500  1
  P  P29  1  0.66574900  0.61472100  0.63387500  1
  P  P30  1  0.66574900  0.11472100  0.86612500  1
  P  P31  1  0.33425100  0.61472100  0.13387500  1
