# generated using pymatgen
data_MgAl2SiO5
_symmetry_space_group_name_H-M   'P 1'
_cell_length_a   5.44789500
_cell_length_b   14.66248610
_cell_length_c   14.66248610
_cell_angle_alpha   113.91076317
_cell_angle_beta   90.00000000
_cell_angle_gamma   90.00000000
_symmetry_Int_Tables_number   1
_chemical_formula_structural   MgAl2SiO5
_chemical_formula_sum   'Mg8 Al16 Si8 O40'
_cell_volume   1070.71686030
_cell_formula_units_Z   8
loop_
 _symmetry_equiv_pos_site_id
 _symmetry_equiv_pos_as_xyz
  1  'x, y, z'
loop_
 _atom_site_type_symbol
 _atom_site_label
 _atom_site_symmetry_multiplicity
 _atom_site_fract_x
 _atom_site_fract_y
 _atom_site_fract_z
 _atom_site_occupancy
  Mg  Mg0  1  0.78077300  0.73939900  0.04087800  1
  Mg  Mg1  1  0.78077300  0.26060100  0.95912200  1
  Mg  Mg2  1  0.21922700  0.95912200  0.26060100  1
  Mg  Mg3  1  0.71922700  0.76060100  0.45912200  1
  Mg  Mg4  1  0.21922700  0.04087800  0.73939900  1
  Mg  Mg5  1  0.71922700  0.23939900  0.54087800  1
  Mg  Mg6  1  0.28077300  0.54087800  0.23939900  1
  Mg  Mg7  1  0.28077300  0.45912200  0.76060100  1
  Al  Al8  1  0.69973800  0.48298000  0.58120000  1
  Al  Al9  1  0.69973800  0.51702000  0.41880000  1
  Al  Al10  1  0.30026200  0.41880000  0.51702000  1
  Al  Al11  1  0.80026200  0.01702000  0.91880000  1
  Al  Al12  1  0.30026200  0.58120000  0.48298000  1
  Al  Al13  1  0.80026200  0.98298000  0.08120000  1
  Al  Al14  1  0.19973800  0.08120000  0.98298000  1
  Al  Al15  1  0.19973800  0.91880000  0.01702000  1
  Al  Al16  1  0.74386200  0.55994900  0.09777000  1
  Al  Al17  1  0.74386200  0.44005100  0.90223000  1
  Al  Al18  1  0.25613800  0.90223000  0.44005100  1
  Al  Al19  1  0.75613800  0.94005100  0.40223000  1
  Al  Al20  1  0.25613800  0.09777000  0.55994900  1
  Al  Al21  1  0.75613800  0.05994900  0.59777000  1
  Al  Al22  1  0.24386200  0.59777000  0.05994900  1
  Al  Al23  1  0.24386200  0.40223000  0.94005100  1
  Si  Si24  1  0.87950300  0.58323800  0.79973600  1
  Si  Si25  1  0.87950300  0.41676200  0.20026400  1
  Si  Si26  1  0.12049700  0.20026400  0.41676200  1
  Si  Si27  1  0.62049700  0.91676200  0.70026400  1
  Si  Si28  1  0.12049700  0.79973600  0.58323800  1
  Si  Si29  1  0.62049700  0.08323800  0.29973600  1
  Si  Si30  1  0.37950300  0.29973600  0.08323800  1
  Si  Si31  1  0.37950300  0.70026400  0.91676200  1
  O  O32  1  0.87741300  0.56023300  0.68413400  1
  O  O33  1  0.87741300  0.43976700  0.31586600  1
  O  O34  1  0.12258700  0.31586600  0.43976700  1
  O  O35  1  0.62258700  0.93976700  0.81586600  1
  O  O36  1  0.12258700  0.68413400  0.56023300  1
  O  O37  1  0.62258700  0.06023300  0.18413400  1
  O  O38  1  0.37741300  0.18413400  0.06023300  1
  O  O39  1  0.37741300  0.81586600  0.93976700  1
  O  O40  1  0.64828500  0.64865200  0.86619600  1
  O  O41  1  0.64828500  0.35134800  0.13380400  1
  O  O42  1  0.35171500  0.13380400  0.35134800  1
  O  O43  1  0.85171500  0.85134800  0.63380400  1
  O  O44  1  0.35171500  0.86619600  0.64865200  1
  O  O45  1  0.85171500  0.14865200  0.36619600  1
  O  O46  1  0.14828500  0.36619600  0.14865200  1
  O  O47  1  0.14828500  0.63380400  0.85134800  1
  O  O48  1  0.94773600  0.65911200  0.09984400  1
  O  O49  1  0.94773600  0.34088800  0.90015600  1
  O  O50  1  0.05226400  0.90015600  0.34088800  1
  O  O51  1  0.55226400  0.84088800  0.40015600  1
  O  O52  1  0.05226400  0.09984400  0.65911200  1
  O  O53  1  0.55226400  0.15911200  0.59984400  1
  O  O54  1  0.44773600  0.59984400  0.15911200  1
  O  O55  1  0.44773600  0.40015600  0.84088800  1
  O  O56  1  0.89086800  0.85051900  0.01654800  1
  O  O57  1  0.89086800  0.14948100  0.98345200  1
  O  O58  1  0.10913200  0.98345200  0.14948100  1
  O  O59  1  0.60913200  0.64948100  0.48345200  1
  O  O60  1  0.10913200  0.01654800  0.85051900  1
  O  O61  1  0.60913200  0.35051900  0.51654800  1
  O  O62  1  0.39086800  0.51654800  0.35051900  1
  O  O63  1  0.39086800  0.48345200  0.64948100  1
  O  O64  1  0.90946800  0.47551500  0.81104200  1
  O  O65  1  0.90946800  0.52448500  0.18895800  1
  O  O66  1  0.09053200  0.18895800  0.52448500  1
  O  O67  1  0.59053200  0.02448500  0.68895800  1
  O  O68  1  0.09053200  0.81104200  0.47551500  1
  O  O69  1  0.59053200  0.97551500  0.31104200  1
  O  O70  1  0.40946800  0.31104200  0.97551500  1
  O  O71  1  0.40946800  0.68895800  0.02448500  1
