# generated using pymatgen
data_ErI3O11
_symmetry_space_group_name_H-M   'P 1'
_cell_length_a   6.99446800
_cell_length_b   7.52518743
_cell_length_c   10.66869918
_cell_angle_alpha   94.00117820
_cell_angle_beta   105.85841679
_cell_angle_gamma   110.87312899
_symmetry_Int_Tables_number   1
_chemical_formula_structural   ErI3O11
_chemical_formula_sum   'Er2 I6 O22'
_cell_volume   495.91725821
_cell_formula_units_Z   2
loop_
 _symmetry_equiv_pos_site_id
 _symmetry_equiv_pos_as_xyz
  1  'x, y, z'
loop_
 _atom_site_type_symbol
 _atom_site_label
 _atom_site_symmetry_multiplicity
 _atom_site_fract_x
 _atom_site_fract_y
 _atom_site_fract_z
 _atom_site_occupancy
  Er  Er0  1  0.10152100  0.92529600  0.29010400  1
  Er  Er1  1  0.89847900  0.07470400  0.70989600  1
  I  I2  1  0.72374600  0.14071300  0.33954300  1
  I  I3  1  0.27625400  0.85928700  0.66045700  1
  I  I4  1  0.32028600  0.35713000  0.57602700  1
  I  I5  1  0.67971400  0.64287000  0.42397300  1
  I  I6  1  0.26405600  0.22748200  0.04318100  1
  I  I7  1  0.73594400  0.77251800  0.95681900  1
  O  O8  1  0.73821400  0.27819300  0.11112500  1
  O  O9  1  0.26178600  0.72180700  0.88887500  1
  O  O10  1  0.70699400  0.03298700  0.48773500  1
  O  O11  1  0.29300600  0.96701300  0.51226500  1
  O  O12  1  0.06561300  0.12501900  0.13051500  1
  O  O13  1  0.93438700  0.87498100  0.86948500  1
  O  O14  1  0.62091900  0.39834100  0.46401500  1
  O  O15  1  0.37908100  0.60165900  0.53598500  1
  O  O16  1  0.42970500  0.04458500  0.24939600  1
  O  O17  1  0.57029500  0.95541500  0.75060400  1
  O  O18  1  0.09141400  0.29632000  0.90835900  1
  O  O19  1  0.90858600  0.70368000  0.09164100  1
  O  O20  1  0.13994400  0.22176600  0.40771400  1
  O  O21  1  0.86005600  0.77823400  0.59228600  1
  O  O22  1  0.23644900  0.05985600  0.74544000  1
  O  O23  1  0.76355100  0.94014400  0.25456000  1
  O  O24  1  0.09806900  0.34589300  0.63978100  1
  O  O25  1  0.90193100  0.65410700  0.36021900  1
  O  O26  1  0.44389400  0.45862900  0.15111700  1
  O  O27  1  0.55610600  0.54137100  0.84888300  1
  O  O28  1  0.22292400  0.66785300  0.27902100  1
  O  O29  1  0.77707600  0.33214700  0.72097900  1
