# generated using pymatgen
data_H5PbC2SN6Cl
_symmetry_space_group_name_H-M   'P 1'
_cell_length_a   11.93260800
_cell_length_b   7.59659700
_cell_length_c   9.67374782
_cell_angle_alpha   75.00757976
_cell_angle_beta   90.00000000
_cell_angle_gamma   90.00000000
_symmetry_Int_Tables_number   1
_chemical_formula_structural   H5PbC2SN6Cl
_chemical_formula_sum   'H20 Pb4 C8 S4 N24 Cl4'
_cell_volume   847.04872271
_cell_formula_units_Z   4
loop_
 _symmetry_equiv_pos_site_id
 _symmetry_equiv_pos_as_xyz
  1  'x, y, z'
loop_
 _atom_site_type_symbol
 _atom_site_label
 _atom_site_symmetry_multiplicity
 _atom_site_fract_x
 _atom_site_fract_y
 _atom_site_fract_z
 _atom_site_occupancy
  H  H0  1  0.57827400  0.84928500  0.84939700  1
  H  H1  1  0.42172600  0.15071500  0.15060300  1
  H  H2  1  0.07827400  0.65071500  0.15060300  1
  H  H3  1  0.92172600  0.34928500  0.84939700  1
  H  H4  1  0.69485500  0.92197800  0.07546900  1
  H  H5  1  0.30514500  0.07802200  0.92453100  1
  H  H6  1  0.19485500  0.57802200  0.92453100  1
  H  H7  1  0.80514500  0.42197800  0.07546900  1
  H  H8  1  0.39848200  0.35622000  0.03992900  1
  H  H9  1  0.60151800  0.64378000  0.96007100  1
  H  H10  1  0.89848200  0.14378000  0.96007100  1
  H  H11  1  0.10151800  0.85622000  0.03992900  1
  H  H12  1  0.90057100  0.75608000  0.05524900  1
  H  H13  1  0.09942900  0.24392000  0.94475100  1
  H  H14  1  0.40057100  0.74392000  0.94475100  1
  H  H15  1  0.59942900  0.25608000  0.05524900  1
  H  H16  1  0.62732700  0.80623300  0.22059800  1
  H  H17  1  0.37267300  0.19376700  0.77940200  1
  H  H18  1  0.12732700  0.69376700  0.77940200  1
  H  H19  1  0.87267300  0.30623300  0.22059800  1
  Pb  Pb20  1  0.65516700  0.56270800  0.65929100  1
  Pb  Pb21  1  0.34483300  0.43729200  0.34070900  1
  Pb  Pb22  1  0.15516700  0.93729200  0.34070900  1
  Pb  Pb23  1  0.84483300  0.06270800  0.65929100  1
  C  C24  1  0.89605300  0.85754700  0.23446900  1
  C  C25  1  0.10394700  0.14245300  0.76553100  1
  C  C26  1  0.39605300  0.64245300  0.76553100  1
  C  C27  1  0.60394700  0.35754700  0.23446900  1
  C  C28  1  0.76672300  0.90348600  0.38447500  1
  C  C29  1  0.23327700  0.09651400  0.61552500  1
  C  C30  1  0.26672300  0.59651400  0.61552500  1
  C  C31  1  0.73327700  0.40348600  0.38447500  1
  S  S32  1  0.63797400  0.91297200  0.46114200  1
  S  S33  1  0.36202600  0.08702800  0.53885800  1
  S  S34  1  0.13797400  0.58702800  0.53885800  1
  S  S35  1  0.86202600  0.41297200  0.46114200  1
  N  N36  1  0.70190500  0.81334400  0.16552200  1
  N  N37  1  0.29809500  0.18665600  0.83447800  1
  N  N38  1  0.20190500  0.68665600  0.83447800  1
  N  N39  1  0.79809500  0.31334400  0.16552200  1
  N  N40  1  0.94784500  0.90631500  0.34071700  1
  N  N41  1  0.05215500  0.09368500  0.65928300  1
  N  N42  1  0.44784500  0.59368500  0.65928300  1
  N  N43  1  0.55215500  0.40631500  0.34071700  1
  N  N44  1  0.78302300  0.85787000  0.25539400  1
  N  N45  1  0.21697700  0.14213000  0.74460600  1
  N  N46  1  0.28302300  0.64213000  0.74460600  1
  N  N47  1  0.71697700  0.35787000  0.25539400  1
  N  N48  1  0.94566500  0.82367200  0.11722500  1
  N  N49  1  0.05433500  0.17632800  0.88277500  1
  N  N50  1  0.44566500  0.67632800  0.88277500  1
  N  N51  1  0.55433500  0.32367200  0.11722500  1
  N  N52  1  0.43785900  0.28842900  0.13235700  1
  N  N53  1  0.56214100  0.71157100  0.86764300  1
  N  N54  1  0.93785900  0.21157100  0.86764300  1
  N  N55  1  0.06214100  0.78842900  0.13235700  1
  N  N56  1  0.86644000  0.93213300  0.43553600  1
  N  N57  1  0.13356000  0.06786700  0.56446400  1
  N  N58  1  0.36644000  0.56786700  0.56446400  1
  N  N59  1  0.63356000  0.43213300  0.43553600  1
  Cl  Cl60  1  0.35370600  0.84256900  0.13868000  1
  Cl  Cl61  1  0.64629400  0.15743100  0.86132000  1
  Cl  Cl62  1  0.85370600  0.65743100  0.86132000  1
  Cl  Cl63  1  0.14629400  0.34256900  0.13868000  1
