# generated using pymatgen
data_CsIn(MoO4)2
_symmetry_space_group_name_H-M   'P 1'
_cell_length_a   6.00482800
_cell_length_b   9.17913000
_cell_length_c   15.48393000
_cell_angle_alpha   90.00000000
_cell_angle_beta   90.00000000
_cell_angle_gamma   90.00000000
_symmetry_Int_Tables_number   1
_chemical_formula_structural   CsIn(MoO4)2
_chemical_formula_sum   'Cs4 In4 Mo8 O32'
_cell_volume   853.46023713
_cell_formula_units_Z   4
loop_
 _symmetry_equiv_pos_site_id
 _symmetry_equiv_pos_as_xyz
  1  'x, y, z'
loop_
 _atom_site_type_symbol
 _atom_site_label
 _atom_site_symmetry_multiplicity
 _atom_site_fract_x
 _atom_site_fract_y
 _atom_site_fract_z
 _atom_site_occupancy
  Cs  Cs0  1  0.25000000  0.46422200  0.37282400  1
  Cs  Cs1  1  0.75000000  0.53577800  0.62717600  1
  Cs  Cs2  1  0.75000000  0.96422200  0.12717600  1
  Cs  Cs3  1  0.25000000  0.03577800  0.87282400  1
  In  In4  1  0.25000000  0.30510300  0.10936200  1
  In  In5  1  0.75000000  0.69489700  0.89063800  1
  In  In6  1  0.75000000  0.80510300  0.39063800  1
  In  In7  1  0.25000000  0.19489700  0.60936200  1
  Mo  Mo8  1  0.25000000  0.70587100  0.03645600  1
  Mo  Mo9  1  0.75000000  0.29412900  0.96354400  1
  Mo  Mo10  1  0.75000000  0.20587100  0.46354400  1
  Mo  Mo11  1  0.25000000  0.79412900  0.53645600  1
  Mo  Mo12  1  0.25000000  0.00391600  0.28496400  1
  Mo  Mo13  1  0.75000000  0.99608400  0.71503600  1
  Mo  Mo14  1  0.75000000  0.50391600  0.21503600  1
  Mo  Mo15  1  0.25000000  0.49608400  0.78496400  1
  O  O16  1  0.25000000  0.78062400  0.14047100  1
  O  O17  1  0.75000000  0.21937600  0.85952900  1
  O  O18  1  0.75000000  0.28062400  0.35952900  1
  O  O19  1  0.25000000  0.71937600  0.64047100  1
  O  O20  1  0.25000000  0.51110800  0.03967600  1
  O  O21  1  0.75000000  0.48889200  0.96032400  1
  O  O22  1  0.75000000  0.01110800  0.46032400  1
  O  O23  1  0.25000000  0.98889200  0.53967600  1
  O  O24  1  0.25000000  0.13998400  0.36258600  1
  O  O25  1  0.75000000  0.86001600  0.63741400  1
  O  O26  1  0.75000000  0.63998400  0.13741400  1
  O  O27  1  0.25000000  0.36001600  0.86258600  1
  O  O28  1  0.25000000  0.09669100  0.17952900  1
  O  O29  1  0.75000000  0.90330900  0.82047100  1
  O  O30  1  0.75000000  0.59669100  0.32047100  1
  O  O31  1  0.25000000  0.40330900  0.67952900  1
  O  O32  1  0.99877200  0.39519200  0.19699300  1
  O  O33  1  0.00122800  0.60480800  0.80300700  1
  O  O34  1  0.00122800  0.89519200  0.30300700  1
  O  O35  1  0.49877200  0.60480800  0.80300700  1
  O  O36  1  0.99877200  0.10480800  0.69699300  1
  O  O37  1  0.50122800  0.39519200  0.19699300  1
  O  O38  1  0.50122800  0.10480800  0.69699300  1
  O  O39  1  0.49877200  0.89519200  0.30300700  1
  O  O40  1  0.50784100  0.22321100  0.02203200  1
  O  O41  1  0.49215900  0.77678900  0.97796800  1
  O  O42  1  0.49215900  0.72321100  0.47796800  1
  O  O43  1  0.00784100  0.77678900  0.97796800  1
  O  O44  1  0.50784100  0.27678900  0.52203200  1
  O  O45  1  0.99215900  0.22321100  0.02203200  1
  O  O46  1  0.99215900  0.27678900  0.52203200  1
  O  O47  1  0.00784100  0.72321100  0.47796800  1
