# generated using pymatgen
data_CuSnPd2
_symmetry_space_group_name_H-M   'P 1'
_cell_length_a   5.46600000
_cell_length_b   8.83041500
_cell_length_c   9.84538200
_cell_angle_alpha   90.00000000
_cell_angle_beta   90.00000000
_cell_angle_gamma   90.00000000
_symmetry_Int_Tables_number   1
_chemical_formula_structural   CuSnPd2
_chemical_formula_sum   'Cu4 Sn4 Pd8'
_cell_volume   475.20752941
_cell_formula_units_Z   4
loop_
 _symmetry_equiv_pos_site_id
 _symmetry_equiv_pos_as_xyz
  1  'x, y, z'
loop_
 _atom_site_type_symbol
 _atom_site_label
 _atom_site_symmetry_multiplicity
 _atom_site_fract_x
 _atom_site_fract_y
 _atom_site_fract_z
 _atom_site_occupancy
  Cu  Cu0  1  0.25000000  0.99997800  0.50000000  1
  Cu  Cu1  1  0.75000000  0.00002200  0.50000000  1
  Cu  Cu2  1  0.25000000  0.75001700  0.00000000  1
  Cu  Cu3  1  0.75000000  0.24998300  0.00000000  1
  Sn  Sn4  1  0.00000000  0.50000000  0.00000000  1
  Sn  Sn5  1  0.50000000  0.50000000  0.00000000  1
  Sn  Sn6  1  0.00000000  0.00000000  0.00000000  1
  Sn  Sn7  1  0.50000000  0.00000000  0.00000000  1
  Pd  Pd8  1  0.25000000  0.25011900  0.00000000  1
  Pd  Pd9  1  0.75000000  0.74988100  0.00000000  1
  Pd  Pd10  1  0.25000000  0.49997500  0.50000000  1
  Pd  Pd11  1  0.75000000  0.50002500  0.50000000  1
  Pd  Pd12  1  0.00001400  0.24162600  0.50000000  1
  Pd  Pd13  1  0.99998600  0.75837400  0.50000000  1
  Pd  Pd14  1  0.49998600  0.24162600  0.50000000  1
  Pd  Pd15  1  0.50001400  0.75837400  0.50000000  1
