# generated using pymatgen
data_Dy6Cl13
_symmetry_space_group_name_H-M   'P 1'
_cell_length_a   20.25933710
_cell_length_b   20.25933710
_cell_length_c   6.80427621
_cell_angle_alpha   81.38436933
_cell_angle_beta   81.38436933
_cell_angle_gamma   19.27761875
_symmetry_Int_Tables_number   1
_chemical_formula_structural   Dy6Cl13
_chemical_formula_sum   'Dy12 Cl26'
_cell_volume   911.30880262
_cell_formula_units_Z   2
loop_
 _symmetry_equiv_pos_site_id
 _symmetry_equiv_pos_as_xyz
  1  'x, y, z'
loop_
 _atom_site_type_symbol
 _atom_site_label
 _atom_site_symmetry_multiplicity
 _atom_site_fract_x
 _atom_site_fract_y
 _atom_site_fract_z
 _atom_site_occupancy
  Dy  Dy0  1  0.00229000  0.59738000  0.31544500  1
  Dy  Dy1  1  0.99771000  0.40262000  0.68455500  1
  Dy  Dy2  1  0.40262000  0.99771000  0.18455500  1
  Dy  Dy3  1  0.59738000  0.00229000  0.81544500  1
  Dy  Dy4  1  0.79865800  0.28068600  0.91306100  1
  Dy  Dy5  1  0.20134200  0.71931400  0.08693900  1
  Dy  Dy6  1  0.71931400  0.20134200  0.58693900  1
  Dy  Dy7  1  0.28068600  0.79865800  0.41306100  1
  Dy  Dy8  1  0.91648200  0.34177200  0.44812900  1
  Dy  Dy9  1  0.08351800  0.65822800  0.55187100  1
  Dy  Dy10  1  0.65822800  0.08351800  0.05187100  1
  Dy  Dy11  1  0.34177200  0.91648200  0.94812900  1
  Cl  Cl12  1  0.94742800  0.72658900  0.92923300  1
  Cl  Cl13  1  0.05257200  0.27341100  0.07076700  1
  Cl  Cl14  1  0.27341100  0.05257200  0.57076700  1
  Cl  Cl15  1  0.72658900  0.94742800  0.42923300  1
  Cl  Cl16  1  0.20212200  0.28218500  0.37417200  1
  Cl  Cl17  1  0.79787800  0.71781500  0.62582800  1
  Cl  Cl18  1  0.71781500  0.79787800  0.12582800  1
  Cl  Cl19  1  0.28218500  0.20212200  0.87417200  1
  Cl  Cl20  1  0.73024900  0.63359700  0.41116300  1
  Cl  Cl21  1  0.26975100  0.36640300  0.58883700  1
  Cl  Cl22  1  0.36640300  0.26975100  0.08883700  1
  Cl  Cl23  1  0.63359700  0.73024900  0.91116300  1
  Cl  Cl24  1  0.59795700  0.34116100  0.95165800  1
  Cl  Cl25  1  0.40204300  0.65883900  0.04834200  1
  Cl  Cl26  1  0.65883900  0.40204300  0.54834200  1
  Cl  Cl27  1  0.34116100  0.59795700  0.45165800  1
  Cl  Cl28  1  0.05014800  0.94985200  0.75000000  1
  Cl  Cl29  1  0.94985200  0.05014800  0.25000000  1
  Cl  Cl30  1  0.96316400  0.87445600  0.82502300  1
  Cl  Cl31  1  0.03683600  0.12554400  0.17497700  1
  Cl  Cl32  1  0.12554400  0.03683600  0.67497700  1
  Cl  Cl33  1  0.87445600  0.96316400  0.32502300  1
  Cl  Cl34  1  0.67206700  0.52985600  0.78455000  1
  Cl  Cl35  1  0.32793300  0.47014400  0.21545000  1
  Cl  Cl36  1  0.47014400  0.32793300  0.71545000  1
  Cl  Cl37  1  0.52985600  0.67206700  0.28455000  1
