# generated using pymatgen
data_Eu4Al
_symmetry_space_group_name_H-M   'P 1'
_cell_length_a   8.63179390
_cell_length_b   8.63179390
_cell_length_c   8.63179390
_cell_angle_alpha   60.00000000
_cell_angle_beta   60.00000000
_cell_angle_gamma   60.00000000
_symmetry_Int_Tables_number   1
_chemical_formula_structural   Eu4Al
_chemical_formula_sum   'Eu8 Al2'
_cell_volume   454.76621043
_cell_formula_units_Z   2
loop_
 _symmetry_equiv_pos_site_id
 _symmetry_equiv_pos_as_xyz
  1  'x, y, z'
loop_
 _atom_site_type_symbol
 _atom_site_label
 _atom_site_symmetry_multiplicity
 _atom_site_fract_x
 _atom_site_fract_y
 _atom_site_fract_z
 _atom_site_occupancy
  Eu  Eu0  1  0.39124800  0.39124800  0.39124800  1
  Eu  Eu1  1  0.39124800  0.39124800  0.82625500  1
  Eu  Eu2  1  0.39124800  0.82625500  0.39124800  1
  Eu  Eu3  1  0.85875200  0.85875200  0.42374500  1
  Eu  Eu4  1  0.85875200  0.85875200  0.85875200  1
  Eu  Eu5  1  0.82625500  0.39124800  0.39124800  1
  Eu  Eu6  1  0.85875200  0.42374500  0.85875200  1
  Eu  Eu7  1  0.42374500  0.85875200  0.85875200  1
  Al  Al8  1  0.00000000  0.00000000  0.00000000  1
  Al  Al9  1  0.25000000  0.25000000  0.25000000  1
