# generated using pymatgen
data_Dy2SnAu2
_symmetry_space_group_name_H-M   'P 1'
_cell_length_a   8.37990000
_cell_length_b   8.37990000
_cell_length_c   3.56802600
_cell_angle_alpha   90.00000000
_cell_angle_beta   90.00000000
_cell_angle_gamma   90.00000000
_symmetry_Int_Tables_number   1
_chemical_formula_structural   Dy2SnAu2
_chemical_formula_sum   'Dy4 Sn2 Au4'
_cell_volume   250.55650506
_cell_formula_units_Z   2
loop_
 _symmetry_equiv_pos_site_id
 _symmetry_equiv_pos_as_xyz
  1  'x, y, z'
loop_
 _atom_site_type_symbol
 _atom_site_label
 _atom_site_symmetry_multiplicity
 _atom_site_fract_x
 _atom_site_fract_y
 _atom_site_fract_z
 _atom_site_occupancy
  Dy  Dy0  1  0.83612700  0.33612700  0.50000000  1
  Dy  Dy1  1  0.16387300  0.66387300  0.50000000  1
  Dy  Dy2  1  0.33612700  0.16387300  0.50000000  1
  Dy  Dy3  1  0.66387300  0.83612700  0.50000000  1
  Sn  Sn4  1  0.00000000  0.00000000  0.50000000  1
  Sn  Sn5  1  0.50000000  0.50000000  0.50000000  1
  Au  Au6  1  0.62808800  0.12808800  0.00000000  1
  Au  Au7  1  0.37191200  0.87191200  0.00000000  1
  Au  Au8  1  0.12808800  0.37191200  0.00000000  1
  Au  Au9  1  0.87191200  0.62808800  0.00000000  1
