# generated using pymatgen
data_CsSO4
_symmetry_space_group_name_H-M   'P 1'
_cell_length_a   4.96335400
_cell_length_b   15.29250400
_cell_length_c   15.79847148
_cell_angle_alpha   58.91297676
_cell_angle_beta   90.00000000
_cell_angle_gamma   90.00000000
_symmetry_Int_Tables_number   1
_chemical_formula_structural   CsSO4
_chemical_formula_sum   'Cs8 S8 O32'
_cell_volume   1026.92208762
_cell_formula_units_Z   8
loop_
 _symmetry_equiv_pos_site_id
 _symmetry_equiv_pos_as_xyz
  1  'x, y, z'
loop_
 _atom_site_type_symbol
 _atom_site_label
 _atom_site_symmetry_multiplicity
 _atom_site_fract_x
 _atom_site_fract_y
 _atom_site_fract_z
 _atom_site_occupancy
  Cs  Cs0  1  0.14146000  0.87598200  0.70559000  1
  Cs  Cs1  1  0.85854000  0.12401800  0.29441000  1
  Cs  Cs2  1  0.64146000  0.12401800  0.79441000  1
  Cs  Cs3  1  0.35854000  0.87598200  0.20559000  1
  Cs  Cs4  1  0.20355900  0.37551400  0.45718500  1
  Cs  Cs5  1  0.79644100  0.62448600  0.54281500  1
  Cs  Cs6  1  0.70355900  0.62448600  0.04281500  1
  Cs  Cs7  1  0.29644100  0.37551400  0.95718500  1
  S  S8  1  0.27116100  0.37461000  0.20818900  1
  S  S9  1  0.72883900  0.62539000  0.79181100  1
  S  S10  1  0.77116100  0.62539000  0.29181100  1
  S  S11  1  0.22883900  0.37461000  0.70818900  1
  S  S12  1  0.20200600  0.87461900  0.95180800  1
  S  S13  1  0.79799400  0.12538100  0.04819200  1
  S  S14  1  0.70200600  0.12538100  0.54819200  1
  S  S15  1  0.29799400  0.87461900  0.45180800  1
  O  O16  1  0.53238400  0.66022600  0.22451100  1
  O  O17  1  0.46761600  0.33977400  0.77548900  1
  O  O18  1  0.03238400  0.33977400  0.27548900  1
  O  O19  1  0.96761600  0.66022600  0.72451100  1
  O  O20  1  0.19468100  0.46239100  0.11008000  1
  O  O21  1  0.80531900  0.53760900  0.88992000  1
  O  O22  1  0.69468100  0.53760900  0.38992000  1
  O  O23  1  0.30531900  0.46239100  0.61008000  1
  O  O24  1  0.47169400  0.89309700  0.98371600  1
  O  O25  1  0.52830600  0.10690300  0.01628400  1
  O  O26  1  0.97169400  0.10690300  0.51628400  1
  O  O27  1  0.02830600  0.89309700  0.48371600  1
  O  O28  1  0.03181900  0.86171700  0.03636300  1
  O  O29  1  0.96818100  0.13828300  0.96363700  1
  O  O30  1  0.53181900  0.13828300  0.46363700  1
  O  O31  1  0.46818100  0.86171700  0.53636300  1
  O  O32  1  0.12517600  0.28919300  0.69839800  1
  O  O33  1  0.87482400  0.71080700  0.30160200  1
  O  O34  1  0.62517600  0.71080700  0.80160200  1
  O  O35  1  0.37482400  0.28919300  0.19839800  1
  O  O36  1  0.11928800  0.96462000  0.85697400  1
  O  O37  1  0.88071200  0.03538000  0.14302600  1
  O  O38  1  0.61928800  0.03538000  0.64302600  1
  O  O39  1  0.38071200  0.96462000  0.35697400  1
  O  O40  1  0.48460200  0.40532300  0.25459800  1
  O  O41  1  0.51539800  0.59467700  0.74540200  1
  O  O42  1  0.98460200  0.59467700  0.24540200  1
  O  O43  1  0.01539800  0.40532300  0.75459800  1
  O  O44  1  0.20293000  0.78129900  0.94689200  1
  O  O45  1  0.79707000  0.21870100  0.05310800  1
  O  O46  1  0.70293000  0.21870100  0.55310800  1
  O  O47  1  0.29707000  0.78129900  0.44689200  1
