# generated using pymatgen
data_Er6Al3Si
_symmetry_space_group_name_H-M   'P 1'
_cell_length_a   11.09644885
_cell_length_b   11.09644885
_cell_length_c   11.09644885
_cell_angle_alpha   117.85251146
_cell_angle_beta   117.85251146
_cell_angle_gamma   93.76163018
_symmetry_Int_Tables_number   1
_chemical_formula_structural   Er6Al3Si
_chemical_formula_sum   'Er24 Al12 Si4'
_cell_volume   995.17319696
_cell_formula_units_Z   4
loop_
 _symmetry_equiv_pos_site_id
 _symmetry_equiv_pos_as_xyz
  1  'x, y, z'
loop_
 _atom_site_type_symbol
 _atom_site_label
 _atom_site_symmetry_multiplicity
 _atom_site_fract_x
 _atom_site_fract_y
 _atom_site_fract_z
 _atom_site_occupancy
  Er  Er0  1  0.16856900  0.66856900  0.83713800  1
  Er  Er1  1  0.83143100  0.33143100  0.16286200  1
  Er  Er2  1  0.66856900  0.83143100  0.50000000  1
  Er  Er3  1  0.33143100  0.16856900  0.50000000  1
  Er  Er4  1  0.83112600  0.69896900  0.26125700  1
  Er  Er5  1  0.16887400  0.30103100  0.73874300  1
  Er  Er6  1  0.43771200  0.56986900  0.73874300  1
  Er  Er7  1  0.69896900  0.43771200  0.86784300  1
  Er  Er8  1  0.06228800  0.80103100  0.13215700  1
  Er  Er9  1  0.56228800  0.43013100  0.26125700  1
  Er  Er10  1  0.30103100  0.56228800  0.13215700  1
  Er  Er11  1  0.93771200  0.19896900  0.86784300  1
  Er  Er12  1  0.56986900  0.83112600  0.13215700  1
  Er  Er13  1  0.66887400  0.93013100  0.86784300  1
  Er  Er14  1  0.43013100  0.16887400  0.86784300  1
  Er  Er15  1  0.33112600  0.06986900  0.13215700  1
  Er  Er16  1  0.93013100  0.06228800  0.26125700  1
  Er  Er17  1  0.06986900  0.93771200  0.73874300  1
  Er  Er18  1  0.80103100  0.66887400  0.73874300  1
  Er  Er19  1  0.19896900  0.33112600  0.26125700  1
  Er  Er20  1  0.14659000  0.64659000  0.50000000  1
  Er  Er21  1  0.85341000  0.35341000  0.50000000  1
  Er  Er22  1  0.64659000  0.14659000  0.50000000  1
  Er  Er23  1  0.35341000  0.85341000  0.50000000  1
  Al  Al24  1  0.62224900  0.12224900  0.74449900  1
  Al  Al25  1  0.37775100  0.87775100  0.25550100  1
  Al  Al26  1  0.12224900  0.37775100  0.50000000  1
  Al  Al27  1  0.87775100  0.62224900  0.50000000  1
  Al  Al28  1  0.38172700  0.88172700  0.85382800  1
  Al  Al29  1  0.61827300  0.11827300  0.14617200  1
  Al  Al30  1  0.02789800  0.52789800  0.14617200  1
  Al  Al31  1  0.88172700  0.02789800  0.50000000  1
  Al  Al32  1  0.47210200  0.61827300  0.50000000  1
  Al  Al33  1  0.97210200  0.47210200  0.85382800  1
  Al  Al34  1  0.11827300  0.97210200  0.50000000  1
  Al  Al35  1  0.52789800  0.38172700  0.50000000  1
  Si  Si36  1  0.50000000  0.50000000  0.00000000  1
  Si  Si37  1  0.00000000  0.00000000  0.00000000  1
  Si  Si38  1  0.75000000  0.75000000  0.00000000  1
  Si  Si39  1  0.25000000  0.25000000  0.00000000  1
