# generated using pymatgen
data_CsEuPO4
_symmetry_space_group_name_H-M   'P 1'
_cell_length_a   5.74382500
_cell_length_b   7.90213400
_cell_length_c   10.27799700
_cell_angle_alpha   90.00000000
_cell_angle_beta   90.00000000
_cell_angle_gamma   90.00000000
_symmetry_Int_Tables_number   1
_chemical_formula_structural   CsEuPO4
_chemical_formula_sum   'Cs4 Eu4 P4 O16'
_cell_volume   466.50260806
_cell_formula_units_Z   4
loop_
 _symmetry_equiv_pos_site_id
 _symmetry_equiv_pos_as_xyz
  1  'x, y, z'
loop_
 _atom_site_type_symbol
 _atom_site_label
 _atom_site_symmetry_multiplicity
 _atom_site_fract_x
 _atom_site_fract_y
 _atom_site_fract_z
 _atom_site_occupancy
  Cs  Cs0  1  0.75000000  0.13540100  0.91305000  1
  Cs  Cs1  1  0.25000000  0.86459900  0.08695000  1
  Cs  Cs2  1  0.25000000  0.36459900  0.41305000  1
  Cs  Cs3  1  0.75000000  0.63540100  0.58695000  1
  Eu  Eu4  1  0.75000000  0.50494900  0.18127700  1
  Eu  Eu5  1  0.25000000  0.49505100  0.81872300  1
  Eu  Eu6  1  0.25000000  0.99505100  0.68127700  1
  Eu  Eu7  1  0.75000000  0.00494900  0.31872300  1
  P  P8  1  0.75000000  0.20849300  0.58264200  1
  P  P9  1  0.25000000  0.79150700  0.41735800  1
  P  P10  1  0.25000000  0.29150700  0.08264200  1
  P  P11  1  0.75000000  0.70849300  0.91735800  1
  O  O12  1  0.52532000  0.26605900  0.65675700  1
  O  O13  1  0.47468000  0.73394100  0.34324300  1
  O  O14  1  0.47468000  0.23394100  0.15675700  1
  O  O15  1  0.02532000  0.73394100  0.34324300  1
  O  O16  1  0.52532000  0.76605900  0.84324300  1
  O  O17  1  0.97468000  0.26605900  0.65675700  1
  O  O18  1  0.97468000  0.76605900  0.84324300  1
  O  O19  1  0.02532000  0.23394100  0.15675700  1
  O  O20  1  0.75000000  0.01178300  0.57065500  1
  O  O21  1  0.25000000  0.98821700  0.42934500  1
  O  O22  1  0.25000000  0.48821700  0.07065500  1
  O  O23  1  0.75000000  0.51178300  0.92934500  1
  O  O24  1  0.75000000  0.78126700  0.05955700  1
  O  O25  1  0.25000000  0.21873300  0.94044300  1
  O  O26  1  0.25000000  0.71873300  0.55955700  1
  O  O27  1  0.75000000  0.28126700  0.44044300  1
