# generated using pymatgen
data_K2Be3Co2F12
_symmetry_space_group_name_H-M   'P 1'
_cell_length_a   10.25401900
_cell_length_b   10.25401900
_cell_length_c   10.25401900
_cell_angle_alpha   90.00000000
_cell_angle_beta   90.00000000
_cell_angle_gamma   90.00000000
_symmetry_Int_Tables_number   1
_chemical_formula_structural   K2Be3Co2F12
_chemical_formula_sum   'K8 Be12 Co8 F48'
_cell_volume   1078.15786031
_cell_formula_units_Z   4
loop_
 _symmetry_equiv_pos_site_id
 _symmetry_equiv_pos_as_xyz
  1  'x, y, z'
loop_
 _atom_site_type_symbol
 _atom_site_label
 _atom_site_symmetry_multiplicity
 _atom_site_fract_x
 _atom_site_fract_y
 _atom_site_fract_z
 _atom_site_occupancy
  K  K0  1  0.05106900  0.05106900  0.05106900  1
  K  K1  1  0.44893100  0.94893100  0.55106900  1
  K  K2  1  0.94893100  0.55106900  0.44893100  1
  K  K3  1  0.55106900  0.44893100  0.94893100  1
  K  K4  1  0.81579300  0.81579300  0.81579300  1
  K  K5  1  0.68420700  0.18420700  0.31579300  1
  K  K6  1  0.18420700  0.31579300  0.68420700  1
  K  K7  1  0.31579300  0.68420700  0.18420700  1
  Be  Be8  1  0.02074900  0.21432300  0.37614600  1
  Be  Be9  1  0.47925100  0.78567700  0.87614600  1
  Be  Be10  1  0.97925100  0.71432300  0.12385400  1
  Be  Be11  1  0.37614600  0.02074900  0.21432300  1
  Be  Be12  1  0.52074900  0.28567700  0.62385400  1
  Be  Be13  1  0.87614600  0.47925100  0.78567700  1
  Be  Be14  1  0.12385400  0.97925100  0.71432300  1
  Be  Be15  1  0.62385400  0.52074900  0.28567700  1
  Be  Be16  1  0.21432300  0.37614600  0.02074900  1
  Be  Be17  1  0.71432300  0.12385400  0.97925100  1
  Be  Be18  1  0.28567700  0.62385400  0.52074900  1
  Be  Be19  1  0.78567700  0.87614600  0.47925100  1
  Co  Co20  1  0.33605400  0.33605400  0.33605400  1
  Co  Co21  1  0.16394600  0.66394600  0.83605400  1
  Co  Co22  1  0.66394600  0.83605400  0.16394600  1
  Co  Co23  1  0.83605400  0.16394600  0.66394600  1
  Co  Co24  1  0.60013400  0.60013400  0.60013400  1
  Co  Co25  1  0.89986600  0.39986600  0.10013400  1
  Co  Co26  1  0.39986600  0.10013400  0.89986600  1
  Co  Co27  1  0.10013400  0.89986600  0.39986600  1
  F  F28  1  0.01628100  0.06872600  0.32882300  1
  F  F29  1  0.48371900  0.93127400  0.82882300  1
  F  F30  1  0.98371900  0.56872600  0.17117700  1
  F  F31  1  0.32882300  0.01628100  0.06872600  1
  F  F32  1  0.51628100  0.43127400  0.67117700  1
  F  F33  1  0.82882300  0.48371900  0.93127400  1
  F  F34  1  0.17117700  0.98371900  0.56872600  1
  F  F35  1  0.67117700  0.51628100  0.43127400  1
  F  F36  1  0.06872600  0.32882300  0.01628100  1
  F  F37  1  0.56872600  0.17117700  0.98371900  1
  F  F38  1  0.43127400  0.67117700  0.51628100  1
  F  F39  1  0.93127400  0.82882300  0.48371900  1
  F  F40  1  0.26754200  0.49647900  0.43788000  1
  F  F41  1  0.23245800  0.50352100  0.93788000  1
  F  F42  1  0.73245800  0.99647900  0.06212000  1
  F  F43  1  0.43788000  0.26754200  0.49647900  1
  F  F44  1  0.76754200  0.00352100  0.56212000  1
  F  F45  1  0.93788000  0.23245800  0.50352100  1
  F  F46  1  0.06212000  0.73245800  0.99647900  1
  F  F47  1  0.56212000  0.76754200  0.00352100  1
  F  F48  1  0.49647900  0.43788000  0.26754200  1
  F  F49  1  0.99647900  0.06212000  0.73245800  1
  F  F50  1  0.00352100  0.56212000  0.76754200  1
  F  F51  1  0.50352100  0.93788000  0.23245800  1
  F  F52  1  0.04722600  0.80432000  0.22847400  1
  F  F53  1  0.45277400  0.19568000  0.72847400  1
  F  F54  1  0.95277400  0.30432000  0.27152600  1
  F  F55  1  0.22847400  0.04722600  0.80432000  1
  F  F56  1  0.54722600  0.69568000  0.77152600  1
  F  F57  1  0.72847400  0.45277400  0.19568000  1
  F  F58  1  0.27152600  0.95277400  0.30432000  1
  F  F59  1  0.77152600  0.54722600  0.69568000  1
  F  F60  1  0.80432000  0.22847400  0.04722600  1
  F  F61  1  0.30432000  0.27152600  0.95277400  1
  F  F62  1  0.69568000  0.77152600  0.54722600  1
  F  F63  1  0.19568000  0.72847400  0.45277400  1
  F  F64  1  0.16331500  0.25815600  0.40316500  1
  F  F65  1  0.33668500  0.74184400  0.90316500  1
  F  F66  1  0.83668500  0.75815600  0.09683500  1
  F  F67  1  0.40316500  0.16331500  0.25815600  1
  F  F68  1  0.66331500  0.24184400  0.59683500  1
  F  F69  1  0.90316500  0.33668500  0.74184400  1
  F  F70  1  0.09683500  0.83668500  0.75815600  1
  F  F71  1  0.59683500  0.66331500  0.24184400  1
  F  F72  1  0.25815600  0.40316500  0.16331500  1
  F  F73  1  0.75815600  0.09683500  0.83668500  1
  F  F74  1  0.24184400  0.59683500  0.66331500  1
  F  F75  1  0.74184400  0.90316500  0.33668500  1
