# generated using pymatgen
data_CsYb2Cl7
_symmetry_space_group_name_H-M   'P 1'
_cell_length_a   5.75092200
_cell_length_b   16.02326500
_cell_length_c   14.17324100
_cell_angle_alpha   90.00000000
_cell_angle_beta   90.00000000
_cell_angle_gamma   90.00000000
_symmetry_Int_Tables_number   1
_chemical_formula_structural   CsYb2Cl7
_chemical_formula_sum   'Cs4 Yb8 Cl28'
_cell_volume   1306.04356727
_cell_formula_units_Z   4
loop_
 _symmetry_equiv_pos_site_id
 _symmetry_equiv_pos_as_xyz
  1  'x, y, z'
loop_
 _atom_site_type_symbol
 _atom_site_label
 _atom_site_symmetry_multiplicity
 _atom_site_fract_x
 _atom_site_fract_y
 _atom_site_fract_z
 _atom_site_occupancy
  Cs  Cs0  1  0.75000000  0.97807900  0.19967200  1
  Cs  Cs1  1  0.25000000  0.02192100  0.80032800  1
  Cs  Cs2  1  0.25000000  0.52192100  0.69967200  1
  Cs  Cs3  1  0.75000000  0.47807900  0.30032800  1
  Yb  Yb4  1  0.75000000  0.76419100  0.55308200  1
  Yb  Yb5  1  0.25000000  0.23580900  0.44691800  1
  Yb  Yb6  1  0.25000000  0.73580900  0.05308200  1
  Yb  Yb7  1  0.75000000  0.26419100  0.94691800  1
  Yb  Yb8  1  0.75000000  0.75109400  0.83186200  1
  Yb  Yb9  1  0.25000000  0.24890600  0.16813800  1
  Yb  Yb10  1  0.25000000  0.74890600  0.33186200  1
  Yb  Yb11  1  0.75000000  0.25109400  0.66813800  1
  Cl  Cl12  1  0.00245300  0.83924100  0.69643200  1
  Cl  Cl13  1  0.99754700  0.16075900  0.30356800  1
  Cl  Cl14  1  0.99754700  0.66075900  0.19643200  1
  Cl  Cl15  1  0.50245300  0.16075900  0.30356800  1
  Cl  Cl16  1  0.00245300  0.33924100  0.80356800  1
  Cl  Cl17  1  0.49754700  0.83924100  0.69643200  1
  Cl  Cl18  1  0.49754700  0.33924100  0.80356800  1
  Cl  Cl19  1  0.50245300  0.66075900  0.19643200  1
  Cl  Cl20  1  0.99929400  0.86530000  0.43197800  1
  Cl  Cl21  1  0.00070600  0.13470000  0.56802200  1
  Cl  Cl22  1  0.00070600  0.63470000  0.93197800  1
  Cl  Cl23  1  0.49929400  0.13470000  0.56802200  1
  Cl  Cl24  1  0.99929400  0.36530000  0.06802200  1
  Cl  Cl25  1  0.50070600  0.86530000  0.43197800  1
  Cl  Cl26  1  0.50070600  0.36530000  0.06802200  1
  Cl  Cl27  1  0.49929400  0.63470000  0.93197800  1
  Cl  Cl28  1  0.99840800  0.85506800  0.95285300  1
  Cl  Cl29  1  0.00159200  0.14493200  0.04714700  1
  Cl  Cl30  1  0.00159200  0.64493200  0.45285300  1
  Cl  Cl31  1  0.49840800  0.14493200  0.04714700  1
  Cl  Cl32  1  0.99840800  0.35506800  0.54714700  1
  Cl  Cl33  1  0.50159200  0.85506800  0.95285300  1
  Cl  Cl34  1  0.50159200  0.35506800  0.54714700  1
  Cl  Cl35  1  0.49840800  0.64493200  0.45285300  1
  Cl  Cl36  1  0.75000000  0.64001300  0.68772300  1
  Cl  Cl37  1  0.25000000  0.35998700  0.31227700  1
  Cl  Cl38  1  0.25000000  0.85998700  0.18772300  1
  Cl  Cl39  1  0.75000000  0.14001300  0.81227700  1
