# generated using pymatgen
data_CsMo3I3Cl4
_symmetry_space_group_name_H-M   'P 1'
_cell_length_a   10.81364811
_cell_length_b   10.81364811
_cell_length_c   16.33798200
_cell_angle_alpha   90.00000000
_cell_angle_beta   90.00000000
_cell_angle_gamma   120.00000066
_symmetry_Int_Tables_number   1
_chemical_formula_structural   CsMo3I3Cl4
_chemical_formula_sum   'Cs4 Mo12 I12 Cl16'
_cell_volume   1654.52566308
_cell_formula_units_Z   4
loop_
 _symmetry_equiv_pos_site_id
 _symmetry_equiv_pos_as_xyz
  1  'x, y, z'
loop_
 _atom_site_type_symbol
 _atom_site_label
 _atom_site_symmetry_multiplicity
 _atom_site_fract_x
 _atom_site_fract_y
 _atom_site_fract_z
 _atom_site_occupancy
  Cs  Cs0  1  0.00000000  0.00000000  0.99841900  1
  Cs  Cs1  1  0.00000000  0.00000000  0.49841900  1
  Cs  Cs2  1  0.66666700  0.33333300  0.71629300  1
  Cs  Cs3  1  0.33333300  0.66666700  0.21629300  1
  Mo  Mo4  1  0.47757100  0.67397400  0.77791100  1
  Mo  Mo5  1  0.19640300  0.52242900  0.77791100  1
  Mo  Mo6  1  0.80359700  0.32602600  0.27791100  1
  Mo  Mo7  1  0.32602600  0.80359700  0.77791100  1
  Mo  Mo8  1  0.67397400  0.47757100  0.27791100  1
  Mo  Mo9  1  0.52242900  0.19640300  0.27791100  1
  Mo  Mo10  1  0.46893400  0.81184800  0.64674200  1
  Mo  Mo11  1  0.34291300  0.53106600  0.64674200  1
  Mo  Mo12  1  0.65708700  0.18815200  0.14674200  1
  Mo  Mo13  1  0.18815200  0.65708700  0.64674200  1
  Mo  Mo14  1  0.81184800  0.46893400  0.14674200  1
  Mo  Mo15  1  0.53106600  0.34291300  0.14674200  1
  I  I16  1  0.97338400  0.30317300  0.86923900  1
  I  I17  1  0.32978900  0.02661600  0.86923900  1
  I  I18  1  0.67021100  0.69682700  0.36923900  1
  I  I19  1  0.69682700  0.67021100  0.86923900  1
  I  I20  1  0.30317300  0.97338400  0.36923900  1
  I  I21  1  0.02661600  0.32978900  0.36923900  1
  I  I22  1  0.67192200  0.04394300  0.55332000  1
  I  I23  1  0.37202100  0.32807800  0.55332000  1
  I  I24  1  0.62797900  0.95605700  0.05332000  1
  I  I25  1  0.95605700  0.62797900  0.55332000  1
  I  I26  1  0.04394300  0.67192200  0.05332000  1
  I  I27  1  0.32807800  0.37202100  0.05332000  1
  Cl  Cl28  1  0.60789700  0.68584000  0.64884000  1
  Cl  Cl29  1  0.07794300  0.39210300  0.64884000  1
  Cl  Cl30  1  0.92205700  0.31416000  0.14884000  1
  Cl  Cl31  1  0.31416000  0.92205700  0.64884000  1
  Cl  Cl32  1  0.68584000  0.60789700  0.14884000  1
  Cl  Cl33  1  0.39210300  0.07794300  0.14884000  1
  Cl  Cl34  1  0.66666700  0.33333300  0.02572900  1
  Cl  Cl35  1  0.33333300  0.66666700  0.52572900  1
  Cl  Cl36  1  0.66666700  0.33333300  0.39810600  1
  Cl  Cl37  1  0.33333300  0.66666700  0.89810600  1
  Cl  Cl38  1  0.59171300  0.93803200  0.77549900  1
  Cl  Cl39  1  0.34631900  0.40828700  0.77549900  1
  Cl  Cl40  1  0.65368100  0.06196800  0.27549900  1
  Cl  Cl41  1  0.06196800  0.65368100  0.77549900  1
  Cl  Cl42  1  0.93803200  0.59171300  0.27549900  1
  Cl  Cl43  1  0.40828700  0.34631900  0.27549900  1
