# generated using pymatgen
data_NaTl3O6
_symmetry_space_group_name_H-M   'P 1'
_cell_length_a   8.37218185
_cell_length_b   8.37218185
_cell_length_c   36.47120300
_cell_angle_alpha   90.00000000
_cell_angle_beta   90.00000000
_cell_angle_gamma   109.41541348
_symmetry_Int_Tables_number   1
_chemical_formula_structural   NaTl3O6
_chemical_formula_sum   'Na1 Tl3 O6'
_cell_volume   2411.01803518
_cell_formula_units_Z   1
loop_
 _symmetry_equiv_pos_site_id
 _symmetry_equiv_pos_as_xyz
  1  'x, y, z'
loop_
 _atom_site_type_symbol
 _atom_site_label
 _atom_site_symmetry_multiplicity
 _atom_site_fract_x
 _atom_site_fract_y
 _atom_site_fract_z
 _atom_site_occupancy
  Na  Na0  1  0.00000000  0.00000000  0.00000000  1
  Tl  Tl1  1  0.00000000  0.00000000  0.50000000  1
  Tl  Tl2  1  0.50000000  0.00000000  0.00000000  1
  Tl  Tl3  1  0.00000000  0.50000000  0.00000000  1
  O  O4  1  0.00000000  0.00000000  0.24411200  1
  O  O5  1  0.00000000  0.00000000  0.75588800  1
  O  O6  1  0.28203400  0.02781500  0.00000000  1
  O  O7  1  0.71796600  0.97218500  0.00000000  1
  O  O8  1  0.02781500  0.28203400  0.00000000  1
  O  O9  1  0.97218500  0.71796600  0.00000000  1
