# generated using pymatgen
data_CsW3I3Cl4
_symmetry_space_group_name_H-M   'P 1'
_cell_length_a   10.74222857
_cell_length_b   10.74222857
_cell_length_c   16.07970100
_cell_angle_alpha   90.00000000
_cell_angle_beta   90.00000000
_cell_angle_gamma   120.00000351
_symmetry_Int_Tables_number   1
_chemical_formula_structural   CsW3I3Cl4
_chemical_formula_sum   'Cs4 W12 I12 Cl16'
_cell_volume   1606.93149603
_cell_formula_units_Z   4
loop_
 _symmetry_equiv_pos_site_id
 _symmetry_equiv_pos_as_xyz
  1  'x, y, z'
loop_
 _atom_site_type_symbol
 _atom_site_label
 _atom_site_symmetry_multiplicity
 _atom_site_fract_x
 _atom_site_fract_y
 _atom_site_fract_z
 _atom_site_occupancy
  Cs  Cs0  1  0.00000000  0.00000000  0.99826400  1
  Cs  Cs1  1  0.00000000  0.00000000  0.49826400  1
  Cs  Cs2  1  0.66666700  0.33333300  0.71277300  1
  Cs  Cs3  1  0.33333300  0.66666700  0.21277300  1
  W  W4  1  0.47963700  0.67518400  0.77928000  1
  W  W5  1  0.19554700  0.52036300  0.77928000  1
  W  W6  1  0.80445300  0.32481600  0.27928000  1
  W  W7  1  0.32481600  0.80445300  0.77928000  1
  W  W8  1  0.67518400  0.47963700  0.27928000  1
  W  W9  1  0.52036300  0.19554700  0.27928000  1
  W  W10  1  0.46962300  0.81337300  0.64536000  1
  W  W11  1  0.34375000  0.53037700  0.64536000  1
  W  W12  1  0.65625000  0.18662700  0.14536000  1
  W  W13  1  0.18662700  0.65625000  0.64536000  1
  W  W14  1  0.81337300  0.46962300  0.14536000  1
  W  W15  1  0.53037700  0.34375000  0.14536000  1
  I  I16  1  0.97316300  0.29918900  0.87356900  1
  I  I17  1  0.32602600  0.02683700  0.87356900  1
  I  I18  1  0.67397400  0.70081100  0.37356900  1
  I  I19  1  0.70081100  0.67397400  0.87356900  1
  I  I20  1  0.29918900  0.97316300  0.37356900  1
  I  I21  1  0.02683700  0.32602600  0.37356900  1
  I  I22  1  0.67637600  0.04627700  0.55003500  1
  I  I23  1  0.36990100  0.32362400  0.55003500  1
  I  I24  1  0.63009900  0.95372300  0.05003500  1
  I  I25  1  0.95372300  0.63009900  0.55003500  1
  I  I26  1  0.04627700  0.67637600  0.05003500  1
  I  I27  1  0.32362400  0.36990100  0.05003500  1
  Cl  Cl28  1  0.61326100  0.68830500  0.64693700  1
  Cl  Cl29  1  0.07504500  0.38673900  0.64693700  1
  Cl  Cl30  1  0.92495500  0.31169500  0.14693700  1
  Cl  Cl31  1  0.31169500  0.92495500  0.64693700  1
  Cl  Cl32  1  0.68830500  0.61326100  0.14693700  1
  Cl  Cl33  1  0.38673900  0.07504500  0.14693700  1
  Cl  Cl34  1  0.66666700  0.33333300  0.02142900  1
  Cl  Cl35  1  0.33333300  0.66666700  0.52142900  1
  Cl  Cl36  1  0.66666700  0.33333300  0.40248500  1
  Cl  Cl37  1  0.33333300  0.66666700  0.90248500  1
  Cl  Cl38  1  0.59504000  0.94310800  0.77757000  1
  Cl  Cl39  1  0.34806800  0.40496000  0.77757000  1
  Cl  Cl40  1  0.65193200  0.05689200  0.27757000  1
  Cl  Cl41  1  0.05689200  0.65193200  0.77757000  1
  Cl  Cl42  1  0.94310800  0.59504000  0.27757000  1
  Cl  Cl43  1  0.40496000  0.34806800  0.27757000  1
