# generated using pymatgen
data_FeHN2Cl5
_symmetry_space_group_name_H-M   'P 1'
_cell_length_a   8.36021500
_cell_length_b   8.05396200
_cell_length_c   15.58289200
_cell_angle_alpha   90.00000000
_cell_angle_beta   90.00000000
_cell_angle_gamma   90.00000000
_symmetry_Int_Tables_number   1
_chemical_formula_structural   FeHN2Cl5
_chemical_formula_sum   'Fe4 H4 N8 Cl20'
_cell_volume   1049.24059072
_cell_formula_units_Z   4
loop_
 _symmetry_equiv_pos_site_id
 _symmetry_equiv_pos_as_xyz
  1  'x, y, z'
loop_
 _atom_site_type_symbol
 _atom_site_label
 _atom_site_symmetry_multiplicity
 _atom_site_fract_x
 _atom_site_fract_y
 _atom_site_fract_z
 _atom_site_occupancy
  Fe  Fe0  1  0.75953700  0.75000000  0.90787400  1
  Fe  Fe1  1  0.24046300  0.25000000  0.09212600  1
  Fe  Fe2  1  0.25953700  0.25000000  0.59212600  1
  Fe  Fe3  1  0.74046300  0.75000000  0.40787400  1
  H  H4  1  0.59283500  0.75000000  0.94305800  1
  H  H5  1  0.40716500  0.25000000  0.05694200  1
  H  H6  1  0.09283500  0.25000000  0.55694200  1
  H  H7  1  0.90716500  0.75000000  0.44305800  1
  N  N8  1  0.72213200  0.07380400  0.64557500  1
  N  N9  1  0.27786800  0.92619500  0.35442500  1
  N  N10  1  0.22213200  0.92619500  0.85442500  1
  N  N11  1  0.27786800  0.57380500  0.35442500  1
  N  N12  1  0.77786800  0.07380400  0.14557500  1
  N  N13  1  0.72213200  0.42619600  0.64557500  1
  N  N14  1  0.77786800  0.42619600  0.14557500  1
  N  N15  1  0.22213200  0.57380500  0.85442500  1
  Cl  Cl16  1  0.88240700  0.75000000  0.02518500  1
  Cl  Cl17  1  0.11759300  0.25000000  0.97481500  1
  Cl  Cl18  1  0.38240700  0.25000000  0.47481500  1
  Cl  Cl19  1  0.61759300  0.75000000  0.52518500  1
  Cl  Cl20  1  0.67534000  0.00413600  0.90858000  1
  Cl  Cl21  1  0.32466000  0.99586400  0.09142000  1
  Cl  Cl22  1  0.17534000  0.99586400  0.59142000  1
  Cl  Cl23  1  0.32466000  0.50413600  0.09142000  1
  Cl  Cl24  1  0.82466000  0.00413600  0.40858000  1
  Cl  Cl25  1  0.67534000  0.49586400  0.90858000  1
  Cl  Cl26  1  0.82466000  0.49586400  0.40858000  1
  Cl  Cl27  1  0.17534000  0.50413600  0.59142000  1
  Cl  Cl28  1  0.27135700  0.75000000  0.87041200  1
  Cl  Cl29  1  0.72864300  0.25000000  0.12958800  1
  Cl  Cl30  1  0.77135700  0.25000000  0.62958800  1
  Cl  Cl31  1  0.22864300  0.75000000  0.37041200  1
  Cl  Cl32  1  0.83254600  0.75000000  0.77683700  1
  Cl  Cl33  1  0.16745400  0.25000000  0.22316300  1
  Cl  Cl34  1  0.33254600  0.25000000  0.72316300  1
  Cl  Cl35  1  0.66745400  0.75000000  0.27683700  1
