# generated using pymatgen
data_La15CuGe9
_symmetry_space_group_name_H-M   'P 1'
_cell_length_a   15.73127990
_cell_length_b   15.73127990
_cell_length_c   6.91157400
_cell_angle_alpha   90.00000000
_cell_angle_beta   90.00000000
_cell_angle_gamma   119.99999958
_symmetry_Int_Tables_number   1
_chemical_formula_structural   La15CuGe9
_chemical_formula_sum   'La30 Cu2 Ge18'
_cell_volume   1481.27506599
_cell_formula_units_Z   2
loop_
 _symmetry_equiv_pos_site_id
 _symmetry_equiv_pos_as_xyz
  1  'x, y, z'
loop_
 _atom_site_type_symbol
 _atom_site_label
 _atom_site_symmetry_multiplicity
 _atom_site_fract_x
 _atom_site_fract_y
 _atom_site_fract_z
 _atom_site_occupancy
  La  La0  1  0.34080200  0.01859300  0.01800300  1
  La  La1  1  0.98140700  0.32221000  0.01800300  1
  La  La2  1  0.65919800  0.98140700  0.51800300  1
  La  La3  1  0.98140700  0.65919800  0.01800300  1
  La  La4  1  0.67779000  0.65919800  0.01800300  1
  La  La5  1  0.01859300  0.67779000  0.51800300  1
  La  La6  1  0.67779000  0.01859300  0.01800300  1
  La  La7  1  0.01859300  0.34080200  0.51800300  1
  La  La8  1  0.32221000  0.34080200  0.51800300  1
  La  La9  1  0.32221000  0.98140700  0.51800300  1
  La  La10  1  0.34080200  0.32221000  0.01800300  1
  La  La11  1  0.65919800  0.67779000  0.51800300  1
  La  La12  1  0.57869500  0.42130500  0.26587500  1
  La  La13  1  0.57869500  0.15739100  0.26587500  1
  La  La14  1  0.42130500  0.57869500  0.76587500  1
  La  La15  1  0.84260900  0.42130500  0.26587500  1
  La  La16  1  0.42130500  0.84260900  0.76587500  1
  La  La17  1  0.15739100  0.57869500  0.76587500  1
  La  La18  1  0.91687600  0.08312400  0.29783800  1
  La  La19  1  0.91687600  0.83375100  0.29783800  1
  La  La20  1  0.08312400  0.91687600  0.79783800  1
  La  La21  1  0.16624900  0.08312400  0.29783800  1
  La  La22  1  0.08312400  0.16624900  0.79783800  1
  La  La23  1  0.83375100  0.91687600  0.79783800  1
  La  La24  1  0.24547100  0.75452900  0.24756300  1
  La  La25  1  0.24547100  0.49094300  0.24756300  1
  La  La26  1  0.75452900  0.24547100  0.74756300  1
  La  La27  1  0.50905700  0.75452900  0.24756300  1
  La  La28  1  0.75452900  0.50905700  0.74756300  1
  La  La29  1  0.49094300  0.24547100  0.74756300  1
  Cu  Cu30  1  0.33333300  0.66666700  0.00369600  1
  Cu  Cu31  1  0.66666700  0.33333300  0.50369600  1
  Ge  Ge32  1  0.12953600  0.87046400  0.24141700  1
  Ge  Ge33  1  0.12953600  0.25907200  0.24141700  1
  Ge  Ge34  1  0.87046400  0.12953600  0.74141700  1
  Ge  Ge35  1  0.74092800  0.87046400  0.24141700  1
  Ge  Ge36  1  0.87046400  0.74092800  0.74141700  1
  Ge  Ge37  1  0.25907200  0.12953600  0.74141700  1
  Ge  Ge38  1  0.79818100  0.20181900  0.30405400  1
  Ge  Ge39  1  0.79818100  0.59636200  0.30405400  1
  Ge  Ge40  1  0.20181900  0.79818100  0.80405400  1
  Ge  Ge41  1  0.40363800  0.20181900  0.30405400  1
  Ge  Ge42  1  0.20181900  0.40363800  0.80405400  1
  Ge  Ge43  1  0.59636200  0.79818100  0.80405400  1
  Ge  Ge44  1  0.46322100  0.53677900  0.24733000  1
  Ge  Ge45  1  0.46322100  0.92644200  0.24733000  1
  Ge  Ge46  1  0.53677900  0.46322100  0.74733000  1
  Ge  Ge47  1  0.07355800  0.53677900  0.24733000  1
  Ge  Ge48  1  0.53677900  0.07355800  0.74733000  1
  Ge  Ge49  1  0.92644200  0.46322100  0.74733000  1
