# generated using pymatgen
data_K5UCr3H3NO17
_symmetry_space_group_name_H-M   'P 1'
_cell_length_a   6.09550011
_cell_length_b   12.26311568
_cell_length_c   27.67129772
_cell_angle_alpha   90.00000000
_cell_angle_beta   90.00000000
_cell_angle_gamma   90.00000000
_symmetry_Int_Tables_number   1
_chemical_formula_structural   K5UCr3H3NO17
_chemical_formula_sum   'K20 U4 Cr12 H12 N4 O68'
_cell_volume   2068.42460610
_cell_formula_units_Z   4
loop_
 _symmetry_equiv_pos_site_id
 _symmetry_equiv_pos_as_xyz
  1  'x, y, z'
loop_
 _atom_site_type_symbol
 _atom_site_label
 _atom_site_symmetry_multiplicity
 _atom_site_fract_x
 _atom_site_fract_y
 _atom_site_fract_z
 _atom_site_occupancy
  K  K0  1  0.50830731  0.00425901  0.32677249  1
  K  K1  1  0.99169269  0.99574099  0.82677249  1
  K  K2  1  0.49169269  0.50425901  0.17322751  1
  K  K3  1  0.00830731  0.49574099  0.67322751  1
  K  K4  1  0.03872674  0.81913182  0.45958684  1
  K  K5  1  0.46127326  0.18086818  0.95958684  1
  K  K6  1  0.96127326  0.31913182  0.04041316  1
  K  K7  1  0.53872674  0.68086818  0.54041316  1
  K  K8  1  0.20345887  0.31487612  0.53974049  1
  K  K9  1  0.29654113  0.68512388  0.03974049  1
  K  K10  1  0.79654113  0.81487612  0.96025951  1
  K  K11  1  0.70345887  0.18512388  0.46025951  1
  K  K12  1  0.51335749  0.17319845  0.12438598  1
  K  K13  1  0.98664251  0.82680155  0.62438598  1
  K  K14  1  0.48664251  0.67319845  0.37561402  1
  K  K15  1  0.01335749  0.32680155  0.87561402  1
  K  K16  1  0.47639655  0.35378032  0.33755405  1
  K  K17  1  0.02360345  0.64621968  0.83755405  1
  K  K18  1  0.52360345  0.85378032  0.16244595  1
  K  K19  1  0.97639655  0.14621968  0.66244595  1
  U  U20  1  0.03314835  0.01031745  0.21201405  1
  U  U21  1  0.46685165  0.98968255  0.71201405  1
  U  U22  1  0.96685165  0.51031745  0.28798595  1
  U  U23  1  0.53314835  0.48968255  0.78798595  1
  Cr  Cr24  1  0.05931167  0.31364909  0.18204242  1
  Cr  Cr25  1  0.44068833  0.68635091  0.68204242  1
  Cr  Cr26  1  0.94068833  0.81364909  0.31795758  1
  Cr  Cr27  1  0.55931167  0.18635091  0.81795758  1
  Cr  Cr28  1  0.08993822  0.01023805  0.07546911  1
  Cr  Cr29  1  0.41006178  0.98976195  0.57546911  1
  Cr  Cr30  1  0.91006178  0.51023805  0.42453089  1
  Cr  Cr31  1  0.58993822  0.48976195  0.92453089  1
  Cr  Cr32  1  0.00806975  0.69722413  0.16773571  1
  Cr  Cr33  1  0.49193025  0.30277587  0.66773571  1
  Cr  Cr34  1  0.99193025  0.19722413  0.33226429  1
  Cr  Cr35  1  0.50806975  0.80277587  0.83226429  1
  H  H36  1  0.41506402  0.38203730  0.44027053  1
  H  H37  1  0.08493598  0.61796270  0.94027053  1
  H  H38  1  0.58493598  0.88203730  0.05972947  1
  H  H39  1  0.91506402  0.11796270  0.55972947  1
  H  H40  1  0.51315037  0.20632064  0.26008282  1
  H  H41  1  0.98684963  0.79367936  0.76008282  1
  H  H42  1  0.48684963  0.70632064  0.23991718  1
  H  H43  1  0.01315037  0.29367936  0.73991718  1
  H  H44  1  0.17863937  0.14183187  0.46040681  1
  H  H45  1  0.32136063  0.85816813  0.96040681  1
  H  H46  1  0.82136063  0.64183187  0.03959319  1
  H  H47  1  0.67863937  0.35816813  0.53959319  1
  N  N48  1  0.45756479  0.41412212  0.05148986  1
  N  N49  1  0.04243521  0.58587788  0.55148986  1
  N  N50  1  0.54243521  0.91412212  0.44851014  1
  N  N51  1  0.95756479  0.08587788  0.94851014  1
  O  O52  1  0.23084267  0.68208814  0.13391854  1
  O  O53  1  0.26915733  0.31791186  0.63391854  1
  O  O54  1  0.76915733  0.18208814  0.36608146  1
  O  O55  1  0.73084267  0.81791186  0.86608146  1
  O  O56  1  0.47805301  0.11168712  0.55332450  1
  O  O57  1  0.02194699  0.88831288  0.05332450  1
  O  O58  1  0.52194699  0.61168712  0.94667550  1
  O  O59  1  0.97805301  0.38831288  0.44667550  1
  O  O60  1  0.19518284  0.02589568  0.73588896  1
  O  O61  1  0.30481716  0.97410432  0.23588896  1
  O  O62  1  0.80481716  0.52589568  0.76411104  1
  O  O63  1  0.69518284  0.47410432  0.26411104  1
  O  O64  1  0.46295392  0.31264807  0.04141577  1
  O  O65  1  0.03704608  0.68735193  0.54141577  1
  O  O66  1  0.53704608  0.81264807  0.45858423  1
  O  O67  1  0.96295392  0.18735193  0.95858423  1
  O  O68  1  0.29030635  0.06405245  0.04359392  1
  O  O69  1  0.20969365  0.93594755  0.54359392  1
  O  O70  1  0.70969365  0.56405245  0.45640608  1
  O  O71  1  0.79030635  0.43594755  0.95640608  1
  O  O72  1  0.18512959  0.99931611  0.13485808  1
  O  O73  1  0.31487041  0.00068389  0.63485808  1
  O  O74  1  0.81487041  0.49931611  0.36514192  1
  O  O75  1  0.68512959  0.50068389  0.86514192  1
  O  O76  1  0.21635911  0.16471026  0.36178844  1
  O  O77  1  0.28364089  0.83528974  0.86178844  1
  O  O78  1  0.78364089  0.66471026  0.13821156  1
  O  O79  1  0.71635911  0.33528974  0.63821156  1
  O  O80  1  0.11884042  0.59489181  0.42489624  1
  O  O81  1  0.38115958  0.40510819  0.92489624  1
  O  O82  1  0.88115958  0.09489181  0.07510376  1
  O  O83  1  0.61884042  0.90510819  0.57510376  1
  O  O84  1  0.14969467  0.18587318  0.19585205  1
  O  O85  1  0.35030533  0.81412682  0.69585205  1
  O  O86  1  0.85030533  0.68587318  0.30414795  1
  O  O87  1  0.64969467  0.31412682  0.80414795  1
  O  O88  1  0.13167942  0.40249554  0.22601125  1
  O  O89  1  0.36832058  0.59750446  0.72601125  1
  O  O90  1  0.86832058  0.90249554  0.27398875  1
  O  O91  1  0.63167942  0.09750446  0.77398875  1
  O  O92  1  0.03467151  0.61857151  0.21702233  1
  O  O93  1  0.46532849  0.38142849  0.71702233  1
  O  O94  1  0.96532849  0.11857151  0.28297767  1
  O  O95  1  0.53467151  0.88142849  0.78297767  1
  O  O96  1  0.29553697  0.47078501  0.03816623  1
  O  O97  1  0.20446303  0.52921499  0.53816623  1
  O  O98  1  0.70446303  0.97078501  0.46183377  1
  O  O99  1  0.79553697  0.02921499  0.96183377  1
  O  O100  1  0.79438143  0.31459724  0.17357511  1
  O  O101  1  0.70561857  0.68540276  0.67357511  1
  O  O102  1  0.20561857  0.81459724  0.32642489  1
  O  O103  1  0.29438143  0.18540276  0.82642489  1
  O  O104  1  0.61357295  0.45680486  0.07504403  1
  O  O105  1  0.88642705  0.54319514  0.57504403  1
  O  O106  1  0.38642705  0.95680486  0.42495597  1
  O  O107  1  0.11357295  0.04319514  0.92495597  1
  O  O108  1  0.18513265  0.35041525  0.13209315  1
  O  O109  1  0.31486735  0.64958475  0.63209315  1
  O  O110  1  0.81486735  0.85041525  0.36790685  1
  O  O111  1  0.68513265  0.14958475  0.86790685  1
  O  O112  1  0.24049578  0.53968553  0.31265563  1
  O  O113  1  0.25950422  0.46031447  0.81265563  1
  O  O114  1  0.75950422  0.03968553  0.18734437  1
  O  O115  1  0.74049578  0.96031447  0.68734437  1
  O  O116  1  0.01468976  0.32926316  0.31576741  1
  O  O117  1  0.48531024  0.67073684  0.81576741  1
  O  O118  1  0.98531024  0.82926316  0.18423259  1
  O  O119  1  0.51468976  0.17073684  0.68423259  1
