# generated using pymatgen
data_Na3C3S3O13
_symmetry_space_group_name_H-M   'P 1'
_cell_length_a   12.66809000
_cell_length_b   8.74676700
_cell_length_c   14.22363806
_cell_angle_alpha   61.69101011
_cell_angle_beta   90.00000000
_cell_angle_gamma   90.00000000
_symmetry_Int_Tables_number   1
_chemical_formula_structural   Na3C3S3O13
_chemical_formula_sum   'Na12 C12 S12 O52'
_cell_volume   1387.55715983
_cell_formula_units_Z   4
loop_
 _symmetry_equiv_pos_site_id
 _symmetry_equiv_pos_as_xyz
  1  'x, y, z'
loop_
 _atom_site_type_symbol
 _atom_site_label
 _atom_site_symmetry_multiplicity
 _atom_site_fract_x
 _atom_site_fract_y
 _atom_site_fract_z
 _atom_site_occupancy
  Na  Na0  1  0.38172200  0.48108500  0.70947000  1
  Na  Na1  1  0.61827800  0.51891500  0.29053000  1
  Na  Na2  1  0.88172200  0.51891500  0.79053000  1
  Na  Na3  1  0.11827800  0.48108500  0.20947000  1
  Na  Na4  1  0.87520500  0.73602000  0.48240500  1
  Na  Na5  1  0.12479500  0.26398000  0.51759500  1
  Na  Na6  1  0.37520500  0.26398000  0.01759500  1
  Na  Na7  1  0.62479500  0.73602000  0.98240500  1
  Na  Na8  1  0.21737400  0.02334200  0.77929800  1
  Na  Na9  1  0.78262600  0.97665800  0.22070200  1
  Na  Na10  1  0.71737400  0.97665800  0.72070200  1
  Na  Na11  1  0.28262600  0.02334200  0.27929800  1
  C  C12  1  0.39494800  0.99323800  0.53322900  1
  C  C13  1  0.60505200  0.00676200  0.46677100  1
  C  C14  1  0.89494800  0.00676200  0.96677100  1
  C  C15  1  0.10505200  0.99323800  0.03322900  1
  C  C16  1  0.92425700  0.88612200  0.07167500  1
  C  C17  1  0.07574300  0.11387800  0.92832500  1
  C  C18  1  0.42425700  0.11387800  0.42832500  1
  C  C19  1  0.57574300  0.88612200  0.57167500  1
  C  C20  1  0.47253500  0.88962100  0.60714600  1
  C  C21  1  0.52746500  0.11037900  0.39285400  1
  C  C22  1  0.97253500  0.11037900  0.89285400  1
  C  C23  1  0.02746500  0.88962100  0.10714600  1
  S  S24  1  0.15470600  0.31733800  0.85340300  1
  S  S25  1  0.84529400  0.68266200  0.14659700  1
  S  S26  1  0.65470600  0.68266200  0.64659700  1
  S  S27  1  0.34529400  0.31733800  0.35340300  1
  S  S28  1  0.25585200  0.92034400  0.56068100  1
  S  S29  1  0.74414800  0.07965600  0.43931900  1
  S  S30  1  0.75585200  0.07965600  0.93931900  1
  S  S31  1  0.24414800  0.92034400  0.06068100  1
  S  S32  1  0.44725800  0.80690900  0.75196800  1
  S  S33  1  0.55274200  0.19309100  0.24803200  1
  S  S34  1  0.94725800  0.19309100  0.74803200  1
  S  S35  1  0.05274200  0.80690900  0.25196800  1
  O  O36  1  0.91271300  0.81073100  0.62059600  1
  O  O37  1  0.08728700  0.18926900  0.37940400  1
  O  O38  1  0.41271300  0.18926900  0.87940400  1
  O  O39  1  0.58728700  0.81073100  0.12059600  1
  O  O40  1  0.37447300  0.93792200  0.74935400  1
  O  O41  1  0.62552700  0.06207800  0.25064600  1
  O  O42  1  0.87447300  0.06207800  0.75064600  1
  O  O43  1  0.12552700  0.93792200  0.24935400  1
  O  O44  1  0.07127300  0.44549000  0.80366100  1
  O  O45  1  0.92872700  0.55451000  0.19633900  1
  O  O46  1  0.57127300  0.55451000  0.69633900  1
  O  O47  1  0.42872700  0.44549000  0.30366100  1
  O  O48  1  0.69666400  0.00422500  0.88304900  1
  O  O49  1  0.30333600  0.99577500  0.11695100  1
  O  O50  1  0.19666400  0.99577500  0.61695100  1
  O  O51  1  0.80333600  0.00422500  0.38304900  1
  O  O52  1  0.22788200  0.30556500  0.77600500  1
  O  O53  1  0.77211800  0.69443500  0.22399500  1
  O  O54  1  0.72788200  0.69443500  0.72399500  1
  O  O55  1  0.27211800  0.30556500  0.27600500  1
  O  O56  1  0.47805000  0.31584300  0.60370600  1
  O  O57  1  0.52195000  0.68415700  0.39629400  1
  O  O58  1  0.97805000  0.68415700  0.89629400  1
  O  O59  1  0.02195000  0.31584300  0.10370600  1
  O  O60  1  0.26878400  0.73251500  0.61966600  1
  O  O61  1  0.73121600  0.26748500  0.38033400  1
  O  O62  1  0.76878400  0.26748500  0.88033400  1
  O  O63  1  0.23121600  0.73251500  0.11966600  1
  O  O64  1  0.28749900  0.97441800  0.95225900  1
  O  O65  1  0.71250100  0.02558200  0.04774100  1
  O  O66  1  0.78749900  0.02558200  0.54774100  1
  O  O67  1  0.21250100  0.97441800  0.45225900  1
  O  O68  1  0.07248500  0.71251000  0.90091700  1
  O  O69  1  0.92751500  0.28749000  0.09908300  1
  O  O70  1  0.57248500  0.28749000  0.59908300  1
  O  O71  1  0.42751500  0.71251000  0.40091700  1
  O  O72  1  0.03420100  0.53590200  0.51381500  1
  O  O73  1  0.96579900  0.46409800  0.48618500  1
  O  O74  1  0.53420100  0.46409800  0.98618500  1
  O  O75  1  0.46579900  0.53590200  0.01381500  1
  O  O76  1  0.21037600  0.33256200  0.93857800  1
  O  O77  1  0.78962400  0.66743800  0.06142200  1
  O  O78  1  0.71037600  0.66743800  0.56142200  1
  O  O79  1  0.28962400  0.33256200  0.43857800  1
  O  O80  1  0.05214200  0.17995500  0.70724400  1
  O  O81  1  0.94785800  0.82004500  0.29275600  1
  O  O82  1  0.55214200  0.82004500  0.79275600  1
  O  O83  1  0.44785800  0.17995500  0.20724400  1
  O  O84  1  0.40402000  0.63097600  0.80363100  1
  O  O85  1  0.59598000  0.36902400  0.19636900  1
  O  O86  1  0.90402000  0.36902400  0.69636900  1
  O  O87  1  0.09598000  0.63097600  0.30363100  1
