# generated using pymatgen
data_CoO2
_symmetry_space_group_name_H-M   'P 1'
_cell_length_a   4.90654265
_cell_length_b   5.39606190
_cell_length_c   5.67679638
_cell_angle_alpha   105.23649258
_cell_angle_beta   90.07145295
_cell_angle_gamma   80.74587435
_symmetry_Int_Tables_number   1
_chemical_formula_structural   CoO2
_chemical_formula_sum   'Co4 O8'
_cell_volume   142.99556796
_cell_formula_units_Z   4
loop_
 _symmetry_equiv_pos_site_id
 _symmetry_equiv_pos_as_xyz
  1  'x, y, z'
loop_
 _atom_site_type_symbol
 _atom_site_label
 _atom_site_symmetry_multiplicity
 _atom_site_fract_x
 _atom_site_fract_y
 _atom_site_fract_z
 _atom_site_occupancy
  Co  Co0  1  0.49991600  0.00006800  0.74914300  1
  Co  Co1  1  0.00008200  0.99993600  0.50084300  1
  Co  Co2  1  0.49992800  0.00006200  0.24923700  1
  Co  Co3  1  0.00008000  0.99992500  0.00075500  1
  O  O4  1  0.80151100  0.18281800  0.79671800  1
  O  O5  1  0.80148900  0.18265000  0.29677900  1
  O  O6  1  0.30141800  0.18296300  0.54454800  1
  O  O7  1  0.30137800  0.18280100  0.04440500  1
  O  O8  1  0.69852700  0.81737400  0.95321300  1
  O  O9  1  0.69847200  0.81722300  0.45329600  1
  O  O10  1  0.19855500  0.81702900  0.70545600  1
  O  O11  1  0.19864200  0.81715300  0.20560700  1
