# generated using pymatgen
data_ThCo2
_symmetry_space_group_name_H-M   'P 1'
_cell_length_a   4.72344714
_cell_length_b   4.72344714
_cell_length_c   4.72344714
_cell_angle_alpha   134.31675865
_cell_angle_beta   134.31675865
_cell_angle_gamma   66.59367617
_symmetry_Int_Tables_number   1
_chemical_formula_structural   ThCo2
_chemical_formula_sum   'Th1 Co2'
_cell_volume   53.09295800
_cell_formula_units_Z   1
loop_
 _symmetry_equiv_pos_site_id
 _symmetry_equiv_pos_as_xyz
  1  'x, y, z'
loop_
 _atom_site_type_symbol
 _atom_site_label
 _atom_site_symmetry_multiplicity
 _atom_site_fract_x
 _atom_site_fract_y
 _atom_site_fract_z
 _atom_site_occupancy
  Th  Th0  1  0.00000000  0.00000000  0.00000000  1
  Co  Co1  1  0.75000000  0.25000000  0.50000000  1
  Co  Co2  1  0.25000000  0.75000000  0.50000000  1
