# generated using pymatgen
data_CuSeClO5
_symmetry_space_group_name_H-M   'P 1'
_cell_length_a   6.68425600
_cell_length_b   8.80827700
_cell_length_c   17.89482800
_cell_angle_alpha   90.00000000
_cell_angle_beta   90.00000000
_cell_angle_gamma   90.00000000
_symmetry_Int_Tables_number   1
_chemical_formula_structural   CuSeClO5
_chemical_formula_sum   'Cu8 Se8 Cl8 O40'
_cell_volume   1053.58982243
_cell_formula_units_Z   8
loop_
 _symmetry_equiv_pos_site_id
 _symmetry_equiv_pos_as_xyz
  1  'x, y, z'
loop_
 _atom_site_type_symbol
 _atom_site_label
 _atom_site_symmetry_multiplicity
 _atom_site_fract_x
 _atom_site_fract_y
 _atom_site_fract_z
 _atom_site_occupancy
  Cu  Cu0  1  0.10833400  0.13066300  0.25000000  1
  Cu  Cu1  1  0.89166600  0.86933700  0.75000000  1
  Cu  Cu2  1  0.60833400  0.36933700  0.75000000  1
  Cu  Cu3  1  0.39166600  0.63066300  0.25000000  1
  Cu  Cu4  1  0.00000000  0.00000000  0.00000000  1
  Cu  Cu5  1  0.50000000  0.50000000  0.00000000  1
  Cu  Cu6  1  0.00000000  0.00000000  0.50000000  1
  Cu  Cu7  1  0.50000000  0.50000000  0.50000000  1
  Se  Se8  1  0.15084000  0.31125000  0.56270800  1
  Se  Se9  1  0.84916000  0.68875000  0.43729200  1
  Se  Se10  1  0.65084000  0.18875000  0.43729200  1
  Se  Se11  1  0.84916000  0.68875000  0.06270800  1
  Se  Se12  1  0.34916000  0.81125000  0.56270800  1
  Se  Se13  1  0.15084000  0.31125000  0.93729200  1
  Se  Se14  1  0.34916000  0.81125000  0.93729200  1
  Se  Se15  1  0.65084000  0.18875000  0.06270800  1
  Cl  Cl16  1  0.00688400  0.02372500  0.66274600  1
  Cl  Cl17  1  0.99311600  0.97627500  0.33725400  1
  Cl  Cl18  1  0.50688400  0.47627500  0.33725400  1
  Cl  Cl19  1  0.99311600  0.97627500  0.16274600  1
  Cl  Cl20  1  0.49311600  0.52372500  0.66274600  1
  Cl  Cl21  1  0.00688400  0.02372500  0.83725400  1
  Cl  Cl22  1  0.49311600  0.52372500  0.83725400  1
  Cl  Cl23  1  0.50688400  0.47627500  0.16274600  1
  O  O24  1  0.37951100  0.04796600  0.25000000  1
  O  O25  1  0.62048900  0.95203400  0.75000000  1
  O  O26  1  0.87951100  0.45203400  0.75000000  1
  O  O27  1  0.12048900  0.54796600  0.25000000  1
  O  O28  1  0.81943300  0.25681300  0.25000000  1
  O  O29  1  0.18056700  0.74318700  0.75000000  1
  O  O30  1  0.31943300  0.24318700  0.75000000  1
  O  O31  1  0.68056700  0.75681300  0.25000000  1
  O  O32  1  0.22577600  0.47003200  0.50875200  1
  O  O33  1  0.77422400  0.52996800  0.49124800  1
  O  O34  1  0.72577600  0.02996800  0.49124800  1
  O  O35  1  0.77422400  0.52996800  0.00875200  1
  O  O36  1  0.27422400  0.97003200  0.50875200  1
  O  O37  1  0.22577600  0.47003200  0.99124800  1
  O  O38  1  0.27422400  0.97003200  0.99124800  1
  O  O39  1  0.72577600  0.02996800  0.00875200  1
  O  O40  1  0.10174500  0.29612600  0.18780400  1
  O  O41  1  0.89825500  0.70387400  0.81219600  1
  O  O42  1  0.60174500  0.20387400  0.81219600  1
  O  O43  1  0.89825500  0.70387400  0.68780400  1
  O  O44  1  0.39825500  0.79612600  0.18780400  1
  O  O45  1  0.10174500  0.29612600  0.31219600  1
  O  O46  1  0.39825500  0.79612600  0.31219600  1
  O  O47  1  0.60174500  0.20387400  0.68780400  1
  O  O48  1  0.04502600  0.20779000  0.01327900  1
  O  O49  1  0.95497400  0.79221000  0.98672100  1
  O  O50  1  0.54502600  0.29221000  0.98672100  1
  O  O51  1  0.95497400  0.79221000  0.51327900  1
  O  O52  1  0.45497400  0.70779000  0.01327900  1
  O  O53  1  0.04502600  0.20779000  0.48672100  1
  O  O54  1  0.45497400  0.70779000  0.48672100  1
  O  O55  1  0.54502600  0.29221000  0.51327900  1
  O  O56  1  0.45269200  0.11499200  0.10712600  1
  O  O57  1  0.54730800  0.88500800  0.89287400  1
  O  O58  1  0.95269200  0.38500800  0.89287400  1
  O  O59  1  0.54730800  0.88500800  0.60712600  1
  O  O60  1  0.04730800  0.61499200  0.10712600  1
  O  O61  1  0.45269200  0.11499200  0.39287400  1
  O  O62  1  0.04730800  0.61499200  0.39287400  1
  O  O63  1  0.95269200  0.38500800  0.60712600  1
