# generated using pymatgen
data_DyZr6(PO4)9
_symmetry_space_group_name_H-M   'P 1'
_cell_length_a   8.94437837
_cell_length_b   8.94437837
_cell_length_c   22.94867800
_cell_angle_alpha   90.00000000
_cell_angle_beta   90.00000000
_cell_angle_gamma   120.00000276
_symmetry_Int_Tables_number   1
_chemical_formula_structural   DyZr6(PO4)9
_chemical_formula_sum   'Dy2 Zr12 P18 O72'
_cell_volume   1589.96885624
_cell_formula_units_Z   2
loop_
 _symmetry_equiv_pos_site_id
 _symmetry_equiv_pos_as_xyz
  1  'x, y, z'
loop_
 _atom_site_type_symbol
 _atom_site_label
 _atom_site_symmetry_multiplicity
 _atom_site_fract_x
 _atom_site_fract_y
 _atom_site_fract_z
 _atom_site_occupancy
  Dy  Dy0  1  0.00000000  0.00000000  0.50000000  1
  Dy  Dy1  1  0.00000000  0.00000000  0.00000000  1
  Zr  Zr2  1  0.33333300  0.66666700  0.52846000  1
  Zr  Zr3  1  0.66666700  0.33333300  0.47154000  1
  Zr  Zr4  1  0.66666700  0.33333300  0.97154000  1
  Zr  Zr5  1  0.33333300  0.66666700  0.02846000  1
  Zr  Zr6  1  0.00000000  0.00000000  0.64932500  1
  Zr  Zr7  1  0.00000000  0.00000000  0.35067500  1
  Zr  Zr8  1  0.00000000  0.00000000  0.85067500  1
  Zr  Zr9  1  0.00000000  0.00000000  0.14932500  1
  Zr  Zr10  1  0.33333300  0.66666700  0.81283700  1
  Zr  Zr11  1  0.66666700  0.33333300  0.18716300  1
  Zr  Zr12  1  0.66666700  0.33333300  0.68716300  1
  Zr  Zr13  1  0.33333300  0.66666700  0.31283700  1
  P  P14  1  0.37346700  0.31868800  0.57896600  1
  P  P15  1  0.62653300  0.68131200  0.42103400  1
  P  P16  1  0.68131200  0.05477800  0.57896600  1
  P  P17  1  0.31868800  0.37346700  0.92103400  1
  P  P18  1  0.31868800  0.94522200  0.42103400  1
  P  P19  1  0.68131200  0.62653300  0.07896600  1
  P  P20  1  0.94522200  0.62653300  0.57896600  1
  P  P21  1  0.05477800  0.68131200  0.92103400  1
  P  P22  1  0.05477800  0.37346700  0.42103400  1
  P  P23  1  0.94522200  0.31868800  0.07896600  1
  P  P24  1  0.62653300  0.94522200  0.92103400  1
  P  P25  1  0.37346700  0.05477800  0.07896600  1
  P  P26  1  0.29173200  0.00000000  0.75000000  1
  P  P27  1  0.70826800  0.00000000  0.25000000  1
  P  P28  1  0.00000000  0.29173200  0.75000000  1
  P  P29  1  0.00000000  0.70826800  0.25000000  1
  P  P30  1  0.70826800  0.70826800  0.75000000  1
  P  P31  1  0.29173200  0.29173200  0.25000000  1
  O  O32  1  0.45486000  0.28304100  0.52578600  1
  O  O33  1  0.54514000  0.71695900  0.47421400  1
  O  O34  1  0.71695900  0.17181900  0.52578600  1
  O  O35  1  0.28304100  0.45486000  0.97421400  1
  O  O36  1  0.28304100  0.82818100  0.47421400  1
  O  O37  1  0.71695900  0.54514000  0.02578600  1
  O  O38  1  0.82818100  0.54514000  0.52578600  1
  O  O39  1  0.17181900  0.71695900  0.97421400  1
  O  O40  1  0.17181900  0.45486000  0.47421400  1
  O  O41  1  0.82818100  0.28304100  0.02578600  1
  O  O42  1  0.54514000  0.82818100  0.97421400  1
  O  O43  1  0.45486000  0.17181900  0.02578600  1
  O  O44  1  0.37566800  0.49127300  0.57461000  1
  O  O45  1  0.62433200  0.50872700  0.42539000  1
  O  O46  1  0.50872700  0.88439500  0.57461000  1
  O  O47  1  0.49127300  0.37566800  0.92539000  1
  O  O48  1  0.49127300  0.11560500  0.42539000  1
  O  O49  1  0.50872700  0.62433200  0.07461000  1
  O  O50  1  0.11560500  0.62433200  0.57461000  1
  O  O51  1  0.88439500  0.50872700  0.92539000  1
  O  O52  1  0.88439500  0.37566800  0.42539000  1
  O  O53  1  0.11560500  0.49127300  0.07461000  1
  O  O54  1  0.62433200  0.11560500  0.92539000  1
  O  O55  1  0.37566800  0.88439500  0.07461000  1
  O  O56  1  0.17728400  0.16783000  0.57838200  1
  O  O57  1  0.82271600  0.83217000  0.42161800  1
  O  O58  1  0.83217000  0.00945400  0.57838200  1
  O  O59  1  0.16783000  0.17728400  0.92161800  1
  O  O60  1  0.16783000  0.99054600  0.42161800  1
  O  O61  1  0.83217000  0.82271600  0.07838200  1
  O  O62  1  0.99054600  0.82271600  0.57838200  1
  O  O63  1  0.00945400  0.83217000  0.92161800  1
  O  O64  1  0.00945400  0.17728400  0.42161800  1
  O  O65  1  0.99054600  0.16783000  0.07838200  1
  O  O66  1  0.82271600  0.99054600  0.92161800  1
  O  O67  1  0.17728400  0.00945400  0.07838200  1
  O  O68  1  0.03085400  0.20484300  0.69601000  1
  O  O69  1  0.96914600  0.79515700  0.30399000  1
  O  O70  1  0.79515700  0.82601100  0.69601000  1
  O  O71  1  0.20484300  0.03085400  0.80399000  1
  O  O72  1  0.20484300  0.17398900  0.30399000  1
  O  O73  1  0.79515700  0.96914600  0.19601000  1
  O  O74  1  0.17398900  0.96914600  0.69601000  1
  O  O75  1  0.82601100  0.79515700  0.80399000  1
  O  O76  1  0.82601100  0.03085400  0.30399000  1
  O  O77  1  0.17398900  0.20484300  0.19601000  1
  O  O78  1  0.96914600  0.17398900  0.80399000  1
  O  O79  1  0.03085400  0.82601100  0.19601000  1
  O  O80  1  0.46085600  0.31352900  0.63568000  1
  O  O81  1  0.53914400  0.68647100  0.36432000  1
  O  O82  1  0.68647100  0.14732700  0.63568000  1
  O  O83  1  0.31352900  0.46085600  0.86432000  1
  O  O84  1  0.31352900  0.85267300  0.36432000  1
  O  O85  1  0.68647100  0.53914400  0.13568000  1
  O  O86  1  0.85267300  0.53914400  0.63568000  1
  O  O87  1  0.14732700  0.68647100  0.86432000  1
  O  O88  1  0.14732700  0.46085600  0.36432000  1
  O  O89  1  0.85267300  0.31352900  0.13568000  1
  O  O90  1  0.53914400  0.85267300  0.86432000  1
  O  O91  1  0.46085600  0.14732700  0.13568000  1
  O  O92  1  0.46817100  0.15907900  0.74003000  1
  O  O93  1  0.53182900  0.84092100  0.25997000  1
  O  O94  1  0.84092100  0.30909200  0.74003000  1
  O  O95  1  0.15907900  0.46817100  0.75997000  1
  O  O96  1  0.15907900  0.69090800  0.25997000  1
  O  O97  1  0.84092100  0.53182900  0.24003000  1
  O  O98  1  0.69090800  0.53182900  0.74003000  1
  O  O99  1  0.30909200  0.84092100  0.75997000  1
  O  O100  1  0.30909200  0.46817100  0.25997000  1
  O  O101  1  0.69090800  0.15907900  0.24003000  1
  O  O102  1  0.53182900  0.69090800  0.75997000  1
  O  O103  1  0.46817100  0.30909200  0.24003000  1
