# generated using pymatgen
data_Eu2Hf2(MoO4)7
_symmetry_space_group_name_H-M   'P 1'
_cell_length_a   11.75785840
_cell_length_b   11.75785840
_cell_length_c   14.13435784
_cell_angle_alpha   69.33906961
_cell_angle_beta   69.33906961
_cell_angle_gamma   50.61396859
_symmetry_Int_Tables_number   1
_chemical_formula_structural   Eu2Hf2(MoO4)7
_chemical_formula_sum   'Eu4 Hf4 Mo14 O56'
_cell_volume   1390.47438713
_cell_formula_units_Z   2
loop_
 _symmetry_equiv_pos_site_id
 _symmetry_equiv_pos_as_xyz
  1  'x, y, z'
loop_
 _atom_site_type_symbol
 _atom_site_label
 _atom_site_symmetry_multiplicity
 _atom_site_fract_x
 _atom_site_fract_y
 _atom_site_fract_z
 _atom_site_occupancy
  Eu  Eu0  1  0.15027600  0.12553000  0.06296300  1
  Eu  Eu1  1  0.84972400  0.87447000  0.93703700  1
  Eu  Eu2  1  0.87447000  0.84972400  0.43703700  1
  Eu  Eu3  1  0.12553000  0.15027600  0.56296300  1
  Hf  Hf4  1  0.41867600  0.34938900  0.18790100  1
  Hf  Hf5  1  0.58132400  0.65061100  0.81209900  1
  Hf  Hf6  1  0.65061100  0.58132400  0.31209900  1
  Hf  Hf7  1  0.34938900  0.41867600  0.68790100  1
  Mo  Mo8  1  0.49992700  0.98755600  0.17492000  1
  Mo  Mo9  1  0.50007300  0.01244400  0.82508000  1
  Mo  Mo10  1  0.01244400  0.50007300  0.32508000  1
  Mo  Mo11  1  0.98755600  0.49992700  0.67492000  1
  Mo  Mo12  1  0.45483700  0.23054400  0.47638700  1
  Mo  Mo13  1  0.54516300  0.76945600  0.52361300  1
  Mo  Mo14  1  0.76945600  0.54516300  0.02361300  1
  Mo  Mo15  1  0.23054400  0.45483700  0.97638700  1
  Mo  Mo16  1  0.80964400  0.06910100  0.14695000  1
  Mo  Mo17  1  0.19035600  0.93089900  0.85305000  1
  Mo  Mo18  1  0.93089900  0.19035600  0.35305000  1
  Mo  Mo19  1  0.06910100  0.80964400  0.64695000  1
  Mo  Mo20  1  0.29923700  0.70076300  0.25000000  1
  Mo  Mo21  1  0.70076300  0.29923700  0.75000000  1
  O  O22  1  0.48752400  0.12618500  0.21769700  1
  O  O23  1  0.51247600  0.87381500  0.78230300  1
  O  O24  1  0.87381500  0.51247600  0.28230300  1
  O  O25  1  0.12618500  0.48752400  0.71769700  1
  O  O26  1  0.63807300  0.07541300  0.49539200  1
  O  O27  1  0.36192700  0.92458700  0.50460800  1
  O  O28  1  0.92458700  0.36192700  0.00460800  1
  O  O29  1  0.07541300  0.63807300  0.99539200  1
  O  O30  1  0.31933300  0.05849300  0.16735200  1
  O  O31  1  0.68066700  0.94150700  0.83264800  1
  O  O32  1  0.94150700  0.68066700  0.33264800  1
  O  O33  1  0.05849300  0.31933300  0.66735200  1
  O  O34  1  0.93576800  0.02694800  0.39808100  1
  O  O35  1  0.06423200  0.97305200  0.60191900  1
  O  O36  1  0.97305200  0.06423200  0.10191900  1
  O  O37  1  0.02694800  0.93576800  0.89808100  1
  O  O38  1  0.79598700  0.99904600  0.28141200  1
  O  O39  1  0.20401300  0.00095400  0.71858800  1
  O  O40  1  0.00095400  0.20401300  0.21858800  1
  O  O41  1  0.99904600  0.79598700  0.78141200  1
  O  O42  1  0.57521700  0.80584700  0.26082800  1
  O  O43  1  0.42478300  0.19415300  0.73917200  1
  O  O44  1  0.19415300  0.42478300  0.23917200  1
  O  O45  1  0.80584700  0.57521700  0.76082800  1
  O  O46  1  0.66355500  0.82830100  0.47070700  1
  O  O47  1  0.33644500  0.17169900  0.52929300  1
  O  O48  1  0.17169900  0.33644500  0.02929300  1
  O  O49  1  0.82830100  0.66355500  0.97070700  1
  O  O50  1  0.82924900  0.94803500  0.08460100  1
  O  O51  1  0.17075100  0.05196500  0.91539900  1
  O  O52  1  0.05196500  0.17075100  0.41539900  1
  O  O53  1  0.94803500  0.82924900  0.58460100  1
  O  O54  1  0.60786900  0.96229800  0.04961700  1
  O  O55  1  0.39213100  0.03770200  0.95038300  1
  O  O56  1  0.03770200  0.39213100  0.45038300  1
  O  O57  1  0.96229800  0.60786900  0.54961700  1
  O  O58  1  0.37447600  0.39011100  0.04538300  1
  O  O59  1  0.62552400  0.60988900  0.95461700  1
  O  O60  1  0.60988900  0.62552400  0.45461700  1
  O  O61  1  0.39011100  0.37447600  0.54538300  1
  O  O62  1  0.26096200  0.86393300  0.15920600  1
  O  O63  1  0.73903800  0.13606700  0.84079400  1
  O  O64  1  0.13606700  0.73903800  0.34079400  1
  O  O65  1  0.86393300  0.26096200  0.65920600  1
  O  O66  1  0.44140300  0.63850200  0.31919900  1
  O  O67  1  0.55859700  0.36149800  0.68080100  1
  O  O68  1  0.36149800  0.55859700  0.18080100  1
  O  O69  1  0.63850200  0.44140300  0.81919900  1
  O  O70  1  0.64035400  0.26337900  0.12638000  1
  O  O71  1  0.35964600  0.73662100  0.87362000  1
  O  O72  1  0.73662100  0.35964600  0.37362000  1
  O  O73  1  0.26337900  0.64035400  0.62638000  1
  O  O74  1  0.44889700  0.30231700  0.33882600  1
  O  O75  1  0.55110300  0.69768300  0.66117400  1
  O  O76  1  0.69768300  0.55110300  0.16117400  1
  O  O77  1  0.30231700  0.44889700  0.83882600  1
