# generated using pymatgen
data_ErGa6
_symmetry_space_group_name_H-M   'P 1'
_cell_length_a   14.30941400
_cell_length_b   14.30941400
_cell_length_c   17.69933000
_cell_angle_alpha   90.00000000
_cell_angle_beta   90.00000000
_cell_angle_gamma   90.00000000
_symmetry_Int_Tables_number   1
_chemical_formula_structural   ErGa6
_chemical_formula_sum   'Er2 Ga12'
_cell_volume   3624.10293496
_cell_formula_units_Z   2
loop_
 _symmetry_equiv_pos_site_id
 _symmetry_equiv_pos_as_xyz
  1  'x, y, z'
loop_
 _atom_site_type_symbol
 _atom_site_label
 _atom_site_symmetry_multiplicity
 _atom_site_fract_x
 _atom_site_fract_y
 _atom_site_fract_z
 _atom_site_occupancy
  Er  Er0  1  0.50000000  0.00000000  0.00000000  1
  Er  Er1  1  0.00000000  0.50000000  0.00000000  1
  Ga  Ga2  1  0.87236600  0.00000000  0.35116200  1
  Ga  Ga3  1  0.12763400  0.00000000  0.35116200  1
  Ga  Ga4  1  0.00000000  0.87236600  0.35116200  1
  Ga  Ga5  1  0.00000000  0.12763400  0.64883800  1
  Ga  Ga6  1  0.12763400  0.00000000  0.64883800  1
  Ga  Ga7  1  0.00000000  0.12763400  0.35116200  1
  Ga  Ga8  1  0.00000000  0.87236600  0.64883800  1
  Ga  Ga9  1  0.87236600  0.00000000  0.64883800  1
  Ga  Ga10  1  0.00000000  0.50000000  0.15920800  1
  Ga  Ga11  1  0.50000000  0.00000000  0.15920800  1
  Ga  Ga12  1  0.50000000  0.00000000  0.84079200  1
  Ga  Ga13  1  0.00000000  0.50000000  0.84079200  1
