# generated using pymatgen
data_MnC5O8
_symmetry_space_group_name_H-M   'P 1'
_cell_length_a   8.92151400
_cell_length_b   11.70387000
_cell_length_c   16.91707200
_cell_angle_alpha   90.00000000
_cell_angle_beta   90.00000000
_cell_angle_gamma   90.00000000
_symmetry_Int_Tables_number   1
_chemical_formula_structural   MnC5O8
_chemical_formula_sum   'Mn8 C40 O64'
_cell_volume   1766.41705105
_cell_formula_units_Z   8
loop_
 _symmetry_equiv_pos_site_id
 _symmetry_equiv_pos_as_xyz
  1  'x, y, z'
loop_
 _atom_site_type_symbol
 _atom_site_label
 _atom_site_symmetry_multiplicity
 _atom_site_fract_x
 _atom_site_fract_y
 _atom_site_fract_z
 _atom_site_occupancy
  Mn  Mn0  1  0.04417100  0.62354600  0.80071300  1
  Mn  Mn1  1  0.95582900  0.37645400  0.19928700  1
  Mn  Mn2  1  0.45582900  0.12354600  0.19928700  1
  Mn  Mn3  1  0.95582900  0.87645400  0.30071300  1
  Mn  Mn4  1  0.54417100  0.87645400  0.80071300  1
  Mn  Mn5  1  0.04417100  0.12354600  0.69928700  1
  Mn  Mn6  1  0.54417100  0.37645400  0.69928700  1
  Mn  Mn7  1  0.45582900  0.62354600  0.30071300  1
  C  C8  1  0.31718100  0.62324000  0.55841800  1
  C  C9  1  0.68281900  0.37676000  0.44158200  1
  C  C10  1  0.18281900  0.12324000  0.44158200  1
  C  C11  1  0.68281900  0.87676000  0.05841800  1
  C  C12  1  0.81718100  0.87676000  0.55841800  1
  C  C13  1  0.31718100  0.12324000  0.94158200  1
  C  C14  1  0.81718100  0.37676000  0.94158200  1
  C  C15  1  0.18281900  0.62324000  0.05841800  1
  C  C16  1  0.32253000  0.62642100  0.00218300  1
  C  C17  1  0.67747000  0.37357900  0.99781700  1
  C  C18  1  0.17747000  0.12642100  0.99781700  1
  C  C19  1  0.67747000  0.87357900  0.50218300  1
  C  C20  1  0.82253000  0.87357900  0.00218300  1
  C  C21  1  0.32253000  0.12642100  0.49781700  1
  C  C22  1  0.82253000  0.37357900  0.49781700  1
  C  C23  1  0.17747000  0.62642100  0.50218300  1
  C  C24  1  0.03858800  0.62012100  0.55573400  1
  C  C25  1  0.96141200  0.37987900  0.44426600  1
  C  C26  1  0.46141200  0.12012100  0.44426600  1
  C  C27  1  0.96141200  0.87987900  0.05573400  1
  C  C28  1  0.53858800  0.87987900  0.55573400  1
  C  C29  1  0.03858800  0.12012100  0.94426600  1
  C  C30  1  0.53858800  0.37987900  0.94426600  1
  C  C31  1  0.46141200  0.62012100  0.05573400  1
  C  C32  1  0.25413200  0.62714100  0.64235100  1
  C  C33  1  0.74586800  0.37285900  0.35764900  1
  C  C34  1  0.24586800  0.12714100  0.35764900  1
  C  C35  1  0.74586800  0.87285900  0.14235100  1
  C  C36  1  0.75413200  0.87285900  0.64235100  1
  C  C37  1  0.25413200  0.12714100  0.85764900  1
  C  C38  1  0.75413200  0.37285900  0.85764900  1
  C  C39  1  0.24586800  0.62714100  0.14235100  1
  C  C40  1  0.09276900  0.62144900  0.63578100  1
  C  C41  1  0.90723100  0.37855100  0.36421900  1
  C  C42  1  0.40723100  0.12144900  0.36421900  1
  C  C43  1  0.90723100  0.87855100  0.13578100  1
  C  C44  1  0.59276900  0.87855100  0.63578100  1
  C  C45  1  0.09276900  0.12144900  0.86421900  1
  C  C46  1  0.59276900  0.37855100  0.86421900  1
  C  C47  1  0.40723100  0.62144900  0.13578100  1
  O  O48  1  0.12927600  0.73941700  0.81878700  1
  O  O49  1  0.87072400  0.26058300  0.18121300  1
  O  O50  1  0.37072400  0.23941700  0.18121300  1
  O  O51  1  0.87072400  0.76058300  0.31878700  1
  O  O52  1  0.62927600  0.76058300  0.81878700  1
  O  O53  1  0.12927600  0.23941700  0.68121300  1
  O  O54  1  0.62927600  0.26058300  0.68121300  1
  O  O55  1  0.37072400  0.73941700  0.31878700  1
  O  O56  1  0.31817700  0.63415000  0.93153200  1
  O  O57  1  0.68182300  0.36585000  0.06846800  1
  O  O58  1  0.18182300  0.13415000  0.06846800  1
  O  O59  1  0.68182300  0.86585000  0.43153200  1
  O  O60  1  0.81817700  0.86585000  0.93153200  1
  O  O61  1  0.31817700  0.13415000  0.56846800  1
  O  O62  1  0.81817700  0.36585000  0.56846800  1
  O  O63  1  0.18182300  0.63415000  0.43153200  1
  O  O64  1  0.44613500  0.61961900  0.53732800  1
  O  O65  1  0.55386500  0.38038100  0.46267200  1
  O  O66  1  0.05386500  0.11961900  0.46267200  1
  O  O67  1  0.55386500  0.88038100  0.03732800  1
  O  O68  1  0.94613500  0.88038100  0.53732800  1
  O  O69  1  0.44613500  0.11961900  0.96267200  1
  O  O70  1  0.94613500  0.38038100  0.96267200  1
  O  O71  1  0.05386500  0.61961900  0.03732800  1
  O  O72  1  0.14536300  0.01616400  0.67874500  1
  O  O73  1  0.85463700  0.98383600  0.32125500  1
  O  O74  1  0.35463700  0.51616400  0.32125500  1
  O  O75  1  0.85463700  0.48383600  0.17874500  1
  O  O76  1  0.64536300  0.48383600  0.67874500  1
  O  O77  1  0.14536300  0.51616400  0.82125500  1
  O  O78  1  0.64536300  0.98383600  0.82125500  1
  O  O79  1  0.35463700  0.01616400  0.17874500  1
  O  O80  1  0.39171900  0.88146200  0.84903100  1
  O  O81  1  0.60828100  0.11853800  0.15096900  1
  O  O82  1  0.10828100  0.38146200  0.15096900  1
  O  O83  1  0.60828100  0.61853800  0.34903100  1
  O  O84  1  0.89171900  0.61853800  0.84903100  1
  O  O85  1  0.39171900  0.38146200  0.65096900  1
  O  O86  1  0.89171900  0.11853800  0.65096900  1
  O  O87  1  0.10828100  0.88146200  0.34903100  1
  O  O88  1  0.41047700  0.88289000  0.52898800  1
  O  O89  1  0.58952300  0.11711000  0.47101200  1
  O  O90  1  0.08952300  0.38289000  0.47101200  1
  O  O91  1  0.58952300  0.61711000  0.02898800  1
  O  O92  1  0.91047700  0.61711000  0.52898800  1
  O  O93  1  0.41047700  0.38289000  0.97101200  1
  O  O94  1  0.91047700  0.11711000  0.97101200  1
  O  O95  1  0.08952300  0.88289000  0.02898800  1
  O  O96  1  0.49878500  0.88142400  0.69523100  1
  O  O97  1  0.50121500  0.11857600  0.30476900  1
  O  O98  1  0.00121500  0.38142400  0.30476900  1
  O  O99  1  0.50121500  0.61857600  0.19523100  1
  O  O100  1  0.99878500  0.61857600  0.69523100  1
  O  O101  1  0.49878500  0.38142400  0.80476900  1
  O  O102  1  0.99878500  0.11857600  0.80476900  1
  O  O103  1  0.00121500  0.88142400  0.19523100  1
  O  O104  1  0.33404900  0.63369600  0.70133500  1
  O  O105  1  0.66595100  0.36630400  0.29866500  1
  O  O106  1  0.16595100  0.13369600  0.29866500  1
  O  O107  1  0.66595100  0.86630400  0.20133500  1
  O  O108  1  0.83404900  0.86630400  0.70133500  1
  O  O109  1  0.33404900  0.13369600  0.79866500  1
  O  O110  1  0.83404900  0.36630400  0.79866500  1
  O  O111  1  0.16595100  0.63369600  0.20133500  1
