# generated using pymatgen
data_ErZr6(PO4)9
_symmetry_space_group_name_H-M   'P 1'
_cell_length_a   8.94697060
_cell_length_b   8.94697060
_cell_length_c   22.95961300
_cell_angle_alpha   90.00000000
_cell_angle_beta   90.00000000
_cell_angle_gamma   120.00000444
_symmetry_Int_Tables_number   1
_chemical_formula_structural   ErZr6(PO4)9
_chemical_formula_sum   'Er2 Zr12 P18 O72'
_cell_volume   1591.64861703
_cell_formula_units_Z   2
loop_
 _symmetry_equiv_pos_site_id
 _symmetry_equiv_pos_as_xyz
  1  'x, y, z'
loop_
 _atom_site_type_symbol
 _atom_site_label
 _atom_site_symmetry_multiplicity
 _atom_site_fract_x
 _atom_site_fract_y
 _atom_site_fract_z
 _atom_site_occupancy
  Er  Er0  1  0.00000000  0.00000000  0.50000000  1
  Er  Er1  1  0.00000000  0.00000000  0.00000000  1
  Zr  Zr2  1  0.33333300  0.66666700  0.52759500  1
  Zr  Zr3  1  0.66666700  0.33333300  0.47240500  1
  Zr  Zr4  1  0.66666700  0.33333300  0.97240500  1
  Zr  Zr5  1  0.33333300  0.66666700  0.02759500  1
  Zr  Zr6  1  0.00000000  0.00000000  0.64898500  1
  Zr  Zr7  1  0.00000000  0.00000000  0.35101500  1
  Zr  Zr8  1  0.00000000  0.00000000  0.85101500  1
  Zr  Zr9  1  0.00000000  0.00000000  0.14898500  1
  Zr  Zr10  1  0.33333300  0.66666700  0.81308700  1
  Zr  Zr11  1  0.66666700  0.33333300  0.18691300  1
  Zr  Zr12  1  0.66666700  0.33333300  0.68691300  1
  Zr  Zr13  1  0.33333300  0.66666700  0.31308700  1
  P  P14  1  0.37239100  0.31924700  0.57842600  1
  P  P15  1  0.62760900  0.68075300  0.42157400  1
  P  P16  1  0.68075300  0.05314400  0.57842600  1
  P  P17  1  0.31924700  0.37239100  0.92157400  1
  P  P18  1  0.31924700  0.94685600  0.42157400  1
  P  P19  1  0.68075300  0.62760900  0.07842600  1
  P  P20  1  0.94685600  0.62760900  0.57842600  1
  P  P21  1  0.05314400  0.68075300  0.92157400  1
  P  P22  1  0.05314400  0.37239100  0.42157400  1
  P  P23  1  0.94685600  0.31924700  0.07842600  1
  P  P24  1  0.62760900  0.94685600  0.92157400  1
  P  P25  1  0.37239100  0.05314400  0.07842600  1
  P  P26  1  0.29231200  0.00000000  0.75000000  1
  P  P27  1  0.70768800  0.00000000  0.25000000  1
  P  P28  1  0.00000000  0.29231200  0.75000000  1
  P  P29  1  0.00000000  0.70768800  0.25000000  1
  P  P30  1  0.70768800  0.70768800  0.75000000  1
  P  P31  1  0.29231200  0.29231200  0.25000000  1
  O  O32  1  0.45264100  0.28099900  0.52551700  1
  O  O33  1  0.54735900  0.71900100  0.47448300  1
  O  O34  1  0.71900100  0.17164300  0.52551700  1
  O  O35  1  0.28099900  0.45264100  0.97448300  1
  O  O36  1  0.28099900  0.82835700  0.47448300  1
  O  O37  1  0.71900100  0.54735900  0.02551700  1
  O  O38  1  0.82835700  0.54735900  0.52551700  1
  O  O39  1  0.17164300  0.71900100  0.97448300  1
  O  O40  1  0.17164300  0.45264100  0.47448300  1
  O  O41  1  0.82835700  0.28099900  0.02551700  1
  O  O42  1  0.54735900  0.82835700  0.97448300  1
  O  O43  1  0.45264100  0.17164300  0.02551700  1
  O  O44  1  0.37524900  0.49181400  0.57376500  1
  O  O45  1  0.62475100  0.50818600  0.42623500  1
  O  O46  1  0.50818600  0.88343500  0.57376500  1
  O  O47  1  0.49181400  0.37524900  0.92623500  1
  O  O48  1  0.49181400  0.11656500  0.42623500  1
  O  O49  1  0.50818600  0.62475100  0.07376500  1
  O  O50  1  0.11656500  0.62475100  0.57376500  1
  O  O51  1  0.88343500  0.50818600  0.92623500  1
  O  O52  1  0.88343500  0.37524900  0.42623500  1
  O  O53  1  0.11656500  0.49181400  0.07376500  1
  O  O54  1  0.62475100  0.11656500  0.92623500  1
  O  O55  1  0.37524900  0.88343500  0.07376500  1
  O  O56  1  0.17569400  0.16889400  0.57790300  1
  O  O57  1  0.82430600  0.83110600  0.42209700  1
  O  O58  1  0.83110600  0.00680000  0.57790300  1
  O  O59  1  0.16889400  0.17569400  0.92209700  1
  O  O60  1  0.16889400  0.99320000  0.42209700  1
  O  O61  1  0.83110600  0.82430600  0.07790300  1
  O  O62  1  0.99320000  0.82430600  0.57790300  1
  O  O63  1  0.00680000  0.83110600  0.92209700  1
  O  O64  1  0.00680000  0.17569400  0.42209700  1
  O  O65  1  0.99320000  0.16889400  0.07790300  1
  O  O66  1  0.82430600  0.99320000  0.92209700  1
  O  O67  1  0.17569400  0.00680000  0.07790300  1
  O  O68  1  0.02940700  0.20464600  0.69580300  1
  O  O69  1  0.97059300  0.79535400  0.30419700  1
  O  O70  1  0.79535400  0.82476100  0.69580300  1
  O  O71  1  0.20464600  0.02940700  0.80419700  1
  O  O72  1  0.20464600  0.17523900  0.30419700  1
  O  O73  1  0.79535400  0.97059300  0.19580300  1
  O  O74  1  0.17523900  0.97059300  0.69580300  1
  O  O75  1  0.82476100  0.79535400  0.80419700  1
  O  O76  1  0.82476100  0.02940700  0.30419700  1
  O  O77  1  0.17523900  0.20464600  0.19580300  1
  O  O78  1  0.97059300  0.17523900  0.80419700  1
  O  O79  1  0.02940700  0.82476100  0.19580300  1
  O  O80  1  0.46145900  0.31622700  0.63510100  1
  O  O81  1  0.53854100  0.68377300  0.36489900  1
  O  O82  1  0.68377300  0.14523200  0.63510100  1
  O  O83  1  0.31622700  0.46145900  0.86489900  1
  O  O84  1  0.31622700  0.85476800  0.36489900  1
  O  O85  1  0.68377300  0.53854100  0.13510100  1
  O  O86  1  0.85476800  0.53854100  0.63510100  1
  O  O87  1  0.14523200  0.68377300  0.86489900  1
  O  O88  1  0.14523200  0.46145900  0.36489900  1
  O  O89  1  0.85476800  0.31622700  0.13510100  1
  O  O90  1  0.53854100  0.85476800  0.86489900  1
  O  O91  1  0.46145900  0.14523200  0.13510100  1
  O  O92  1  0.46846400  0.15960100  0.74055200  1
  O  O93  1  0.53153600  0.84039900  0.25944800  1
  O  O94  1  0.84039900  0.30886200  0.74055200  1
  O  O95  1  0.15960100  0.46846400  0.75944800  1
  O  O96  1  0.15960100  0.69113800  0.25944800  1
  O  O97  1  0.84039900  0.53153600  0.24055200  1
  O  O98  1  0.69113800  0.53153600  0.74055200  1
  O  O99  1  0.30886200  0.84039900  0.75944800  1
  O  O100  1  0.30886200  0.46846400  0.25944800  1
  O  O101  1  0.69113800  0.15960100  0.24055200  1
  O  O102  1  0.53153600  0.69113800  0.75944800  1
  O  O103  1  0.46846400  0.30886200  0.24055200  1
