# generated using pymatgen
data_LiCdMoO5
_symmetry_space_group_name_H-M   'P 1'
_cell_length_a   5.46281300
_cell_length_b   10.75843717
_cell_length_c   10.45622233
_cell_angle_alpha   114.17600005
_cell_angle_beta   90.00000000
_cell_angle_gamma   90.00000000
_symmetry_Int_Tables_number   1
_chemical_formula_structural   LiCdMoO5
_chemical_formula_sum   'Li4 Cd4 Mo4 O20'
_cell_volume   560.62708509
_cell_formula_units_Z   4
loop_
 _symmetry_equiv_pos_site_id
 _symmetry_equiv_pos_as_xyz
  1  'x, y, z'
loop_
 _atom_site_type_symbol
 _atom_site_label
 _atom_site_symmetry_multiplicity
 _atom_site_fract_x
 _atom_site_fract_y
 _atom_site_fract_z
 _atom_site_occupancy
  Li  Li0  1  0.36878700  0.68025000  0.55871800  1
  Li  Li1  1  0.63121300  0.31975000  0.44128200  1
  Li  Li2  1  0.86878700  0.31975000  0.94128200  1
  Li  Li3  1  0.13121300  0.68025000  0.05871800  1
  Cd  Cd4  1  0.64363400  0.57720200  0.79049700  1
  Cd  Cd5  1  0.35636600  0.42279800  0.20950300  1
  Cd  Cd6  1  0.14363400  0.42279800  0.70950300  1
  Cd  Cd7  1  0.85636600  0.57720200  0.29049700  1
  Mo  Mo8  1  0.53916400  0.94547000  0.84039100  1
  Mo  Mo9  1  0.46083600  0.05453000  0.15960900  1
  Mo  Mo10  1  0.03916400  0.05453000  0.65960900  1
  Mo  Mo11  1  0.96083600  0.94547000  0.34039100  1
  O  O12  1  0.49646500  0.76684200  0.74776600  1
  O  O13  1  0.50353500  0.23315800  0.25223400  1
  O  O14  1  0.99646500  0.23315800  0.75223400  1
  O  O15  1  0.00353500  0.76684200  0.24776600  1
  O  O16  1  0.82291600  0.01272800  0.79343800  1
  O  O17  1  0.17708400  0.98727200  0.20656200  1
  O  O18  1  0.32291600  0.98727200  0.70656200  1
  O  O19  1  0.67708400  0.01272800  0.29343800  1
  O  O20  1  0.83023500  0.93233400  0.51116600  1
  O  O21  1  0.16976500  0.06766600  0.48883400  1
  O  O22  1  0.33023500  0.06766600  0.98883400  1
  O  O23  1  0.66976500  0.93233400  0.01116600  1
  O  O24  1  0.83007800  0.43320000  0.58588900  1
  O  O25  1  0.16992200  0.56680000  0.41411100  1
  O  O26  1  0.33007800  0.56680000  0.91411100  1
  O  O27  1  0.66992200  0.43320000  0.08588900  1
  O  O28  1  0.00128500  0.61904000  0.88524300  1
  O  O29  1  0.99871500  0.38096000  0.11475700  1
  O  O30  1  0.50128500  0.38096000  0.61475700  1
  O  O31  1  0.49871500  0.61904000  0.38524300  1
