# generated using pymatgen
data_Ho13(Mg2Zn27)2
_symmetry_space_group_name_H-M   'P 1'
_cell_length_a   13.94756782
_cell_length_b   14.38268754
_cell_length_c   14.38268754
_cell_angle_alpha   119.99999799
_cell_angle_beta   90.00000000
_cell_angle_gamma   90.00000000
_symmetry_Int_Tables_number   1
_chemical_formula_structural   Ho13(Mg2Zn27)2
_chemical_formula_sum   'Ho26 Mg8 Zn108'
_cell_volume   2498.67179053
_cell_formula_units_Z   2
loop_
 _symmetry_equiv_pos_site_id
 _symmetry_equiv_pos_as_xyz
  1  'x, y, z'
loop_
 _atom_site_type_symbol
 _atom_site_label
 _atom_site_symmetry_multiplicity
 _atom_site_fract_x
 _atom_site_fract_y
 _atom_site_fract_z
 _atom_site_occupancy
  Ho  Ho0  1  0.94641532  0.79343691  0.20656309  1
  Ho  Ho1  1  0.05358468  0.20656309  0.79343691  1
  Ho  Ho2  1  0.94641532  0.41312618  0.20656309  1
  Ho  Ho3  1  0.44641532  0.20656309  0.79343691  1
  Ho  Ho4  1  0.05358468  0.58687382  0.79343691  1
  Ho  Ho5  1  0.55358468  0.79343691  0.20656309  1
  Ho  Ho6  1  0.94641532  0.79343691  0.58687382  1
  Ho  Ho7  1  0.44641532  0.58687382  0.79343691  1
  Ho  Ho8  1  0.05358468  0.20656309  0.41312618  1
  Ho  Ho9  1  0.55358468  0.41312618  0.20656309  1
  Ho  Ho10  1  0.44641532  0.20656309  0.41312618  1
  Ho  Ho11  1  0.55358468  0.79343691  0.58687382  1
  Ho  Ho12  1  0.75000000  0.45813943  0.54186057  1
  Ho  Ho13  1  0.25000000  0.54186057  0.45813943  1
  Ho  Ho14  1  0.75000000  0.08372113  0.54186057  1
  Ho  Ho15  1  0.25000000  0.91627887  0.45813943  1
  Ho  Ho16  1  0.75000000  0.45813943  0.91627887  1
  Ho  Ho17  1  0.25000000  0.54186057  0.08372113  1
  Ho  Ho18  1  0.75000000  0.12586553  0.87413447  1
  Ho  Ho19  1  0.25000000  0.87413447  0.12586553  1
  Ho  Ho20  1  0.75000000  0.74826894  0.87413447  1
  Ho  Ho21  1  0.25000000  0.25173106  0.12586553  1
  Ho  Ho22  1  0.75000000  0.12586553  0.25173106  1
  Ho  Ho23  1  0.25000000  0.87413447  0.74826894  1
  Ho  Ho24  1  -0.00000000  0.00000000  0.00000000  1
  Ho  Ho25  1  0.50000000  0.00000000  0.00000000  1
  Mg  Mg26  1  0.25000000  0.66666700  0.33333300  1
  Mg  Mg27  1  0.75000000  0.33333300  0.66666700  1
  Mg  Mg28  1  -0.00000000  0.50000000  0.50000000  1
  Mg  Mg29  1  -0.00000000  0.00000000  0.50000000  1
  Mg  Mg30  1  0.50000000  0.50000000  0.50000000  1
  Mg  Mg31  1  -0.00000000  0.50000000  0.00000000  1
  Mg  Mg32  1  0.50000000  0.00000000  0.50000000  1
  Mg  Mg33  1  0.50000000  0.50000000  0.00000000  1
  Zn  Zn34  1  0.94613833  0.39607937  0.60392063  1
  Zn  Zn35  1  0.05386167  0.60392063  0.39607937  1
  Zn  Zn36  1  0.94613833  0.20784126  0.60392063  1
  Zn  Zn37  1  0.44613833  0.60392063  0.39607937  1
  Zn  Zn38  1  0.05386167  0.79215874  0.39607937  1
  Zn  Zn39  1  0.55386167  0.39607937  0.60392063  1
  Zn  Zn40  1  0.94613833  0.39607937  0.79215874  1
  Zn  Zn41  1  0.44613833  0.79215874  0.39607937  1
  Zn  Zn42  1  0.05386167  0.60392063  0.20784126  1
  Zn  Zn43  1  0.55386167  0.20784126  0.60392063  1
  Zn  Zn44  1  0.44613833  0.60392063  0.20784126  1
  Zn  Zn45  1  0.55386167  0.39607937  0.79215874  1
  Zn  Zn46  1  0.34285819  0.76724121  0.23275879  1
  Zn  Zn47  1  0.65714181  0.23275879  0.76724121  1
  Zn  Zn48  1  0.34285819  0.46551757  0.23275879  1
  Zn  Zn49  1  0.84285819  0.23275879  0.76724121  1
  Zn  Zn50  1  0.65714181  0.53448243  0.76724121  1
  Zn  Zn51  1  0.15714181  0.76724121  0.23275879  1
  Zn  Zn52  1  0.34285819  0.76724121  0.53448243  1
  Zn  Zn53  1  0.84285819  0.53448243  0.76724121  1
  Zn  Zn54  1  0.65714181  0.23275879  0.46551757  1
  Zn  Zn55  1  0.15714181  0.46551757  0.23275879  1
  Zn  Zn56  1  0.84285819  0.23275879  0.46551757  1
  Zn  Zn57  1  0.15714181  0.76724121  0.53448243  1
  Zn  Zn58  1  -0.00000000  0.79991598  0.79991598  1
  Zn  Zn59  1  -0.00000000  0.20008402  0.20008402  1
  Zn  Zn60  1  -0.00000000  0.00000000  0.20008402  1
  Zn  Zn61  1  0.50000000  0.20008402  0.20008402  1
  Zn  Zn62  1  -0.00000000  1.00000000  0.79991598  1
  Zn  Zn63  1  0.50000000  0.79991598  0.79991598  1
  Zn  Zn64  1  -0.00000000  0.20008402  0.00000000  1
  Zn  Zn65  1  0.50000000  1.00000000  0.79991598  1
  Zn  Zn66  1  -0.00000000  0.79991598  1.00000000  1
  Zn  Zn67  1  0.50000000  0.00000000  0.20008402  1
  Zn  Zn68  1  0.50000000  0.79991598  1.00000000  1
  Zn  Zn69  1  0.50000000  0.20008402  0.00000000  1
  Zn  Zn70  1  0.75000000  0.73097858  0.26902142  1
  Zn  Zn71  1  0.25000000  0.26902142  0.73097858  1
  Zn  Zn72  1  0.75000000  0.53804284  0.26902142  1
  Zn  Zn73  1  0.25000000  0.46195716  0.73097858  1
  Zn  Zn74  1  0.75000000  0.73097858  0.46195716  1
  Zn  Zn75  1  0.25000000  0.26902142  0.53804284  1
  Zn  Zn76  1  0.75000000  0.91705799  0.28129880  1
  Zn  Zn77  1  0.25000000  0.08294201  0.71870120  1
  Zn  Zn78  1  0.75000000  0.36424082  0.08294201  1
  Zn  Zn79  1  0.25000000  0.63575918  0.71870120  1
  Zn  Zn80  1  0.25000000  0.63575918  0.91705799  1
  Zn  Zn81  1  0.75000000  0.36424082  0.28129880  1
  Zn  Zn82  1  0.75000000  0.71870120  0.63575918  1
  Zn  Zn83  1  0.25000000  0.28129880  0.91705799  1
  Zn  Zn84  1  0.25000000  0.28129880  0.36424082  1
  Zn  Zn85  1  0.75000000  0.71870120  0.08294201  1
  Zn  Zn86  1  0.25000000  0.08294201  0.36424082  1
  Zn  Zn87  1  0.75000000  0.91705799  0.63575918  1
  Zn  Zn88  1  0.89688357  0.63917871  0.67486401  1
  Zn  Zn89  1  0.10311643  0.36082129  0.32513599  1
  Zn  Zn90  1  0.89688357  0.03568530  0.36082129  1
  Zn  Zn91  1  0.39688357  0.36082129  0.32513599  1
  Zn  Zn92  1  0.10311643  0.96431470  0.32513599  1
  Zn  Zn93  1  0.10311643  0.96431470  0.63917871  1
  Zn  Zn94  1  0.60311643  0.63917871  0.67486401  1
  Zn  Zn95  1  0.89688357  0.03568530  0.67486401  1
  Zn  Zn96  1  0.89688357  0.32513599  0.96431470  1
  Zn  Zn97  1  0.39688357  0.96431470  0.63917871  1
  Zn  Zn98  1  0.10311643  0.67486401  0.63917871  1
  Zn  Zn99  1  0.10311643  0.67486401  0.03568530  1
  Zn  Zn100  1  0.60311643  0.03568530  0.36082129  1
  Zn  Zn101  1  0.89688357  0.32513599  0.36082129  1
  Zn  Zn102  1  0.60311643  0.03568530  0.67486401  1
  Zn  Zn103  1  0.39688357  0.96431470  0.32513599  1
  Zn  Zn104  1  0.39688357  0.67486401  0.03568530  1
  Zn  Zn105  1  0.60311643  0.32513599  0.36082129  1
  Zn  Zn106  1  0.60311643  0.32513599  0.96431470  1
  Zn  Zn107  1  0.39688357  0.67486401  0.63917871  1
  Zn  Zn108  1  0.10311643  0.36082129  0.03568530  1
  Zn  Zn109  1  0.89688357  0.63917871  0.96431470  1
  Zn  Zn110  1  0.60311643  0.63917871  0.96431470  1
  Zn  Zn111  1  0.39688357  0.36082129  0.03568530  1
  Zn  Zn112  1  0.90196133  0.66666700  0.33333300  1
  Zn  Zn113  1  0.09803867  0.33333300  0.66666700  1
  Zn  Zn114  1  0.40196133  0.33333300  0.66666700  1
  Zn  Zn115  1  0.59803867  0.66666700  0.33333300  1
  Zn  Zn116  1  0.35222311  0.43594787  0.56405213  1
  Zn  Zn117  1  0.64777689  0.56405213  0.43594787  1
  Zn  Zn118  1  0.35222311  0.12810425  0.56405213  1
  Zn  Zn119  1  0.85222311  0.56405213  0.43594787  1
  Zn  Zn120  1  0.64777689  0.87189575  0.43594787  1
  Zn  Zn121  1  0.14777689  0.43594787  0.56405213  1
  Zn  Zn122  1  0.35222311  0.43594787  0.87189575  1
  Zn  Zn123  1  0.85222311  0.87189575  0.43594787  1
  Zn  Zn124  1  0.64777689  0.56405213  0.12810425  1
  Zn  Zn125  1  0.14777689  0.12810425  0.56405213  1
  Zn  Zn126  1  0.85222311  0.56405213  0.12810425  1
  Zn  Zn127  1  0.14777689  0.43594787  0.87189575  1
  Zn  Zn128  1  0.84304733  0.90479459  0.09520541  1
  Zn  Zn129  1  0.15695267  0.09520541  0.90479459  1
  Zn  Zn130  1  0.84304733  0.19041082  0.09520541  1
  Zn  Zn131  1  0.34304733  0.09520541  0.90479459  1
  Zn  Zn132  1  0.15695267  0.80958918  0.90479459  1
  Zn  Zn133  1  0.65695267  0.90479459  0.09520541  1
  Zn  Zn134  1  0.84304733  0.90479459  0.80958918  1
  Zn  Zn135  1  0.34304733  0.80958918  0.90479459  1
  Zn  Zn136  1  0.15695267  0.09520541  0.19041082  1
  Zn  Zn137  1  0.65695267  0.19041082  0.09520541  1
  Zn  Zn138  1  0.34304733  0.09520541  0.19041082  1
  Zn  Zn139  1  0.65695267  0.90479459  0.80958918  1
  Zn  Zn140  1  0.75000000  0.00000000  0.00000000  1
  Zn  Zn141  1  0.25000000  0.00000000  0.00000000  1
