# generated using pymatgen
data_K4P4H6WO14
_symmetry_space_group_name_H-M   'P 1'
_cell_length_a   7.31706600
_cell_length_b   10.50034659
_cell_length_c   12.69189918
_cell_angle_alpha   82.59359824
_cell_angle_beta   73.24634622
_cell_angle_gamma   69.60928128
_symmetry_Int_Tables_number   1
_chemical_formula_structural   K4P4H6WO14
_chemical_formula_sum   'K8 P8 H12 W2 O28'
_cell_volume   874.79812891
_cell_formula_units_Z   2
loop_
 _symmetry_equiv_pos_site_id
 _symmetry_equiv_pos_as_xyz
  1  'x, y, z'
loop_
 _atom_site_type_symbol
 _atom_site_label
 _atom_site_symmetry_multiplicity
 _atom_site_fract_x
 _atom_site_fract_y
 _atom_site_fract_z
 _atom_site_occupancy
  K  K0  1  0.75360900  0.52632900  0.45350500  1
  K  K1  1  0.24639100  0.47367100  0.54649500  1
  K  K2  1  0.73344300  0.97367100  0.04649500  1
  K  K3  1  0.26655700  0.02632900  0.95350500  1
  K  K4  1  0.71977500  0.06468800  0.39941700  1
  K  K5  1  0.28022500  0.93531200  0.60058300  1
  K  K6  1  0.18388000  0.43531200  0.10058300  1
  K  K7  1  0.81612000  0.56468800  0.89941700  1
  P  P8  1  0.82218900  0.25724600  0.08965100  1
  P  P9  1  0.17781100  0.74275400  0.91034900  1
  P  P10  1  0.16908700  0.24275400  0.41034900  1
  P  P11  1  0.83091300  0.75724600  0.58965100  1
  P  P12  1  0.58872100  0.51223500  0.20660000  1
  P  P13  1  0.41127900  0.48776500  0.79340000  1
  P  P14  1  0.30755600  0.98776500  0.29340000  1
  P  P15  1  0.69244400  0.01223500  0.70660000  1
  H  H16  1  0.30733700  0.48536700  0.31770300  1
  H  H17  1  0.69266300  0.51463300  0.68229700  1
  H  H18  1  0.11040700  0.01463300  0.18229700  1
  H  H19  1  0.88959300  0.98536700  0.81770300  1
  H  H20  1  0.08164800  0.61988800  0.23040100  1
  H  H21  1  0.91835200  0.38011200  0.76959900  1
  H  H22  1  0.93193700  0.88011200  0.26959900  1
  H  H23  1  0.06806300  0.11988800  0.73040100  1
  H  H24  1  0.38067600  0.67584400  0.02887000  1
  H  H25  1  0.61932400  0.32415600  0.97113000  1
  H  H26  1  0.08539100  0.82415600  0.47113000  1
  H  H27  1  0.91460900  0.17584400  0.52887000  1
  W  W28  1  0.83645100  0.75000000  0.25000000  1
  W  W29  1  0.16354900  0.25000000  0.75000000  1
  O  O30  1  0.90272800  0.11249000  0.13237300  1
  O  O31  1  0.09727200  0.88751000  0.86762700  1
  O  O32  1  0.14759200  0.38751000  0.36762700  1
  O  O33  1  0.85240800  0.61249000  0.63237300  1
  O  O34  1  0.68852900  0.82224000  0.51815800  1
  O  O35  1  0.31147100  0.17776000  0.48184200  1
  O  O36  1  0.02892600  0.67776000  0.98184200  1
  O  O37  1  0.97107400  0.32224000  0.01815800  1
  O  O38  1  0.69396200  0.34628100  0.19973700  1
  O  O39  1  0.30603800  0.65371900  0.80026300  1
  O  O40  1  0.23998000  0.15371900  0.30026300  1
  O  O41  1  0.76002000  0.84628100  0.69973700  1
  O  O42  1  0.65472800  0.25520000  0.03157900  1
  O  O43  1  0.34527200  0.74480000  0.96842100  1
  O  O44  1  0.94150800  0.24480000  0.46842100  1
  O  O45  1  0.05849200  0.75520000  0.53157900  1
  O  O46  1  0.53546200  0.93070400  0.27030900  1
  O  O47  1  0.46453800  0.06929600  0.72969100  1
  O  O48  1  0.73647500  0.56929600  0.22969100  1
  O  O49  1  0.26352500  0.43070400  0.77030900  1
  O  O50  1  0.50986900  0.56343200  0.10665200  1
  O  O51  1  0.49013100  0.43656800  0.89334800  1
  O  O52  1  0.17995200  0.93656800  0.39334800  1
  O  O53  1  0.82004800  0.06343200  0.60665200  1
  O  O54  1  0.41798900  0.52057800  0.31971700  1
  O  O55  1  0.58201100  0.47942200  0.68028300  1
  O  O56  1  0.25828400  0.97942200  0.18028300  1
  O  O57  1  0.74171600  0.02057800  0.81971700  1
