# generated using pymatgen
data_CsH2CN5
_symmetry_space_group_name_H-M   'P 1'
_cell_length_a   6.90210300
_cell_length_b   8.50640900
_cell_length_c   9.17157400
_cell_angle_alpha   90.00000000
_cell_angle_beta   90.00000000
_cell_angle_gamma   90.00000000
_symmetry_Int_Tables_number   1
_chemical_formula_structural   CsH2CN5
_chemical_formula_sum   'Cs4 H8 C4 N20'
_cell_volume   538.48247145
_cell_formula_units_Z   4
loop_
 _symmetry_equiv_pos_site_id
 _symmetry_equiv_pos_as_xyz
  1  'x, y, z'
loop_
 _atom_site_type_symbol
 _atom_site_label
 _atom_site_symmetry_multiplicity
 _atom_site_fract_x
 _atom_site_fract_y
 _atom_site_fract_z
 _atom_site_occupancy
  Cs  Cs0  1  0.25000000  0.51564700  0.20320700  1
  Cs  Cs1  1  0.75000000  0.48435300  0.79679300  1
  Cs  Cs2  1  0.75000000  0.98435300  0.70320700  1
  Cs  Cs3  1  0.25000000  0.01564700  0.29679300  1
  H  H4  1  0.12560300  0.79963500  0.92432700  1
  H  H5  1  0.87439700  0.20036500  0.07567300  1
  H  H6  1  0.87439700  0.70036500  0.42432700  1
  H  H7  1  0.62560300  0.20036500  0.07567300  1
  H  H8  1  0.12560300  0.29963500  0.57567300  1
  H  H9  1  0.37439700  0.79963500  0.92432700  1
  H  H10  1  0.37439700  0.29963500  0.57567300  1
  H  H11  1  0.62560300  0.70036500  0.42432700  1
  C  C12  1  0.25000000  0.72468000  0.73696400  1
  C  C13  1  0.75000000  0.27532000  0.26303600  1
  C  C14  1  0.75000000  0.77532000  0.23696400  1
  C  C15  1  0.25000000  0.22468000  0.76303600  1
  N  N16  1  0.25000000  0.74842200  0.88617200  1
  N  N17  1  0.75000000  0.25157800  0.11382800  1
  N  N18  1  0.75000000  0.75157800  0.38617200  1
  N  N19  1  0.25000000  0.24842200  0.61382800  1
  N  N20  1  0.15475300  0.68393900  0.51830400  1
  N  N21  1  0.84524700  0.31606100  0.48169600  1
  N  N22  1  0.84524700  0.81606100  0.01830400  1
  N  N23  1  0.65475300  0.31606100  0.48169600  1
  N  N24  1  0.15475300  0.18393900  0.98169600  1
  N  N25  1  0.34524700  0.68393900  0.51830400  1
  N  N26  1  0.34524700  0.18393900  0.98169600  1
  N  N27  1  0.65475300  0.81606100  0.01830400  1
  N  N28  1  0.08812600  0.70849900  0.65562400  1
  N  N29  1  0.91187400  0.29150100  0.34437600  1
  N  N30  1  0.91187400  0.79150100  0.15562400  1
  N  N31  1  0.58812600  0.29150100  0.34437600  1
  N  N32  1  0.08812600  0.20849900  0.84437600  1
  N  N33  1  0.41187400  0.70849900  0.65562400  1
  N  N34  1  0.41187400  0.20849900  0.84437600  1
  N  N35  1  0.58812600  0.79150100  0.15562400  1
