# generated using pymatgen
data_MgNb2
_symmetry_space_group_name_H-M   'P 1'
_cell_length_a   3.05131662
_cell_length_b   3.05131662
_cell_length_c   7.92155059
_cell_angle_alpha   76.63257312
_cell_angle_beta   76.63257312
_cell_angle_gamma   54.02357252
_symmetry_Int_Tables_number   1
_chemical_formula_structural   MgNb2
_chemical_formula_sum   'Mg1 Nb2'
_cell_volume   57.64124886
_cell_formula_units_Z   1
loop_
 _symmetry_equiv_pos_site_id
 _symmetry_equiv_pos_as_xyz
  1  'x, y, z'
loop_
 _atom_site_type_symbol
 _atom_site_label
 _atom_site_symmetry_multiplicity
 _atom_site_fract_x
 _atom_site_fract_y
 _atom_site_fract_z
 _atom_site_occupancy
  Mg  Mg0  1  0.00000000  0.00000000  0.00000000  1
  Nb  Nb1  1  0.82733000  0.82733000  0.66273600  1
  Nb  Nb2  1  0.17267000  0.17267000  0.33726400  1
