# generated using pymatgen
data_Er6MoO12
_symmetry_space_group_name_H-M   'P 1'
_cell_length_a   10.05865812
_cell_length_b   5.19910617
_cell_length_c   7.96432970
_cell_angle_alpha   115.66659759
_cell_angle_beta   94.83041436
_cell_angle_gamma   61.78971663
_symmetry_Int_Tables_number   1
_chemical_formula_structural   Er6MoO12
_chemical_formula_sum   'Er6 Mo1 O12'
_cell_volume   326.98330218
_cell_formula_units_Z   1
loop_
 _symmetry_equiv_pos_site_id
 _symmetry_equiv_pos_as_xyz
  1  'x, y, z'
loop_
 _atom_site_type_symbol
 _atom_site_label
 _atom_site_symmetry_multiplicity
 _atom_site_fract_x
 _atom_site_fract_y
 _atom_site_fract_z
 _atom_site_occupancy
  Er  Er0  1  0.95091600  0.78479200  0.29898500  1
  Er  Er1  1  0.04908400  0.21520800  0.70101500  1
  Er  Er2  1  0.66200400  0.86865600  0.09717900  1
  Er  Er3  1  0.33799600  0.13134400  0.90282100  1
  Er  Er4  1  0.74061300  0.77062600  0.61418000  1
  Er  Er5  1  0.25938700  0.22937400  0.38582000  1
  Mo  Mo6  1  0.00000000  0.00000000  0.00000000  1
  O  O7  1  0.93447400  0.76916600  0.76840400  1
  O  O8  1  0.06552600  0.23083400  0.23159600  1
  O  O9  1  0.11854900  0.60085300  0.02995800  1
  O  O10  1  0.88145100  0.39914700  0.97004200  1
  O  O11  1  0.82485300  0.08284000  0.14135700  1
  O  O12  1  0.17514700  0.91716000  0.85864300  1
  O  O13  1  0.57695300  0.97311600  0.85053300  1
  O  O14  1  0.42304700  0.02688400  0.14946700  1
  O  O15  1  0.86343700  0.27652300  0.53937600  1
  O  O16  1  0.13656300  0.72347700  0.46062400  1
  O  O17  1  0.72121200  0.85857100  0.36795100  1
  O  O18  1  0.27878800  0.14142900  0.63204900  1
