# generated using pymatgen
data_CsScBr3
_symmetry_space_group_name_H-M   'P 1'
_cell_length_a   6.26731700
_cell_length_b   8.03496851
_cell_length_c   8.03496851
_cell_angle_alpha   120.00000423
_cell_angle_beta   90.00000000
_cell_angle_gamma   90.00000000
_symmetry_Int_Tables_number   1
_chemical_formula_structural   CsScBr3
_chemical_formula_sum   'Cs2 Sc2 Br6'
_cell_volume   350.41334194
_cell_formula_units_Z   2
loop_
 _symmetry_equiv_pos_site_id
 _symmetry_equiv_pos_as_xyz
  1  'x, y, z'
loop_
 _atom_site_type_symbol
 _atom_site_label
 _atom_site_symmetry_multiplicity
 _atom_site_fract_x
 _atom_site_fract_y
 _atom_site_fract_z
 _atom_site_occupancy
  Cs  Cs0  1  0.25000000  0.66666700  0.33333300  1
  Cs  Cs1  1  0.75000000  0.33333300  0.66666700  1
  Sc  Sc2  1  0.00000000  0.00000000  0.00000000  1
  Sc  Sc3  1  0.50000000  0.00000000  0.00000000  1
  Br  Br4  1  0.75000000  0.83675800  0.16324200  1
  Br  Br5  1  0.25000000  0.16324200  0.83675800  1
  Br  Br6  1  0.75000000  0.32648300  0.16324200  1
  Br  Br7  1  0.25000000  0.67351700  0.83675800  1
  Br  Br8  1  0.75000000  0.83675800  0.67351700  1
  Br  Br9  1  0.25000000  0.16324200  0.32648300  1
