# generated using pymatgen
data_Er6TeO12
_symmetry_space_group_name_H-M   'P 1'
_cell_length_a   9.71264139
_cell_length_b   6.41445164
_cell_length_c   6.57156865
_cell_angle_alpha   118.13396552
_cell_angle_beta   104.44120384
_cell_angle_gamma   79.81532954
_symmetry_Int_Tables_number   1
_chemical_formula_structural   Er6TeO12
_chemical_formula_sum   'Er6 Te1 O12'
_cell_volume   348.79402723
_cell_formula_units_Z   1
loop_
 _symmetry_equiv_pos_site_id
 _symmetry_equiv_pos_as_xyz
  1  'x, y, z'
loop_
 _atom_site_type_symbol
 _atom_site_label
 _atom_site_symmetry_multiplicity
 _atom_site_fract_x
 _atom_site_fract_y
 _atom_site_fract_z
 _atom_site_occupancy
  Er  Er0  1  0.00120200  0.70400800  0.30418400  1
  Er  Er1  1  0.99879800  0.29599200  0.69581600  1
  Er  Er2  1  0.66116900  0.05826000  0.20111500  1
  Er  Er3  1  0.33883100  0.94174000  0.79888500  1
  Er  Er4  1  0.72927900  0.73931700  0.60330300  1
  Er  Er5  1  0.27072100  0.26068300  0.39669700  1
  Te  Te6  1  0.00000000  0.00000000  0.00000000  1
  O  O7  1  0.95876400  0.92710700  0.67188100  1
  O  O8  1  0.04123600  0.07289300  0.32811900  1
  O  O9  1  0.99522600  0.67260000  0.93509400  1
  O  O10  1  0.00477400  0.32740000  0.06490600  1
  O  O11  1  0.79984300  0.02859500  0.96902400  1
  O  O12  1  0.20015700  0.97140500  0.03097600  1
  O  O13  1  0.55765000  0.83905100  0.78791000  1
  O  O14  1  0.44235000  0.16094900  0.21209000  1
  O  O15  1  0.79069800  0.37095300  0.50529600  1
  O  O16  1  0.20930200  0.62904700  0.49470400  1
  O  O17  1  0.75252000  0.78946500  0.30631900  1
  O  O18  1  0.24748000  0.21053500  0.69368100  1
