# generated using pymatgen
data_Cs2SbF5
_symmetry_space_group_name_H-M   'P 1'
_cell_length_a   6.70170000
_cell_length_b   8.50460000
_cell_length_c   13.05683100
_cell_angle_alpha   90.00000000
_cell_angle_beta   90.00000000
_cell_angle_gamma   90.00000000
_symmetry_Int_Tables_number   1
_chemical_formula_structural   Cs2SbF5
_chemical_formula_sum   'Cs8 Sb4 F20'
_cell_volume   744.17771029
_cell_formula_units_Z   4
loop_
 _symmetry_equiv_pos_site_id
 _symmetry_equiv_pos_as_xyz
  1  'x, y, z'
loop_
 _atom_site_type_symbol
 _atom_site_label
 _atom_site_symmetry_multiplicity
 _atom_site_fract_x
 _atom_site_fract_y
 _atom_site_fract_z
 _atom_site_occupancy
  Cs  Cs0  1  0.25000000  0.00137200  0.22292600  1
  Cs  Cs1  1  0.75000000  0.99862800  0.77707400  1
  Cs  Cs2  1  0.75000000  0.49862800  0.72292600  1
  Cs  Cs3  1  0.25000000  0.50137200  0.27707400  1
  Cs  Cs4  1  0.25000000  0.65928900  0.91936800  1
  Cs  Cs5  1  0.75000000  0.34071100  0.08063200  1
  Cs  Cs6  1  0.75000000  0.84071100  0.41936800  1
  Cs  Cs7  1  0.25000000  0.15928900  0.58063200  1
  Sb  Sb8  1  0.25000000  0.67246200  0.56405600  1
  Sb  Sb9  1  0.75000000  0.32753800  0.43594400  1
  Sb  Sb10  1  0.75000000  0.82753800  0.06405600  1
  Sb  Sb11  1  0.25000000  0.17246200  0.93594400  1
  F  F12  1  0.25000000  0.81552900  0.41439700  1
  F  F13  1  0.75000000  0.18447100  0.58560300  1
  F  F14  1  0.75000000  0.68447100  0.91439700  1
  F  F15  1  0.25000000  0.31552900  0.08560300  1
  F  F16  1  0.02389400  0.81657800  0.62483000  1
  F  F17  1  0.97610600  0.18342200  0.37517000  1
  F  F18  1  0.97610600  0.68342200  0.12483000  1
  F  F19  1  0.52389400  0.18342200  0.37517000  1
  F  F20  1  0.02389400  0.31657800  0.87517000  1
  F  F21  1  0.47610600  0.81657800  0.62483000  1
  F  F22  1  0.47610600  0.31657800  0.87517000  1
  F  F23  1  0.52389400  0.68342200  0.12483000  1
  F  F24  1  0.00000000  0.50000000  0.50000000  1
  F  F25  1  0.00000000  0.00000000  0.00000000  1
  F  F26  1  0.50000000  0.50000000  0.50000000  1
  F  F27  1  0.50000000  0.00000000  0.00000000  1
  F  F28  1  0.25000000  0.53856000  0.70006800  1
  F  F29  1  0.75000000  0.46144000  0.29993200  1
  F  F30  1  0.75000000  0.96144000  0.20006800  1
  F  F31  1  0.25000000  0.03856000  0.79993200  1
