# generated using pymatgen
data_Cs2TbO3
_symmetry_space_group_name_H-M   'P 1'
_cell_length_a   7.01960405
_cell_length_b   7.01960405
_cell_length_c   6.48109900
_cell_angle_alpha   90.00000000
_cell_angle_beta   90.00000000
_cell_angle_gamma   112.65711354
_symmetry_Int_Tables_number   1
_chemical_formula_structural   Cs2TbO3
_chemical_formula_sum   'Cs4 Tb2 O6'
_cell_volume   294.70942956
_cell_formula_units_Z   2
loop_
 _symmetry_equiv_pos_site_id
 _symmetry_equiv_pos_as_xyz
  1  'x, y, z'
loop_
 _atom_site_type_symbol
 _atom_site_label
 _atom_site_symmetry_multiplicity
 _atom_site_fract_x
 _atom_site_fract_y
 _atom_site_fract_z
 _atom_site_occupancy
  Cs  Cs0  1  0.80689400  0.47969500  0.99495300  1
  Cs  Cs1  1  0.19310600  0.52030500  0.49495300  1
  Cs  Cs2  1  0.52030500  0.19310600  0.49495300  1
  Cs  Cs3  1  0.47969500  0.80689400  0.99495300  1
  Tb  Tb4  1  0.09198100  0.09198100  0.02418200  1
  Tb  Tb5  1  0.90801900  0.90801900  0.52418200  1
  O  O6  1  0.35999400  0.35999400  0.09387000  1
  O  O7  1  0.64000600  0.64000600  0.59387000  1
  O  O8  1  0.85952700  0.10028200  0.25946600  1
  O  O9  1  0.14047300  0.89971800  0.75946600  1
  O  O10  1  0.89971800  0.14047300  0.75946600  1
  O  O11  1  0.10028200  0.85952700  0.25946600  1
