# generated using pymatgen
data_Cr3NO8
_symmetry_space_group_name_H-M   'P 1'
_cell_length_a   5.22658051
_cell_length_b   5.22658051
_cell_length_c   8.15786668
_cell_angle_alpha   86.70922608
_cell_angle_beta   86.70922608
_cell_angle_gamma   62.78479959
_symmetry_Int_Tables_number   1
_chemical_formula_structural   Cr3NO8
_chemical_formula_sum   'Cr3 N1 O8'
_cell_volume   197.73046304
_cell_formula_units_Z   1
loop_
 _symmetry_equiv_pos_site_id
 _symmetry_equiv_pos_as_xyz
  1  'x, y, z'
loop_
 _atom_site_type_symbol
 _atom_site_label
 _atom_site_symmetry_multiplicity
 _atom_site_fract_x
 _atom_site_fract_y
 _atom_site_fract_z
 _atom_site_occupancy
  Cr  Cr0  1  0.00000000  0.00000000  0.00000000  1
  Cr  Cr1  1  0.36708700  0.36708700  0.80895300  1
  Cr  Cr2  1  0.63291300  0.63291300  0.19104700  1
  N  N3  1  0.00000000  0.00000000  0.50000000  1
  O  O4  1  0.31614100  0.31614100  0.62614600  1
  O  O5  1  0.68385900  0.68385900  0.37385400  1
  O  O6  1  0.73024600  0.22002900  0.83777000  1
  O  O7  1  0.26975400  0.77997100  0.16223000  1
  O  O8  1  0.77997100  0.26975400  0.16223000  1
  O  O9  1  0.22002900  0.73024600  0.83777000  1
  O  O10  1  0.21877000  0.21877000  0.94441100  1
  O  O11  1  0.78123000  0.78123000  0.05558900  1
