# generated using pymatgen
data_OsC2
_symmetry_space_group_name_H-M   'P 1'
_cell_length_a   2.87167928
_cell_length_b   2.87167928
_cell_length_c   4.01459500
_cell_angle_alpha   90.00000000
_cell_angle_beta   90.00000000
_cell_angle_gamma   119.99998341
_symmetry_Int_Tables_number   1
_chemical_formula_structural   OsC2
_chemical_formula_sum   'Os1 C2'
_cell_volume   28.67109719
_cell_formula_units_Z   1
loop_
 _symmetry_equiv_pos_site_id
 _symmetry_equiv_pos_as_xyz
  1  'x, y, z'
loop_
 _atom_site_type_symbol
 _atom_site_label
 _atom_site_symmetry_multiplicity
 _atom_site_fract_x
 _atom_site_fract_y
 _atom_site_fract_z
 _atom_site_occupancy
  Os  Os0  1  0.66666700  0.33333300  0.50000000  1
  C  C1  1  0.00000000  0.00000000  0.81996600  1
  C  C2  1  0.00000000  0.00000000  0.18003400  1
