# generated using pymatgen
data_CoSO8
_symmetry_space_group_name_H-M   'P 1'
_cell_length_a   13.12406100
_cell_length_b   5.75099900
_cell_length_c   9.40043358
_cell_angle_alpha   52.42166076
_cell_angle_beta   90.00000000
_cell_angle_gamma   90.00000000
_symmetry_Int_Tables_number   1
_chemical_formula_structural   CoSO8
_chemical_formula_sum   'Co4 S4 O32'
_cell_volume   562.30220577
_cell_formula_units_Z   4
loop_
 _symmetry_equiv_pos_site_id
 _symmetry_equiv_pos_as_xyz
  1  'x, y, z'
loop_
 _atom_site_type_symbol
 _atom_site_label
 _atom_site_symmetry_multiplicity
 _atom_site_fract_x
 _atom_site_fract_y
 _atom_site_fract_z
 _atom_site_occupancy
  Co  Co0  1  0.39300000  0.83583300  0.22619300  1
  Co  Co1  1  0.60700000  0.16416700  0.77380700  1
  Co  Co2  1  0.89300000  0.16416700  0.27380700  1
  Co  Co3  1  0.10700000  0.83583300  0.72619300  1
  S  S4  1  0.60793600  0.62545300  0.18086700  1
  S  S5  1  0.39206400  0.37454700  0.81913300  1
  S  S6  1  0.10793600  0.37454700  0.31913300  1
  S  S7  1  0.89206400  0.62545300  0.68086700  1
  O  O8  1  0.87488700  0.51654100  0.08395800  1
  O  O9  1  0.12511300  0.48345900  0.91604200  1
  O  O10  1  0.37488700  0.48345900  0.41604200  1
  O  O11  1  0.62511300  0.51654100  0.58395800  1
  O  O12  1  0.36869500  0.71885000  0.09821200  1
  O  O13  1  0.63130500  0.28115000  0.90178800  1
  O  O14  1  0.86869500  0.28115000  0.40178800  1
  O  O15  1  0.13130500  0.71885000  0.59821200  1
  O  O16  1  0.58948800  0.31152800  0.28143000  1
  O  O17  1  0.41051200  0.68847200  0.71857000  1
  O  O18  1  0.08948800  0.68847200  0.21857000  1
  O  O19  1  0.91051200  0.31152800  0.78143000  1
  O  O20  1  0.27306600  0.94803800  0.23403800  1
  O  O21  1  0.72693400  0.05196200  0.76596200  1
  O  O22  1  0.77306600  0.05196200  0.26596200  1
  O  O23  1  0.22693400  0.94803800  0.73403800  1
  O  O24  1  0.91264200  0.01916400  0.14781000  1
  O  O25  1  0.08735800  0.98083600  0.85219000  1
  O  O26  1  0.41264200  0.98083600  0.35219000  1
  O  O27  1  0.58735800  0.01916400  0.64781000  1
  O  O28  1  0.71272000  0.70576200  0.18723000  1
  O  O29  1  0.28728000  0.29423800  0.81277000  1
  O  O30  1  0.21272000  0.29423800  0.31277000  1
  O  O31  1  0.78728000  0.70576200  0.68723000  1
  O  O32  1  0.54175200  0.75580000  0.25130800  1
  O  O33  1  0.45824800  0.24420000  0.74869200  1
  O  O34  1  0.04175200  0.24420000  0.24869200  1
  O  O35  1  0.95824800  0.75580000  0.75130800  1
  O  O36  1  0.57432600  0.76752300  0.98701300  1
  O  O37  1  0.42567400  0.23247700  0.01298700  1
  O  O38  1  0.07432600  0.23247700  0.51298700  1
  O  O39  1  0.92567400  0.76752300  0.48701300  1
