# generated using pymatgen
data_CoAg(PO3)3
_symmetry_space_group_name_H-M   'P 1'
_cell_length_a   10.11227000
_cell_length_b   10.91008800
_cell_length_c   14.14223700
_cell_angle_alpha   90.00000000
_cell_angle_beta   90.00000000
_cell_angle_gamma   90.00000000
_symmetry_Int_Tables_number   1
_chemical_formula_structural   CoAg(PO3)3
_chemical_formula_sum   'Co8 Ag8 P24 O72'
_cell_volume   1560.25298261
_cell_formula_units_Z   8
loop_
 _symmetry_equiv_pos_site_id
 _symmetry_equiv_pos_as_xyz
  1  'x, y, z'
loop_
 _atom_site_type_symbol
 _atom_site_label
 _atom_site_symmetry_multiplicity
 _atom_site_fract_x
 _atom_site_fract_y
 _atom_site_fract_z
 _atom_site_occupancy
  Co  Co0  1  0.96787500  0.50000000  0.75000000  1
  Co  Co1  1  0.03212500  0.50000000  0.25000000  1
  Co  Co2  1  0.53212500  0.50000000  0.25000000  1
  Co  Co3  1  0.46787500  0.50000000  0.75000000  1
  Co  Co4  1  0.50000000  0.00000000  0.50000000  1
  Co  Co5  1  0.50000000  0.00000000  0.00000000  1
  Co  Co6  1  0.00000000  0.00000000  0.50000000  1
  Co  Co7  1  0.00000000  0.00000000  0.00000000  1
  Ag  Ag8  1  0.52415100  0.24849900  0.87686400  1
  Ag  Ag9  1  0.47584900  0.75150100  0.12313600  1
  Ag  Ag10  1  0.52415100  0.75150100  0.62313600  1
  Ag  Ag11  1  0.97584900  0.24849900  0.12313600  1
  Ag  Ag12  1  0.47584900  0.24849900  0.37686400  1
  Ag  Ag13  1  0.02415100  0.75150100  0.87686400  1
  Ag  Ag14  1  0.97584900  0.75150100  0.37686400  1
  Ag  Ag15  1  0.02415100  0.24849900  0.62313600  1
  P  P16  1  0.71413900  0.46947700  0.60105700  1
  P  P17  1  0.28586100  0.53052300  0.39894300  1
  P  P18  1  0.71413900  0.53052300  0.89894300  1
  P  P19  1  0.78586100  0.46947700  0.39894300  1
  P  P20  1  0.28586100  0.46947700  0.10105700  1
  P  P21  1  0.21413900  0.53052300  0.60105700  1
  P  P22  1  0.78586100  0.53052300  0.10105700  1
  P  P23  1  0.21413900  0.46947700  0.89894300  1
  P  P24  1  0.73798600  0.04604400  0.64874500  1
  P  P25  1  0.26201400  0.95395600  0.35125500  1
  P  P26  1  0.73798600  0.95395600  0.85125500  1
  P  P27  1  0.76201400  0.04604400  0.35125500  1
  P  P28  1  0.26201400  0.04604400  0.14874500  1
  P  P29  1  0.23798600  0.95395600  0.64874500  1
  P  P30  1  0.76201400  0.95395600  0.14874500  1
  P  P31  1  0.23798600  0.04604400  0.85125500  1
  P  P32  1  0.54924600  0.25079500  0.62658100  1
  P  P33  1  0.45075400  0.74920500  0.37341900  1
  P  P34  1  0.54924600  0.74920500  0.87341900  1
  P  P35  1  0.95075400  0.25079500  0.37341900  1
  P  P36  1  0.45075400  0.25079500  0.12658100  1
  P  P37  1  0.04924600  0.74920500  0.62658100  1
  P  P38  1  0.95075400  0.74920500  0.12658100  1
  P  P39  1  0.04924600  0.25079500  0.87341900  1
  O  O40  1  0.83843100  0.43196000  0.65047100  1
  O  O41  1  0.16156900  0.56804000  0.34952900  1
  O  O42  1  0.83843100  0.56804000  0.84952900  1
  O  O43  1  0.66156900  0.43196000  0.34952900  1
  O  O44  1  0.16156900  0.43196000  0.15047100  1
  O  O45  1  0.33843100  0.56804000  0.65047100  1
  O  O46  1  0.66156900  0.56804000  0.15047100  1
  O  O47  1  0.33843100  0.43196000  0.84952900  1
  O  O48  1  0.52480700  0.17477000  0.05554600  1
  O  O49  1  0.47519300  0.82523000  0.94445400  1
  O  O50  1  0.52480700  0.82523000  0.44445400  1
  O  O51  1  0.97519300  0.17477000  0.94445400  1
  O  O52  1  0.47519300  0.17477000  0.55554600  1
  O  O53  1  0.02480700  0.82523000  0.05554600  1
  O  O54  1  0.97519300  0.82523000  0.55554600  1
  O  O55  1  0.02480700  0.17477000  0.44445400  1
  O  O56  1  0.75000000  0.52931400  0.50000000  1
  O  O57  1  0.25000000  0.47068600  0.50000000  1
  O  O58  1  0.75000000  0.47068600  0.00000000  1
  O  O59  1  0.25000000  0.52931400  0.00000000  1
  O  O60  1  0.64115400  0.04391800  0.89318500  1
  O  O61  1  0.35884600  0.95608200  0.10681500  1
  O  O62  1  0.64115400  0.95608200  0.60681500  1
  O  O63  1  0.85884600  0.04391800  0.10681500  1
  O  O64  1  0.35884600  0.04391800  0.39318500  1
  O  O65  1  0.14115400  0.95608200  0.89318500  1
  O  O66  1  0.85884600  0.95608200  0.39318500  1
  O  O67  1  0.14115400  0.04391800  0.60681500  1
  O  O68  1  0.63612400  0.34759700  0.56629800  1
  O  O69  1  0.36387600  0.65240300  0.43370200  1
  O  O70  1  0.63612400  0.65240300  0.93370200  1
  O  O71  1  0.86387600  0.34759700  0.43370200  1
  O  O72  1  0.36387600  0.34759700  0.06629800  1
  O  O73  1  0.13612400  0.65240300  0.56629800  1
  O  O74  1  0.86387600  0.65240300  0.06629800  1
  O  O75  1  0.13612400  0.34759700  0.93370200  1
  O  O76  1  0.85824100  0.08284700  0.59287200  1
  O  O77  1  0.14175900  0.91715300  0.40712800  1
  O  O78  1  0.85824100  0.91715300  0.90712800  1
  O  O79  1  0.64175900  0.08284700  0.40712800  1
  O  O80  1  0.14175900  0.08284700  0.09287200  1
  O  O81  1  0.35824100  0.91715300  0.59287200  1
  O  O82  1  0.64175900  0.91715300  0.09287200  1
  O  O83  1  0.35824100  0.08284700  0.90712800  1
  O  O84  1  0.61908900  0.44481100  0.84962400  1
  O  O85  1  0.38091100  0.55518900  0.15037600  1
  O  O86  1  0.61908900  0.55518900  0.65037600  1
  O  O87  1  0.88091100  0.44481100  0.15037600  1
  O  O88  1  0.38091100  0.44481100  0.34962400  1
  O  O89  1  0.11908900  0.55518900  0.84962400  1
  O  O90  1  0.88091100  0.55518900  0.34962400  1
  O  O91  1  0.11908900  0.44481100  0.65037600  1
  O  O92  1  0.65964400  0.16914900  0.68061300  1
  O  O93  1  0.34035600  0.83085100  0.31938700  1
  O  O94  1  0.65964400  0.83085100  0.81938700  1
  O  O95  1  0.84035600  0.16914900  0.31938700  1
  O  O96  1  0.34035600  0.16914900  0.18061300  1
  O  O97  1  0.15964400  0.83085100  0.68061300  1
  O  O98  1  0.84035600  0.83085100  0.18061300  1
  O  O99  1  0.15964400  0.16914900  0.81938700  1
  O  O100  1  0.79098600  0.00000000  0.75000000  1
  O  O101  1  0.20901400  0.00000000  0.25000000  1
  O  O102  1  0.70901400  0.00000000  0.25000000  1
  O  O103  1  0.29098600  0.00000000  0.75000000  1
  O  O104  1  0.97387600  0.31711000  0.79786600  1
  O  O105  1  0.02612400  0.68289000  0.20213400  1
  O  O106  1  0.97387600  0.68289000  0.70213400  1
  O  O107  1  0.52612400  0.31711000  0.20213400  1
  O  O108  1  0.02612400  0.31711000  0.29786600  1
  O  O109  1  0.47387600  0.68289000  0.79786600  1
  O  O110  1  0.52612400  0.68289000  0.29786600  1
  O  O111  1  0.47387600  0.31711000  0.70213400  1
