# generated using pymatgen
data_Cr5Cu2(PO4)6
_symmetry_space_group_name_H-M   'P 1'
_cell_length_a   6.33404700
_cell_length_b   8.02089416
_cell_length_c   9.36356207
_cell_angle_alpha   106.03140442
_cell_angle_beta   108.02200660
_cell_angle_gamma   101.52073911
_symmetry_Int_Tables_number   1
_chemical_formula_structural   Cr5Cu2(PO4)6
_chemical_formula_sum   'Cr5 Cu2 P6 O24'
_cell_volume   413.07631015
_cell_formula_units_Z   1
loop_
 _symmetry_equiv_pos_site_id
 _symmetry_equiv_pos_as_xyz
  1  'x, y, z'
loop_
 _atom_site_type_symbol
 _atom_site_label
 _atom_site_symmetry_multiplicity
 _atom_site_fract_x
 _atom_site_fract_y
 _atom_site_fract_z
 _atom_site_occupancy
  Cr  Cr0  1  0.05004400  0.21395000  0.02160400  1
  Cr  Cr1  1  0.94995600  0.78605000  0.97839600  1
  Cr  Cr2  1  0.62008200  0.03906600  0.38989200  1
  Cr  Cr3  1  0.37991800  0.96093400  0.61010800  1
  Cr  Cr4  1  0.00000000  0.50000000  0.50000000  1
  Cu  Cu5  1  0.29585900  0.32737100  0.79822500  1
  Cu  Cu6  1  0.70414100  0.67262900  0.20177500  1
  P  P7  1  0.60804100  0.26149900  0.13571100  1
  P  P8  1  0.39195900  0.73850100  0.86428900  1
  P  P9  1  0.09571900  0.10108700  0.33557400  1
  P  P10  1  0.90428100  0.89891300  0.66442600  1
  P  P11  1  0.22030900  0.64421500  0.26432800  1
  P  P12  1  0.77969100  0.35578500  0.73567200  1
  O  O13  1  0.31552100  0.04695900  0.42005500  1
  O  O14  1  0.68447900  0.95304100  0.57994500  1
  O  O15  1  0.21534100  0.69256800  0.44061800  1
  O  O16  1  0.78465900  0.30743200  0.55938200  1
  O  O17  1  0.00951900  0.68717100  0.15801000  1
  O  O18  1  0.99048100  0.31282900  0.84199000  1
  O  O19  1  0.20504900  0.44635400  0.20162000  1
  O  O20  1  0.79495100  0.55364600  0.79838000  1
  O  O21  1  0.12576400  0.30027300  0.41704100  1
  O  O22  1  0.87423600  0.69972700  0.58295900  1
  O  O23  1  0.55283500  0.12987300  0.21879000  1
  O  O24  1  0.44716500  0.87012700  0.78121000  1
  O  O25  1  0.74085300  0.45754900  0.27436000  1
  O  O26  1  0.25914700  0.54245100  0.72564000  1
  O  O27  1  0.37215900  0.25676500  0.01265400  1
  O  O28  1  0.62784100  0.74323500  0.98734600  1
  O  O29  1  0.11683900  0.02489600  0.65706400  1
  O  O30  1  0.88316100  0.97510400  0.34293600  1
  O  O31  1  0.07431900  0.05226300  0.15646000  1
  O  O32  1  0.92568100  0.94773700  0.84354000  1
  O  O33  1  0.45276400  0.76316600  0.26998400  1
  O  O34  1  0.54723600  0.23683400  0.73001600  1
  O  O35  1  0.75086100  0.21151000  0.03597100  1
  O  O36  1  0.24913900  0.78849000  0.96402900  1
