# generated using pymatgen
data_Cd2Mo3O8
_symmetry_space_group_name_H-M   'P 1'
_cell_length_a   6.40788818
_cell_length_b   6.40788818
_cell_length_c   10.34498700
_cell_angle_alpha   90.00000000
_cell_angle_beta   90.00000000
_cell_angle_gamma   120.00000185
_symmetry_Int_Tables_number   1
_chemical_formula_structural   Cd2Mo3O8
_chemical_formula_sum   'Cd4 Mo6 O16'
_cell_volume   367.86665377
_cell_formula_units_Z   2
loop_
 _symmetry_equiv_pos_site_id
 _symmetry_equiv_pos_as_xyz
  1  'x, y, z'
loop_
 _atom_site_type_symbol
 _atom_site_label
 _atom_site_symmetry_multiplicity
 _atom_site_fract_x
 _atom_site_fract_y
 _atom_site_fract_z
 _atom_site_occupancy
  Cd  Cd0  1  0.66666700  0.33333300  0.96083100  1
  Cd  Cd1  1  0.33333300  0.66666700  0.46083100  1
  Cd  Cd2  1  0.66666700  0.33333300  0.35254000  1
  Cd  Cd3  1  0.33333300  0.66666700  0.85254000  1
  Mo  Mo4  1  0.83663400  0.67326700  0.64129900  1
  Mo  Mo5  1  0.83663400  0.16336600  0.64129900  1
  Mo  Mo6  1  0.16336600  0.32673300  0.14129900  1
  Mo  Mo7  1  0.32673300  0.16336600  0.64129900  1
  Mo  Mo8  1  0.16336600  0.83663400  0.14129900  1
  Mo  Mo9  1  0.67326700  0.83663400  0.14129900  1
  O  O10  1  0.52301700  0.04603500  0.52968100  1
  O  O11  1  0.52301700  0.47698300  0.52968100  1
  O  O12  1  0.47698300  0.95396500  0.02968100  1
  O  O13  1  0.95396500  0.47698300  0.52968100  1
  O  O14  1  0.47698300  0.52301700  0.02968100  1
  O  O15  1  0.04603500  0.52301700  0.02968100  1
  O  O16  1  0.15947600  0.31895200  0.73227700  1
  O  O17  1  0.15947600  0.84052400  0.73227700  1
  O  O18  1  0.84052400  0.68104800  0.23227700  1
  O  O19  1  0.68104800  0.84052400  0.73227700  1
  O  O20  1  0.84052400  0.15947600  0.23227700  1
  O  O21  1  0.31895200  0.15947600  0.23227700  1
  O  O22  1  0.00000000  0.00000000  0.03828400  1
  O  O23  1  0.00000000  0.00000000  0.53828400  1
  O  O24  1  0.66666700  0.33333300  0.74717400  1
  O  O25  1  0.33333300  0.66666700  0.24717400  1
