# generated using pymatgen
data_CaY4Sb3O14
_symmetry_space_group_name_H-M   'P 1'
_cell_length_a   7.48499268
_cell_length_b   7.48499268
_cell_length_c   7.48499294
_cell_angle_alpha   60.50046764
_cell_angle_beta   60.50046764
_cell_angle_gamma   60.50046908
_symmetry_Int_Tables_number   1
_chemical_formula_structural   CaY4Sb3O14
_chemical_formula_sum   'Ca1 Y4 Sb3 O14'
_cell_volume   299.87735377
_cell_formula_units_Z   1
loop_
 _symmetry_equiv_pos_site_id
 _symmetry_equiv_pos_as_xyz
  1  'x, y, z'
loop_
 _atom_site_type_symbol
 _atom_site_label
 _atom_site_symmetry_multiplicity
 _atom_site_fract_x
 _atom_site_fract_y
 _atom_site_fract_z
 _atom_site_occupancy
  Ca  Ca0  1  0.00000000  0.00000000  0.00000000  1
  Y  Y1  1  0.50000000  0.00000000  0.50000000  1
  Y  Y2  1  0.00000000  0.50000000  0.50000000  1
  Y  Y3  1  0.50000000  0.50000000  0.00000000  1
  Y  Y4  1  0.50000000  0.50000000  0.50000000  1
  Sb  Sb5  1  0.00000000  0.00000000  0.50000000  1
  Sb  Sb6  1  0.50000000  0.00000000  0.00000000  1
  Sb  Sb7  1  0.00000000  0.50000000  0.00000000  1
  O  O8  1  0.10745600  0.10745600  0.61921600  1
  O  O9  1  0.89254400  0.89254400  0.38078400  1
  O  O10  1  0.38078400  0.89254400  0.89254400  1
  O  O11  1  0.61921600  0.10745600  0.10745600  1
  O  O12  1  0.90156000  0.32132400  0.32132400  1
  O  O13  1  0.09844000  0.67867600  0.67867600  1
  O  O14  1  0.67867600  0.67867600  0.09844000  1
  O  O15  1  0.32132400  0.32132400  0.90156000  1
  O  O16  1  0.37933600  0.37933600  0.37933600  1
  O  O17  1  0.62066400  0.62066400  0.62066400  1
  O  O18  1  0.89254400  0.38078400  0.89254400  1
  O  O19  1  0.10745600  0.61921600  0.10745600  1
  O  O20  1  0.67867600  0.09844000  0.67867600  1
  O  O21  1  0.32132400  0.90156000  0.32132400  1
