# generated using pymatgen
data_CaYSiO5
_symmetry_space_group_name_H-M   'P 1'
_cell_length_a   5.69880670
_cell_length_b   5.69880670
_cell_length_c   8.00193694
_cell_angle_alpha   78.88950455
_cell_angle_beta   78.88950455
_cell_angle_gamma   108.50302039
_symmetry_Int_Tables_number   1
_chemical_formula_structural   CaYSiO5
_chemical_formula_sum   'Ca2 Y2 Si2 O10'
_cell_volume   232.64883606
_cell_formula_units_Z   2
loop_
 _symmetry_equiv_pos_site_id
 _symmetry_equiv_pos_as_xyz
  1  'x, y, z'
loop_
 _atom_site_type_symbol
 _atom_site_label
 _atom_site_symmetry_multiplicity
 _atom_site_fract_x
 _atom_site_fract_y
 _atom_site_fract_z
 _atom_site_occupancy
  Ca  Ca0  1  0.64853600  0.35146400  0.75000000  1
  Ca  Ca1  1  0.35146400  0.64853600  0.25000000  1
  Y  Y2  1  0.00000000  0.00000000  0.50000000  1
  Y  Y3  1  0.00000000  0.00000000  0.00000000  1
  Si  Si4  1  0.31710000  0.68290000  0.75000000  1
  Si  Si5  1  0.68290000  0.31710000  0.25000000  1
  O  O6  1  0.89128600  0.10871400  0.75000000  1
  O  O7  1  0.10871400  0.89128600  0.25000000  1
  O  O8  1  0.58681900  0.72870400  0.60257100  1
  O  O9  1  0.41318100  0.27129600  0.39742900  1
  O  O10  1  0.27129600  0.41318100  0.89742900  1
  O  O11  1  0.72870400  0.58681900  0.10257100  1
  O  O12  1  0.34109500  0.91957700  0.84498500  1
  O  O13  1  0.65890500  0.08042300  0.15501500  1
  O  O14  1  0.08042300  0.65890500  0.65501500  1
  O  O15  1  0.91957700  0.34109500  0.34498500  1
