# generated using pymatgen
data_CeN(ClO)4
_symmetry_space_group_name_H-M   'P 1'
_cell_length_a   5.12582300
_cell_length_b   7.42941900
_cell_length_c   11.57362300
_cell_angle_alpha   90.00000000
_cell_angle_beta   90.00000000
_cell_angle_gamma   90.00000000
_symmetry_Int_Tables_number   1
_chemical_formula_structural   CeN(ClO)4
_chemical_formula_sum   'Ce2 N2 Cl8 O8'
_cell_volume   440.74540080
_cell_formula_units_Z   2
loop_
 _symmetry_equiv_pos_site_id
 _symmetry_equiv_pos_as_xyz
  1  'x, y, z'
loop_
 _atom_site_type_symbol
 _atom_site_label
 _atom_site_symmetry_multiplicity
 _atom_site_fract_x
 _atom_site_fract_y
 _atom_site_fract_z
 _atom_site_occupancy
  Ce  Ce0  1  0.58049000  0.00000000  0.50000000  1
  Ce  Ce1  1  0.41951000  0.50000000  0.00000000  1
  N  N2  1  0.12887000  0.00000000  0.00000000  1
  N  N3  1  0.87113000  0.50000000  0.50000000  1
  Cl  Cl4  1  0.62318300  0.22483700  0.10999200  1
  Cl  Cl5  1  0.62318300  0.77516300  0.89000800  1
  Cl  Cl6  1  0.37681700  0.27516300  0.60999200  1
  Cl  Cl7  1  0.37681700  0.72483700  0.39000800  1
  Cl  Cl8  1  0.13337300  0.11713100  0.31652900  1
  Cl  Cl9  1  0.13337300  0.88286900  0.68347100  1
  Cl  Cl10  1  0.86662700  0.38286900  0.81652900  1
  Cl  Cl11  1  0.86662700  0.61713100  0.18347100  1
  O  O12  1  0.12368100  0.52010300  0.12675800  1
  O  O13  1  0.12368100  0.47989700  0.87324200  1
  O  O14  1  0.87631900  0.97989700  0.62675800  1
  O  O15  1  0.87631900  0.02010300  0.37324200  1
  O  O16  1  0.77394500  0.38346300  0.44055600  1
  O  O17  1  0.77394500  0.61653700  0.55944400  1
  O  O18  1  0.22605500  0.11653700  0.94055600  1
  O  O19  1  0.22605500  0.88346300  0.05944400  1
