# generated using pymatgen
data_Ce2MnSb2O
_symmetry_space_group_name_H-M   'P 1'
_cell_length_a   3.25536900
_cell_length_b   3.25536900
_cell_length_c   16.16388300
_cell_angle_alpha   90.00000000
_cell_angle_beta   90.00000000
_cell_angle_gamma   90.00000000
_symmetry_Int_Tables_number   1
_chemical_formula_structural   Ce2MnSb2O
_chemical_formula_sum   'Ce2 Mn1 Sb2 O1'
_cell_volume   171.29557540
_cell_formula_units_Z   1
loop_
 _symmetry_equiv_pos_site_id
 _symmetry_equiv_pos_as_xyz
  1  'x, y, z'
loop_
 _atom_site_type_symbol
 _atom_site_label
 _atom_site_symmetry_multiplicity
 _atom_site_fract_x
 _atom_site_fract_y
 _atom_site_fract_z
 _atom_site_occupancy
  Ce  Ce0  1  0.50000000  0.50000000  0.62732400  1
  Ce  Ce1  1  0.50000000  0.50000000  0.37267600  1
  Mn  Mn2  1  0.50000000  0.50000000  0.00000000  1
  Sb  Sb3  1  0.50000000  0.50000000  0.17037200  1
  Sb  Sb4  1  0.50000000  0.50000000  0.82962800  1
  O  O5  1  0.50000000  0.50000000  0.50000000  1
