# generated using pymatgen
data_CaU2S5
_symmetry_space_group_name_H-M   'P 1'
_cell_length_a   7.28218400
_cell_length_b   7.80216900
_cell_length_c   11.85082500
_cell_angle_alpha   90.00000000
_cell_angle_beta   90.00000000
_cell_angle_gamma   90.00000000
_symmetry_Int_Tables_number   1
_chemical_formula_structural   CaU2S5
_chemical_formula_sum   'Ca4 U8 S20'
_cell_volume   673.32631243
_cell_formula_units_Z   4
loop_
 _symmetry_equiv_pos_site_id
 _symmetry_equiv_pos_as_xyz
  1  'x, y, z'
loop_
 _atom_site_type_symbol
 _atom_site_label
 _atom_site_symmetry_multiplicity
 _atom_site_fract_x
 _atom_site_fract_y
 _atom_site_fract_z
 _atom_site_occupancy
  Ca  Ca0  1  0.57230900  0.75000000  0.50657600  1
  Ca  Ca1  1  0.42769100  0.25000000  0.49342400  1
  Ca  Ca2  1  0.07230900  0.25000000  0.99342400  1
  Ca  Ca3  1  0.92769100  0.75000000  0.00657600  1
  U  U4  1  0.51168000  0.49854500  0.81878700  1
  U  U5  1  0.48832000  0.50145500  0.18121300  1
  U  U6  1  0.01168000  0.50145500  0.68121300  1
  U  U7  1  0.48832000  0.99854500  0.18121300  1
  U  U8  1  0.98832000  0.49854500  0.31878700  1
  U  U9  1  0.51168000  0.00145500  0.81878700  1
  U  U10  1  0.98832000  0.00145500  0.31878700  1
  U  U11  1  0.01168000  0.99854500  0.68121300  1
  S  S12  1  0.79497800  0.75000000  0.78681400  1
  S  S13  1  0.20502200  0.25000000  0.21318600  1
  S  S14  1  0.29497800  0.25000000  0.71318600  1
  S  S15  1  0.70502200  0.75000000  0.28681400  1
  S  S16  1  0.32297200  0.75000000  0.68705500  1
  S  S17  1  0.67702800  0.25000000  0.31294500  1
  S  S18  1  0.82297200  0.25000000  0.81294500  1
  S  S19  1  0.17702800  0.75000000  0.18705500  1
  S  S20  1  0.97584500  0.75000000  0.50288500  1
  S  S21  1  0.02415500  0.25000000  0.49711500  1
  S  S22  1  0.47584500  0.25000000  0.99711500  1
  S  S23  1  0.52415500  0.75000000  0.00288500  1
  S  S24  1  0.66667500  0.04155400  0.61312600  1
  S  S25  1  0.33332500  0.95844600  0.38687400  1
  S  S26  1  0.16667500  0.95844600  0.88687400  1
  S  S27  1  0.33332500  0.54155400  0.38687400  1
  S  S28  1  0.83332500  0.04155400  0.11312600  1
  S  S29  1  0.66667500  0.45844600  0.61312600  1
  S  S30  1  0.83332500  0.45844600  0.11312600  1
  S  S31  1  0.16667500  0.54155400  0.88687400  1
