# generated using pymatgen
data_PbSe
_symmetry_space_group_name_H-M   'P 1'
_cell_length_a   6.50250301
_cell_length_b   6.50250301
_cell_length_c   4.49713100
_cell_angle_alpha   90.00000000
_cell_angle_beta   90.00000000
_cell_angle_gamma   141.06376436
_symmetry_Int_Tables_number   1
_chemical_formula_structural   PbSe
_chemical_formula_sum   'Pb2 Se2'
_cell_volume   119.50083203
_cell_formula_units_Z   2
loop_
 _symmetry_equiv_pos_site_id
 _symmetry_equiv_pos_as_xyz
  1  'x, y, z'
loop_
 _atom_site_type_symbol
 _atom_site_label
 _atom_site_symmetry_multiplicity
 _atom_site_fract_x
 _atom_site_fract_y
 _atom_site_fract_z
 _atom_site_occupancy
  Pb  Pb0  1  0.62980900  0.37019100  0.75000000  1
  Pb  Pb1  1  0.37019100  0.62980900  0.25000000  1
  Se  Se2  1  0.86313300  0.13686700  0.75000000  1
  Se  Se3  1  0.13686700  0.86313300  0.25000000  1
