# generated using pymatgen
data_CaVCuHO5
_symmetry_space_group_name_H-M   'P 1'
_cell_length_a   5.85796400
_cell_length_b   7.44304800
_cell_length_c   9.53374300
_cell_angle_alpha   90.00000000
_cell_angle_beta   90.00000000
_cell_angle_gamma   90.00000000
_symmetry_Int_Tables_number   1
_chemical_formula_structural   CaVCuHO5
_chemical_formula_sum   'Ca4 V4 Cu4 H4 O20'
_cell_volume   415.68175089
_cell_formula_units_Z   4
loop_
 _symmetry_equiv_pos_site_id
 _symmetry_equiv_pos_as_xyz
  1  'x, y, z'
loop_
 _atom_site_type_symbol
 _atom_site_label
 _atom_site_symmetry_multiplicity
 _atom_site_fract_x
 _atom_site_fract_y
 _atom_site_fract_z
 _atom_site_occupancy
  Ca  Ca0  1  0.47797100  0.12940300  0.31929800  1
  Ca  Ca1  1  0.02202900  0.87059700  0.81929800  1
  Ca  Ca2  1  0.52202900  0.62940300  0.18070200  1
  Ca  Ca3  1  0.97797100  0.37059700  0.68070200  1
  V  V4  1  0.01226100  0.38336400  0.33658300  1
  V  V5  1  0.48773900  0.61663600  0.83658300  1
  V  V6  1  0.98773900  0.88336400  0.16341700  1
  V  V7  1  0.51226100  0.11663600  0.66341700  1
  Cu  Cu8  1  0.25371300  0.25317300  0.99857900  1
  Cu  Cu9  1  0.24628700  0.74682700  0.49857900  1
  Cu  Cu10  1  0.74628700  0.75317300  0.50142100  1
  Cu  Cu11  1  0.75371300  0.24682700  0.00142100  1
  H  H12  1  0.98793500  0.51299500  0.98294100  1
  H  H13  1  0.51206500  0.48700500  0.48294100  1
  H  H14  1  0.01206500  0.01299500  0.51705900  1
  H  H15  1  0.48793500  0.98700500  0.01705900  1
  O  O16  1  0.06975300  0.20260000  0.44421400  1
  O  O17  1  0.43024700  0.79740000  0.94421400  1
  O  O18  1  0.93024700  0.70260000  0.05578600  1
  O  O19  1  0.56975300  0.29740000  0.55578600  1
  O  O20  1  0.24746600  0.39519000  0.22626600  1
  O  O21  1  0.25253400  0.60481000  0.72626600  1
  O  O22  1  0.75253400  0.89519000  0.27373400  1
  O  O23  1  0.74746600  0.10481000  0.77373400  1
  O  O24  1  0.00752100  0.06750400  0.04125900  1
  O  O25  1  0.49247900  0.93249600  0.54125900  1
  O  O26  1  0.99247900  0.56750400  0.45874100  1
  O  O27  1  0.50752100  0.43249600  0.95874100  1
  O  O28  1  0.49982100  0.10594100  0.06712100  1
  O  O29  1  0.00017900  0.89405900  0.56712100  1
  O  O30  1  0.50017900  0.60594100  0.43287900  1
  O  O31  1  0.99982100  0.39405900  0.93287900  1
  O  O32  1  0.25794300  0.13950900  0.75548300  1
  O  O33  1  0.24205700  0.86049100  0.25548300  1
  O  O34  1  0.74205700  0.63950900  0.74451700  1
  O  O35  1  0.75794300  0.36049100  0.24451700  1
