# generated using pymatgen
data_Cd5H2(NO7)2
_symmetry_space_group_name_H-M   'P 1'
_cell_length_a   9.87758845
_cell_length_b   9.87758845
_cell_length_c   5.63912063
_cell_angle_alpha   89.70406348
_cell_angle_beta   89.70406348
_cell_angle_gamma   42.55524993
_symmetry_Int_Tables_number   1
_chemical_formula_structural   Cd5H2(NO7)2
_chemical_formula_sum   'Cd5 H2 N2 O14'
_cell_volume   372.08871400
_cell_formula_units_Z   1
loop_
 _symmetry_equiv_pos_site_id
 _symmetry_equiv_pos_as_xyz
  1  'x, y, z'
loop_
 _atom_site_type_symbol
 _atom_site_label
 _atom_site_symmetry_multiplicity
 _atom_site_fract_x
 _atom_site_fract_y
 _atom_site_fract_z
 _atom_site_occupancy
  Cd  Cd0  1  0.88465700  0.88465700  0.01912300  1
  Cd  Cd1  1  0.11534300  0.11534300  0.98087700  1
  Cd  Cd2  1  0.76532200  0.23467800  0.50000000  1
  Cd  Cd3  1  0.23467800  0.76532200  0.50000000  1
  Cd  Cd4  1  0.50000000  0.50000000  0.00000000  1
  H  H5  1  0.82972100  0.82972100  0.74261900  1
  H  H6  1  0.17027900  0.17027900  0.25738100  1
  N  N7  1  0.74728400  0.74728400  0.24490000  1
  N  N8  1  0.25271600  0.25271600  0.75510000  1
  O  O9  1  0.27922400  0.81629100  0.12925200  1
  O  O10  1  0.72077600  0.18370900  0.87074800  1
  O  O11  1  0.18370900  0.72077600  0.87074800  1
  O  O12  1  0.81629100  0.27922400  0.12925200  1
  O  O13  1  0.62776300  0.93386300  0.20149400  1
  O  O14  1  0.37223700  0.06613700  0.79850600  1
  O  O15  1  0.06613700  0.37223700  0.79850600  1
  O  O16  1  0.93386300  0.62776300  0.20149400  1
  O  O17  1  0.44913700  0.44913700  0.35610900  1
  O  O18  1  0.55086300  0.55086300  0.64389100  1
  O  O19  1  0.68479300  0.68479300  0.32474700  1
  O  O20  1  0.31520700  0.31520700  0.67525300  1
  O  O21  1  0.92949600  0.92949600  0.38245800  1
  O  O22  1  0.07050400  0.07050400  0.61754200  1
