# generated using pymatgen
data_CaZnF2
_symmetry_space_group_name_H-M   'P 1'
_cell_length_a   7.49563452
_cell_length_b   7.49563452
_cell_length_c   7.49563452
_cell_angle_alpha   60.00000000
_cell_angle_beta   60.00000000
_cell_angle_gamma   60.00000000
_symmetry_Int_Tables_number   1
_chemical_formula_structural   CaZnF2
_chemical_formula_sum   'Ca4 Zn4 F8'
_cell_volume   297.79006902
_cell_formula_units_Z   4
loop_
 _symmetry_equiv_pos_site_id
 _symmetry_equiv_pos_as_xyz
  1  'x, y, z'
loop_
 _atom_site_type_symbol
 _atom_site_label
 _atom_site_symmetry_multiplicity
 _atom_site_fract_x
 _atom_site_fract_y
 _atom_site_fract_z
 _atom_site_occupancy
  Ca  Ca0  1  0.62500000  0.62500000  0.62500000  1
  Ca  Ca1  1  0.62500000  0.62500000  0.12500000  1
  Ca  Ca2  1  0.12500000  0.62500000  0.62500000  1
  Ca  Ca3  1  0.62500000  0.12500000  0.62500000  1
  Zn  Zn4  1  0.12500000  0.12500000  0.12500000  1
  Zn  Zn5  1  0.12500000  0.12500000  0.62500000  1
  Zn  Zn6  1  0.62500000  0.12500000  0.12500000  1
  Zn  Zn7  1  0.12500000  0.62500000  0.12500000  1
  F  F8  1  0.84206300  0.47381000  0.84206300  1
  F  F9  1  0.47381000  0.84206300  0.84206300  1
  F  F10  1  0.40793700  0.40793700  0.40793700  1
  F  F11  1  0.40793700  0.77619000  0.40793700  1
  F  F12  1  0.40793700  0.40793700  0.77619000  1
  F  F13  1  0.77619000  0.40793700  0.40793700  1
  F  F14  1  0.84206300  0.84206300  0.84206300  1
  F  F15  1  0.84206300  0.84206300  0.47381000  1
