# generated using pymatgen
data_CaC4
_symmetry_space_group_name_H-M   'P 1'
_cell_length_a   9.38020100
_cell_length_b   9.38020100
_cell_length_c   9.38020100
_cell_angle_alpha   90.00000000
_cell_angle_beta   90.00000000
_cell_angle_gamma   90.00000000
_symmetry_Int_Tables_number   1
_chemical_formula_structural   CaC4
_chemical_formula_sum   'Ca2 C8'
_cell_volume   825.34672773
_cell_formula_units_Z   2
loop_
 _symmetry_equiv_pos_site_id
 _symmetry_equiv_pos_as_xyz
  1  'x, y, z'
loop_
 _atom_site_type_symbol
 _atom_site_label
 _atom_site_symmetry_multiplicity
 _atom_site_fract_x
 _atom_site_fract_y
 _atom_site_fract_z
 _atom_site_occupancy
  Ca  Ca0  1  0.00000000  0.00000000  0.00000000  1
  Ca  Ca1  1  0.50000000  0.50000000  0.50000000  1
  C  C2  1  0.34816100  0.34816100  0.34816100  1
  C  C3  1  0.65183900  0.65183900  0.34816100  1
  C  C4  1  0.65183900  0.34816100  0.65183900  1
  C  C5  1  0.84816100  0.84816100  0.15183900  1
  C  C6  1  0.15183900  0.15183900  0.15183900  1
  C  C7  1  0.34816100  0.65183900  0.65183900  1
  C  C8  1  0.84816100  0.15183900  0.84816100  1
  C  C9  1  0.15183900  0.84816100  0.84816100  1
