# generated using pymatgen
data_CaCrO2
_symmetry_space_group_name_H-M   'P 1'
_cell_length_a   6.21450600
_cell_length_b   6.21453800
_cell_length_c   6.98871431
_cell_angle_alpha   63.60188085
_cell_angle_beta   63.60195867
_cell_angle_gamma   90.00118012
_symmetry_Int_Tables_number   1
_chemical_formula_structural   CaCrO2
_chemical_formula_sum   'Ca4 Cr4 O8'
_cell_volume   209.87598416
_cell_formula_units_Z   4
loop_
 _symmetry_equiv_pos_site_id
 _symmetry_equiv_pos_as_xyz
  1  'x, y, z'
loop_
 _atom_site_type_symbol
 _atom_site_label
 _atom_site_symmetry_multiplicity
 _atom_site_fract_x
 _atom_site_fract_y
 _atom_site_fract_z
 _atom_site_occupancy
  Ca  Ca0  1  0.37500000  0.62499900  0.24999500  1
  Ca  Ca1  1  0.37499700  0.12499700  0.24999900  1
  Ca  Ca2  1  0.87500400  0.62499600  0.74999800  1
  Ca  Ca3  1  0.37500300  0.62500600  0.74999700  1
  Cr  Cr4  1  0.37498000  0.12499000  0.75002100  1
  Cr  Cr5  1  0.87500200  0.12499300  0.75000300  1
  Cr  Cr6  1  0.87500000  0.12500800  0.25000100  1
  Cr  Cr7  1  0.87499700  0.62500100  0.25000900  1
  O  O8  1  0.06938400  0.84743500  0.30513800  1
  O  O9  1  0.62547000  0.84743600  0.30513600  1
  O  O10  1  0.59743400  0.31937900  0.80514000  1
  O  O11  1  0.68061900  0.40256700  0.19485900  1
  O  O12  1  0.59743900  0.87547100  0.80513800  1
  O  O13  1  0.12453500  0.40256800  0.19485600  1
  O  O14  1  0.15257000  0.93062200  0.69485400  1
  O  O15  1  0.15256500  0.37453200  0.69485500  1
