# generated using pymatgen
data_Ca4Pt
_symmetry_space_group_name_H-M   'P 1'
_cell_length_a   8.24545480
_cell_length_b   8.24545480
_cell_length_c   8.24545480
_cell_angle_alpha   60.00000000
_cell_angle_beta   60.00000000
_cell_angle_gamma   60.00000000
_symmetry_Int_Tables_number   1
_chemical_formula_structural   Ca4Pt
_chemical_formula_sum   'Ca8 Pt2'
_cell_volume   396.39562031
_cell_formula_units_Z   2
loop_
 _symmetry_equiv_pos_site_id
 _symmetry_equiv_pos_as_xyz
  1  'x, y, z'
loop_
 _atom_site_type_symbol
 _atom_site_label
 _atom_site_symmetry_multiplicity
 _atom_site_fract_x
 _atom_site_fract_y
 _atom_site_fract_z
 _atom_site_occupancy
  Ca  Ca0  1  0.61663700  0.61663700  0.61663700  1
  Ca  Ca1  1  0.15008900  0.61663700  0.61663700  1
  Ca  Ca2  1  0.61663700  0.15008900  0.61663700  1
  Ca  Ca3  1  0.59991100  0.13336300  0.13336300  1
  Ca  Ca4  1  0.13336300  0.13336300  0.13336300  1
  Ca  Ca5  1  0.61663700  0.61663700  0.15008900  1
  Ca  Ca6  1  0.13336300  0.59991100  0.13336300  1
  Ca  Ca7  1  0.13336300  0.13336300  0.59991100  1
  Pt  Pt8  1  0.00000000  0.00000000  0.00000000  1
  Pt  Pt9  1  0.75000000  0.75000000  0.75000000  1
