# generated using pymatgen
data_CaZnF2
_symmetry_space_group_name_H-M   'P 1'
_cell_length_a   7.48376729
_cell_length_b   7.48376729
_cell_length_c   7.48376729
_cell_angle_alpha   121.52498328
_cell_angle_beta   121.52498328
_cell_angle_gamma   87.37834187
_symmetry_Int_Tables_number   1
_chemical_formula_structural   CaZnF2
_chemical_formula_sum   'Ca4 Zn4 F8'
_cell_volume   289.21729253
_cell_formula_units_Z   4
loop_
 _symmetry_equiv_pos_site_id
 _symmetry_equiv_pos_as_xyz
  1  'x, y, z'
loop_
 _atom_site_type_symbol
 _atom_site_label
 _atom_site_symmetry_multiplicity
 _atom_site_fract_x
 _atom_site_fract_y
 _atom_site_fract_z
 _atom_site_occupancy
  Ca  Ca0  1  0.87500000  0.62500000  0.25000000  1
  Ca  Ca1  1  0.37500000  0.62500000  0.75000000  1
  Ca  Ca2  1  0.37500000  0.62500000  0.25000000  1
  Ca  Ca3  1  0.37500000  0.12500000  0.75000000  1
  Zn  Zn4  1  0.37500000  0.12500000  0.25000000  1
  Zn  Zn5  1  0.87500000  0.12500000  0.75000000  1
  Zn  Zn6  1  0.87500000  0.12500000  0.25000000  1
  Zn  Zn7  1  0.87500000  0.62500000  0.75000000  1
  F  F8  1  0.16109300  0.47162200  0.31052900  1
  F  F9  1  0.16109300  0.85056300  0.68947100  1
  F  F10  1  0.22162200  0.41109300  0.81052900  1
  F  F11  1  0.58890700  0.77837800  0.18947100  1
  F  F12  1  0.60056300  0.41109300  0.18947100  1
  F  F13  1  0.58890700  0.39943700  0.81052900  1
  F  F14  1  0.52837800  0.83890700  0.68947100  1
  F  F15  1  0.14943700  0.83890700  0.31052900  1
