# generated using pymatgen
data_Co2Hg2H3(SO5)2
_symmetry_space_group_name_H-M   'P 1'
_cell_length_a   6.41706200
_cell_length_b   11.25203900
_cell_length_c   13.37260800
_cell_angle_alpha   90.00000000
_cell_angle_beta   90.00000000
_cell_angle_gamma   90.00000000
_symmetry_Int_Tables_number   1
_chemical_formula_structural   Co2Hg2H3(SO5)2
_chemical_formula_sum   'Co8 Hg8 H12 S8 O40'
_cell_volume   965.56958708
_cell_formula_units_Z   4
loop_
 _symmetry_equiv_pos_site_id
 _symmetry_equiv_pos_as_xyz
  1  'x, y, z'
loop_
 _atom_site_type_symbol
 _atom_site_label
 _atom_site_symmetry_multiplicity
 _atom_site_fract_x
 _atom_site_fract_y
 _atom_site_fract_z
 _atom_site_occupancy
  Co  Co0  1  0.50506500  0.15688000  0.13345000  1
  Co  Co1  1  0.49493500  0.84312000  0.86655000  1
  Co  Co2  1  0.49493500  0.84312000  0.63345000  1
  Co  Co3  1  0.49493500  0.65688000  0.36655000  1
  Co  Co4  1  0.50506500  0.15688000  0.36655000  1
  Co  Co5  1  0.50506500  0.34312000  0.63345000  1
  Co  Co6  1  0.50506500  0.34312000  0.86655000  1
  Co  Co7  1  0.49493500  0.65688000  0.13345000  1
  Hg  Hg8  1  0.71200000  0.41165400  0.25000000  1
  Hg  Hg9  1  0.28800000  0.58834600  0.75000000  1
  Hg  Hg10  1  0.28800000  0.91165400  0.25000000  1
  Hg  Hg11  1  0.71200000  0.08834600  0.75000000  1
  Hg  Hg12  1  0.01332300  0.16385500  0.25000000  1
  Hg  Hg13  1  0.98667700  0.83614500  0.75000000  1
  Hg  Hg14  1  0.98667700  0.66385500  0.25000000  1
  Hg  Hg15  1  0.01332300  0.33614500  0.75000000  1
  H  H16  1  0.26449700  0.83190500  0.01529600  1
  H  H17  1  0.73550300  0.16809500  0.98470400  1
  H  H18  1  0.73550300  0.16809500  0.51529600  1
  H  H19  1  0.73550300  0.33190500  0.48470400  1
  H  H20  1  0.26449700  0.83190500  0.48470400  1
  H  H21  1  0.26449700  0.66809500  0.51529600  1
  H  H22  1  0.26449700  0.66809500  0.98470400  1
  H  H23  1  0.73550300  0.33190500  0.01529600  1
  H  H24  1  0.73559100  0.25000000  0.00000000  1
  H  H25  1  0.26440900  0.75000000  0.00000000  1
  H  H26  1  0.26440900  0.75000000  0.50000000  1
  H  H27  1  0.73559100  0.25000000  0.50000000  1
  S  S28  1  0.25178700  0.40472400  0.07966200  1
  S  S29  1  0.74821300  0.59527600  0.92033800  1
  S  S30  1  0.74821300  0.59527600  0.57966200  1
  S  S31  1  0.74821300  0.90472400  0.42033800  1
  S  S32  1  0.25178700  0.40472400  0.42033800  1
  S  S33  1  0.25178700  0.09527600  0.57966200  1
  S  S34  1  0.25178700  0.09527600  0.92033800  1
  S  S35  1  0.74821300  0.90472400  0.07966200  1
  O  O36  1  0.28382300  0.52737300  0.12262500  1
  O  O37  1  0.71617700  0.47262700  0.87737500  1
  O  O38  1  0.71617700  0.47262700  0.62262500  1
  O  O39  1  0.71617700  0.02737300  0.37737500  1
  O  O40  1  0.28382300  0.52737300  0.37737500  1
  O  O41  1  0.28382300  0.97262700  0.62262500  1
  O  O42  1  0.28382300  0.97262700  0.87737500  1
  O  O43  1  0.71617700  0.02737300  0.12262500  1
  O  O44  1  0.41940200  0.32707400  0.12643000  1
  O  O45  1  0.58059800  0.67292600  0.87357000  1
  O  O46  1  0.58059800  0.67292600  0.62643000  1
  O  O47  1  0.58059800  0.82707400  0.37357000  1
  O  O48  1  0.41940200  0.32707400  0.37357000  1
  O  O49  1  0.41940200  0.17292600  0.62643000  1
  O  O50  1  0.41940200  0.17292600  0.87357000  1
  O  O51  1  0.58059800  0.82707400  0.12643000  1
  O  O52  1  0.31987700  0.09879300  0.25000000  1
  O  O53  1  0.68012300  0.90120700  0.75000000  1
  O  O54  1  0.68012300  0.59879300  0.25000000  1
  O  O55  1  0.31987700  0.40120700  0.75000000  1
  O  O56  1  0.28024500  0.09333600  0.03026300  1
  O  O57  1  0.71975500  0.90666400  0.96973700  1
  O  O58  1  0.71975500  0.90666400  0.53026300  1
  O  O59  1  0.71975500  0.59333600  0.46973700  1
  O  O60  1  0.28024500  0.09333600  0.46973700  1
  O  O61  1  0.28024500  0.40666400  0.53026300  1
  O  O62  1  0.28024500  0.40666400  0.96973700  1
  O  O63  1  0.71975500  0.59333600  0.03026300  1
  O  O64  1  0.71029200  0.22507100  0.25000000  1
  O  O65  1  0.28970800  0.77492900  0.75000000  1
  O  O66  1  0.28970800  0.72507100  0.25000000  1
  O  O67  1  0.71029200  0.27492900  0.75000000  1
  O  O68  1  0.04514300  0.36228200  0.10970000  1
  O  O69  1  0.95485700  0.63771800  0.89030000  1
  O  O70  1  0.95485700  0.63771800  0.60970000  1
  O  O71  1  0.95485700  0.86228200  0.39030000  1
  O  O72  1  0.04514300  0.36228200  0.39030000  1
  O  O73  1  0.04514300  0.13771800  0.60970000  1
  O  O74  1  0.04514300  0.13771800  0.89030000  1
  O  O75  1  0.95485700  0.86228200  0.10970000  1
