# generated using pymatgen
data_Ca5As3CO12
_symmetry_space_group_name_H-M   'P 1'
_cell_length_a   10.03179361
_cell_length_b   10.03179361
_cell_length_c   7.00294000
_cell_angle_alpha   90.00000000
_cell_angle_beta   90.00000000
_cell_angle_gamma   119.99999743
_symmetry_Int_Tables_number   1
_chemical_formula_structural   Ca5As3CO12
_chemical_formula_sum   'Ca10 As6 C2 O24'
_cell_volume   610.33492977
_cell_formula_units_Z   2
loop_
 _symmetry_equiv_pos_site_id
 _symmetry_equiv_pos_as_xyz
  1  'x, y, z'
loop_
 _atom_site_type_symbol
 _atom_site_label
 _atom_site_symmetry_multiplicity
 _atom_site_fract_x
 _atom_site_fract_y
 _atom_site_fract_z
 _atom_site_occupancy
  Ca  Ca0  1  0.33333300  0.66666700  0.00150800  1
  Ca  Ca1  1  0.66666700  0.33333300  0.99849200  1
  Ca  Ca2  1  0.66666700  0.33333300  0.50150800  1
  Ca  Ca3  1  0.33333300  0.66666700  0.49849200  1
  Ca  Ca4  1  0.26340900  0.25288800  0.25000000  1
  Ca  Ca5  1  0.73659100  0.74711200  0.75000000  1
  Ca  Ca6  1  0.74711200  0.01052100  0.25000000  1
  Ca  Ca7  1  0.25288800  0.98947900  0.75000000  1
  Ca  Ca8  1  0.98947900  0.73659100  0.25000000  1
  Ca  Ca9  1  0.01052100  0.26340900  0.75000000  1
  As  As10  1  0.39825900  0.02768500  0.25000000  1
  As  As11  1  0.60174100  0.97231500  0.75000000  1
  As  As12  1  0.97231500  0.37057400  0.25000000  1
  As  As13  1  0.02768500  0.62942600  0.75000000  1
  As  As14  1  0.62942600  0.60174100  0.25000000  1
  As  As15  1  0.37057400  0.39825900  0.75000000  1
  C  C16  1  0.00000000  0.00000000  0.25000000  1
  C  C17  1  0.00000000  0.00000000  0.75000000  1
  O  O18  1  0.16665000  0.49581200  0.25000000  1
  O  O19  1  0.83335000  0.50418800  0.75000000  1
  O  O20  1  0.50418800  0.67083800  0.25000000  1
  O  O21  1  0.49581200  0.32916200  0.75000000  1
  O  O22  1  0.32916200  0.83335000  0.25000000  1
  O  O23  1  0.67083800  0.16665000  0.75000000  1
  O  O24  1  0.59850100  0.13261700  0.25000000  1
  O  O25  1  0.40149900  0.86738300  0.75000000  1
  O  O26  1  0.86738300  0.46588400  0.25000000  1
  O  O27  1  0.13261700  0.53411600  0.75000000  1
  O  O28  1  0.53411600  0.40149900  0.25000000  1
  O  O29  1  0.46588400  0.59850100  0.75000000  1
  O  O30  1  0.34363900  0.09310200  0.05548800  1
  O  O31  1  0.65636100  0.90689800  0.94451200  1
  O  O32  1  0.90689800  0.25053600  0.05548800  1
  O  O33  1  0.65636100  0.90689800  0.55548800  1
  O  O34  1  0.09310200  0.74946400  0.94451200  1
  O  O35  1  0.34363900  0.09310200  0.44451200  1
  O  O36  1  0.74946400  0.65636100  0.05548800  1
  O  O37  1  0.09310200  0.74946400  0.55548800  1
  O  O38  1  0.25053600  0.34363900  0.94451200  1
  O  O39  1  0.90689800  0.25053600  0.44451200  1
  O  O40  1  0.25053600  0.34363900  0.55548800  1
  O  O41  1  0.74946400  0.65636100  0.44451200  1
