# generated using pymatgen
data_Ca(AlH4)2
_symmetry_space_group_name_H-M   'P 1'
_cell_length_a   3.60002400
_cell_length_b   10.37529968
_cell_length_c   10.37529968
_cell_angle_alpha   119.99999795
_cell_angle_beta   90.00000000
_cell_angle_gamma   90.00000000
_symmetry_Int_Tables_number   1
_chemical_formula_structural   Ca(AlH4)2
_chemical_formula_sum   'Ca3 Al6 H24'
_cell_volume   335.61188804
_cell_formula_units_Z   3
loop_
 _symmetry_equiv_pos_site_id
 _symmetry_equiv_pos_as_xyz
  1  'x, y, z'
loop_
 _atom_site_type_symbol
 _atom_site_label
 _atom_site_symmetry_multiplicity
 _atom_site_fract_x
 _atom_site_fract_y
 _atom_site_fract_z
 _atom_site_occupancy
  Ca  Ca0  1  0.00000000  0.00000000  0.00000000  1
  Ca  Ca1  1  0.50000000  0.66666700  0.33333300  1
  Ca  Ca2  1  0.50000000  0.33333300  0.66666700  1
  Al  Al3  1  0.50000000  0.71815700  0.71815700  1
  Al  Al4  1  0.50000000  0.00000000  0.28184300  1
  Al  Al5  1  0.50000000  0.28184300  0.00000000  1
  Al  Al6  1  0.00000000  0.38902000  0.38902000  1
  Al  Al7  1  0.00000000  0.00000000  0.61098000  1
  Al  Al8  1  0.00000000  0.61098000  0.00000000  1
  H  H9  1  0.50000000  0.84045200  0.27164300  1
  H  H10  1  0.50000000  0.43119100  0.15954800  1
  H  H11  1  0.50000000  0.56880900  0.72835700  1
  H  H12  1  0.50000000  0.72835700  0.56880900  1
  H  H13  1  0.50000000  0.27164300  0.84045200  1
  H  H14  1  0.50000000  0.15954800  0.43119100  1
  H  H15  1  0.00000000  0.72916800  0.72916800  1
  H  H16  1  0.00000000  0.00000000  0.27083200  1
  H  H17  1  0.00000000  0.27083200  0.00000000  1
  H  H18  1  0.50000000  0.87600200  0.87600200  1
  H  H19  1  0.50000000  0.00000000  0.12399800  1
  H  H20  1  0.50000000  0.12399800  0.00000000  1
  H  H21  1  0.50000000  0.40864600  0.40864600  1
  H  H22  1  0.50000000  0.00000000  0.59135400  1
  H  H23  1  0.50000000  0.59135400  0.00000000  1
  H  H24  1  0.00000000  0.23278200  0.23278200  1
  H  H25  1  0.00000000  0.00000000  0.76721800  1
  H  H26  1  0.00000000  0.76721800  0.00000000  1
  H  H27  1  0.00000000  0.83363900  0.45426300  1
  H  H28  1  0.00000000  0.62062400  0.16636100  1
  H  H29  1  0.00000000  0.37937600  0.54573700  1
  H  H30  1  0.00000000  0.54573700  0.37937600  1
  H  H31  1  0.00000000  0.45426300  0.83363900  1
  H  H32  1  0.00000000  0.16636100  0.62062400  1
