# generated using pymatgen
data_Ca5V3O13
_symmetry_space_group_name_H-M   'P 1'
_cell_length_a   10.01547271
_cell_length_b   10.01547271
_cell_length_c   6.95641100
_cell_angle_alpha   90.00000000
_cell_angle_beta   90.00000000
_cell_angle_gamma   120.00000467
_symmetry_Int_Tables_number   1
_chemical_formula_structural   Ca5V3O13
_chemical_formula_sum   'Ca10 V6 O26'
_cell_volume   604.30856279
_cell_formula_units_Z   2
loop_
 _symmetry_equiv_pos_site_id
 _symmetry_equiv_pos_as_xyz
  1  'x, y, z'
loop_
 _atom_site_type_symbol
 _atom_site_label
 _atom_site_symmetry_multiplicity
 _atom_site_fract_x
 _atom_site_fract_y
 _atom_site_fract_z
 _atom_site_occupancy
  Ca  Ca0  1  0.66666700  0.33333300  0.20636700  1
  Ca  Ca1  1  0.33333300  0.66666700  0.70636700  1
  Ca  Ca2  1  0.66666700  0.33333300  0.71181500  1
  Ca  Ca3  1  0.33333300  0.66666700  0.21181500  1
  Ca  Ca4  1  0.74804900  0.98560000  0.95917700  1
  Ca  Ca5  1  0.23755000  0.25195100  0.95917700  1
  Ca  Ca6  1  0.25195100  0.01440000  0.45917700  1
  Ca  Ca7  1  0.01440000  0.76245000  0.95917700  1
  Ca  Ca8  1  0.76245000  0.74804900  0.45917700  1
  Ca  Ca9  1  0.98560000  0.23755000  0.45917700  1
  V  V10  1  0.59827400  0.62732000  0.95825800  1
  V  V11  1  0.02904700  0.40172600  0.95825800  1
  V  V12  1  0.40172600  0.37268000  0.45825800  1
  V  V13  1  0.37268000  0.97095300  0.95825800  1
  V  V14  1  0.97095300  0.59827400  0.45825800  1
  V  V15  1  0.62732000  0.02904700  0.45825800  1
  O  O16  1  0.65705500  0.74831000  0.75988400  1
  O  O17  1  0.09125500  0.34294500  0.75988400  1
  O  O18  1  0.34294500  0.25169000  0.25988400  1
  O  O19  1  0.25169000  0.90874500  0.75988400  1
  O  O20  1  0.90874500  0.65705500  0.25988400  1
  O  O21  1  0.74831000  0.09125500  0.25988400  1
  O  O22  1  0.75279500  0.08387900  0.65235600  1
  O  O23  1  0.33108500  0.24720500  0.65235600  1
  O  O24  1  0.24720500  0.91612100  0.15235600  1
  O  O25  1  0.91612100  0.66891500  0.65235600  1
  O  O26  1  0.66891500  0.75279500  0.15235600  1
  O  O27  1  0.08387900  0.33108500  0.15235600  1
  O  O28  1  0.83245700  0.33277500  0.95622800  1
  O  O29  1  0.50031800  0.16754300  0.95622800  1
  O  O30  1  0.16754300  0.66722500  0.45622800  1
  O  O31  1  0.66722500  0.49968200  0.95622800  1
  O  O32  1  0.49968200  0.83245700  0.45622800  1
  O  O33  1  0.33277500  0.50031800  0.45622800  1
  O  O34  1  0.39533900  0.53151600  0.96401200  1
  O  O35  1  0.13617800  0.60466100  0.96401200  1
  O  O36  1  0.60466100  0.46848400  0.46401200  1
  O  O37  1  0.46848400  0.86382200  0.96401200  1
  O  O38  1  0.86382200  0.39533900  0.46401200  1
  O  O39  1  0.53151600  0.13617800  0.46401200  1
  O  O40  1  0.00000000  0.00000000  0.95827200  1
  O  O41  1  0.00000000  0.00000000  0.45827200  1
