# generated using pymatgen
data_CaAl2Si6H10O21
_symmetry_space_group_name_H-M   'P 1'
_cell_length_a   17.57874600
_cell_length_b   7.36344400
_cell_length_c   7.52103939
_cell_angle_alpha   74.61427817
_cell_angle_beta   90.00000000
_cell_angle_gamma   90.00000000
_symmetry_Int_Tables_number   1
_chemical_formula_structural   CaAl2Si6H10O21
_chemical_formula_sum   'Ca2 Al4 Si12 H20 O42'
_cell_volume   938.63458212
_cell_formula_units_Z   2
loop_
 _symmetry_equiv_pos_site_id
 _symmetry_equiv_pos_as_xyz
  1  'x, y, z'
loop_
 _atom_site_type_symbol
 _atom_site_label
 _atom_site_symmetry_multiplicity
 _atom_site_fract_x
 _atom_site_fract_y
 _atom_site_fract_z
 _atom_site_occupancy
  Ca  Ca0  1  0.78648100  0.69571200  0.34769300  1
  Ca  Ca1  1  0.28648100  0.30428800  0.65230700  1
  Al  Al2  1  0.16107300  0.23724100  0.06810600  1
  Al  Al3  1  0.66107300  0.76275900  0.93189400  1
  Al  Al4  1  0.42976400  0.91097200  0.74657000  1
  Al  Al5  1  0.92976400  0.08902800  0.25343000  1
  Si  Si6  1  0.05406700  0.77684500  0.75910700  1
  Si  Si7  1  0.55406700  0.22315500  0.24089300  1
  Si  Si8  1  0.42854000  0.90028300  0.31730500  1
  Si  Si9  1  0.92854000  0.09971700  0.68269500  1
  Si  Si10  1  0.29862800  0.97683100  0.02164400  1
  Si  Si11  1  0.79862800  0.02316900  0.97835600  1
  Si  Si12  1  0.08541400  0.87000400  0.33660200  1
  Si  Si13  1  0.58541400  0.12999600  0.66339800  1
  Si  Si14  1  0.17102900  0.66769000  0.08922400  1
  Si  Si15  1  0.67102900  0.33231000  0.91077600  1
  Si  Si16  1  0.50024800  0.63826700  0.10251900  1
  Si  Si17  1  0.00024800  0.36173300  0.89748100  1
  H  H18  1  0.92591300  0.49823000  0.19731100  1
  H  H19  1  0.42591300  0.50177000  0.80268900  1
  H  H20  1  0.94728200  0.69341300  0.23910400  1
  H  H21  1  0.44728200  0.30658700  0.76089600  1
  H  H22  1  0.29873500  0.72766600  0.61728700  1
  H  H23  1  0.79873500  0.27233400  0.38271300  1
  H  H24  1  0.62018300  0.68868000  0.32462700  1
  H  H25  1  0.12018300  0.31132000  0.67537300  1
  H  H26  1  0.37529500  0.51061700  0.32624000  1
  H  H27  1  0.87529500  0.48938300  0.67376000  1
  H  H28  1  0.70702200  0.93918400  0.55487000  1
  H  H29  1  0.20702200  0.06081600  0.44513000  1
  H  H30  1  0.13371500  0.43191800  0.46769700  1
  H  H31  1  0.63371500  0.56808200  0.53230300  1
  H  H32  1  0.21156200  0.69445000  0.63332900  1
  H  H33  1  0.71156200  0.30555000  0.36667100  1
  H  H34  1  0.30326200  0.43462000  0.24347200  1
  H  H35  1  0.80326200  0.56538000  0.75652800  1
  H  H36  1  0.79347000  0.97762100  0.57171200  1
  H  H37  1  0.29347000  0.02237900  0.42828800  1
  O  O38  1  0.50044300  0.40816100  0.17430000  1
  O  O39  1  0.00044300  0.59183900  0.82570000  1
  O  O40  1  0.12505500  0.76742600  0.89954100  1
  O  O41  1  0.62505500  0.23257400  0.10045900  1
  O  O42  1  0.99675700  0.90583700  0.28040000  1
  O  O43  1  0.49675700  0.09416300  0.71960000  1
  O  O44  1  0.00110300  0.96004900  0.74736800  1
  O  O45  1  0.50110300  0.03995100  0.25263200  1
  O  O46  1  0.95776600  0.30099500  0.09597900  1
  O  O47  1  0.45776600  0.69900500  0.90402100  1
  O  O48  1  0.34908800  0.99678100  0.83689800  1
  O  O49  1  0.84908800  0.00321900  0.16310200  1
  O  O50  1  0.18729300  0.44627800  0.12200700  1
  O  O51  1  0.68729300  0.55372200  0.87799300  1
  O  O52  1  0.58642200  0.71908500  0.09537500  1
  O  O53  1  0.08642200  0.28091500  0.90462500  1
  O  O54  1  0.15446800  0.33066300  0.56710800  1
  O  O55  1  0.65446800  0.66933700  0.43289200  1
  O  O56  1  0.09501600  0.78924000  0.56159800  1
  O  O57  1  0.59501600  0.21076000  0.43840200  1
  O  O58  1  0.33639100  0.41148500  0.35212700  1
  O  O59  1  0.83639100  0.58851500  0.64787300  1
  O  O60  1  0.75548200  0.95149800  0.48618900  1
  O  O61  1  0.25548200  0.04850200  0.51381100  1
  O  O62  1  0.13692300  0.05816800  0.26643800  1
  O  O63  1  0.63692300  0.94183200  0.73356200  1
  O  O64  1  0.35144400  0.98665600  0.20090500  1
  O  O65  1  0.85144400  0.01334400  0.79909500  1
  O  O66  1  0.11861300  0.69352700  0.26240500  1
  O  O67  1  0.61861300  0.30647300  0.73759500  1
  O  O68  1  0.45017500  0.70302400  0.26340700  1
  O  O69  1  0.95017500  0.29697600  0.73659300  1
  O  O70  1  0.25228600  0.77692200  0.08421000  1
  O  O71  1  0.75228600  0.22307800  0.91579000  1
  O  O72  1  0.90621900  0.60050300  0.24666200  1
  O  O73  1  0.40621900  0.39949700  0.75333800  1
  O  O74  1  0.26029500  0.62812400  0.64238700  1
  O  O75  1  0.76029500  0.37187600  0.35761300  1
  O  O76  1  0.40866000  0.86398800  0.53351800  1
  O  O77  1  0.90866000  0.13601200  0.46648200  1
  O  O78  1  0.74091700  0.84291200  0.03342500  1
  O  O79  1  0.24091700  0.15708800  0.96657500  1
