# generated using pymatgen
data_BiWO4
_symmetry_space_group_name_H-M   'P 1'
_cell_length_a   6.90839693
_cell_length_b   6.90839693
_cell_length_c   6.90839693
_cell_angle_alpha   133.93666621
_cell_angle_beta   133.93666621
_cell_angle_gamma   67.18694656
_symmetry_Int_Tables_number   1
_chemical_formula_structural   BiWO4
_chemical_formula_sum   'Bi2 W2 O8'
_cell_volume   168.15692274
_cell_formula_units_Z   2
loop_
 _symmetry_equiv_pos_site_id
 _symmetry_equiv_pos_as_xyz
  1  'x, y, z'
loop_
 _atom_site_type_symbol
 _atom_site_label
 _atom_site_symmetry_multiplicity
 _atom_site_fract_x
 _atom_site_fract_y
 _atom_site_fract_z
 _atom_site_occupancy
  Bi  Bi0  1  0.25000000  0.75000000  0.50000000  1
  Bi  Bi1  1  0.50000000  0.50000000  0.00000000  1
  W  W2  1  0.75000000  0.25000000  0.50000000  1
  W  W3  1  0.00000000  0.00000000  0.00000000  1
  O  O4  1  0.25592700  0.33376200  0.42535700  1
  O  O5  1  0.90840500  0.83057000  0.57464300  1
  O  O6  1  0.66623800  0.09159500  0.92216500  1
  O  O7  1  0.16943000  0.74407300  0.07783500  1
  O  O8  1  0.58057000  0.50592700  0.42216500  1
  O  O9  1  0.08376200  0.15840500  0.57783500  1
  O  O10  1  0.49407300  0.91623800  0.07464300  1
  O  O11  1  0.84159500  0.41943000  0.92535700  1
