# generated using pymatgen
data_CaFe2(PO4)3
_symmetry_space_group_name_H-M   'P 1'
_cell_length_a   20.17725600
_cell_length_b   6.47559800
_cell_length_c   9.05989478
_cell_angle_alpha   46.13097927
_cell_angle_beta   90.00000000
_cell_angle_gamma   90.00000000
_symmetry_Int_Tables_number   1
_chemical_formula_structural   CaFe2(PO4)3
_chemical_formula_sum   'Ca4 Fe8 P12 O48'
_cell_volume   853.40617313
_cell_formula_units_Z   4
loop_
 _symmetry_equiv_pos_site_id
 _symmetry_equiv_pos_as_xyz
  1  'x, y, z'
loop_
 _atom_site_type_symbol
 _atom_site_label
 _atom_site_symmetry_multiplicity
 _atom_site_fract_x
 _atom_site_fract_y
 _atom_site_fract_z
 _atom_site_occupancy
  Ca  Ca0  1  0.92363800  0.29113100  0.06933000  1
  Ca  Ca1  1  0.07636200  0.70886900  0.93067000  1
  Ca  Ca2  1  0.42363800  0.70886900  0.43067000  1
  Ca  Ca3  1  0.57636200  0.29113100  0.56933000  1
  Fe  Fe4  1  0.78858800  0.84872600  0.09221300  1
  Fe  Fe5  1  0.21141200  0.15127400  0.90778700  1
  Fe  Fe6  1  0.28858800  0.15127400  0.40778700  1
  Fe  Fe7  1  0.71141200  0.84872600  0.59221300  1
  Fe  Fe8  1  0.59553400  0.17941300  0.22253600  1
  Fe  Fe9  1  0.40446600  0.82058700  0.77746400  1
  Fe  Fe10  1  0.09553400  0.82058700  0.27746400  1
  Fe  Fe11  1  0.90446600  0.17941300  0.72253600  1
  P  P12  1  0.62008200  0.81095600  0.10644500  1
  P  P13  1  0.37991800  0.18904400  0.89355500  1
  P  P14  1  0.12008200  0.18904400  0.39355500  1
  P  P15  1  0.87991800  0.81095600  0.60644500  1
  P  P16  1  0.75297100  0.35580500  0.08868400  1
  P  P17  1  0.24702900  0.64419500  0.91131600  1
  P  P18  1  0.25297100  0.64419500  0.41131600  1
  P  P19  1  0.74702900  0.35580500  0.58868400  1
  P  P20  1  0.94792000  0.66501800  0.21755200  1
  P  P21  1  0.05208000  0.33498200  0.78244800  1
  P  P22  1  0.44792000  0.33498200  0.28244800  1
  P  P23  1  0.55208000  0.66501800  0.71755200  1
  O  O24  1  0.99902000  0.84638500  0.21774800  1
  O  O25  1  0.00098000  0.15361500  0.78225200  1
  O  O26  1  0.49902000  0.15361500  0.28225200  1
  O  O27  1  0.50098000  0.84638500  0.71774800  1
  O  O28  1  0.97748500  0.54544700  0.13441400  1
  O  O29  1  0.02251500  0.45455300  0.86558600  1
  O  O30  1  0.47748500  0.45455300  0.36558600  1
  O  O31  1  0.52251500  0.54544700  0.63441400  1
  O  O32  1  0.79788600  0.50573000  0.12894200  1
  O  O33  1  0.20211400  0.49427000  0.87105800  1
  O  O34  1  0.29788600  0.49427000  0.37105800  1
  O  O35  1  0.70211400  0.50573000  0.62894200  1
  O  O36  1  0.20043900  0.84938400  0.23601800  1
  O  O37  1  0.79956100  0.15061600  0.76398200  1
  O  O38  1  0.70043900  0.15061600  0.26398200  1
  O  O39  1  0.29956100  0.84938400  0.73601800  1
  O  O40  1  0.92435900  0.98559500  0.41831400  1
  O  O41  1  0.07564100  0.01440500  0.58168600  1
  O  O42  1  0.42435900  0.01440500  0.08168600  1
  O  O43  1  0.57564100  0.98559500  0.91831400  1
  O  O44  1  0.60009000  0.83419900  0.26109200  1
  O  O45  1  0.39991000  0.16580100  0.73890800  1
  O  O46  1  0.10009000  0.16580100  0.23890800  1
  O  O47  1  0.89991000  0.83419900  0.76109200  1
  O  O48  1  0.78564100  0.58198400  0.39003400  1
  O  O49  1  0.21435900  0.41801600  0.60996600  1
  O  O50  1  0.28564100  0.41801600  0.10996600  1
  O  O51  1  0.71435900  0.58198400  0.89003400  1
  O  O52  1  0.30024200  0.82159400  0.42283300  1
  O  O53  1  0.69975800  0.17840600  0.57716700  1
  O  O54  1  0.80024200  0.17840600  0.07716700  1
  O  O55  1  0.19975800  0.82159400  0.92283300  1
  O  O56  1  0.60852500  0.48848200  0.22671800  1
  O  O57  1  0.39147500  0.51151800  0.77328200  1
  O  O58  1  0.10852500  0.51151800  0.27328200  1
  O  O59  1  0.89147500  0.48848200  0.72671800  1
  O  O60  1  0.89196100  0.89274800  0.06176900  1
  O  O61  1  0.10803900  0.10725200  0.93823100  1
  O  O62  1  0.39196100  0.10725200  0.43823100  1
  O  O63  1  0.60803900  0.89274800  0.56176900  1
  O  O64  1  0.91723500  0.43572700  0.43026900  1
  O  O65  1  0.08276500  0.56427300  0.56973100  1
  O  O66  1  0.41723500  0.56427300  0.06973100  1
  O  O67  1  0.58276500  0.43572700  0.93026900  1
  O  O68  1  0.69333600  0.89204500  0.04723700  1
  O  O69  1  0.30666400  0.10795500  0.95276300  1
  O  O70  1  0.19333600  0.10795500  0.45276300  1
  O  O71  1  0.80666400  0.89204500  0.54723700  1
