# generated using pymatgen
data_Bi7I2
_symmetry_space_group_name_H-M   'P 1'
_cell_length_a   4.47934100
_cell_length_b   11.35474900
_cell_length_c   13.58908259
_cell_angle_alpha   86.64836999
_cell_angle_beta   90.00000000
_cell_angle_gamma   90.00000000
_symmetry_Int_Tables_number   1
_chemical_formula_structural   Bi7I2
_chemical_formula_sum   'Bi14 I4'
_cell_volume   689.98289157
_cell_formula_units_Z   2
loop_
 _symmetry_equiv_pos_site_id
 _symmetry_equiv_pos_as_xyz
  1  'x, y, z'
loop_
 _atom_site_type_symbol
 _atom_site_label
 _atom_site_symmetry_multiplicity
 _atom_site_fract_x
 _atom_site_fract_y
 _atom_site_fract_z
 _atom_site_occupancy
  Bi  Bi0  1  0.25000000  0.12491100  0.47727200  1
  Bi  Bi1  1  0.75000000  0.87508900  0.52272800  1
  Bi  Bi2  1  0.25000000  0.19693100  0.69306700  1
  Bi  Bi3  1  0.75000000  0.80306900  0.30693300  1
  Bi  Bi4  1  0.25000000  0.97778600  0.24569900  1
  Bi  Bi5  1  0.75000000  0.02221400  0.75430100  1
  Bi  Bi6  1  0.25000000  0.77007800  0.79531800  1
  Bi  Bi7  1  0.75000000  0.22992200  0.20468200  1
  Bi  Bi8  1  0.25000000  0.41028700  0.14775700  1
  Bi  Bi9  1  0.75000000  0.58971300  0.85224300  1
  Bi  Bi10  1  0.25000000  0.69858500  0.58037600  1
  Bi  Bi11  1  0.75000000  0.30141500  0.41962400  1
  Bi  Bi12  1  0.25000000  0.91254400  0.02740500  1
  Bi  Bi13  1  0.75000000  0.08745600  0.97259500  1
  I  I14  1  0.25000000  0.54435900  0.34883700  1
  I  I15  1  0.75000000  0.45564100  0.65116300  1
  I  I16  1  0.25000000  0.34553200  0.92939000  1
  I  I17  1  0.75000000  0.65446800  0.07061000  1
