# generated using pymatgen
data_Ce2Ta3(SeO4)2
_symmetry_space_group_name_H-M   'P 1'
_cell_length_a   7.66415800
_cell_length_b   10.01836600
_cell_length_c   12.00061800
_cell_angle_alpha   90.00000000
_cell_angle_beta   90.00000000
_cell_angle_gamma   90.00000000
_symmetry_Int_Tables_number   1
_chemical_formula_structural   Ce2Ta3(SeO4)2
_chemical_formula_sum   'Ce8 Ta12 Se8 O32'
_cell_volume   921.43553060
_cell_formula_units_Z   4
loop_
 _symmetry_equiv_pos_site_id
 _symmetry_equiv_pos_as_xyz
  1  'x, y, z'
loop_
 _atom_site_type_symbol
 _atom_site_label
 _atom_site_symmetry_multiplicity
 _atom_site_fract_x
 _atom_site_fract_y
 _atom_site_fract_z
 _atom_site_occupancy
  Ce  Ce0  1  0.00000000  0.22753100  0.35111900  1
  Ce  Ce1  1  0.00000000  0.77246900  0.64888100  1
  Ce  Ce2  1  0.50000000  0.27246900  0.85111900  1
  Ce  Ce3  1  0.50000000  0.72753100  0.14888100  1
  Ce  Ce4  1  0.00000000  0.71161900  0.15592400  1
  Ce  Ce5  1  0.00000000  0.28838100  0.84407600  1
  Ce  Ce6  1  0.50000000  0.78838100  0.65592400  1
  Ce  Ce7  1  0.50000000  0.21161900  0.34407600  1
  Ta  Ta8  1  0.24976000  0.36453500  0.08382200  1
  Ta  Ta9  1  0.75024000  0.63546500  0.91617800  1
  Ta  Ta10  1  0.24976000  0.63546500  0.91617800  1
  Ta  Ta11  1  0.25024000  0.13546500  0.58382200  1
  Ta  Ta12  1  0.75024000  0.36453500  0.08382200  1
  Ta  Ta13  1  0.74976000  0.86453500  0.41617800  1
  Ta  Ta14  1  0.25024000  0.86453500  0.41617800  1
  Ta  Ta15  1  0.74976000  0.13546500  0.58382200  1
  Ta  Ta16  1  0.21372300  0.00000000  0.00000000  1
  Ta  Ta17  1  0.78627700  0.00000000  0.00000000  1
  Ta  Ta18  1  0.28627700  0.50000000  0.50000000  1
  Ta  Ta19  1  0.71372300  0.50000000  0.50000000  1
  Se  Se20  1  0.00000000  0.01878900  0.16433100  1
  Se  Se21  1  0.00000000  0.98121100  0.83566900  1
  Se  Se22  1  0.50000000  0.48121100  0.66433100  1
  Se  Se23  1  0.50000000  0.51878900  0.33566900  1
  Se  Se24  1  0.00000000  0.52262600  0.36091300  1
  Se  Se25  1  0.00000000  0.47737400  0.63908700  1
  Se  Se26  1  0.50000000  0.97737400  0.86091300  1
  Se  Se27  1  0.50000000  0.02262600  0.13908700  1
  O  O28  1  0.00000000  0.36592900  0.05162700  1
  O  O29  1  0.00000000  0.63407100  0.94837300  1
  O  O30  1  0.50000000  0.13407100  0.55162700  1
  O  O31  1  0.50000000  0.86592900  0.44837300  1
  O  O32  1  0.24676000  0.28659000  0.22475800  1
  O  O33  1  0.75324000  0.71341000  0.77524200  1
  O  O34  1  0.24676000  0.71341000  0.77524200  1
  O  O35  1  0.25324000  0.21341000  0.72475800  1
  O  O36  1  0.75324000  0.28659000  0.22475800  1
  O  O37  1  0.74676000  0.78659000  0.27524200  1
  O  O38  1  0.25324000  0.78659000  0.27524200  1
  O  O39  1  0.74676000  0.21341000  0.72475800  1
  O  O40  1  0.00000000  0.14873800  0.54952400  1
  O  O41  1  0.00000000  0.85126200  0.45047600  1
  O  O42  1  0.50000000  0.35126200  0.04952400  1
  O  O43  1  0.50000000  0.64873800  0.95047600  1
  O  O44  1  0.26288000  0.30237900  0.47591500  1
  O  O45  1  0.73712000  0.69762100  0.52408500  1
  O  O46  1  0.26288000  0.69762100  0.52408500  1
  O  O47  1  0.23712000  0.19762100  0.97591500  1
  O  O48  1  0.73712000  0.30237900  0.47591500  1
  O  O49  1  0.76288000  0.80237900  0.02408500  1
  O  O50  1  0.23712000  0.80237900  0.02408500  1
  O  O51  1  0.76288000  0.19762100  0.97591500  1
  O  O52  1  0.24546100  0.05691500  0.39711400  1
  O  O53  1  0.75453900  0.94308500  0.60288600  1
  O  O54  1  0.24546100  0.94308500  0.60288600  1
  O  O55  1  0.25453900  0.44308500  0.89711400  1
  O  O56  1  0.75453900  0.05691500  0.39711400  1
  O  O57  1  0.74546100  0.55691500  0.10288600  1
  O  O58  1  0.25453900  0.55691500  0.10288600  1
  O  O59  1  0.74546100  0.44308500  0.89711400  1
