# generated using pymatgen
data_C6F5
_symmetry_space_group_name_H-M   'P 1'
_cell_length_a   14.85538126
_cell_length_b   13.60276067
_cell_length_c   7.45274228
_cell_angle_alpha   84.36858959
_cell_angle_beta   65.68001863
_cell_angle_gamma   29.95139178
_symmetry_Int_Tables_number   1
_chemical_formula_structural   C6F5
_chemical_formula_sum   'C24 F20'
_cell_volume   563.61976289
_cell_formula_units_Z   4
loop_
 _symmetry_equiv_pos_site_id
 _symmetry_equiv_pos_as_xyz
  1  'x, y, z'
loop_
 _atom_site_type_symbol
 _atom_site_label
 _atom_site_symmetry_multiplicity
 _atom_site_fract_x
 _atom_site_fract_y
 _atom_site_fract_z
 _atom_site_occupancy
  C  C0  1  0.30772200  0.22288100  0.96715100  1
  C  C1  1  0.50224700  0.96715100  0.22288100  1
  C  C2  1  0.02711900  0.94227800  0.74775300  1
  C  C3  1  0.28284900  0.74775300  0.94227800  1
  C  C4  1  0.26322600  0.33103700  0.84806800  1
  C  C5  1  0.55766900  0.84806800  0.33103700  1
  C  C6  1  0.91896300  0.98677400  0.69233100  1
  C  C7  1  0.40193200  0.69233100  0.98677400  1
  C  C8  1  0.28624000  0.87669300  0.13256800  1
  C  C9  1  0.70449900  0.13256800  0.87669300  1
  C  C10  1  0.37330700  0.96376000  0.54550100  1
  C  C11  1  0.11743200  0.54550100  0.96376000  1
  C  C12  1  0.93727000  0.16564000  0.18366000  1
  C  C13  1  0.71343000  0.18366000  0.16564000  1
  C  C14  1  0.08436000  0.31273000  0.53657000  1
  C  C15  1  0.06634000  0.53657000  0.31273000  1
  C  C16  1  0.04953000  0.98399400  0.03741000  1
  C  C17  1  0.92906600  0.03741000  0.98399400  1
  C  C18  1  0.26600600  0.20047000  0.32093400  1
  C  C19  1  0.21259000  0.32093400  0.20047000  1
  C  C20  1  0.05276400  0.11415200  0.23167400  1
  C  C21  1  0.60141000  0.23167400  0.11415200  1
  C  C22  1  0.13584800  0.19723600  0.64859000  1
  C  C23  1  0.01832600  0.64859000  0.19723600  1
  F  F24  1  0.85375700  0.53619200  0.63754800  1
  F  F25  1  0.97250300  0.63754800  0.53619200  1
  F  F26  1  0.71380800  0.39624300  0.27749700  1
  F  F27  1  0.61245200  0.27749700  0.39624300  1
  F  F28  1  0.40035500  0.82500900  0.17550300  1
  F  F29  1  0.59913300  0.17550300  0.82500900  1
  F  F30  1  0.42499100  0.84964500  0.65086700  1
  F  F31  1  0.07449700  0.65086700  0.84964500  1
  F  F32  1  0.23041500  0.80719600  0.56639800  1
  F  F33  1  0.39599100  0.56639800  0.80719600  1
  F  F34  1  0.44280400  0.01958500  0.85400900  1
  F  F35  1  0.68360200  0.85400900  0.01958500  1
  F  F36  1  0.78734600  0.62314600  0.23138200  1
  F  F37  1  0.35812600  0.23138200  0.62314600  1
  F  F38  1  0.62685400  0.46265400  0.89187400  1
  F  F39  1  0.01861800  0.89187400  0.46265400  1
  F  F40  1  0.94129200  0.29268000  0.37045900  1
  F  F41  1  0.39556900  0.37045900  0.29268000  1
  F  F42  1  0.95732000  0.30870800  0.85443100  1
  F  F43  1  0.87954100  0.85443100  0.30870800  1
