# generated using pymatgen
data_BaYbAl3SiN4O3
_symmetry_space_group_name_H-M   'P 1'
_cell_length_a   6.19256199
_cell_length_b   6.19256199
_cell_length_c   10.19226700
_cell_angle_alpha   90.00000000
_cell_angle_beta   90.00000000
_cell_angle_gamma   119.99999994
_symmetry_Int_Tables_number   1
_chemical_formula_structural   BaYbAl3SiN4O3
_chemical_formula_sum   'Ba2 Yb2 Al6 Si2 N8 O6'
_cell_volume   338.48712188
_cell_formula_units_Z   2
loop_
 _symmetry_equiv_pos_site_id
 _symmetry_equiv_pos_as_xyz
  1  'x, y, z'
loop_
 _atom_site_type_symbol
 _atom_site_label
 _atom_site_symmetry_multiplicity
 _atom_site_fract_x
 _atom_site_fract_y
 _atom_site_fract_z
 _atom_site_occupancy
  Ba  Ba0  1  0.66666700  0.33333300  0.55347000  1
  Ba  Ba1  1  0.33333300  0.66666700  0.05347000  1
  Yb  Yb2  1  0.66666700  0.33333300  0.92574500  1
  Yb  Yb3  1  0.33333300  0.66666700  0.42574500  1
  Al  Al4  1  0.16549300  0.33098600  0.74113000  1
  Al  Al5  1  0.16549300  0.83450700  0.74113000  1
  Al  Al6  1  0.83450700  0.66901400  0.24113000  1
  Al  Al7  1  0.66901400  0.83450700  0.74113000  1
  Al  Al8  1  0.83450700  0.16549300  0.24113000  1
  Al  Al9  1  0.33098600  0.16549300  0.24113000  1
  Si  Si10  1  0.00000000  0.00000000  0.00189600  1
  Si  Si11  1  0.00000000  0.00000000  0.50189600  1
  N  N12  1  0.15020600  0.30041200  0.56029900  1
  N  N13  1  0.15020600  0.84979400  0.56029900  1
  N  N14  1  0.84979400  0.69958800  0.06029900  1
  N  N15  1  0.69958800  0.84979400  0.56029900  1
  N  N16  1  0.84979400  0.15020600  0.06029900  1
  N  N17  1  0.30041200  0.15020600  0.06029900  1
  N  N18  1  0.00000000  0.00000000  0.82224600  1
  N  N19  1  0.00000000  0.00000000  0.32224600  1
  O  O20  1  0.48753400  0.97506800  0.79188800  1
  O  O21  1  0.48753400  0.51246600  0.79188800  1
  O  O22  1  0.51246600  0.02493200  0.29188800  1
  O  O23  1  0.02493200  0.51246600  0.79188800  1
  O  O24  1  0.51246600  0.48753400  0.29188800  1
  O  O25  1  0.97506800  0.48753400  0.29188800  1
