# generated using pymatgen
data_Ca5S3O12F
_symmetry_space_group_name_H-M   'P 1'
_cell_length_a   9.60155651
_cell_length_b   9.60155651
_cell_length_c   6.99989500
_cell_angle_alpha   90.00000000
_cell_angle_beta   90.00000000
_cell_angle_gamma   120.00000351
_symmetry_Int_Tables_number   1
_chemical_formula_structural   Ca5S3O12F
_chemical_formula_sum   'Ca10 S6 O24 F2'
_cell_volume   558.86308840
_cell_formula_units_Z   2
loop_
 _symmetry_equiv_pos_site_id
 _symmetry_equiv_pos_as_xyz
  1  'x, y, z'
loop_
 _atom_site_type_symbol
 _atom_site_label
 _atom_site_symmetry_multiplicity
 _atom_site_fract_x
 _atom_site_fract_y
 _atom_site_fract_z
 _atom_site_occupancy
  Ca  Ca0  1  0.25811800  0.23889400  0.25000000  1
  Ca  Ca1  1  0.74188200  0.76110600  0.75000000  1
  Ca  Ca2  1  0.76110600  0.01922400  0.25000000  1
  Ca  Ca3  1  0.23889400  0.98077600  0.75000000  1
  Ca  Ca4  1  0.98077600  0.74188200  0.25000000  1
  Ca  Ca5  1  0.01922400  0.25811800  0.75000000  1
  Ca  Ca6  1  0.33333300  0.66666700  0.99368900  1
  Ca  Ca7  1  0.66666700  0.33333300  0.00631100  1
  Ca  Ca8  1  0.66666700  0.33333300  0.49368900  1
  Ca  Ca9  1  0.33333300  0.66666700  0.50631100  1
  S  S10  1  0.38962300  0.99444000  0.25000000  1
  S  S11  1  0.61037700  0.00556000  0.75000000  1
  S  S12  1  0.00556000  0.39518300  0.25000000  1
  S  S13  1  0.99444000  0.60481700  0.75000000  1
  S  S14  1  0.60481700  0.61037700  0.25000000  1
  S  S15  1  0.39518300  0.38962300  0.75000000  1
  O  O16  1  0.59948500  0.13908600  0.25000000  1
  O  O17  1  0.40051500  0.86091400  0.75000000  1
  O  O18  1  0.86091400  0.46039900  0.25000000  1
  O  O19  1  0.13908600  0.53960100  0.75000000  1
  O  O20  1  0.53960100  0.40051500  0.25000000  1
  O  O21  1  0.46039900  0.59948500  0.75000000  1
  O  O22  1  0.19863800  0.45779500  0.25000000  1
  O  O23  1  0.80136200  0.54220500  0.75000000  1
  O  O24  1  0.54220500  0.74084300  0.25000000  1
  O  O25  1  0.45779500  0.25915700  0.75000000  1
  O  O26  1  0.25915700  0.80136200  0.25000000  1
  O  O27  1  0.74084300  0.19863800  0.75000000  1
  O  O28  1  0.33671500  0.05644900  0.07796200  1
  O  O29  1  0.66328500  0.94355100  0.92203800  1
  O  O30  1  0.94355100  0.28026600  0.07796200  1
  O  O31  1  0.66328500  0.94355100  0.57796200  1
  O  O32  1  0.05644900  0.71973400  0.92203800  1
  O  O33  1  0.33671500  0.05644900  0.42203800  1
  O  O34  1  0.71973400  0.66328500  0.07796200  1
  O  O35  1  0.05644900  0.71973400  0.57796200  1
  O  O36  1  0.28026600  0.33671500  0.92203800  1
  O  O37  1  0.94355100  0.28026600  0.42203800  1
  O  O38  1  0.28026600  0.33671500  0.57796200  1
  O  O39  1  0.71973400  0.66328500  0.42203800  1
  F  F40  1  0.00000000  0.00000000  0.25000000  1
  F  F41  1  0.00000000  0.00000000  0.75000000  1
