# generated using pymatgen
data_C2S3
_symmetry_space_group_name_H-M   'P 1'
_cell_length_a   8.47825077
_cell_length_b   10.47319036
_cell_length_c   10.66986700
_cell_angle_alpha   90.00000000
_cell_angle_beta   90.00000000
_cell_angle_gamma   108.42795626
_symmetry_Int_Tables_number   1
_chemical_formula_structural   C2S3
_chemical_formula_sum   'C16 S24'
_cell_volume   898.84163292
_cell_formula_units_Z   8
loop_
 _symmetry_equiv_pos_site_id
 _symmetry_equiv_pos_as_xyz
  1  'x, y, z'
loop_
 _atom_site_type_symbol
 _atom_site_label
 _atom_site_symmetry_multiplicity
 _atom_site_fract_x
 _atom_site_fract_y
 _atom_site_fract_z
 _atom_site_occupancy
  C  C0  1  0.38147700  0.65946100  0.57797100  1
  C  C1  1  0.61852300  0.34053900  0.42202900  1
  C  C2  1  0.61852300  0.84053900  0.07797100  1
  C  C3  1  0.38147700  0.15946100  0.92202900  1
  C  C4  1  0.78022700  0.56830400  0.48236200  1
  C  C5  1  0.21977300  0.43169600  0.51763800  1
  C  C6  1  0.21977300  0.93169600  0.98236200  1
  C  C7  1  0.78022700  0.06830400  0.01763800  1
  C  C8  1  0.87442000  0.54490700  0.71174400  1
  C  C9  1  0.12558000  0.45509300  0.28825600  1
  C  C10  1  0.12558000  0.95509300  0.21174400  1
  C  C11  1  0.87442000  0.04490700  0.78825600  1
  C  C12  1  0.71761100  0.93276600  0.98879000  1
  C  C13  1  0.28238900  0.06723400  0.01121000  1
  C  C14  1  0.28238900  0.56723400  0.48879000  1
  C  C15  1  0.71761100  0.43276600  0.51121000  1
  S  S16  1  0.89579800  0.67224100  0.59790300  1
  S  S17  1  0.10420200  0.32775900  0.40209700  1
  S  S18  1  0.10420200  0.82775900  0.09790300  1
  S  S19  1  0.89579800  0.17224100  0.90209700  1
  S  S20  1  0.46683400  0.82493900  0.56259400  1
  S  S21  1  0.53316600  0.17506100  0.43740600  1
  S  S22  1  0.53316600  0.67506100  0.06259400  1
  S  S23  1  0.46683400  0.32493900  0.93740600  1
  S  S24  1  0.40921200  0.57547300  0.71374700  1
  S  S25  1  0.59078800  0.42452700  0.28625300  1
  S  S26  1  0.59078800  0.92452700  0.21374700  1
  S  S27  1  0.40921200  0.07547300  0.78625300  1
  S  S28  1  0.26660800  0.88002500  0.83724400  1
  S  S29  1  0.73339200  0.11997500  0.16275600  1
  S  S30  1  0.73339200  0.61997500  0.33724400  1
  S  S31  1  0.26660800  0.38002500  0.66275600  1
  S  S32  1  0.95054700  0.57379500  0.85428600  1
  S  S33  1  0.04945300  0.42620500  0.14571400  1
  S  S34  1  0.04945300  0.92620500  0.35428600  1
  S  S35  1  0.95054700  0.07379500  0.64571400  1
  S  S36  1  0.76299500  0.88484300  0.84110800  1
  S  S37  1  0.23700500  0.11515700  0.15889200  1
  S  S38  1  0.23700500  0.61515700  0.34110800  1
  S  S39  1  0.76299500  0.38484300  0.65889200  1
