# generated using pymatgen
data_CrN4Cl2O3
_symmetry_space_group_name_H-M   'P 1'
_cell_length_a   5.99440700
_cell_length_b   6.98371101
_cell_length_c   10.08207022
_cell_angle_alpha   107.57709239
_cell_angle_beta   96.32639232
_cell_angle_gamma   99.20463755
_symmetry_Int_Tables_number   1
_chemical_formula_structural   CrN4Cl2O3
_chemical_formula_sum   'Cr2 N8 Cl4 O6'
_cell_volume   391.50670492
_cell_formula_units_Z   2
loop_
 _symmetry_equiv_pos_site_id
 _symmetry_equiv_pos_as_xyz
  1  'x, y, z'
loop_
 _atom_site_type_symbol
 _atom_site_label
 _atom_site_symmetry_multiplicity
 _atom_site_fract_x
 _atom_site_fract_y
 _atom_site_fract_z
 _atom_site_occupancy
  Cr  Cr0  1  0.86266900  0.95837900  0.84004300  1
  Cr  Cr1  1  0.13733100  0.04162100  0.15995700  1
  N  N2  1  0.93343100  0.49063900  0.73581200  1
  N  N3  1  0.06656900  0.50936100  0.26418800  1
  N  N4  1  0.95380000  0.39127500  0.63016600  1
  N  N5  1  0.04620000  0.60872500  0.36983400  1
  N  N6  1  0.26748000  0.86455600  0.15920200  1
  N  N7  1  0.73252000  0.13544400  0.84079800  1
  N  N8  1  0.58027800  0.74035900  0.73422300  1
  N  N9  1  0.41972200  0.25964100  0.26577700  1
  Cl  Cl10  1  0.74933600  0.02099100  0.34596500  1
  Cl  Cl11  1  0.25066400  0.97900900  0.65403500  1
  Cl  Cl12  1  0.28138900  0.33661700  0.96892900  1
  Cl  Cl13  1  0.71861100  0.66338300  0.03107100  1
  O  O14  1  0.98907300  0.88174000  0.67240400  1
  O  O15  1  0.01092700  0.11826000  0.32759600  1
  O  O16  1  0.15562100  0.10475500  0.97540200  1
  O  O17  1  0.84437900  0.89524500  0.02459800  1
  O  O18  1  0.44146300  0.60914400  0.74327300  1
  O  O19  1  0.55853700  0.39085600  0.25672700  1
