# generated using pymatgen
data_Ca2ZnAs2(H2O5)2
_symmetry_space_group_name_H-M   'P 1'
_cell_length_a   5.75631263
_cell_length_b   5.90245985
_cell_length_c   13.07767900
_cell_angle_alpha   90.00000000
_cell_angle_beta   90.00000000
_cell_angle_gamma   108.27488227
_symmetry_Int_Tables_number   1
_chemical_formula_structural   Ca2ZnAs2(H2O5)2
_chemical_formula_sum   'Ca4 Zn2 As4 H8 O20'
_cell_volume   421.92172461
_cell_formula_units_Z   2
loop_
 _symmetry_equiv_pos_site_id
 _symmetry_equiv_pos_as_xyz
  1  'x, y, z'
loop_
 _atom_site_type_symbol
 _atom_site_label
 _atom_site_symmetry_multiplicity
 _atom_site_fract_x
 _atom_site_fract_y
 _atom_site_fract_z
 _atom_site_occupancy
  Ca  Ca0  1  0.23125700  0.56319600  0.12289800  1
  Ca  Ca1  1  0.76874300  0.43680400  0.87710200  1
  Ca  Ca2  1  0.26874300  0.43680400  0.62289800  1
  Ca  Ca3  1  0.73125700  0.56319600  0.37710200  1
  Zn  Zn4  1  0.00000000  0.00000000  0.00000000  1
  Zn  Zn5  1  0.50000000  0.00000000  0.50000000  1
  As  As6  1  0.06311000  0.21970800  0.37935400  1
  As  As7  1  0.93689000  0.78029200  0.62064600  1
  As  As8  1  0.43689000  0.78029200  0.87935400  1
  As  As9  1  0.56311000  0.21970800  0.12064600  1
  H  H10  1  0.30012300  0.69913200  0.35183300  1
  H  H11  1  0.69987700  0.30086800  0.64816700  1
  H  H12  1  0.19987700  0.30086800  0.85183300  1
  H  H13  1  0.80012300  0.69913200  0.14816700  1
  H  H14  1  0.00055400  0.09561100  0.79361100  1
  H  H15  1  0.99944600  0.90438900  0.20638900  1
  H  H16  1  0.49944600  0.90438900  0.29361100  1
  H  H17  1  0.50055400  0.09561100  0.70638900  1
  O  O18  1  0.53258500  0.18532900  0.63813000  1
  O  O19  1  0.46741500  0.81467100  0.36187000  1
  O  O20  1  0.96741500  0.81467100  0.13813000  1
  O  O21  1  0.03258500  0.18532900  0.86187000  1
  O  O22  1  0.49365800  0.94628000  0.17660300  1
  O  O23  1  0.50634200  0.05372000  0.82339700  1
  O  O24  1  0.00634200  0.05372000  0.67660300  1
  O  O25  1  0.99365800  0.94628000  0.32339700  1
  O  O26  1  0.07809300  0.45025800  0.29520300  1
  O  O27  1  0.92190700  0.54974200  0.70479700  1
  O  O28  1  0.42190700  0.54974200  0.79520300  1
  O  O29  1  0.57809300  0.45025800  0.20479700  1
  O  O30  1  0.33324200  0.28488400  0.44835100  1
  O  O31  1  0.66675800  0.71511600  0.55164900  1
  O  O32  1  0.16675800  0.71511600  0.94835100  1
  O  O33  1  0.83324200  0.28488400  0.05164900  1
  O  O34  1  0.33423300  0.24177900  0.03821000  1
  O  O35  1  0.66576700  0.75822100  0.96179000  1
  O  O36  1  0.16576700  0.75822100  0.53821000  1
  O  O37  1  0.83423300  0.24177900  0.46179000  1
