# generated using pymatgen
data_BeC2
_symmetry_space_group_name_H-M   'P 1'
_cell_length_a   5.89363300
_cell_length_b   5.89363300
_cell_length_c   5.89363300
_cell_angle_alpha   90.00000000
_cell_angle_beta   90.00000000
_cell_angle_gamma   90.00000000
_symmetry_Int_Tables_number   1
_chemical_formula_structural   BeC2
_chemical_formula_sum   'Be4 C8'
_cell_volume   204.71481147
_cell_formula_units_Z   4
loop_
 _symmetry_equiv_pos_site_id
 _symmetry_equiv_pos_as_xyz
  1  'x, y, z'
loop_
 _atom_site_type_symbol
 _atom_site_label
 _atom_site_symmetry_multiplicity
 _atom_site_fract_x
 _atom_site_fract_y
 _atom_site_fract_z
 _atom_site_occupancy
  Be  Be0  1  0.25000000  0.25000000  0.25000000  1
  Be  Be1  1  0.75000000  0.75000000  0.25000000  1
  Be  Be2  1  0.75000000  0.25000000  0.75000000  1
  Be  Be3  1  0.25000000  0.75000000  0.75000000  1
  C  C4  1  0.09068100  0.09068100  0.09068100  1
  C  C5  1  0.90931900  0.90931900  0.09068100  1
  C  C6  1  0.90931900  0.09068100  0.90931900  1
  C  C7  1  0.59068100  0.59068100  0.40931900  1
  C  C8  1  0.40931900  0.40931900  0.40931900  1
  C  C9  1  0.09068100  0.90931900  0.90931900  1
  C  C10  1  0.59068100  0.40931900  0.59068100  1
  C  C11  1  0.40931900  0.59068100  0.59068100  1
