# generated using pymatgen
data_CCl2
_symmetry_space_group_name_H-M   'P 1'
_cell_length_a   6.43465900
_cell_length_b   11.33319000
_cell_length_c   13.09146416
_cell_angle_alpha   67.71259976
_cell_angle_beta   90.00000000
_cell_angle_gamma   90.00000000
_symmetry_Int_Tables_number   1
_chemical_formula_structural   CCl2
_chemical_formula_sum   'C12 Cl24'
_cell_volume   883.37533840
_cell_formula_units_Z   12
loop_
 _symmetry_equiv_pos_site_id
 _symmetry_equiv_pos_as_xyz
  1  'x, y, z'
loop_
 _atom_site_type_symbol
 _atom_site_label
 _atom_site_symmetry_multiplicity
 _atom_site_fract_x
 _atom_site_fract_y
 _atom_site_fract_z
 _atom_site_occupancy
  C  C0  1  0.17088800  0.67874700  0.51025200  1
  C  C1  1  0.82911200  0.32125300  0.48974800  1
  C  C2  1  0.67088800  0.32125300  0.98974800  1
  C  C3  1  0.32911200  0.67874700  0.01025200  1
  C  C4  1  0.96280700  0.74946600  0.50530300  1
  C  C5  1  0.03719300  0.25053400  0.49469700  1
  C  C6  1  0.46280700  0.25053400  0.99469700  1
  C  C7  1  0.53719300  0.74946600  0.00530300  1
  C  C8  1  0.32963200  0.82429900  0.98324900  1
  C  C9  1  0.67036800  0.17570100  0.01675100  1
  C  C10  1  0.82963200  0.17570100  0.51675100  1
  C  C11  1  0.17036800  0.82429900  0.48324900  1
  Cl  Cl12  1  0.82827300  0.72472600  0.62753100  1
  Cl  Cl13  1  0.17172700  0.27527400  0.37246900  1
  Cl  Cl14  1  0.32827300  0.27527400  0.87246900  1
  Cl  Cl15  1  0.67172700  0.72472600  0.12753100  1
  Cl  Cl16  1  0.27081500  0.92826700  0.84903700  1
  Cl  Cl17  1  0.72918500  0.07173300  0.15096300  1
  Cl  Cl18  1  0.77081500  0.07173300  0.65096300  1
  Cl  Cl19  1  0.22918500  0.92826700  0.34903700  1
  Cl  Cl20  1  0.26282200  0.57590700  0.63847600  1
  Cl  Cl21  1  0.73717800  0.42409300  0.36152400  1
  Cl  Cl22  1  0.76282200  0.42409300  0.86152400  1
  Cl  Cl23  1  0.23717800  0.57590700  0.13847600  1
  Cl  Cl24  1  0.20585900  0.22883700  0.60465600  1
  Cl  Cl25  1  0.79414100  0.77116300  0.39534400  1
  Cl  Cl26  1  0.70585900  0.77116300  0.89534400  1
  Cl  Cl27  1  0.29414100  0.22883700  0.10465600  1
  Cl  Cl28  1  0.27058900  0.62499600  0.90510300  1
  Cl  Cl29  1  0.72941100  0.37500400  0.09489700  1
  Cl  Cl30  1  0.77058900  0.37500400  0.59489700  1
  Cl  Cl31  1  0.22941100  0.62499600  0.40510300  1
  Cl  Cl32  1  0.26069000  0.88000000  0.58221700  1
  Cl  Cl33  1  0.73931000  0.12000000  0.41778300  1
  Cl  Cl34  1  0.76069000  0.12000000  0.91778300  1
  Cl  Cl35  1  0.23931000  0.88000000  0.08221700  1
