# generated using pymatgen
data_C2S3I
_symmetry_space_group_name_H-M   'P 1'
_cell_length_a   9.83176322
_cell_length_b   9.83176322
_cell_length_c   16.67666631
_cell_angle_alpha   69.44873930
_cell_angle_beta   69.44873930
_cell_angle_gamma   63.06056371
_symmetry_Int_Tables_number   1
_chemical_formula_structural   C2S3I
_chemical_formula_sum   'C16 S24 I8'
_cell_volume   1309.55903537
_cell_formula_units_Z   8
loop_
 _symmetry_equiv_pos_site_id
 _symmetry_equiv_pos_as_xyz
  1  'x, y, z'
loop_
 _atom_site_type_symbol
 _atom_site_label
 _atom_site_symmetry_multiplicity
 _atom_site_fract_x
 _atom_site_fract_y
 _atom_site_fract_z
 _atom_site_occupancy
  C  C0  1  0.80753400  0.91860800  0.75132300  1
  C  C1  1  0.19246600  0.08139200  0.24867700  1
  C  C2  1  0.08139200  0.19246600  0.74867700  1
  C  C3  1  0.91860800  0.80753400  0.25132300  1
  C  C4  1  0.64192300  0.09987600  0.84569900  1
  C  C5  1  0.35807700  0.90012400  0.15430100  1
  C  C6  1  0.90012400  0.35807700  0.65430100  1
  C  C7  1  0.09987600  0.64192300  0.34569900  1
  C  C8  1  0.68248600  0.02489900  0.61652100  1
  C  C9  1  0.31751400  0.97510100  0.38347900  1
  C  C10  1  0.97510100  0.31751400  0.88347900  1
  C  C11  1  0.02489900  0.68248600  0.11652100  1
  C  C12  1  0.67592000  0.05275700  0.76735300  1
  C  C13  1  0.32408000  0.94724300  0.23264700  1
  C  C14  1  0.94724300  0.32408000  0.73264700  1
  C  C15  1  0.05275700  0.67592000  0.26735300  1
  S  S16  1  0.56777200  0.15241400  0.68687800  1
  S  S17  1  0.43222800  0.84758600  0.31312200  1
  S  S18  1  0.84758600  0.43222800  0.81312200  1
  S  S19  1  0.15241400  0.56777200  0.18687800  1
  S  S20  1  0.48848300  0.26081400  0.87431700  1
  S  S21  1  0.51151700  0.73918600  0.12568300  1
  S  S22  1  0.73918600  0.51151700  0.62568300  1
  S  S23  1  0.26081400  0.48848300  0.37431700  1
  S  S24  1  0.84605900  0.86881800  0.65388600  1
  S  S25  1  0.15394100  0.13118200  0.34611400  1
  S  S26  1  0.13118200  0.15394100  0.84611400  1
  S  S27  1  0.86881800  0.84605900  0.15388600  1
  S  S28  1  0.18299400  0.08161600  0.67127200  1
  S  S29  1  0.81700600  0.91838400  0.32872800  1
  S  S30  1  0.91838400  0.81700600  0.82872800  1
  S  S31  1  0.08161600  0.18299400  0.17127200  1
  S  S32  1  0.64272400  0.04926100  0.52367500  1
  S  S33  1  0.35727600  0.95073900  0.47632500  1
  S  S34  1  0.95073900  0.35727600  0.97632500  1
  S  S35  1  0.04926100  0.64272400  0.02367500  1
  S  S36  1  0.77428300  0.97416600  0.91140400  1
  S  S37  1  0.22571700  0.02583400  0.08859600  1
  S  S38  1  0.02583400  0.22571700  0.58859600  1
  S  S39  1  0.97416600  0.77428300  0.41140400  1
  I  I40  1  0.25511400  0.53243500  0.52821900  1
  I  I41  1  0.74488600  0.46756500  0.47178100  1
  I  I42  1  0.46756500  0.74488600  0.97178100  1
  I  I43  1  0.53243500  0.25511400  0.02821900  1
  I  I44  1  0.40717500  0.75143300  0.81126000  1
  I  I45  1  0.59282500  0.24856700  0.18874000  1
  I  I46  1  0.24856700  0.59282500  0.68874000  1
  I  I47  1  0.75143300  0.40717500  0.31126000  1
