# generated using pymatgen
data_C18BrF13
_symmetry_space_group_name_H-M   'P 1'
_cell_length_a   7.41557100
_cell_length_b   10.69365415
_cell_length_c   11.98175671
_cell_angle_alpha   82.15725711
_cell_angle_beta   86.13166527
_cell_angle_gamma   77.75900608
_symmetry_Int_Tables_number   1
_chemical_formula_structural   C18BrF13
_chemical_formula_sum   'C36 Br2 F26'
_cell_volume   919.13160399
_cell_formula_units_Z   2
loop_
 _symmetry_equiv_pos_site_id
 _symmetry_equiv_pos_as_xyz
  1  'x, y, z'
loop_
 _atom_site_type_symbol
 _atom_site_label
 _atom_site_symmetry_multiplicity
 _atom_site_fract_x
 _atom_site_fract_y
 _atom_site_fract_z
 _atom_site_occupancy
  C  C0  1  0.38989300  0.52235200  0.30283700  1
  C  C1  1  0.61010700  0.47764800  0.69716300  1
  C  C2  1  0.13350900  0.33131400  0.98252700  1
  C  C3  1  0.86649100  0.66868600  0.01747300  1
  C  C4  1  0.20446300  0.55082500  0.33773900  1
  C  C5  1  0.79553700  0.44917500  0.66226100  1
  C  C6  1  0.46973700  0.16026400  0.29283300  1
  C  C7  1  0.53026300  0.83973600  0.70716700  1
  C  C8  1  0.34466300  0.09163500  0.73657100  1
  C  C9  1  0.65533700  0.90836500  0.26342900  1
  C  C10  1  0.10747200  0.11079200  0.12842100  1
  C  C11  1  0.89252800  0.88920800  0.87157900  1
  C  C12  1  0.18909400  0.32791300  0.34069400  1
  C  C13  1  0.81090600  0.67208700  0.65930600  1
  C  C14  1  0.10257500  0.45391100  0.35605000  1
  C  C15  1  0.89742500  0.54608900  0.64395000  1
  C  C16  1  0.96335500  0.16784500  0.05746800  1
  C  C17  1  0.03664500  0.83215500  0.94253200  1
  C  C18  1  0.27648900  0.27234700  0.05394600  1
  C  C19  1  0.72351100  0.72765300  0.94605400  1
  C  C20  1  0.29654900  0.03076200  0.65106700  1
  C  C21  1  0.70345100  0.96923800  0.34893300  1
  C  C22  1  0.37624400  0.29500600  0.30714100  1
  C  C23  1  0.62375600  0.70499400  0.69285900  1
  C  C24  1  0.02374300  0.72095700  0.01536700  1
  C  C25  1  0.97625700  0.27904300  0.98463300  1
  C  C26  1  0.48907300  0.02812900  0.80508700  1
  C  C27  1  0.51092700  0.97187100  0.19491300  1
  C  C28  1  0.26711700  0.16109800  0.12961800  1
  C  C29  1  0.73288300  0.83890200  0.87038200  1
  C  C30  1  0.41773300  0.09776300  0.20690300  1
  C  C31  1  0.58226700  0.90223700  0.79309700  1
  C  C32  1  0.61110300  0.09381600  0.36495300  1
  C  C33  1  0.38889700  0.90618400  0.63504700  1
  C  C34  1  0.47310700  0.39583500  0.28757100  1
  C  C35  1  0.52689300  0.60416500  0.71242900  1
  Br  Br36  1  0.67962200  0.16419400  0.48823700  1
  Br  Br37  1  0.32037800  0.83580600  0.51176300  1
  F  F38  1  0.81165900  0.11643800  0.05973000  1
  F  F39  1  0.18834100  0.88356200  0.94027000  1
  F  F40  1  0.16099100  0.09662200  0.58385100  1
  F  F41  1  0.83900900  0.90337800  0.41614900  1
  F  F42  1  0.16287300  0.66396800  0.08337500  1
  F  F43  1  0.83712700  0.33603200  0.91662500  1
  F  F44  1  0.25309500  0.21111600  0.75223600  1
  F  F45  1  0.74690500  0.78888400  0.24776400  1
  F  F46  1  0.48512700  0.61799400  0.28319200  1
  F  F47  1  0.51487300  0.38200600  0.71680800  1
  F  F48  1  0.65211800  0.37226800  0.25120800  1
  F  F49  1  0.34788200  0.62773200  0.74879200  1
  F  F50  1  0.14619000  0.43778800  0.91014500  1
  F  F51  1  0.85381000  0.56221200  0.08985500  1
  F  F52  1  0.08706700  0.00443000  0.19929600  1
  F  F53  1  0.91293300  0.99557000  0.80070400  1
  F  F54  1  0.46638300  0.90782200  0.11449200  1
  F  F55  1  0.53361700  0.09217800  0.88550800  1
  F  F56  1  0.42798400  0.32466800  0.04728800  1
  F  F57  1  0.57201600  0.67533200  0.95271200  1
  F  F58  1  0.07799600  0.51685500  0.61264000  1
  F  F59  1  0.92200400  0.48314500  0.38736000  1
  F  F60  1  0.12241600  0.67300700  0.35125000  1
  F  F61  1  0.87758400  0.32699300  0.64875000  1
  F  F62  1  0.08564100  0.23672000  0.35906200  1
  F  F63  1  0.91435900  0.76328000  0.64093800  1
