# generated using pymatgen
data_CSN3
_symmetry_space_group_name_H-M   'P 1'
_cell_length_a   5.14814300
_cell_length_b   7.21966875
_cell_length_c   7.33189612
_cell_angle_alpha   82.74702544
_cell_angle_beta   75.43081622
_cell_angle_gamma   80.62548550
_symmetry_Int_Tables_number   1
_chemical_formula_structural   CSN3
_chemical_formula_sum   'C2 S2 N6'
_cell_volume   259.18623621
_cell_formula_units_Z   2
loop_
 _symmetry_equiv_pos_site_id
 _symmetry_equiv_pos_as_xyz
  1  'x, y, z'
loop_
 _atom_site_type_symbol
 _atom_site_label
 _atom_site_symmetry_multiplicity
 _atom_site_fract_x
 _atom_site_fract_y
 _atom_site_fract_z
 _atom_site_occupancy
  C  C0  1  0.36464100  0.28740900  0.16096600  1
  C  C1  1  0.63535900  0.71259100  0.83903400  1
  S  S2  1  0.53460300  0.31953700  0.30910700  1
  S  S3  1  0.46539700  0.68046300  0.69089300  1
  N  N4  1  0.81545600  0.12137200  0.67705500  1
  N  N5  1  0.18454400  0.87862800  0.32294500  1
  N  N6  1  0.06237300  0.77747000  0.29259300  1
  N  N7  1  0.93762700  0.22253000  0.70740700  1
  N  N8  1  0.24197800  0.25922700  0.05107200  1
  N  N9  1  0.75802200  0.74077300  0.94892800  1
