# generated using pymatgen
data_CdCu2(SO4)2
_symmetry_space_group_name_H-M   'P 1'
_cell_length_a   8.43965800
_cell_length_b   5.89191700
_cell_length_c   9.76523435
_cell_angle_alpha   53.95845986
_cell_angle_beta   90.00000000
_cell_angle_gamma   90.00000000
_symmetry_Int_Tables_number   1
_chemical_formula_structural   CdCu2(SO4)2
_chemical_formula_sum   'Cd2 Cu4 S4 O16'
_cell_volume   392.63846494
_cell_formula_units_Z   2
loop_
 _symmetry_equiv_pos_site_id
 _symmetry_equiv_pos_as_xyz
  1  'x, y, z'
loop_
 _atom_site_type_symbol
 _atom_site_label
 _atom_site_symmetry_multiplicity
 _atom_site_fract_x
 _atom_site_fract_y
 _atom_site_fract_z
 _atom_site_occupancy
  Cd  Cd0  1  0.00000000  0.00000000  0.00000000  1
  Cd  Cd1  1  0.50000000  0.00000000  0.50000000  1
  Cu  Cu2  1  0.13275700  0.70903200  0.54186400  1
  Cu  Cu3  1  0.86724300  0.29096800  0.45813600  1
  Cu  Cu4  1  0.63275700  0.29096800  0.95813600  1
  Cu  Cu5  1  0.36724300  0.70903200  0.04186400  1
  S  S6  1  0.87900200  0.63474100  0.61636500  1
  S  S7  1  0.12099800  0.36525900  0.38363500  1
  S  S8  1  0.37900200  0.36525900  0.88363500  1
  S  S9  1  0.62099800  0.63474100  0.11636500  1
  O  O10  1  0.51219500  0.05617800  0.69373500  1
  O  O11  1  0.48780500  0.94382200  0.30626500  1
  O  O12  1  0.01219500  0.94382200  0.80626500  1
  O  O13  1  0.98780500  0.05617800  0.19373500  1
  O  O14  1  0.30080900  0.48738400  0.96556500  1
  O  O15  1  0.69919100  0.51261600  0.03443500  1
  O  O16  1  0.80080900  0.51261600  0.53443500  1
  O  O17  1  0.19919100  0.48738400  0.46556500  1
  O  O18  1  0.34681900  0.55773000  0.69560000  1
  O  O19  1  0.65318100  0.44227000  0.30440000  1
  O  O20  1  0.84681900  0.44227000  0.80440000  1
  O  O21  1  0.15318100  0.55773000  0.19560000  1
  O  O22  1  0.29384100  0.08934500  0.95288200  1
  O  O23  1  0.70615900  0.91065500  0.04711800  1
  O  O24  1  0.79384100  0.91065500  0.54711800  1
  O  O25  1  0.20615900  0.08934500  0.45288200  1
