# generated using pymatgen
data_Ca2MgAl2Si3O14
_symmetry_space_group_name_H-M   'P 1'
_cell_length_a   10.36366384
_cell_length_b   10.36366384
_cell_length_c   8.84267924
_cell_angle_alpha   83.16180520
_cell_angle_beta   83.16180520
_cell_angle_gamma   33.47638438
_symmetry_Int_Tables_number   1
_chemical_formula_structural   Ca2MgAl2Si3O14
_chemical_formula_sum   'Ca4 Mg2 Al4 Si6 O28'
_cell_volume   519.81207561
_cell_formula_units_Z   2
loop_
 _symmetry_equiv_pos_site_id
 _symmetry_equiv_pos_as_xyz
  1  'x, y, z'
loop_
 _atom_site_type_symbol
 _atom_site_label
 _atom_site_symmetry_multiplicity
 _atom_site_fract_x
 _atom_site_fract_y
 _atom_site_fract_z
 _atom_site_occupancy
  Ca  Ca0  1  0.65404500  0.65404500  0.31975300  1
  Ca  Ca1  1  0.34595500  0.34595500  0.68024700  1
  Ca  Ca2  1  0.84250300  0.84250300  0.25269900  1
  Ca  Ca3  1  0.15749700  0.15749700  0.74730100  1
  Mg  Mg4  1  0.50000000  0.00000000  0.00000000  1
  Mg  Mg5  1  0.00000000  0.50000000  0.00000000  1
  Al  Al6  1  0.73990900  0.25238100  0.24445400  1
  Al  Al7  1  0.26009100  0.74761900  0.75554600  1
  Al  Al8  1  0.74761900  0.26009100  0.75554600  1
  Al  Al9  1  0.25238100  0.73990900  0.24445400  1
  Si  Si10  1  0.40294500  0.40294500  0.03123600  1
  Si  Si11  1  0.59705500  0.59705500  0.96876400  1
  Si  Si12  1  0.91260500  0.91260500  0.55340900  1
  Si  Si13  1  0.08739500  0.08739500  0.44659100  1
  Si  Si14  1  0.75536900  0.75536900  0.65754000  1
  Si  Si15  1  0.24463100  0.24463100  0.34246000  1
  O  O16  1  0.63487700  0.20262300  0.14117900  1
  O  O17  1  0.36512300  0.79737700  0.85882100  1
  O  O18  1  0.79737700  0.36512300  0.85882100  1
  O  O19  1  0.20262300  0.63487700  0.14117900  1
  O  O20  1  0.67250300  0.67250300  0.02411200  1
  O  O21  1  0.32749700  0.32749700  0.97588800  1
  O  O22  1  0.97169000  0.97169000  0.86811800  1
  O  O23  1  0.02831000  0.02831000  0.13188200  1
  O  O24  1  0.69357100  0.69357100  0.55365500  1
  O  O25  1  0.30642900  0.30642900  0.44634500  1
  O  O26  1  0.47978700  0.01083600  0.24502800  1
  O  O27  1  0.52021300  0.98916400  0.75497200  1
  O  O28  1  0.98916400  0.52021300  0.75497200  1
  O  O29  1  0.01083600  0.47978700  0.24502800  1
  O  O30  1  0.45804100  0.45804100  0.36229200  1
  O  O31  1  0.54195900  0.54195900  0.63770800  1
  O  O32  1  0.29373100  0.84486600  0.35585900  1
  O  O33  1  0.70626900  0.15513400  0.64414100  1
  O  O34  1  0.15513400  0.70626900  0.64414100  1
  O  O35  1  0.84486600  0.29373100  0.35585900  1
  O  O36  1  0.94618100  0.94618100  0.37207600  1
  O  O37  1  0.05381900  0.05381900  0.62792400  1
  O  O38  1  0.82959200  0.82959200  0.53815700  1
  O  O39  1  0.17040800  0.17040800  0.46184300  1
  O  O40  1  0.54324700  0.54324700  0.12718100  1
  O  O41  1  0.45675300  0.45675300  0.87281900  1
  O  O42  1  0.81423600  0.81423600  0.01477800  1
  O  O43  1  0.18576400  0.18576400  0.98522200  1
