# generated using pymatgen
data_Ca2Al3Si3O14
_symmetry_space_group_name_H-M   'P 1'
_cell_length_a   10.38980880
_cell_length_b   10.38980880
_cell_length_c   8.66952107
_cell_angle_alpha   82.48733133
_cell_angle_beta   82.48733133
_cell_angle_gamma   33.03608487
_symmetry_Int_Tables_number   1
_chemical_formula_structural   Ca2Al3Si3O14
_chemical_formula_sum   'Ca4 Al6 Si6 O28'
_cell_volume   505.43277661
_cell_formula_units_Z   2
loop_
 _symmetry_equiv_pos_site_id
 _symmetry_equiv_pos_as_xyz
  1  'x, y, z'
loop_
 _atom_site_type_symbol
 _atom_site_label
 _atom_site_symmetry_multiplicity
 _atom_site_fract_x
 _atom_site_fract_y
 _atom_site_fract_z
 _atom_site_occupancy
  Ca  Ca0  1  0.83928000  0.83928000  0.25169100  1
  Ca  Ca1  1  0.16072000  0.16072000  0.74830900  1
  Ca  Ca2  1  0.65272100  0.65272100  0.33654200  1
  Ca  Ca3  1  0.34727900  0.34727900  0.66345800  1
  Al  Al4  1  0.73793200  0.24968600  0.24414500  1
  Al  Al5  1  0.26206800  0.75031400  0.75585500  1
  Al  Al6  1  0.75031400  0.26206800  0.75585500  1
  Al  Al7  1  0.24968600  0.73793200  0.24414500  1
  Al  Al8  1  0.50000000  0.00000000  0.00000000  1
  Al  Al9  1  0.00000000  0.50000000  0.00000000  1
  Si  Si10  1  0.91396700  0.91396700  0.55768700  1
  Si  Si11  1  0.08603300  0.08603300  0.44231300  1
  Si  Si12  1  0.40246100  0.40246100  0.03354100  1
  Si  Si13  1  0.59753900  0.59753900  0.96645900  1
  Si  Si14  1  0.75726000  0.75726000  0.66778200  1
  Si  Si15  1  0.24274000  0.24274000  0.33221800  1
  O  O16  1  0.97648300  0.97648300  0.87854500  1
  O  O17  1  0.02351700  0.02351700  0.12145500  1
  O  O18  1  0.63593000  0.19594200  0.14278400  1
  O  O19  1  0.36407000  0.80405800  0.85721600  1
  O  O20  1  0.80405800  0.36407000  0.85721600  1
  O  O21  1  0.19594200  0.63593000  0.14278400  1
  O  O22  1  0.80376100  0.80376100  0.01025100  1
  O  O23  1  0.19623900  0.19623900  0.98974900  1
  O  O24  1  0.83122500  0.83122500  0.54671900  1
  O  O25  1  0.16877500  0.16877500  0.45328100  1
  O  O26  1  0.67461800  0.67461800  0.01885300  1
  O  O27  1  0.32538200  0.32538200  0.98114700  1
  O  O28  1  0.47385800  0.01009700  0.22436300  1
  O  O29  1  0.52614200  0.98990300  0.77563700  1
  O  O30  1  0.98990300  0.52614200  0.77563700  1
  O  O31  1  0.01009700  0.47385800  0.22436300  1
  O  O32  1  0.69854600  0.69854600  0.55886600  1
  O  O33  1  0.30145400  0.30145400  0.44113400  1
  O  O34  1  0.54150000  0.54150000  0.12513000  1
  O  O35  1  0.45850000  0.45850000  0.87487000  1
  O  O36  1  0.29468700  0.84096700  0.35155100  1
  O  O37  1  0.70531300  0.15903300  0.64844900  1
  O  O38  1  0.15903300  0.70531300  0.64844900  1
  O  O39  1  0.84096700  0.29468700  0.35155100  1
  O  O40  1  0.94641400  0.94641400  0.37217900  1
  O  O41  1  0.05358600  0.05358600  0.62782100  1
  O  O42  1  0.45486900  0.45486900  0.36633300  1
  O  O43  1  0.54513100  0.54513100  0.63366700  1
