# generated using pymatgen
data_BeO2
_symmetry_space_group_name_H-M   'P 1'
_cell_length_a   5.05816400
_cell_length_b   8.37355300
_cell_length_c   10.61351629
_cell_angle_alpha   81.16024955
_cell_angle_beta   90.00000000
_cell_angle_gamma   90.00000000
_symmetry_Int_Tables_number   1
_chemical_formula_structural   BeO2
_chemical_formula_sum   'Be12 O24'
_cell_volume   444.19385039
_cell_formula_units_Z   12
loop_
 _symmetry_equiv_pos_site_id
 _symmetry_equiv_pos_as_xyz
  1  'x, y, z'
loop_
 _atom_site_type_symbol
 _atom_site_label
 _atom_site_symmetry_multiplicity
 _atom_site_fract_x
 _atom_site_fract_y
 _atom_site_fract_z
 _atom_site_occupancy
  Be  Be0  1  0.30086400  0.51286400  0.42082500  1
  Be  Be1  1  0.80086400  0.48713600  0.57917500  1
  Be  Be2  1  0.52201400  0.71501500  0.17154200  1
  Be  Be3  1  0.02201400  0.28498500  0.82845800  1
  Be  Be4  1  0.02730200  0.90857700  0.17571700  1
  Be  Be5  1  0.52730200  0.09142300  0.82428300  1
  Be  Be6  1  0.29261300  0.98482000  0.57898600  1
  Be  Be7  1  0.79261300  0.01518000  0.42101400  1
  Be  Be8  1  0.22981600  0.41859900  0.15243800  1
  Be  Be9  1  0.72981600  0.58140100  0.84756200  1
  Be  Be10  1  0.23823500  0.76684600  0.84271100  1
  Be  Be11  1  0.73823500  0.23315400  0.15728900  1
  O  O12  1  0.31412200  0.85574600  0.14117700  1
  O  O13  1  0.81412200  0.14425400  0.85882300  1
  O  O14  1  0.24836000  0.83190000  0.69088300  1
  O  O15  1  0.74836000  0.16810000  0.30911700  1
  O  O16  1  0.52199100  0.95397700  0.48438400  1
  O  O17  1  0.02199100  0.04602300  0.51561600  1
  O  O18  1  0.38607400  0.92231400  0.88229700  1
  O  O19  1  0.88607400  0.07768600  0.11770300  1
  O  O20  1  0.94121700  0.37302600  0.10851300  1
  O  O21  1  0.44121700  0.62697400  0.89148700  1
  O  O22  1  0.23488600  0.41404500  0.30569000  1
  O  O23  1  0.73488600  0.58595500  0.69431000  1
  O  O24  1  0.53440100  0.44886700  0.51279700  1
  O  O25  1  0.03440100  0.55113300  0.48720300  1
  O  O26  1  0.44116000  0.28678100  0.12940700  1
  O  O27  1  0.94116000  0.71321900  0.87059300  1
  O  O28  1  0.81458000  0.78071100  0.15077600  1
  O  O29  1  0.31458000  0.21928900  0.84922400  1
  O  O30  1  0.39460100  0.57978800  0.09580300  1
  O  O31  1  0.89460100  0.42021200  0.90419700  1
  O  O32  1  0.94746800  0.91694000  0.32223500  1
  O  O33  1  0.44746800  0.08306000  0.67776500  1
  O  O34  1  0.44229600  0.64930600  0.31828300  1
  O  O35  1  0.94229600  0.35069400  0.68171700  1
