# generated using pymatgen
data_CaAlFe3O7
_symmetry_space_group_name_H-M   'P 1'
_cell_length_a   10.52416900
_cell_length_b   10.71186548
_cell_length_c   11.97805318
_cell_angle_alpha   94.08842380
_cell_angle_beta   111.22119440
_cell_angle_gamma   110.36765264
_symmetry_Int_Tables_number   1
_chemical_formula_structural   CaAlFe3O7
_chemical_formula_sum   'Ca8 Al8 Fe24 O56'
_cell_volume   1149.60188121
_cell_formula_units_Z   8
loop_
 _symmetry_equiv_pos_site_id
 _symmetry_equiv_pos_as_xyz
  1  'x, y, z'
loop_
 _atom_site_type_symbol
 _atom_site_label
 _atom_site_symmetry_multiplicity
 _atom_site_fract_x
 _atom_site_fract_y
 _atom_site_fract_z
 _atom_site_occupancy
  Ca  Ca0  1  0.04549800  0.40050000  0.08457600  1
  Ca  Ca1  1  0.95450200  0.59950000  0.91542400  1
  Ca  Ca2  1  0.59409500  0.15345600  0.16970100  1
  Ca  Ca3  1  0.40590500  0.84654400  0.83029900  1
  Ca  Ca4  1  0.02754600  0.88735700  0.07923800  1
  Ca  Ca5  1  0.97245400  0.11264300  0.92076200  1
  Ca  Ca6  1  0.57891600  0.68138700  0.16714000  1
  Ca  Ca7  1  0.42108400  0.31861300  0.83286000  1
  Al  Al8  1  0.25216400  0.02469700  0.92408200  1
  Al  Al9  1  0.74783600  0.97530300  0.07591800  1
  Al  Al10  1  0.32973300  0.80875700  0.07340200  1
  Al  Al11  1  0.67026700  0.19124300  0.92659800  1
  Al  Al12  1  0.74120800  0.48049000  0.08201800  1
  Al  Al13  1  0.25879200  0.51951000  0.91798200  1
  Al  Al14  1  0.33987300  0.31678200  0.08641400  1
  Al  Al15  1  0.66012700  0.68321800  0.91358600  1
  Fe  Fe16  1  0.67340100  0.46202600  0.34614900  1
  Fe  Fe17  1  0.32659900  0.53797400  0.65385100  1
  Fe  Fe18  1  0.12319100  0.67923500  0.22757500  1
  Fe  Fe19  1  0.87680900  0.32076500  0.77242500  1
  Fe  Fe20  1  0.87305100  0.02089300  0.36509200  1
  Fe  Fe21  1  0.12694900  0.97910700  0.63490800  1
  Fe  Fe22  1  0.50850600  0.08948700  0.63667600  1
  Fe  Fe23  1  0.49149400  0.91051300  0.36332400  1
  Fe  Fe24  1  0.99719400  0.40692900  0.36962900  1
  Fe  Fe25  1  0.00280600  0.59307100  0.63037100  1
  Fe  Fe26  1  0.06957000  0.28740200  0.64481600  1
  Fe  Fe27  1  0.93043000  0.71259800  0.35518400  1
  Fe  Fe28  1  0.42370500  0.21420900  0.35291500  1
  Fe  Fe29  1  0.57629500  0.78579100  0.64708500  1
  Fe  Fe30  1  0.10449200  0.18657300  0.22799400  1
  Fe  Fe31  1  0.89550800  0.81342700  0.77200600  1
  Fe  Fe32  1  0.25703200  0.25569300  0.51308800  1
  Fe  Fe33  1  0.74296800  0.74430700  0.48691200  1
  Fe  Fe34  1  0.81308000  0.03140000  0.62843200  1
  Fe  Fe35  1  0.18692000  0.96860000  0.37156800  1
  Fe  Fe36  1  0.74322800  0.24925200  0.48706300  1
  Fe  Fe37  1  0.25677200  0.75074800  0.51293700  1
  Fe  Fe38  1  0.37303000  0.52874900  0.37043300  1
  Fe  Fe39  1  0.62697000  0.47125100  0.62956700  1
  O  O40  1  0.37525600  0.47603600  0.04495800  1
  O  O41  1  0.62474400  0.52396400  0.95504200  1
  O  O42  1  0.17048700  0.26336500  0.10328500  1
  O  O43  1  0.82951300  0.73663500  0.89671500  1
  O  O44  1  0.23975900  0.56763900  0.24507000  1
  O  O45  1  0.76024100  0.43236100  0.75493000  1
  O  O46  1  0.18798700  0.17381700  0.63807800  1
  O  O47  1  0.81201300  0.82618300  0.36192200  1
  O  O48  1  0.30807400  0.33099800  0.37404200  1
  O  O49  1  0.69192600  0.66900200  0.62595800  1
  O  O50  1  0.79264200  0.34143600  0.35821000  1
  O  O51  1  0.20735800  0.65856400  0.64179000  1
  O  O52  1  0.62069000  0.36690700  0.48103900  1
  O  O53  1  0.37931000  0.63309300  0.51896100  1
  O  O54  1  0.69896500  0.15660900  0.62446400  1
  O  O55  1  0.30103500  0.84339100  0.37553600  1
  O  O56  1  0.13971000  0.37663600  0.51828200  1
  O  O57  1  0.86029000  0.62336400  0.48171800  1
  O  O58  1  0.74391800  0.03119300  0.21747300  1
  O  O59  1  0.25608200  0.96880700  0.78252700  1
  O  O60  1  0.31686700  0.20339200  0.95961300  1
  O  O61  1  0.68313300  0.79660800  0.04038700  1
  O  O62  1  0.06525400  0.60617400  0.37374700  1
  O  O63  1  0.93474600  0.39382600  0.62625300  1
  O  O64  1  0.36956400  0.13191200  0.50029300  1
  O  O65  1  0.63043600  0.86808800  0.49970700  1
  O  O66  1  0.54987600  0.10420500  0.35944500  1
  O  O67  1  0.45012400  0.89579500  0.64055500  1
  O  O68  1  0.07198700  0.45717200  0.90170500  1
  O  O69  1  0.92801300  0.54282800  0.09829500  1
  O  O70  1  0.48210500  0.30925200  0.22526500  1
  O  O71  1  0.51789500  0.69074800  0.77473500  1
  O  O72  1  0.37051400  0.97022200  0.03601000  1
  O  O73  1  0.62948600  0.02977800  0.96399000  1
  O  O74  1  0.86838300  0.13210600  0.49967600  1
  O  O75  1  0.13161700  0.86789400  0.50032400  1
  O  O76  1  0.93211000  0.04521600  0.09024400  1
  O  O77  1  0.06789000  0.95478400  0.90975600  1
  O  O78  1  0.23010800  0.06773800  0.24637800  1
  O  O79  1  0.76989200  0.93226200  0.75362200  1
  O  O80  1  0.00099900  0.30583600  0.24172100  1
  O  O81  1  0.99900100  0.69416400  0.75827900  1
  O  O82  1  0.43467900  0.41248300  0.64118500  1
  O  O83  1  0.56532100  0.58751700  0.35881500  1
  O  O84  1  0.01707500  0.80518400  0.24904900  1
  O  O85  1  0.98292500  0.19481600  0.75095100  1
  O  O86  1  0.07473500  0.09503500  0.37503500  1
  O  O87  1  0.92526500  0.90496500  0.62496500  1
  O  O88  1  0.25799700  0.44505300  0.77568200  1
  O  O89  1  0.74200300  0.55494700  0.22431800  1
  O  O90  1  0.66171300  0.29896600  0.04185900  1
  O  O91  1  0.33828700  0.70103400  0.95814100  1
  O  O92  1  0.53036200  0.18044300  0.78326300  1
  O  O93  1  0.46963800  0.81955700  0.21673700  1
  O  O94  1  0.16009000  0.75260100  0.08970400  1
  O  O95  1  0.83991000  0.24739900  0.91029600  1
