# generated using pymatgen
data_C15BrCl6
_symmetry_space_group_name_H-M   'P 1'
_cell_length_a   12.21822400
_cell_length_b   12.50336906
_cell_length_c   12.61099664
_cell_angle_alpha   119.57244274
_cell_angle_beta   117.08953654
_cell_angle_gamma   84.38848432
_symmetry_Int_Tables_number   1
_chemical_formula_structural   C15BrCl6
_chemical_formula_sum   'C60 Br4 Cl24'
_cell_volume   1471.59060872
_cell_formula_units_Z   4
loop_
 _symmetry_equiv_pos_site_id
 _symmetry_equiv_pos_as_xyz
  1  'x, y, z'
loop_
 _atom_site_type_symbol
 _atom_site_label
 _atom_site_symmetry_multiplicity
 _atom_site_fract_x
 _atom_site_fract_y
 _atom_site_fract_z
 _atom_site_occupancy
  C  C0  1  0.48382700  0.61013200  0.30431700  1
  C  C1  1  0.51617300  0.38986800  0.69568300  1
  C  C2  1  0.34964600  0.41910800  0.14328200  1
  C  C3  1  0.65035400  0.58089200  0.85671800  1
  C  C4  1  0.65894000  0.30544000  0.16128500  1
  C  C5  1  0.34106000  0.69456000  0.83871500  1
  C  C6  1  0.66049500  0.74278800  0.35580200  1
  C  C7  1  0.33950500  0.25721200  0.64419800  1
  C  C8  1  0.82421800  0.62418000  0.30190700  1
  C  C9  1  0.17578200  0.37582000  0.69809300  1
  C  C10  1  0.79583600  0.48290900  0.21920600  1
  C  C11  1  0.20416400  0.51709100  0.78079400  1
  C  C12  1  0.55463300  0.52083300  0.30640800  1
  C  C13  1  0.44536700  0.47916700  0.69359200  1
  C  C14  1  0.82031700  0.61074300  0.08387800  1
  C  C15  1  0.17968300  0.38925700  0.91612200  1
  C  C16  1  0.64977000  0.24383200  0.01853800  1
  C  C17  1  0.35023000  0.75616800  0.98146200  1
  C  C18  1  0.27916000  0.71068600  0.01008500  1
  C  C19  1  0.72084000  0.28931400  0.98991500  1
  C  C20  1  0.47621300  0.39271100  0.22190800  1
  C  C21  1  0.52378700  0.60728900  0.77809200  1
  C  C22  1  0.34573300  0.55778700  0.21908900  1
  C  C23  1  0.65426700  0.44221300  0.78091100  1
  C  C24  1  0.68970800  0.77492300  0.08061500  1
  C  C25  1  0.31029200  0.22507700  0.91938500  1
  C  C26  1  0.47852900  0.83438700  0.08990100  1
  C  C27  1  0.52147100  0.16561300  0.91009900  1
  C  C28  1  0.72376500  0.43772200  0.24763700  1
  C  C29  1  0.27623500  0.56227800  0.75236300  1
  C  C30  1  0.27569800  0.34411200  0.00767800  1
  C  C31  1  0.72430200  0.65588800  0.99232200  1
  C  C32  1  0.55249700  0.77529000  0.01145100  1
  C  C33  1  0.44750300  0.22471000  0.98854900  1
  C  C34  1  0.72715700  0.76438100  0.20709800  1
  C  C35  1  0.27284300  0.23561900  0.79290200  1
  C  C36  1  0.45737200  0.77351100  0.24233800  1
  C  C37  1  0.54262800  0.22648900  0.75766200  1
  C  C38  1  0.66673900  0.82295600  0.29842700  1
  C  C39  1  0.33326100  0.17704400  0.70157300  1
  C  C40  1  0.28197400  0.60364000  0.11957500  1
  C  C41  1  0.71802600  0.39636000  0.88042500  1
  C  C42  1  0.52222500  0.30088900  0.12487300  1
  C  C43  1  0.47777500  0.69911100  0.87512700  1
  C  C44  1  0.81878500  0.40605700  0.09733600  1
  C  C45  1  0.18121500  0.59394300  0.90266400  1
  C  C46  1  0.31920000  0.73328500  0.15358400  1
  C  C47  1  0.68080000  0.26671500  0.84641600  1
  C  C48  1  0.79313900  0.47200700  0.01665700  1
  C  C49  1  0.20686100  0.52799300  0.98334300  1
  C  C50  1  0.79754700  0.67487100  0.20849400  1
  C  C51  1  0.20245300  0.32512900  0.79150600  1
  C  C52  1  0.69185800  0.54044400  0.35494000  1
  C  C53  1  0.30814200  0.45955600  0.64506000  1
  C  C54  1  0.52910500  0.81864700  0.21323300  1
  C  C55  1  0.47089500  0.18135300  0.78676700  1
  C  C56  1  0.73084700  0.65376100  0.35720300  1
  C  C57  1  0.26915300  0.34623900  0.64279700  1
  C  C58  1  0.53448700  0.73896600  0.35169700  1
  C  C59  1  0.46551300  0.26103400  0.64830300  1
  Br  Br60  1  0.83856500  0.89103900  0.86417500  1
  Br  Br61  1  0.16143500  0.10896100  0.13582500  1
  Br  Br62  1  0.92766100  0.88989000  0.73670300  1
  Br  Br63  1  0.07233900  0.11011000  0.26329700  1
  Cl  Cl64  1  0.98609900  0.68032000  0.43979300  1
  Cl  Cl65  1  0.01390100  0.31968000  0.56020700  1
  Cl  Cl66  1  0.97663100  0.36941800  0.15269500  1
  Cl  Cl67  1  0.02336900  0.63058200  0.84730500  1
  Cl  Cl68  1  0.77917600  0.54883400  0.52141900  1
  Cl  Cl69  1  0.22082400  0.45116600  0.47858100  1
  Cl  Cl70  1  0.77789400  0.91355700  0.12290500  1
  Cl  Cl71  1  0.22210600  0.08644300  0.87709500  1
  Cl  Cl72  1  0.47889400  0.99999300  0.14565100  1
  Cl  Cl73  1  0.52110600  0.00000700  0.85434900  1
  Cl  Cl74  1  0.97898300  0.66230300  0.13288800  1
  Cl  Cl75  1  0.02101700  0.33769700  0.86711200  1
  Cl  Cl76  1  0.74649800  0.98272600  0.43323300  1
  Cl  Cl77  1  0.25350200  0.01727400  0.56676700  1
  Cl  Cl78  1  0.27253600  0.59811600  0.32900000  1
  Cl  Cl79  1  0.72746400  0.40188400  0.67100000  1
  Cl  Cl80  1  0.52554300  0.66372100  0.66989800  1
  Cl  Cl81  1  0.47445700  0.33627900  0.33010200  1
  Cl  Cl82  1  0.23769300  0.84707300  0.23758100  1
  Cl  Cl83  1  0.76230700  0.15292700  0.76241900  1
  Cl  Cl84  1  0.53974400  0.84884700  0.51797800  1
  Cl  Cl85  1  0.46025600  0.15115300  0.48202200  1
  Cl  Cl86  1  0.73638500  0.22057900  0.25196200  1
  Cl  Cl87  1  0.26361500  0.77942100  0.74803800  1
