# generated using pymatgen
data_Cd3H28C12(N15O)2
_symmetry_space_group_name_H-M   'P 1'
_cell_length_a   9.87358901
_cell_length_b   9.87358901
_cell_length_c   8.44914487
_cell_angle_alpha   73.78218865
_cell_angle_beta   73.78218865
_cell_angle_gamma   101.05175971
_symmetry_Int_Tables_number   1
_chemical_formula_structural   Cd3H28C12(N15O)2
_chemical_formula_sum   'Cd3 H28 C12 N30 O2'
_cell_volume   726.22110190
_cell_formula_units_Z   1
loop_
 _symmetry_equiv_pos_site_id
 _symmetry_equiv_pos_as_xyz
  1  'x, y, z'
loop_
 _atom_site_type_symbol
 _atom_site_label
 _atom_site_symmetry_multiplicity
 _atom_site_fract_x
 _atom_site_fract_y
 _atom_site_fract_z
 _atom_site_occupancy
  Cd  Cd0  1  0.73130300  0.26254800  0.26127500  1
  Cd  Cd1  1  0.73745200  0.26869700  0.73872500  1
  Cd  Cd2  1  0.15068700  0.84931300  0.00000000  1
  H  H3  1  0.51677000  0.43686000  0.87106400  1
  H  H4  1  0.56314000  0.48323000  0.12893600  1
  H  H5  1  0.22701600  0.86985900  0.26743100  1
  H  H6  1  0.13014100  0.77298400  0.73256900  1
  H  H7  1  0.40986100  0.17149300  0.49062200  1
  H  H8  1  0.82850700  0.59013900  0.50937800  1
  H  H9  1  0.90280500  0.56763300  0.19799300  1
  H  H10  1  0.43236700  0.09719500  0.80200700  1
  H  H11  1  0.22983600  0.11435700  0.51788900  1
  H  H12  1  0.88564300  0.77016400  0.48211100  1
  H  H13  1  0.10053600  0.71695200  0.35922900  1
  H  H14  1  0.28304800  0.89946400  0.64077100  1
  H  H15  1  0.40342900  0.51777100  0.21702500  1
  H  H16  1  0.48222900  0.59657100  0.78297500  1
  H  H17  1  0.51545900  0.75397600  0.44221200  1
  H  H18  1  0.24602400  0.48454100  0.55778800  1
  H  H19  1  0.57170100  0.93616900  0.30405400  1
  H  H20  1  0.06383100  0.42829900  0.69594600  1
  H  H21  1  0.89663300  0.05230600  0.37335900  1
  H  H22  1  0.94769400  0.10336700  0.62664100  1
  H  H23  1  0.63234500  0.94589000  0.00085300  1
  H  H24  1  0.05411000  0.36765500  0.99914700  1
  H  H25  1  0.06670100  0.03676500  0.28010700  1
  H  H26  1  0.96323500  0.93329900  0.71989300  1
  H  H27  1  0.56559700  0.76187900  0.03166800  1
  H  H28  1  0.23812100  0.43440300  0.96833200  1
  H  H29  1  0.84872500  0.71716300  0.13138100  1
  H  H30  1  0.28283700  0.15127500  0.86861900  1
  C  C31  1  0.08880000  0.40329800  0.21068800  1
  C  C32  1  0.59670200  0.91120000  0.78931200  1
  C  C33  1  0.50946000  0.47252000  0.63052000  1
  C  C34  1  0.52748000  0.49054000  0.36948000  1
  C  C35  1  0.38539100  0.11082900  0.04309900  1
  C  C36  1  0.88917100  0.61460900  0.95690100  1
  C  C37  1  0.93900400  0.05140000  0.12954400  1
  C  C38  1  0.94860000  0.06099600  0.87045600  1
  C  C39  1  0.37903700  0.12094800  0.29017500  1
  C  C40  1  0.87905200  0.62096300  0.70982500  1
  C  C41  1  0.59451400  0.90806900  0.54052400  1
  C  C42  1  0.09193100  0.40548600  0.45947600  1
  N  N43  1  0.59920500  0.39223600  0.58576500  1
  N  N44  1  0.60776400  0.40079500  0.41423500  1
  N  N45  1  0.13064900  0.42449700  0.03479600  1
  N  N46  1  0.57550300  0.86935100  0.96520400  1
  N  N47  1  0.18451100  0.43329800  0.29326400  1
  N  N48  1  0.56670200  0.81548900  0.70673600  1
  N  N49  1  0.85814300  0.13893900  0.08361700  1
  N  N50  1  0.86106100  0.14185700  0.91638300  1
  N  N51  1  0.64169300  0.05169800  0.51794200  1
  N  N52  1  0.94830200  0.35830700  0.48205800  1
  N  N53  1  0.51390600  0.53660400  0.20501200  1
  N  N54  1  0.46339600  0.48609400  0.79498800  1
  N  N55  1  0.52312100  0.17884800  0.01891600  1
  N  N56  1  0.82115200  0.47687900  0.98108400  1
  N  N57  1  0.64066900  0.05422000  0.68436200  1
  N  N58  1  0.94578000  0.35933100  0.31563800  1
  N  N59  1  0.95695800  0.00946500  0.29150000  1
  N  N60  1  0.99053500  0.04304200  0.70850000  1
  N  N61  1  0.28930400  0.06977100  0.21046100  1
  N  N62  1  0.93022900  0.71069600  0.78953900  1
  N  N63  1  0.33230900  0.10135900  0.46871100  1
  N  N64  1  0.89864100  0.66769100  0.53128900  1
  N  N65  1  0.91956900  0.65970600  0.09175100  1
  N  N66  1  0.34029400  0.08043100  0.90824900  1
  N  N67  1  0.58054000  0.85996900  0.40686000  1
  N  N68  1  0.14003100  0.41946000  0.59314000  1
  N  N69  1  0.46267600  0.53732400  0.50000000  1
  N  N70  1  0.99935200  0.00064800  0.00000000  1
  N  N71  1  0.51973000  0.18525300  0.18225900  1
  N  N72  1  0.81474700  0.48027000  0.81774100  1
  O  O73  1  0.19384000  0.77152700  0.25689700  1
  O  O74  1  0.22847300  0.80616000  0.74310300  1
