# generated using pymatgen
data_Ca2InP3H4O13
_symmetry_space_group_name_H-M   'P 1'
_cell_length_a   7.60782354
_cell_length_b   8.89735153
_cell_length_c   9.41897798
_cell_angle_alpha   80.28041956
_cell_angle_beta   66.74122927
_cell_angle_gamma   64.68889290
_symmetry_Int_Tables_number   1
_chemical_formula_structural   Ca2InP3H4O13
_chemical_formula_sum   'Ca4 In2 P6 H8 O26'
_cell_volume   529.51894844
_cell_formula_units_Z   2
loop_
 _symmetry_equiv_pos_site_id
 _symmetry_equiv_pos_as_xyz
  1  'x, y, z'
loop_
 _atom_site_type_symbol
 _atom_site_label
 _atom_site_symmetry_multiplicity
 _atom_site_fract_x
 _atom_site_fract_y
 _atom_site_fract_z
 _atom_site_occupancy
  Ca  Ca0  1  0.27705700  0.98527800  0.43771700  1
  Ca  Ca1  1  0.72294300  0.01472200  0.56228300  1
  Ca  Ca2  1  0.73766500  0.98527800  0.06228300  1
  Ca  Ca3  1  0.26233500  0.01472200  0.93771700  1
  In  In4  1  0.50000000  0.50000000  0.50000000  1
  In  In5  1  0.00000000  0.50000000  0.00000000  1
  P  P6  1  0.52413500  0.29499000  0.85038200  1
  P  P7  1  0.47586500  0.70501000  0.14961800  1
  P  P8  1  0.18087400  0.29499000  0.64961800  1
  P  P9  1  0.81912600  0.70501000  0.35038200  1
  P  P10  1  0.09921900  0.80156200  0.75000000  1
  P  P11  1  0.90078100  0.19843800  0.25000000  1
  H  H12  1  0.70123600  0.37232800  0.94559400  1
  H  H13  1  0.29876400  0.62767200  0.05440600  1
  H  H14  1  0.92643600  0.37232800  0.55440600  1
  H  H15  1  0.07356400  0.62767200  0.44559400  1
  H  H16  1  0.54978600  0.73929500  0.71399000  1
  H  H17  1  0.45021400  0.26070500  0.28601000  1
  H  H18  1  0.71091900  0.73929500  0.78601000  1
  H  H19  1  0.28908100  0.26070500  0.21399000  1
  O  O20  1  0.59389000  0.32009800  0.67355200  1
  O  O21  1  0.40611000  0.67990200  0.32644800  1
  O  O22  1  0.08601200  0.32009800  0.82644800  1
  O  O23  1  0.91398800  0.67990200  0.17355200  1
  O  O24  1  0.33826600  0.69753900  0.66530100  1
  O  O25  1  0.66173400  0.30246100  0.33469900  1
  O  O26  1  0.96419400  0.69753900  0.83469900  1
  O  O27  1  0.03580600  0.30246100  0.16530100  1
  O  O28  1  0.32906600  0.44291100  0.94337300  1
  O  O29  1  0.67093400  0.55708900  0.05662700  1
  O  O30  1  0.22802300  0.44291100  0.55662700  1
  O  O31  1  0.77197700  0.55708900  0.44337300  1
  O  O32  1  0.07777100  0.90924100  0.87179200  1
  O  O33  1  0.92222900  0.09075900  0.12820800  1
  O  O34  1  0.01298900  0.90924100  0.62820800  1
  O  O35  1  0.98701100  0.09075900  0.37179200  1
  O  O36  1  0.70339300  0.27266200  0.91099400  1
  O  O37  1  0.29660700  0.72733800  0.08900600  1
  O  O38  1  0.02394500  0.27266200  0.58900600  1
  O  O39  1  0.97605500  0.72733800  0.41099400  1
  O  O40  1  0.59522400  0.80955200  0.75000000  1
  O  O41  1  0.40477600  0.19044800  0.25000000  1
  O  O42  1  0.51603900  0.12281300  0.88551600  1
  O  O43  1  0.48396100  0.87718700  0.11448400  1
  O  O44  1  0.36114800  0.12281300  0.61448400  1
  O  O45  1  0.63885200  0.87718700  0.38551600  1
