# generated using pymatgen
data_C8Cl4O3
_symmetry_space_group_name_H-M   'P 1'
_cell_length_a   5.94215000
_cell_length_b   12.88140000
_cell_length_c   18.40119863
_cell_angle_alpha   49.03548998
_cell_angle_beta   90.00000000
_cell_angle_gamma   90.00000000
_symmetry_Int_Tables_number   1
_chemical_formula_structural   C8Cl4O3
_chemical_formula_sum   'C32 Cl16 O12'
_cell_volume   1063.57067254
_cell_formula_units_Z   4
loop_
 _symmetry_equiv_pos_site_id
 _symmetry_equiv_pos_as_xyz
  1  'x, y, z'
loop_
 _atom_site_type_symbol
 _atom_site_label
 _atom_site_symmetry_multiplicity
 _atom_site_fract_x
 _atom_site_fract_y
 _atom_site_fract_z
 _atom_site_occupancy
  C  C0  1  0.64355500  0.80277600  0.27538700  1
  C  C1  1  0.35644500  0.19722400  0.72461300  1
  C  C2  1  0.14355500  0.19722400  0.22461300  1
  C  C3  1  0.85644500  0.80277600  0.77538700  1
  C  C4  1  0.36813300  0.69675900  0.21522500  1
  C  C5  1  0.63186700  0.30324100  0.78477500  1
  C  C6  1  0.86813300  0.30324100  0.28477500  1
  C  C7  1  0.13186700  0.69675900  0.71522500  1
  C  C8  1  0.76205500  0.83862100  0.32696700  1
  C  C9  1  0.23794500  0.16137900  0.67303300  1
  C  C10  1  0.26205500  0.16137900  0.17303300  1
  C  C11  1  0.73794500  0.83862100  0.82696700  1
  C  C12  1  0.55021100  0.78444800  0.15708700  1
  C  C13  1  0.44978900  0.21555200  0.84291300  1
  C  C14  1  0.05021100  0.21555200  0.34291300  1
  C  C15  1  0.94978900  0.78444800  0.65708700  1
  C  C16  1  0.82402500  0.33932500  0.19503500  1
  C  C17  1  0.17597500  0.66067500  0.80496500  1
  C  C18  1  0.32402500  0.66067500  0.30496500  1
  C  C19  1  0.67597500  0.33932500  0.69503500  1
  C  C20  1  0.46623700  0.71426200  0.33355400  1
  C  C21  1  0.53376300  0.28573800  0.66644600  1
  C  C22  1  0.96623700  0.28573800  0.16644600  1
  C  C23  1  0.03376300  0.71426200  0.83355400  1
  C  C24  1  0.68839400  0.84080700  0.18638600  1
  C  C25  1  0.31160600  0.15919300  0.81361400  1
  C  C26  1  0.18839400  0.15919300  0.31361400  1
  C  C27  1  0.81160600  0.84080700  0.68638600  1
  C  C28  1  0.96948300  0.30734500  0.07700000  1
  C  C29  1  0.03051700  0.69265500  0.92300000  1
  C  C30  1  0.46948300  0.69265500  0.42300000  1
  C  C31  1  0.53051700  0.30734500  0.57700000  1
  Cl  Cl32  1  0.90186700  0.95112900  0.11483200  1
  Cl  Cl33  1  0.09813300  0.04887100  0.88516800  1
  Cl  Cl34  1  0.40186700  0.04887100  0.38516800  1
  Cl  Cl35  1  0.59813300  0.95112900  0.61483200  1
  Cl  Cl36  1  0.60454800  0.82076600  0.05152200  1
  Cl  Cl37  1  0.39545200  0.17923400  0.94847800  1
  Cl  Cl38  1  0.10454800  0.17923400  0.44847800  1
  Cl  Cl39  1  0.89545200  0.82076600  0.55152200  1
  Cl  Cl40  1  0.60534500  0.44562000  0.12473900  1
  Cl  Cl41  1  0.39465500  0.55438000  0.87526100  1
  Cl  Cl42  1  0.10534500  0.55438000  0.37526100  1
  Cl  Cl43  1  0.89465500  0.44562000  0.62473900  1
  Cl  Cl44  1  0.70054300  0.36535600  0.32395100  1
  Cl  Cl45  1  0.29945700  0.63464400  0.67604900  1
  Cl  Cl46  1  0.20054300  0.63464400  0.17604900  1
  Cl  Cl47  1  0.79945700  0.36535600  0.82395100  1
  O  O48  1  0.85292700  0.37674100  0.00568800  1
  O  O49  1  0.14707300  0.62325900  0.99431200  1
  O  O50  1  0.35292700  0.62325900  0.49431200  1
  O  O51  1  0.64707300  0.37674100  0.50568800  1
  O  O52  1  0.64954200  0.77074800  0.41504100  1
  O  O53  1  0.35045800  0.22925200  0.58495900  1
  O  O54  1  0.14954200  0.22925200  0.08495900  1
  O  O55  1  0.85045800  0.77074800  0.91504100  1
  O  O56  1  0.92654400  0.90847000  0.30657500  1
  O  O57  1  0.07345600  0.09153000  0.69342500  1
  O  O58  1  0.42654400  0.09153000  0.19342500  1
  O  O59  1  0.57345600  0.90847000  0.80657500  1
