# generated using pymatgen
data_CaH6C6(ClO4)2
_symmetry_space_group_name_H-M   'P 1'
_cell_length_a   10.18891894
_cell_length_b   10.18891894
_cell_length_c   6.58260009
_cell_angle_alpha   82.55817730
_cell_angle_beta   82.55817730
_cell_angle_gamma   113.86011680
_symmetry_Int_Tables_number   1
_chemical_formula_structural   CaH6C6(ClO4)2
_chemical_formula_sum   'Ca2 H12 C12 Cl4 O16'
_cell_volume   607.10246913
_cell_formula_units_Z   2
loop_
 _symmetry_equiv_pos_site_id
 _symmetry_equiv_pos_as_xyz
  1  'x, y, z'
loop_
 _atom_site_type_symbol
 _atom_site_label
 _atom_site_symmetry_multiplicity
 _atom_site_fract_x
 _atom_site_fract_y
 _atom_site_fract_z
 _atom_site_occupancy
  Ca  Ca0  1  0.80694500  0.80694500  0.13531900  1
  Ca  Ca1  1  0.19305500  0.19305500  0.86468100  1
  H  H2  1  0.07661000  0.98557800  0.29139400  1
  H  H3  1  0.92339000  0.01442200  0.70860600  1
  H  H4  1  0.01442200  0.92339000  0.70860600  1
  H  H5  1  0.98557800  0.07661000  0.29139400  1
  H  H6  1  0.79330700  0.09576500  0.44177100  1
  H  H7  1  0.20669300  0.90423500  0.55822900  1
  H  H8  1  0.90423500  0.20669300  0.55822900  1
  H  H9  1  0.09576500  0.79330700  0.44177100  1
  H  H10  1  0.67520500  0.76534900  0.60718800  1
  H  H11  1  0.32479500  0.23465100  0.39281200  1
  H  H12  1  0.23465100  0.32479500  0.39281200  1
  H  H13  1  0.76534900  0.67520500  0.60718800  1
  C  C14  1  0.60951800  0.99496800  0.11838700  1
  C  C15  1  0.39048200  0.00503200  0.88161300  1
  C  C16  1  0.00503200  0.39048200  0.88161300  1
  C  C17  1  0.99496800  0.60951800  0.11838700  1
  C  C18  1  0.54386200  0.09076300  0.15321500  1
  C  C19  1  0.45613800  0.90923700  0.84678500  1
  C  C20  1  0.90923700  0.45613800  0.84678500  1
  C  C21  1  0.09076300  0.54386200  0.15321500  1
  C  C22  1  0.43461200  0.09894100  0.04703400  1
  C  C23  1  0.56538800  0.90105900  0.95296600  1
  C  C24  1  0.90105900  0.56538800  0.95296600  1
  C  C25  1  0.09894100  0.43461200  0.04703400  1
  Cl  Cl26  1  0.59690800  0.20060600  0.33242100  1
  Cl  Cl27  1  0.40309200  0.79939400  0.66757900  1
  Cl  Cl28  1  0.79939400  0.40309200  0.66757900  1
  Cl  Cl29  1  0.20060600  0.59690800  0.33242100  1
  O  O30  1  0.70479100  0.98130300  0.21337800  1
  O  O31  1  0.29520900  0.01869700  0.78662200  1
  O  O32  1  0.01869700  0.29520900  0.78662200  1
  O  O33  1  0.98130300  0.70479100  0.21337800  1
  O  O34  1  0.97437700  0.97437700  0.79965500  1
  O  O35  1  0.02562300  0.02562300  0.20034500  1
  O  O36  1  0.74807100  0.74807100  0.51632600  1
  O  O37  1  0.25192900  0.25192900  0.48367400  1
  O  O38  1  0.58432700  0.58432700  0.25017300  1
  O  O39  1  0.41567300  0.41567300  0.74982700  1
  O  O40  1  0.88219000  0.11781000  0.50000000  1
  O  O41  1  0.11781000  0.88219000  0.50000000  1
  O  O42  1  0.36807500  0.17761900  0.07986400  1
  O  O43  1  0.63192500  0.82238100  0.92013600  1
  O  O44  1  0.82238100  0.63192500  0.92013600  1
  O  O45  1  0.17761900  0.36807500  0.07986400  1
