# generated using pymatgen
data_Ca(SO5)2
_symmetry_space_group_name_H-M   'P 1'
_cell_length_a   6.72206024
_cell_length_b   6.72206024
_cell_length_c   16.89209200
_cell_angle_alpha   90.00000000
_cell_angle_beta   90.00000000
_cell_angle_gamma   120.00000234
_symmetry_Int_Tables_number   1
_chemical_formula_structural   Ca(SO5)2
_chemical_formula_sum   'Ca3 S6 O30'
_cell_volume   661.02648337
_cell_formula_units_Z   3
loop_
 _symmetry_equiv_pos_site_id
 _symmetry_equiv_pos_as_xyz
  1  'x, y, z'
loop_
 _atom_site_type_symbol
 _atom_site_label
 _atom_site_symmetry_multiplicity
 _atom_site_fract_x
 _atom_site_fract_y
 _atom_site_fract_z
 _atom_site_occupancy
  Ca  Ca0  1  0.00000000  0.00000000  0.99955600  1
  Ca  Ca1  1  0.00000000  0.00000000  0.33289000  1
  Ca  Ca2  1  0.00000000  0.00000000  0.66622300  1
  S  S3  1  0.60009400  0.69293200  0.50058500  1
  S  S4  1  0.09283800  0.39990600  0.83391900  1
  S  S5  1  0.39990600  0.30706800  0.50058500  1
  S  S6  1  0.30706800  0.90716200  0.16725200  1
  S  S7  1  0.90716200  0.60009400  0.83391900  1
  S  S8  1  0.69293200  0.09283800  0.16725200  1
  O  O9  1  0.33245200  0.57173000  0.83868000  1
  O  O10  1  0.23927900  0.66754800  0.17201300  1
  O  O11  1  0.66754800  0.42827000  0.83868000  1
  O  O12  1  0.42827000  0.76072100  0.50534600  1
  O  O13  1  0.76072100  0.33245200  0.17201300  1
  O  O14  1  0.57173000  0.23927900  0.50534600  1
  O  O15  1  0.49796400  0.68301700  0.00173800  1
  O  O16  1  0.18505400  0.50203600  0.33507200  1
  O  O17  1  0.50203600  0.31698300  0.00173800  1
  O  O18  1  0.31698300  0.81494600  0.66840500  1
  O  O19  1  0.81494600  0.49796400  0.33507200  1
  O  O20  1  0.68301700  0.18505400  0.66840500  1
  O  O21  1  0.99305600  0.24756900  0.90391900  1
  O  O22  1  0.25451300  0.00694400  0.23725300  1
  O  O23  1  0.00694400  0.75243100  0.90391900  1
  O  O24  1  0.75243100  0.74548700  0.57058600  1
  O  O25  1  0.74548700  0.99305600  0.23725300  1
  O  O26  1  0.24756900  0.25451300  0.57058600  1
  O  O27  1  0.02561100  0.26061400  0.76045600  1
  O  O28  1  0.23500300  0.97438900  0.09378900  1
  O  O29  1  0.97438900  0.73938600  0.76045600  1
  O  O30  1  0.73938600  0.76499700  0.42712300  1
  O  O31  1  0.76499700  0.02561100  0.09378900  1
  O  O32  1  0.26061400  0.23500300  0.42712300  1
  O  O33  1  0.49828900  0.81513400  0.67553300  1
  O  O34  1  0.31684500  0.50171100  0.00886700  1
  O  O35  1  0.50171100  0.18486600  0.67553300  1
  O  O36  1  0.18486600  0.68315500  0.34220000  1
  O  O37  1  0.68315500  0.49828900  0.00886700  1
  O  O38  1  0.81513400  0.31684500  0.34220000  1
