# generated using pymatgen
data_Cs2Mn2Cr3O12
_symmetry_space_group_name_H-M   'P 1'
_cell_length_a   10.85157800
_cell_length_b   10.85157800
_cell_length_c   10.85157800
_cell_angle_alpha   90.00000000
_cell_angle_beta   90.00000000
_cell_angle_gamma   90.00000000
_symmetry_Int_Tables_number   1
_chemical_formula_structural   Cs2Mn2Cr3O12
_chemical_formula_sum   'Cs8 Mn8 Cr12 O48'
_cell_volume   1277.84650437
_cell_formula_units_Z   4
loop_
 _symmetry_equiv_pos_site_id
 _symmetry_equiv_pos_as_xyz
  1  'x, y, z'
loop_
 _atom_site_type_symbol
 _atom_site_label
 _atom_site_symmetry_multiplicity
 _atom_site_fract_x
 _atom_site_fract_y
 _atom_site_fract_z
 _atom_site_occupancy
  Cs  Cs0  1  0.05023200  0.05023200  0.05023200  1
  Cs  Cs1  1  0.44976800  0.94976800  0.55023200  1
  Cs  Cs2  1  0.94976800  0.55023200  0.44976800  1
  Cs  Cs3  1  0.55023200  0.44976800  0.94976800  1
  Cs  Cs4  1  0.81830700  0.81830700  0.81830700  1
  Cs  Cs5  1  0.68169300  0.18169300  0.31830700  1
  Cs  Cs6  1  0.18169300  0.31830700  0.68169300  1
  Cs  Cs7  1  0.31830700  0.68169300  0.18169300  1
  Mn  Mn8  1  0.33634300  0.33634300  0.33634300  1
  Mn  Mn9  1  0.16365700  0.66365700  0.83634300  1
  Mn  Mn10  1  0.66365700  0.83634300  0.16365700  1
  Mn  Mn11  1  0.83634300  0.16365700  0.66365700  1
  Mn  Mn12  1  0.60110300  0.60110300  0.60110300  1
  Mn  Mn13  1  0.89889700  0.39889700  0.10110300  1
  Mn  Mn14  1  0.39889700  0.10110300  0.89889700  1
  Mn  Mn15  1  0.10110300  0.89889700  0.39889700  1
  Cr  Cr16  1  0.01991200  0.21435600  0.37671100  1
  Cr  Cr17  1  0.48008800  0.78564400  0.87671100  1
  Cr  Cr18  1  0.98008800  0.71435600  0.12328900  1
  Cr  Cr19  1  0.37671100  0.01991200  0.21435600  1
  Cr  Cr20  1  0.51991200  0.28564400  0.62328900  1
  Cr  Cr21  1  0.87671100  0.48008800  0.78564400  1
  Cr  Cr22  1  0.12328900  0.98008800  0.71435600  1
  Cr  Cr23  1  0.62328900  0.51991200  0.28564400  1
  Cr  Cr24  1  0.21435600  0.37671100  0.01991200  1
  Cr  Cr25  1  0.71435600  0.12328900  0.98008800  1
  Cr  Cr26  1  0.28564400  0.62328900  0.51991200  1
  Cr  Cr27  1  0.78564400  0.87671100  0.48008800  1
  O  O28  1  0.01723500  0.06677700  0.33289900  1
  O  O29  1  0.48276500  0.93322300  0.83289900  1
  O  O30  1  0.98276500  0.56677700  0.16710100  1
  O  O31  1  0.33289900  0.01723500  0.06677700  1
  O  O32  1  0.51723500  0.43322300  0.66710100  1
  O  O33  1  0.83289900  0.48276500  0.93322300  1
  O  O34  1  0.16710100  0.98276500  0.56677700  1
  O  O35  1  0.66710100  0.51723500  0.43322300  1
  O  O36  1  0.06677700  0.33289900  0.01723500  1
  O  O37  1  0.56677700  0.16710100  0.98276500  1
  O  O38  1  0.43322300  0.66710100  0.51723500  1
  O  O39  1  0.93322300  0.83289900  0.48276500  1
  O  O40  1  0.26860700  0.49318300  0.43878900  1
  O  O41  1  0.23139300  0.50681700  0.93878900  1
  O  O42  1  0.73139300  0.99318300  0.06121100  1
  O  O43  1  0.43878900  0.26860700  0.49318300  1
  O  O44  1  0.76860700  0.00681700  0.56121100  1
  O  O45  1  0.93878900  0.23139300  0.50681700  1
  O  O46  1  0.06121100  0.73139300  0.99318300  1
  O  O47  1  0.56121100  0.76860700  0.00681700  1
  O  O48  1  0.49318300  0.43878900  0.26860700  1
  O  O49  1  0.99318300  0.06121100  0.73139300  1
  O  O50  1  0.00681700  0.56121100  0.76860700  1
  O  O51  1  0.50681700  0.93878900  0.23139300  1
  O  O52  1  0.04491600  0.80176900  0.23220800  1
  O  O53  1  0.45508400  0.19823100  0.73220800  1
  O  O54  1  0.95508400  0.30176900  0.26779200  1
  O  O55  1  0.23220800  0.04491600  0.80176900  1
  O  O56  1  0.54491600  0.69823100  0.76779200  1
  O  O57  1  0.73220800  0.45508400  0.19823100  1
  O  O58  1  0.26779200  0.95508400  0.30176900  1
  O  O59  1  0.76779200  0.54491600  0.69823100  1
  O  O60  1  0.80176900  0.23220800  0.04491600  1
  O  O61  1  0.30176900  0.26779200  0.95508400  1
  O  O62  1  0.69823100  0.76779200  0.54491600  1
  O  O63  1  0.19823100  0.73220800  0.45508400  1
  O  O64  1  0.16436100  0.26026400  0.39952500  1
  O  O65  1  0.33563900  0.73973600  0.89952500  1
  O  O66  1  0.83563900  0.76026400  0.10047500  1
  O  O67  1  0.39952500  0.16436100  0.26026400  1
  O  O68  1  0.66436100  0.23973600  0.60047500  1
  O  O69  1  0.89952500  0.33563900  0.73973600  1
  O  O70  1  0.10047500  0.83563900  0.76026400  1
  O  O71  1  0.60047500  0.66436100  0.23973600  1
  O  O72  1  0.26026400  0.39952500  0.16436100  1
  O  O73  1  0.76026400  0.10047500  0.83563900  1
  O  O74  1  0.23973600  0.60047500  0.66436100  1
  O  O75  1  0.73973600  0.89952500  0.33563900  1
