# generated using pymatgen
data_C4NCl2
_symmetry_space_group_name_H-M   'P 1'
_cell_length_a   19.54504500
_cell_length_b   6.99140600
_cell_length_c   9.32245296
_cell_angle_alpha   85.96168655
_cell_angle_beta   90.00000000
_cell_angle_gamma   90.00000000
_symmetry_Int_Tables_number   1
_chemical_formula_structural   C4NCl2
_chemical_formula_sum   'C32 N8 Cl16'
_cell_volume   1270.72561080
_cell_formula_units_Z   8
loop_
 _symmetry_equiv_pos_site_id
 _symmetry_equiv_pos_as_xyz
  1  'x, y, z'
loop_
 _atom_site_type_symbol
 _atom_site_label
 _atom_site_symmetry_multiplicity
 _atom_site_fract_x
 _atom_site_fract_y
 _atom_site_fract_z
 _atom_site_occupancy
  C  C0  1  0.67839400  0.11449000  0.22648000  1
  C  C1  1  0.32160600  0.88551000  0.77352000  1
  C  C2  1  0.17839400  0.88551000  0.27352000  1
  C  C3  1  0.82160600  0.11449000  0.72648000  1
  C  C4  1  0.12349700  0.16339200  0.14913100  1
  C  C5  1  0.87650300  0.83660800  0.85086900  1
  C  C6  1  0.62349700  0.83660800  0.35086900  1
  C  C7  1  0.37650300  0.16339200  0.64913100  1
  C  C8  1  0.05927500  0.09261300  0.19616800  1
  C  C9  1  0.94072500  0.90738700  0.80383200  1
  C  C10  1  0.55927500  0.90738700  0.30383200  1
  C  C11  1  0.44072500  0.09261300  0.69616800  1
  C  C12  1  0.55413400  0.08174700  0.21925800  1
  C  C13  1  0.44586600  0.91825300  0.78074200  1
  C  C14  1  0.05413400  0.91825300  0.28074200  1
  C  C15  1  0.94586600  0.08174700  0.71925800  1
  C  C16  1  0.61395700  0.18351200  0.17819200  1
  C  C17  1  0.38604300  0.81648800  0.82180800  1
  C  C18  1  0.11395700  0.81648800  0.32180800  1
  C  C19  1  0.88604300  0.18351200  0.67819200  1
  C  C20  1  0.12801400  0.33934800  0.06302700  1
  C  C21  1  0.87198600  0.66065200  0.93697300  1
  C  C22  1  0.62801400  0.66065200  0.43697300  1
  C  C23  1  0.37198600  0.33934800  0.56302700  1
  C  C24  1  0.18375800  0.05873600  0.18773200  1
  C  C25  1  0.81624200  0.94126400  0.81226800  1
  C  C26  1  0.68375800  0.94126400  0.31226800  1
  C  C27  1  0.31624200  0.05873600  0.68773200  1
  C  C28  1  0.24899400  0.13072700  0.14102400  1
  C  C29  1  0.75100600  0.86927300  0.85897600  1
  C  C30  1  0.74899400  0.86927300  0.35897600  1
  C  C31  1  0.25100600  0.13072700  0.64102400  1
  N  N32  1  0.36741100  0.48400200  0.49256800  1
  N  N33  1  0.63258900  0.51599800  0.50743200  1
  N  N34  1  0.86741100  0.51599800  0.00743200  1
  N  N35  1  0.13258900  0.48400200  0.99256800  1
  N  N36  1  0.30167600  0.19343900  0.10163500  1
  N  N37  1  0.69832400  0.80656100  0.89836500  1
  N  N38  1  0.80167500  0.80656100  0.39836500  1
  N  N39  1  0.19832400  0.19343900  0.60163500  1
  Cl  Cl40  1  0.75065900  0.24020400  0.18031900  1
  Cl  Cl41  1  0.24934100  0.75979600  0.81968100  1
  Cl  Cl42  1  0.25065900  0.75979600  0.31968100  1
  Cl  Cl43  1  0.74934100  0.24020400  0.68031900  1
  Cl  Cl44  1  0.51259100  0.22119900  0.65056600  1
  Cl  Cl45  1  0.48740900  0.77880100  0.34943400  1
  Cl  Cl46  1  0.01259100  0.77880100  0.84943400  1
  Cl  Cl47  1  0.98740900  0.22119900  0.15056600  1
  Cl  Cl48  1  0.60863300  0.38875900  0.06932800  1
  Cl  Cl49  1  0.39136700  0.61124100  0.93067200  1
  Cl  Cl50  1  0.10863300  0.61124100  0.43067200  1
  Cl  Cl51  1  0.89136700  0.38875900  0.56932800  1
  Cl  Cl52  1  0.47564500  0.16824100  0.16867700  1
  Cl  Cl53  1  0.52435500  0.83175900  0.83132300  1
  Cl  Cl54  1  0.97564500  0.83175900  0.33132300  1
  Cl  Cl55  1  0.02435500  0.16824100  0.66867700  1
