# generated using pymatgen
data_Bi2SeO7
_symmetry_space_group_name_H-M   'P 1'
_cell_length_a   6.01366926
_cell_length_b   8.40771890
_cell_length_c   13.08243600
_cell_angle_alpha   90.00000000
_cell_angle_beta   90.00000000
_cell_angle_gamma   112.02793998
_symmetry_Int_Tables_number   1
_chemical_formula_structural   Bi2SeO7
_chemical_formula_sum   'Bi8 Se4 O28'
_cell_volume   613.17801641
_cell_formula_units_Z   4
loop_
 _symmetry_equiv_pos_site_id
 _symmetry_equiv_pos_as_xyz
  1  'x, y, z'
loop_
 _atom_site_type_symbol
 _atom_site_label
 _atom_site_symmetry_multiplicity
 _atom_site_fract_x
 _atom_site_fract_y
 _atom_site_fract_z
 _atom_site_occupancy
  Bi  Bi0  1  0.44480500  0.04460000  0.13395400  1
  Bi  Bi1  1  0.55519500  0.95540000  0.86604600  1
  Bi  Bi2  1  0.05519500  0.95540000  0.63395400  1
  Bi  Bi3  1  0.94480500  0.04460000  0.36604600  1
  Bi  Bi4  1  0.20556500  0.71412800  0.37740200  1
  Bi  Bi5  1  0.79443500  0.28587200  0.62259800  1
  Bi  Bi6  1  0.29443500  0.28587200  0.87740200  1
  Bi  Bi7  1  0.70556500  0.71412800  0.12259800  1
  Se  Se8  1  0.08145500  0.37182300  0.13924900  1
  Se  Se9  1  0.91854500  0.62817700  0.86075100  1
  Se  Se10  1  0.41854500  0.62817700  0.63924900  1
  Se  Se11  1  0.58145500  0.37182300  0.36075100  1
  O  O12  1  0.93021400  0.12215800  0.53509900  1
  O  O13  1  0.06978600  0.87784200  0.46490100  1
  O  O14  1  0.56978600  0.87784200  0.03509900  1
  O  O15  1  0.43021400  0.12215800  0.96490100  1
  O  O16  1  0.42882300  0.11442700  0.59764400  1
  O  O17  1  0.57117700  0.88557300  0.40235600  1
  O  O18  1  0.07117700  0.88557300  0.09764400  1
  O  O19  1  0.92882300  0.11442700  0.90235600  1
  O  O20  1  0.31369100  0.29072700  0.41757500  1
  O  O21  1  0.68630900  0.70927300  0.58242500  1
  O  O22  1  0.18630900  0.70927300  0.91757500  1
  O  O23  1  0.81369100  0.29072700  0.08242500  1
  O  O24  1  0.13505300  0.22477500  0.21202800  1
  O  O25  1  0.86494700  0.77522500  0.78797200  1
  O  O26  1  0.36494700  0.77522500  0.71202800  1
  O  O27  1  0.63505300  0.22477500  0.28797200  1
  O  O28  1  0.11618500  0.55275000  0.20198300  1
  O  O29  1  0.88381500  0.44725000  0.79801700  1
  O  O30  1  0.38381500  0.44725000  0.70198300  1
  O  O31  1  0.61618500  0.55275000  0.29801700  1
  O  O32  1  0.29919400  0.42343200  0.04944300  1
  O  O33  1  0.70080600  0.57656800  0.95055700  1
  O  O34  1  0.20080600  0.57656800  0.54944300  1
  O  O35  1  0.79919400  0.42343200  0.45055700  1
  O  O36  1  0.36822200  0.09702700  0.76959500  1
  O  O37  1  0.63177800  0.90297300  0.23040500  1
  O  O38  1  0.13177800  0.90297300  0.26959500  1
  O  O39  1  0.86822200  0.09702700  0.73040500  1
