# generated using pymatgen
data_Cr4(P2O7)3
_symmetry_space_group_name_H-M   'P 1'
_cell_length_a   7.54620400
_cell_length_b   9.62611200
_cell_length_c   21.67048800
_cell_angle_alpha   90.00000000
_cell_angle_beta   90.00000000
_cell_angle_gamma   90.00000000
_symmetry_Int_Tables_number   1
_chemical_formula_structural   Cr4(P2O7)3
_chemical_formula_sum   'Cr16 P24 O84'
_cell_volume   1574.15735634
_cell_formula_units_Z   4
loop_
 _symmetry_equiv_pos_site_id
 _symmetry_equiv_pos_as_xyz
  1  'x, y, z'
loop_
 _atom_site_type_symbol
 _atom_site_label
 _atom_site_symmetry_multiplicity
 _atom_site_fract_x
 _atom_site_fract_y
 _atom_site_fract_z
 _atom_site_occupancy
  Cr  Cr0  1  0.55589500  0.23845100  0.00334800  1
  Cr  Cr1  1  0.44410500  0.76154900  0.99665200  1
  Cr  Cr2  1  0.44410500  0.73845100  0.49665200  1
  Cr  Cr3  1  0.05589500  0.76154900  0.99665200  1
  Cr  Cr4  1  0.55589500  0.26154900  0.50334800  1
  Cr  Cr5  1  0.94410500  0.23845100  0.00334800  1
  Cr  Cr6  1  0.94410500  0.26154900  0.50334800  1
  Cr  Cr7  1  0.05589500  0.73845100  0.49665200  1
  Cr  Cr8  1  0.05561200  0.22055800  0.25582800  1
  Cr  Cr9  1  0.94438800  0.77944200  0.74417200  1
  Cr  Cr10  1  0.94438800  0.72055800  0.24417200  1
  Cr  Cr11  1  0.55561200  0.77944200  0.74417200  1
  Cr  Cr12  1  0.05561200  0.27944200  0.75582800  1
  Cr  Cr13  1  0.44438800  0.22055800  0.25582800  1
  Cr  Cr14  1  0.44438800  0.27944200  0.75582800  1
  Cr  Cr15  1  0.55561200  0.72055800  0.24417200  1
  P  P16  1  0.25000000  0.65771300  0.35729600  1
  P  P17  1  0.75000000  0.34228700  0.64270400  1
  P  P18  1  0.75000000  0.15771300  0.14270400  1
  P  P19  1  0.25000000  0.84228700  0.85729600  1
  P  P20  1  0.25000000  0.03083900  0.06062200  1
  P  P21  1  0.75000000  0.96916100  0.93937800  1
  P  P22  1  0.75000000  0.53083900  0.43937800  1
  P  P23  1  0.25000000  0.46916100  0.56062200  1
  P  P24  1  0.25000000  0.55477600  0.69926200  1
  P  P25  1  0.75000000  0.44522400  0.30073800  1
  P  P26  1  0.75000000  0.05477600  0.80073800  1
  P  P27  1  0.25000000  0.94522400  0.19926200  1
  P  P28  1  0.25000000  0.50109900  0.18910500  1
  P  P29  1  0.75000000  0.49890100  0.81089500  1
  P  P30  1  0.75000000  0.00109900  0.31089500  1
  P  P31  1  0.25000000  0.99890100  0.68910500  1
  P  P32  1  0.25000000  0.46695700  0.04665500  1
  P  P33  1  0.75000000  0.53304300  0.95334500  1
  P  P34  1  0.75000000  0.96695700  0.45334500  1
  P  P35  1  0.25000000  0.03304300  0.54665500  1
  P  P36  1  0.25000000  0.32970100  0.39016900  1
  P  P37  1  0.75000000  0.67029900  0.60983100  1
  P  P38  1  0.75000000  0.82970100  0.10983100  1
  P  P39  1  0.25000000  0.17029900  0.89016900  1
  O  O40  1  0.25000000  0.60396500  0.52120300  1
  O  O41  1  0.75000000  0.39603500  0.47879700  1
  O  O42  1  0.75000000  0.10396500  0.97879700  1
  O  O43  1  0.25000000  0.89603500  0.02120300  1
  O  O44  1  0.25000000  0.08795300  0.23250300  1
  O  O45  1  0.75000000  0.91204700  0.76749700  1
  O  O46  1  0.75000000  0.58795300  0.26749700  1
  O  O47  1  0.25000000  0.41204700  0.73250300  1
  O  O48  1  0.07839000  0.57831200  0.20009400  1
  O  O49  1  0.92161000  0.42168800  0.79990600  1
  O  O50  1  0.92161000  0.07831200  0.29990600  1
  O  O51  1  0.57839000  0.42168800  0.79990600  1
  O  O52  1  0.07839000  0.92168800  0.70009400  1
  O  O53  1  0.42161000  0.57831200  0.20009400  1
  O  O54  1  0.42161000  0.92168800  0.70009400  1
  O  O55  1  0.57839000  0.07831200  0.29990600  1
  O  O56  1  0.25000000  0.24675800  0.32780000  1
  O  O57  1  0.75000000  0.75324200  0.67220000  1
  O  O58  1  0.75000000  0.74675800  0.17220000  1
  O  O59  1  0.25000000  0.25324200  0.82780000  1
  O  O60  1  0.08096400  0.39746000  0.02703900  1
  O  O61  1  0.91903600  0.60254000  0.97296100  1
  O  O62  1  0.91903600  0.89746000  0.47296100  1
  O  O63  1  0.58096400  0.60254000  0.97296100  1
  O  O64  1  0.08096400  0.10254000  0.52703900  1
  O  O65  1  0.41903600  0.39746000  0.02703900  1
  O  O66  1  0.41903600  0.10254000  0.52703900  1
  O  O67  1  0.58096400  0.89746000  0.47296100  1
  O  O68  1  0.25000000  0.52214900  0.62845800  1
  O  O69  1  0.75000000  0.47785100  0.37154200  1
  O  O70  1  0.75000000  0.02214900  0.87154200  1
  O  O71  1  0.25000000  0.97785100  0.12845800  1
  O  O72  1  0.25000000  0.35487300  0.22052700  1
  O  O73  1  0.75000000  0.64512700  0.77947300  1
  O  O74  1  0.75000000  0.85487300  0.27947300  1
  O  O75  1  0.25000000  0.14512700  0.72052700  1
  O  O76  1  0.07886600  0.29951100  0.42527100  1
  O  O77  1  0.92113400  0.70048900  0.57472900  1
  O  O78  1  0.92113400  0.79951100  0.07472900  1
  O  O79  1  0.57886600  0.70048900  0.57472900  1
  O  O80  1  0.07886600  0.20048900  0.92527100  1
  O  O81  1  0.42113400  0.29951100  0.42527100  1
  O  O82  1  0.42113400  0.20048900  0.92527100  1
  O  O83  1  0.57886600  0.79951100  0.07472900  1
  O  O84  1  0.25000000  0.62502200  0.02878400  1
  O  O85  1  0.75000000  0.37497800  0.97121600  1
  O  O86  1  0.75000000  0.12502200  0.47121600  1
  O  O87  1  0.25000000  0.87497800  0.52878400  1
  O  O88  1  0.57987000  0.19155100  0.17761000  1
  O  O89  1  0.42013000  0.80844900  0.82239000  1
  O  O90  1  0.42013000  0.69155100  0.32239000  1
  O  O91  1  0.07987000  0.80844900  0.82239000  1
  O  O92  1  0.57987000  0.30844900  0.67761000  1
  O  O93  1  0.92013000  0.19155100  0.17761000  1
  O  O94  1  0.92013000  0.30844900  0.67761000  1
  O  O95  1  0.07987000  0.69155100  0.32239000  1
  O  O96  1  0.25000000  0.45993500  0.11887200  1
  O  O97  1  0.75000000  0.54006500  0.88112800  1
  O  O98  1  0.75000000  0.95993500  0.38112800  1
  O  O99  1  0.25000000  0.04006500  0.61887200  1
  O  O100  1  0.57845000  0.37259600  0.28807200  1
  O  O101  1  0.42155000  0.62740400  0.71192800  1
  O  O102  1  0.42155000  0.87259600  0.21192800  1
  O  O103  1  0.07845000  0.62740400  0.71192800  1
  O  O104  1  0.57845000  0.12740400  0.78807200  1
  O  O105  1  0.92155000  0.37259600  0.28807200  1
  O  O106  1  0.92155000  0.12740400  0.78807200  1
  O  O107  1  0.07845000  0.87259600  0.21192800  1
  O  O108  1  0.07837000  0.10775000  0.05164900  1
  O  O109  1  0.92163000  0.89225000  0.94835100  1
  O  O110  1  0.92163000  0.60775000  0.44835100  1
  O  O111  1  0.57837000  0.89225000  0.94835100  1
  O  O112  1  0.07837000  0.39225000  0.55164900  1
  O  O113  1  0.42163000  0.10775000  0.05164900  1
  O  O114  1  0.42163000  0.39225000  0.55164900  1
  O  O115  1  0.57837000  0.60775000  0.44835100  1
  O  O116  1  0.25000000  0.49220600  0.37120000  1
  O  O117  1  0.75000000  0.50779400  0.62880000  1
  O  O118  1  0.75000000  0.99220600  0.12880000  1
  O  O119  1  0.25000000  0.00779400  0.87120000  1
  O  O120  1  0.25000000  0.73565200  0.42132300  1
  O  O121  1  0.75000000  0.26434800  0.57867700  1
  O  O122  1  0.75000000  0.23565200  0.07867700  1
  O  O123  1  0.25000000  0.76434800  0.92132300  1
