# generated using pymatgen
data_BaGe(AsO4)2
_symmetry_space_group_name_H-M   'P 1'
_cell_length_a   4.99947583
_cell_length_b   4.99947583
_cell_length_c   7.95083958
_cell_angle_alpha   87.41760204
_cell_angle_beta   87.41760204
_cell_angle_gamma   65.22567123
_symmetry_Int_Tables_number   1
_chemical_formula_structural   BaGe(AsO4)2
_chemical_formula_sum   'Ba1 Ge1 As2 O8'
_cell_volume   180.18101055
_cell_formula_units_Z   1
loop_
 _symmetry_equiv_pos_site_id
 _symmetry_equiv_pos_as_xyz
  1  'x, y, z'
loop_
 _atom_site_type_symbol
 _atom_site_label
 _atom_site_symmetry_multiplicity
 _atom_site_fract_x
 _atom_site_fract_y
 _atom_site_fract_z
 _atom_site_occupancy
  Ba  Ba0  1  0.00000000  0.00000000  0.50000000  1
  Ge  Ge1  1  0.00000000  0.00000000  0.00000000  1
  As  As2  1  0.36172600  0.36172600  0.80512300  1
  As  As3  1  0.63827400  0.63827400  0.19487700  1
  O  O4  1  0.30940200  0.30940200  0.60305000  1
  O  O5  1  0.69059800  0.69059800  0.39695000  1
  O  O6  1  0.74260700  0.22536400  0.82320100  1
  O  O7  1  0.25739300  0.77463600  0.17679900  1
  O  O8  1  0.77463600  0.25739300  0.17679900  1
  O  O9  1  0.22536400  0.74260700  0.82320100  1
  O  O10  1  0.22183000  0.22183000  0.96907600  1
  O  O11  1  0.77817000  0.77817000  0.03092400  1
