# generated using pymatgen
data_BaAlCdF7
_symmetry_space_group_name_H-M   'P 1'
_cell_length_a   7.52163318
_cell_length_b   7.52163318
_cell_length_c   15.03544540
_cell_angle_alpha   88.33674011
_cell_angle_beta   88.33674011
_cell_angle_gamma   41.95825514
_symmetry_Int_Tables_number   1
_chemical_formula_structural   BaAlCdF7
_chemical_formula_sum   'Ba4 Al4 Cd4 F28'
_cell_volume   568.44686462
_cell_formula_units_Z   4
loop_
 _symmetry_equiv_pos_site_id
 _symmetry_equiv_pos_as_xyz
  1  'x, y, z'
loop_
 _atom_site_type_symbol
 _atom_site_label
 _atom_site_symmetry_multiplicity
 _atom_site_fract_x
 _atom_site_fract_y
 _atom_site_fract_z
 _atom_site_occupancy
  Ba  Ba0  1  0.65282700  0.72800000  0.87736200  1
  Ba  Ba1  1  0.34717300  0.27200000  0.12263800  1
  Ba  Ba2  1  0.27200000  0.34717300  0.62263800  1
  Ba  Ba3  1  0.72800000  0.65282700  0.37736200  1
  Al  Al4  1  0.38530600  0.36963500  0.87541000  1
  Al  Al5  1  0.61469400  0.63036500  0.12459000  1
  Al  Al6  1  0.63036500  0.61469400  0.62459000  1
  Al  Al7  1  0.36963500  0.38530600  0.37541000  1
  Cd  Cd8  1  0.00000000  0.00000000  0.50000000  1
  Cd  Cd9  1  0.00000000  0.00000000  0.00000000  1
  Cd  Cd10  1  0.94853400  0.05146600  0.75000000  1
  Cd  Cd11  1  0.05146600  0.94853400  0.25000000  1
  F  F12  1  0.42845400  0.74435700  0.52518700  1
  F  F13  1  0.57154600  0.25564300  0.47481300  1
  F  F14  1  0.25564300  0.57154600  0.97481300  1
  F  F15  1  0.74435700  0.42845400  0.02518700  1
  F  F16  1  0.68903700  0.80211500  0.59240400  1
  F  F17  1  0.31096300  0.19788500  0.40759600  1
  F  F18  1  0.19788500  0.31096300  0.90759600  1
  F  F19  1  0.80211500  0.68903700  0.09240400  1
  F  F20  1  0.54325500  0.13160600  0.78247300  1
  F  F21  1  0.45674500  0.86839400  0.21752700  1
  F  F22  1  0.86839400  0.45674500  0.71752700  1
  F  F23  1  0.13160600  0.54325500  0.28247300  1
  F  F24  1  0.60111300  0.40004300  0.65332300  1
  F  F25  1  0.39888700  0.59995700  0.34667700  1
  F  F26  1  0.59995700  0.39888700  0.84667700  1
  F  F27  1  0.40004300  0.60111300  0.15332300  1
  F  F28  1  0.35864400  0.88241700  0.69670600  1
  F  F29  1  0.64135600  0.11758300  0.30329400  1
  F  F30  1  0.11758300  0.64135600  0.80329400  1
  F  F31  1  0.88241700  0.35864400  0.19670600  1
  F  F32  1  0.65609200  0.07685500  0.94847400  1
  F  F33  1  0.34390800  0.92314500  0.05152600  1
  F  F34  1  0.92314500  0.34390800  0.55152600  1
  F  F35  1  0.07685500  0.65609200  0.44847400  1
  F  F36  1  0.84262000  0.02290700  0.12966200  1
  F  F37  1  0.15738000  0.97709300  0.87033800  1
  F  F38  1  0.97709300  0.15738000  0.37033800  1
  F  F39  1  0.02290700  0.84262000  0.62966200  1
