# generated using pymatgen
data_CdI3N2
_symmetry_space_group_name_H-M   'P 1'
_cell_length_a   7.48549600
_cell_length_b   8.41252500
_cell_length_c   13.64796900
_cell_angle_alpha   90.00000000
_cell_angle_beta   90.00000000
_cell_angle_gamma   90.00000000
_symmetry_Int_Tables_number   1
_chemical_formula_structural   CdI3N2
_chemical_formula_sum   'Cd4 I12 N8'
_cell_volume   859.43884257
_cell_formula_units_Z   4
loop_
 _symmetry_equiv_pos_site_id
 _symmetry_equiv_pos_as_xyz
  1  'x, y, z'
loop_
 _atom_site_type_symbol
 _atom_site_label
 _atom_site_symmetry_multiplicity
 _atom_site_fract_x
 _atom_site_fract_y
 _atom_site_fract_z
 _atom_site_occupancy
  Cd  Cd0  1  0.21707800  0.00000000  0.66874300  1
  Cd  Cd1  1  0.78292200  0.00000000  0.16874300  1
  Cd  Cd2  1  0.03990500  0.50000000  0.62494800  1
  Cd  Cd3  1  0.96009500  0.50000000  0.12494800  1
  I  I4  1  0.36880100  0.50000000  0.16653500  1
  I  I5  1  0.63119900  0.50000000  0.66653500  1
  I  I6  1  0.71768400  0.00000000  0.72257900  1
  I  I7  1  0.28231600  0.00000000  0.22257900  1
  I  I8  1  0.10183700  0.00000000  0.47956200  1
  I  I9  1  0.89816300  0.00000000  0.97956200  1
  I  I10  1  0.30427700  0.50000000  0.48372500  1
  I  I11  1  0.69572300  0.50000000  0.98372500  1
  I  I12  1  0.22769900  0.27274600  0.77830500  1
  I  I13  1  0.77230100  0.72725400  0.27830500  1
  I  I14  1  0.77230100  0.27274600  0.27830500  1
  I  I15  1  0.22769900  0.72725400  0.77830500  1
  N  N16  1  0.21230400  0.32543000  0.14701700  1
  N  N17  1  0.78769600  0.67457000  0.64701700  1
  N  N18  1  0.78769600  0.32543000  0.64701700  1
  N  N19  1  0.21230400  0.67457000  0.14701700  1
  N  N20  1  0.68687200  0.17290400  0.82589100  1
  N  N21  1  0.31312800  0.82709600  0.32589100  1
  N  N22  1  0.31312800  0.17290400  0.32589100  1
  N  N23  1  0.68687200  0.82709600  0.82589100  1
