# generated using pymatgen
data_CaNb(O6F)2
_symmetry_space_group_name_H-M   'P 1'
_cell_length_a   7.59644815
_cell_length_b   7.59644815
_cell_length_c   7.59644815
_cell_angle_alpha   60.00000000
_cell_angle_beta   60.00000000
_cell_angle_gamma   60.00000000
_symmetry_Int_Tables_number   1
_chemical_formula_structural   CaNb(O6F)2
_chemical_formula_sum   'Ca2 Nb2 O24 F4'
_cell_volume   309.96791060
_cell_formula_units_Z   2
loop_
 _symmetry_equiv_pos_site_id
 _symmetry_equiv_pos_as_xyz
  1  'x, y, z'
loop_
 _atom_site_type_symbol
 _atom_site_label
 _atom_site_symmetry_multiplicity
 _atom_site_fract_x
 _atom_site_fract_y
 _atom_site_fract_z
 _atom_site_occupancy
  Ca  Ca0  1  0.00000000  0.00000000  0.00000000  1
  Ca  Ca1  1  0.75000000  0.75000000  0.75000000  1
  Nb  Nb2  1  0.50000000  0.50000000  0.50000000  1
  Nb  Nb3  1  0.25000000  0.25000000  0.25000000  1
  O  O4  1  0.52208400  0.52208400  0.18815400  1
  O  O5  1  0.76767800  0.18815400  0.52208400  1
  O  O6  1  0.18815400  0.76767800  0.52208400  1
  O  O7  1  0.52208400  0.18815400  0.52208400  1
  O  O8  1  0.98232200  0.22791600  0.56184600  1
  O  O9  1  0.22791600  0.22791600  0.56184600  1
  O  O10  1  0.52208400  0.52208400  0.76767800  1
  O  O11  1  0.18815400  0.52208400  0.76767800  1
  O  O12  1  0.22791600  0.56184600  0.22791600  1
  O  O13  1  0.98232200  0.56184600  0.22791600  1
  O  O14  1  0.76767800  0.52208400  0.18815400  1
  O  O15  1  0.22791600  0.98232200  0.22791600  1
  O  O16  1  0.56184600  0.98232200  0.22791600  1
  O  O17  1  0.52208400  0.76767800  0.52208400  1
  O  O18  1  0.56184600  0.22791600  0.98232200  1
  O  O19  1  0.22791600  0.22791600  0.98232200  1
  O  O20  1  0.18815400  0.52208400  0.52208400  1
  O  O21  1  0.52208400  0.18815400  0.76767800  1
  O  O22  1  0.76767800  0.52208400  0.52208400  1
  O  O23  1  0.52208400  0.76767800  0.18815400  1
  O  O24  1  0.22791600  0.56184600  0.98232200  1
  O  O25  1  0.56184600  0.22791600  0.22791600  1
  O  O26  1  0.22791600  0.98232200  0.56184600  1
  O  O27  1  0.98232200  0.22791600  0.22791600  1
  F  F28  1  0.87500000  0.87500000  0.87500000  1
  F  F29  1  0.37500000  0.87500000  0.87500000  1
  F  F30  1  0.87500000  0.37500000  0.87500000  1
  F  F31  1  0.87500000  0.87500000  0.37500000  1
