# generated using pymatgen
data_BaFeO4
_symmetry_space_group_name_H-M   'P 1'
_cell_length_a   5.61549400
_cell_length_b   9.19737800
_cell_length_c   7.42318100
_cell_angle_alpha   90.00000000
_cell_angle_beta   90.00000000
_cell_angle_gamma   90.00000000
_symmetry_Int_Tables_number   1
_chemical_formula_structural   BaFeO4
_chemical_formula_sum   'Ba4 Fe4 O16'
_cell_volume   383.39112335
_cell_formula_units_Z   4
loop_
 _symmetry_equiv_pos_site_id
 _symmetry_equiv_pos_as_xyz
  1  'x, y, z'
loop_
 _atom_site_type_symbol
 _atom_site_label
 _atom_site_symmetry_multiplicity
 _atom_site_fract_x
 _atom_site_fract_y
 _atom_site_fract_z
 _atom_site_occupancy
  Ba  Ba0  1  0.75000000  0.81568500  0.34267400  1
  Ba  Ba1  1  0.25000000  0.18431500  0.65732600  1
  Ba  Ba2  1  0.25000000  0.68431500  0.84267400  1
  Ba  Ba3  1  0.75000000  0.31568500  0.15732600  1
  Fe  Fe4  1  0.75000000  0.93793300  0.81047100  1
  Fe  Fe5  1  0.25000000  0.06206700  0.18952900  1
  Fe  Fe6  1  0.25000000  0.56206700  0.31047100  1
  Fe  Fe7  1  0.75000000  0.43793300  0.68952900  1
  O  O8  1  0.75000000  0.60237600  0.60348200  1
  O  O9  1  0.25000000  0.39762400  0.39651800  1
  O  O10  1  0.25000000  0.89762400  0.10348200  1
  O  O11  1  0.75000000  0.10237600  0.89651800  1
  O  O12  1  0.75000000  0.80558100  0.96170500  1
  O  O13  1  0.25000000  0.19441900  0.03829500  1
  O  O14  1  0.25000000  0.69441900  0.46170500  1
  O  O15  1  0.75000000  0.30558100  0.53829500  1
  O  O16  1  0.98916100  0.91721900  0.67860900  1
  O  O17  1  0.01083900  0.08278100  0.32139100  1
  O  O18  1  0.01083900  0.58278100  0.17860900  1
  O  O19  1  0.48916100  0.08278100  0.32139100  1
  O  O20  1  0.98916100  0.41721900  0.82139100  1
  O  O21  1  0.51083900  0.91721900  0.67860900  1
  O  O22  1  0.51083900  0.41721900  0.82139100  1
  O  O23  1  0.48916100  0.58278100  0.17860900  1
