# generated using pymatgen
data_C15Br7
_symmetry_space_group_name_H-M   'P 1'
_cell_length_a   12.68963600
_cell_length_b   12.98017055
_cell_length_c   13.09200152
_cell_angle_alpha   119.51063626
_cell_angle_beta   117.37540365
_cell_angle_gamma   84.86408110
_symmetry_Int_Tables_number   1
_chemical_formula_structural   C15Br7
_chemical_formula_sum   'C60 Br28'
_cell_volume   1640.11455675
_cell_formula_units_Z   4
loop_
 _symmetry_equiv_pos_site_id
 _symmetry_equiv_pos_as_xyz
  1  'x, y, z'
loop_
 _atom_site_type_symbol
 _atom_site_label
 _atom_site_symmetry_multiplicity
 _atom_site_fract_x
 _atom_site_fract_y
 _atom_site_fract_z
 _atom_site_occupancy
  C  C0  1  0.72479500  0.64824600  0.34548400  1
  C  C1  1  0.27520500  0.35175400  0.65451600  1
  C  C2  1  0.53575400  0.72744500  0.33870900  1
  C  C3  1  0.46424600  0.27255500  0.66129100  1
  C  C4  1  0.48617900  0.60425300  0.29380800  1
  C  C5  1  0.51382100  0.39574700  0.70619200  1
  C  C6  1  0.78352400  0.47642100  0.01775400  1
  C  C7  1  0.21647600  0.52357900  0.98224600  1
  C  C8  1  0.66263800  0.81030700  0.28914800  1
  C  C9  1  0.33736200  0.18969300  0.71085200  1
  C  C10  1  0.47838400  0.39471900  0.21062300  1
  C  C11  1  0.52161600  0.60528100  0.78937700  1
  C  C12  1  0.35351100  0.55187200  0.20879200  1
  C  C13  1  0.64648900  0.44812800  0.79120800  1
  C  C14  1  0.80783900  0.60976600  0.08269500  1
  C  C15  1  0.19216100  0.39023400  0.91730500  1
  C  C16  1  0.71769400  0.44036900  0.23984700  1
  C  C17  1  0.28230600  0.55963100  0.76015300  1
  C  C18  1  0.29037500  0.59711200  0.11509900  1
  C  C19  1  0.70962500  0.40288800  0.88490100  1
  C  C20  1  0.46089700  0.76288200  0.23617900  1
  C  C21  1  0.53910300  0.23711800  0.76382100  1
  C  C22  1  0.28376200  0.34651300  0.00455500  1
  C  C23  1  0.71623800  0.65348700  0.99544500  1
  C  C24  1  0.68295900  0.76636300  0.08020400  1
  C  C25  1  0.31704100  0.23363700  0.91979600  1
  C  C26  1  0.55485900  0.51806900  0.29537100  1
  C  C27  1  0.44514100  0.48193100  0.70462900  1
  C  C28  1  0.65306300  0.31372500  0.15306300  1
  C  C29  1  0.34693700  0.68627500  0.84693700  1
  C  C30  1  0.53056200  0.80809000  0.20885200  1
  C  C31  1  0.46943800  0.19191000  0.79114800  1
  C  C32  1  0.35641100  0.41918800  0.13611700  1
  C  C33  1  0.64358900  0.58081200  0.86388300  1
  C  C34  1  0.28826800  0.70027200  0.01057800  1
  C  C35  1  0.71173200  0.29972800  0.98942200  1
  C  C36  1  0.64306200  0.25462800  0.01608500  1
  C  C37  1  0.35693800  0.74537200  0.98391500  1
  C  C38  1  0.48064100  0.82098500  0.08908400  1
  C  C39  1  0.51935900  0.17901500  0.91091600  1
  C  C40  1  0.65693600  0.73379200  0.34452800  1
  C  C41  1  0.34306400  0.26620800  0.65547200  1
  C  C42  1  0.32825300  0.72109000  0.14797800  1
  C  C43  1  0.67174700  0.27891000  0.85202200  1
  C  C44  1  0.55149500  0.76823900  0.01414000  1
  C  C45  1  0.44850500  0.23176100  0.98586000  1
  C  C46  1  0.78902200  0.67108300  0.20362100  1
  C  C47  1  0.21097800  0.32891700  0.79637900  1
  C  C48  1  0.68617700  0.53857700  0.34099500  1
  C  C49  1  0.31382300  0.46142300  0.65900500  1
  C  C50  1  0.52217300  0.30630000  0.11874000  1
  C  C51  1  0.47782700  0.69370000  0.88126000  1
  C  C52  1  0.80575100  0.41261400  0.09398800  1
  C  C53  1  0.19424900  0.58738600  0.90601200  1
  C  C54  1  0.72088000  0.75779100  0.20275000  1
  C  C55  1  0.27912000  0.24220900  0.79725000  1
  C  C56  1  0.78757300  0.48563600  0.21292800  1
  C  C57  1  0.21242700  0.51436400  0.78707200  1
  C  C58  1  0.81269500  0.62122500  0.29141900  1
  C  C59  1  0.18730500  0.37877500  0.70858100  1
  Br  Br60  1  0.97692900  0.66875000  0.13395200  1
  Br  Br61  1  0.02307100  0.33125000  0.86604800  1
  Br  Br62  1  0.98607000  0.68516700  0.44384000  1
  Br  Br63  1  0.01393000  0.31483300  0.55616000  1
  Br  Br64  1  0.84373800  0.88942200  0.86465900  1
  Br  Br65  1  0.15626200  0.11057800  0.13534100  1
  Br  Br66  1  0.77915600  0.91249500  0.12236300  1
  Br  Br67  1  0.22084400  0.08750500  0.87763700  1
  Br  Br68  1  0.97273700  0.36834800  0.15084200  1
  Br  Br69  1  0.02726300  0.63165200  0.84915800  1
  Br  Br70  1  0.75305000  0.98050800  0.43764800  1
  Br  Br71  1  0.24695000  0.01949200  0.56235200  1
  Br  Br72  1  0.78116900  0.55045900  0.52122900  1
  Br  Br73  1  0.21883100  0.44954100  0.47877100  1
  Br  Br74  1  0.47577000  0.99800700  0.14984400  1
  Br  Br75  1  0.52423000  0.00199300  0.85015600  1
  Br  Br76  1  0.27350600  0.59100100  0.32361300  1
  Br  Br77  1  0.72649400  0.40899900  0.67638700  1
  Br  Br78  1  0.73820000  0.21885100  0.24483800  1
  Br  Br79  1  0.26180000  0.78114900  0.75516200  1
  Br  Br80  1  0.52652300  0.66904300  0.67702100  1
  Br  Br81  1  0.47347700  0.33095700  0.32297900  1
  Br  Br82  1  0.24027900  0.84368900  0.23470500  1
  Br  Br83  1  0.75972100  0.15631100  0.76529500  1
  Br  Br84  1  0.92285000  0.89591000  0.73938800  1
  Br  Br85  1  0.07715000  0.10409000  0.26061200  1
  Br  Br86  1  0.54495100  0.84291400  0.51983500  1
  Br  Br87  1  0.45504900  0.15708600  0.48016500  1
