# generated using pymatgen
data_Ba5Gd2ZrAl2O13
_symmetry_space_group_name_H-M   'P 1'
_cell_length_a   6.06956124
_cell_length_b   6.06956124
_cell_length_c   25.46371500
_cell_angle_alpha   90.00000000
_cell_angle_beta   90.00000000
_cell_angle_gamma   119.99999168
_symmetry_Int_Tables_number   1
_chemical_formula_structural   Ba5Gd2ZrAl2O13
_chemical_formula_sum   'Ba10 Gd4 Zr2 Al4 O26'
_cell_volume   812.39459965
_cell_formula_units_Z   2
loop_
 _symmetry_equiv_pos_site_id
 _symmetry_equiv_pos_as_xyz
  1  'x, y, z'
loop_
 _atom_site_type_symbol
 _atom_site_label
 _atom_site_symmetry_multiplicity
 _atom_site_fract_x
 _atom_site_fract_y
 _atom_site_fract_z
 _atom_site_occupancy
  Ba  Ba0  1  0.33333300  0.66666700  0.54149200  1
  Ba  Ba1  1  0.66666700  0.33333300  0.45850800  1
  Ba  Ba2  1  0.66666700  0.33333300  0.04149200  1
  Ba  Ba3  1  0.33333300  0.66666700  0.95850800  1
  Ba  Ba4  1  0.00000000  0.00000000  0.13636300  1
  Ba  Ba5  1  0.00000000  0.00000000  0.86363700  1
  Ba  Ba6  1  0.00000000  0.00000000  0.63636300  1
  Ba  Ba7  1  0.00000000  0.00000000  0.36363700  1
  Ba  Ba8  1  0.33333300  0.66666700  0.25000000  1
  Ba  Ba9  1  0.66666700  0.33333300  0.75000000  1
  Gd  Gd10  1  0.33333300  0.66666700  0.10435000  1
  Gd  Gd11  1  0.66666700  0.33333300  0.89565000  1
  Gd  Gd12  1  0.66666700  0.33333300  0.60435000  1
  Gd  Gd13  1  0.33333300  0.66666700  0.39565000  1
  Zr  Zr14  1  0.00000000  0.00000000  0.00000000  1
  Zr  Zr15  1  0.00000000  0.00000000  0.50000000  1
  Al  Al16  1  0.33333300  0.66666700  0.68199000  1
  Al  Al17  1  0.66666700  0.33333300  0.31801000  1
  Al  Al18  1  0.66666700  0.33333300  0.18199000  1
  Al  Al19  1  0.33333300  0.66666700  0.81801000  1
  O  O20  1  0.50664600  0.01329200  0.15929000  1
  O  O21  1  0.49335400  0.98670800  0.84071000  1
  O  O22  1  0.98670800  0.49335400  0.15929000  1
  O  O23  1  0.49335400  0.98670800  0.65929000  1
  O  O24  1  0.01329200  0.50664600  0.84071000  1
  O  O25  1  0.50664600  0.01329200  0.34071000  1
  O  O26  1  0.50664600  0.49335400  0.15929000  1
  O  O27  1  0.01329200  0.50664600  0.65929000  1
  O  O28  1  0.49335400  0.50664600  0.84071000  1
  O  O29  1  0.98670800  0.49335400  0.34071000  1
  O  O30  1  0.49335400  0.50664600  0.65929000  1
  O  O31  1  0.50664600  0.49335400  0.34071000  1
  O  O32  1  0.16152500  0.32305000  0.04979500  1
  O  O33  1  0.83847500  0.67695000  0.95020500  1
  O  O34  1  0.67695000  0.83847500  0.04979500  1
  O  O35  1  0.83847500  0.67695000  0.54979500  1
  O  O36  1  0.32305000  0.16152500  0.95020500  1
  O  O37  1  0.16152500  0.32305000  0.45020500  1
  O  O38  1  0.16152500  0.83847500  0.04979500  1
  O  O39  1  0.32305000  0.16152500  0.54979500  1
  O  O40  1  0.83847500  0.16152500  0.95020500  1
  O  O41  1  0.67695000  0.83847500  0.45020500  1
  O  O42  1  0.83847500  0.16152500  0.54979500  1
  O  O43  1  0.16152500  0.83847500  0.45020500  1
  O  O44  1  0.33333300  0.66666700  0.75000000  1
  O  O45  1  0.66666700  0.33333300  0.25000000  1
