# generated using pymatgen
data_Ba3Yb(BO2)9
_symmetry_space_group_name_H-M   'P 1'
_cell_length_a   7.29011903
_cell_length_b   7.29011903
_cell_length_c   17.52993700
_cell_angle_alpha   90.00000000
_cell_angle_beta   90.00000000
_cell_angle_gamma   119.99999122
_symmetry_Int_Tables_number   1
_chemical_formula_structural   Ba3Yb(BO2)9
_chemical_formula_sum   'Ba6 Yb2 B18 O36'
_cell_volume   806.82670511
_cell_formula_units_Z   2
loop_
 _symmetry_equiv_pos_site_id
 _symmetry_equiv_pos_as_xyz
  1  'x, y, z'
loop_
 _atom_site_type_symbol
 _atom_site_label
 _atom_site_symmetry_multiplicity
 _atom_site_fract_x
 _atom_site_fract_y
 _atom_site_fract_z
 _atom_site_occupancy
  Ba  Ba0  1  0.66666700  0.33333300  0.86818000  1
  Ba  Ba1  1  0.33333300  0.66666700  0.13182000  1
  Ba  Ba2  1  0.33333300  0.66666700  0.36818000  1
  Ba  Ba3  1  0.66666700  0.33333300  0.63182000  1
  Ba  Ba4  1  0.00000000  0.00000000  0.75000000  1
  Ba  Ba5  1  0.00000000  0.00000000  0.25000000  1
  Yb  Yb6  1  0.00000000  0.00000000  0.00000000  1
  Yb  Yb7  1  0.00000000  0.00000000  0.50000000  1
  B  B8  1  0.54976300  0.83501300  0.91795500  1
  B  B9  1  0.45023700  0.16498700  0.08204500  1
  B  B10  1  0.28525000  0.45023700  0.91795500  1
  B  B11  1  0.45023700  0.16498700  0.41795500  1
  B  B12  1  0.71475000  0.54976300  0.08204500  1
  B  B13  1  0.54976300  0.83501300  0.58204500  1
  B  B14  1  0.16498700  0.71475000  0.91795500  1
  B  B15  1  0.71475000  0.54976300  0.41795500  1
  B  B16  1  0.83501300  0.28525000  0.08204500  1
  B  B17  1  0.28525000  0.45023700  0.58204500  1
  B  B18  1  0.83501300  0.28525000  0.41795500  1
  B  B19  1  0.16498700  0.71475000  0.58204500  1
  B  B20  1  0.50427400  0.62197700  0.75000000  1
  B  B21  1  0.49572600  0.37802300  0.25000000  1
  B  B22  1  0.11770300  0.49572600  0.75000000  1
  B  B23  1  0.88229700  0.50427400  0.25000000  1
  B  B24  1  0.37802300  0.88229700  0.75000000  1
  B  B25  1  0.62197700  0.11770300  0.25000000  1
  O  O26  1  0.54139000  0.83248400  0.75000000  1
  O  O27  1  0.45861000  0.16751600  0.25000000  1
  O  O28  1  0.29109500  0.45861000  0.75000000  1
  O  O29  1  0.70890500  0.54139000  0.25000000  1
  O  O30  1  0.16751600  0.70890500  0.75000000  1
  O  O31  1  0.83248400  0.29109500  0.25000000  1
  O  O32  1  0.92052400  0.33351500  0.75000000  1
  O  O33  1  0.07947600  0.66648500  0.25000000  1
  O  O34  1  0.41299100  0.07947600  0.75000000  1
  O  O35  1  0.58700900  0.92052400  0.25000000  1
  O  O36  1  0.66648500  0.58700900  0.75000000  1
  O  O37  1  0.33351500  0.41299100  0.25000000  1
  O  O38  1  0.74713600  0.99577800  0.91705200  1
  O  O39  1  0.25286400  0.00422200  0.08294800  1
  O  O40  1  0.24864200  0.25286400  0.91705200  1
  O  O41  1  0.25286400  0.00422200  0.41705200  1
  O  O42  1  0.75135800  0.74713600  0.08294800  1
  O  O43  1  0.74713600  0.99577800  0.58294800  1
  O  O44  1  0.00422200  0.75135800  0.91705200  1
  O  O45  1  0.75135800  0.74713600  0.41705200  1
  O  O46  1  0.99577800  0.24864200  0.08294800  1
  O  O47  1  0.24864200  0.25286400  0.58294800  1
  O  O48  1  0.99577800  0.24864200  0.41705200  1
  O  O49  1  0.00422200  0.75135800  0.58294800  1
  O  O50  1  0.49721200  0.62060200  0.91846700  1
  O  O51  1  0.50278800  0.37939800  0.08153300  1
  O  O52  1  0.12339000  0.50278800  0.91846700  1
  O  O53  1  0.50278800  0.37939800  0.41846700  1
  O  O54  1  0.87661000  0.49721200  0.08153300  1
  O  O55  1  0.49721200  0.62060200  0.58153300  1
  O  O56  1  0.37939800  0.87661000  0.91846700  1
  O  O57  1  0.87661000  0.49721200  0.41846700  1
  O  O58  1  0.62060200  0.12339000  0.08153300  1
  O  O59  1  0.12339000  0.50278800  0.58153300  1
  O  O60  1  0.62060200  0.12339000  0.41846700  1
  O  O61  1  0.37939800  0.87661000  0.58153300  1
