# generated using pymatgen
data_Ba3MnO5
_symmetry_space_group_name_H-M   'P 1'
_cell_length_a   7.33265200
_cell_length_b   7.33265200
_cell_length_c   7.96948513
_cell_angle_alpha   62.60994648
_cell_angle_beta   62.60994648
_cell_angle_gamma   90.00000000
_symmetry_Int_Tables_number   1
_chemical_formula_structural   Ba3MnO5
_chemical_formula_sum   'Ba6 Mn2 O10'
_cell_volume   325.41188502
_cell_formula_units_Z   2
loop_
 _symmetry_equiv_pos_site_id
 _symmetry_equiv_pos_as_xyz
  1  'x, y, z'
loop_
 _atom_site_type_symbol
 _atom_site_label
 _atom_site_symmetry_multiplicity
 _atom_site_fract_x
 _atom_site_fract_y
 _atom_site_fract_z
 _atom_site_occupancy
  Ba  Ba0  1  0.75000000  0.75000000  0.50000000  1
  Ba  Ba1  1  0.25000000  0.25000000  0.50000000  1
  Ba  Ba2  1  0.67843600  0.17843600  0.00000000  1
  Ba  Ba3  1  0.32156400  0.82156400  0.00000000  1
  Ba  Ba4  1  0.82156400  0.67843600  0.00000000  1
  Ba  Ba5  1  0.17843600  0.32156400  0.00000000  1
  Mn  Mn6  1  0.25000000  0.75000000  0.50000000  1
  Mn  Mn7  1  0.75000000  0.25000000  0.50000000  1
  O  O8  1  0.00000000  0.00000000  0.00000000  1
  O  O9  1  0.50000000  0.50000000  0.00000000  1
  O  O10  1  0.97926000  0.47926000  0.30269300  1
  O  O11  1  0.02074000  0.52074000  0.69730700  1
  O  O12  1  0.71804700  0.21804700  0.30269300  1
  O  O13  1  0.21804700  0.97926000  0.30269300  1
  O  O14  1  0.52074000  0.28195300  0.69730700  1
  O  O15  1  0.28195300  0.78195300  0.69730700  1
  O  O16  1  0.78195300  0.02074000  0.69730700  1
  O  O17  1  0.47926000  0.71804700  0.30269300  1
