# generated using pymatgen
data_BaMnVF7
_symmetry_space_group_name_H-M   'P 1'
_cell_length_a   7.49271381
_cell_length_b   7.49271381
_cell_length_c   15.20900551
_cell_angle_alpha   89.98607958
_cell_angle_beta   89.98607958
_cell_angle_gamma   41.61878446
_symmetry_Int_Tables_number   1
_chemical_formula_structural   BaMnVF7
_chemical_formula_sum   'Ba4 Mn4 V4 F28'
_cell_volume   567.09944850
_cell_formula_units_Z   4
loop_
 _symmetry_equiv_pos_site_id
 _symmetry_equiv_pos_as_xyz
  1  'x, y, z'
loop_
 _atom_site_type_symbol
 _atom_site_label
 _atom_site_symmetry_multiplicity
 _atom_site_fract_x
 _atom_site_fract_y
 _atom_site_fract_z
 _atom_site_occupancy
  Ba  Ba0  1  0.35124100  0.26120300  0.37654200  1
  Ba  Ba1  1  0.64876000  0.73879700  0.62345800  1
  Ba  Ba2  1  0.73879700  0.64876000  0.12345800  1
  Ba  Ba3  1  0.26120300  0.35124100  0.87654200  1
  Mn  Mn4  1  0.62922100  0.59759900  0.37263700  1
  Mn  Mn5  1  0.37077900  0.40240100  0.62736300  1
  Mn  Mn6  1  0.40240100  0.37077900  0.12736300  1
  Mn  Mn7  1  0.59759900  0.62922100  0.87263700  1
  V  V8  1  0.00000000  0.00000000  0.00000000  1
  V  V9  1  0.00000000  0.00000000  0.50000000  1
  V  V10  1  0.05643900  0.94356100  0.25000000  1
  V  V11  1  0.94356100  0.05643900  0.75000000  1
  F  F12  1  0.61750300  0.23469700  0.00570500  1
  F  F13  1  0.38249700  0.76530300  0.99429500  1
  F  F14  1  0.76530300  0.38249700  0.49429500  1
  F  F15  1  0.23469700  0.61750300  0.50570500  1
  F  F16  1  0.31608800  0.18035300  0.08599500  1
  F  F17  1  0.68391200  0.81964700  0.91400500  1
  F  F18  1  0.81964700  0.68391200  0.41400500  1
  F  F19  1  0.18035300  0.31608800  0.58599500  1
  F  F20  1  0.44485500  0.88978400  0.27395400  1
  F  F21  1  0.55514500  0.11021600  0.72604600  1
  F  F22  1  0.11021600  0.55514500  0.22604600  1
  F  F23  1  0.88978400  0.44485500  0.77395400  1
  F  F24  1  0.36404400  0.66902400  0.16695900  1
  F  F25  1  0.63595600  0.33097600  0.83304100  1
  F  F26  1  0.33097600  0.63595600  0.33304100  1
  F  F27  1  0.66902400  0.36404400  0.66695900  1
  F  F28  1  0.71055000  0.07905500  0.21981300  1
  F  F29  1  0.28945000  0.92094500  0.78018700  1
  F  F30  1  0.92094500  0.28945000  0.28018700  1
  F  F31  1  0.07905500  0.71055000  0.71981300  1
  F  F32  1  0.29812600  0.93293100  0.46193400  1
  F  F33  1  0.70187400  0.06706900  0.53806600  1
  F  F34  1  0.06706900  0.70187400  0.03806600  1
  F  F35  1  0.93293100  0.29812600  0.96193400  1
  F  F36  1  0.13947800  0.94356100  0.62489100  1
  F  F37  1  0.86052200  0.05643900  0.37510900  1
  F  F38  1  0.05643900  0.86052200  0.87510900  1
  F  F39  1  0.94356100  0.13947800  0.12489100  1
