# generated using pymatgen
data_Ba3Pr(BO2)9
_symmetry_space_group_name_H-M   'P 1'
_cell_length_a   7.33385548
_cell_length_b   7.33385548
_cell_length_c   17.85176000
_cell_angle_alpha   90.00000000
_cell_angle_beta   90.00000000
_cell_angle_gamma   119.99999528
_symmetry_Int_Tables_number   1
_chemical_formula_structural   Ba3Pr(BO2)9
_chemical_formula_sum   'Ba6 Pr2 B18 O36'
_cell_volume   831.52705965
_cell_formula_units_Z   2
loop_
 _symmetry_equiv_pos_site_id
 _symmetry_equiv_pos_as_xyz
  1  'x, y, z'
loop_
 _atom_site_type_symbol
 _atom_site_label
 _atom_site_symmetry_multiplicity
 _atom_site_fract_x
 _atom_site_fract_y
 _atom_site_fract_z
 _atom_site_occupancy
  Ba  Ba0  1  0.66666700  0.33333300  0.86386000  1
  Ba  Ba1  1  0.33333300  0.66666700  0.13614000  1
  Ba  Ba2  1  0.33333300  0.66666700  0.36386000  1
  Ba  Ba3  1  0.66666700  0.33333300  0.63614000  1
  Ba  Ba4  1  0.00000000  0.00000000  0.75000000  1
  Ba  Ba5  1  0.00000000  0.00000000  0.25000000  1
  Pr  Pr6  1  0.00000000  0.00000000  0.00000000  1
  Pr  Pr7  1  0.00000000  0.00000000  0.50000000  1
  B  B8  1  0.54627600  0.83704800  0.91665500  1
  B  B9  1  0.45372400  0.16295200  0.08334500  1
  B  B10  1  0.29077300  0.45372400  0.91665500  1
  B  B11  1  0.45372400  0.16295200  0.41665500  1
  B  B12  1  0.70922700  0.54627600  0.08334500  1
  B  B13  1  0.54627600  0.83704800  0.58334500  1
  B  B14  1  0.16295200  0.70922700  0.91665500  1
  B  B15  1  0.70922700  0.54627600  0.41665500  1
  B  B16  1  0.83704800  0.29077300  0.08334500  1
  B  B17  1  0.29077300  0.45372400  0.58334500  1
  B  B18  1  0.83704800  0.29077300  0.41665500  1
  B  B19  1  0.16295200  0.70922700  0.58334500  1
  B  B20  1  0.50325800  0.62231900  0.75000000  1
  B  B21  1  0.49674200  0.37768100  0.25000000  1
  B  B22  1  0.11906100  0.49674200  0.75000000  1
  B  B23  1  0.88093900  0.50325800  0.25000000  1
  B  B24  1  0.37768100  0.88093900  0.75000000  1
  B  B25  1  0.62231900  0.11906100  0.25000000  1
  O  O26  1  0.54029200  0.83143600  0.75000000  1
  O  O27  1  0.45970800  0.16856400  0.25000000  1
  O  O28  1  0.29114500  0.45970800  0.75000000  1
  O  O29  1  0.70885500  0.54029200  0.25000000  1
  O  O30  1  0.16856400  0.70885500  0.75000000  1
  O  O31  1  0.83143600  0.29114500  0.25000000  1
  O  O32  1  0.92253100  0.33516100  0.75000000  1
  O  O33  1  0.07746900  0.66483900  0.25000000  1
  O  O34  1  0.41263000  0.07746900  0.75000000  1
  O  O35  1  0.58737000  0.92253100  0.25000000  1
  O  O36  1  0.66483900  0.58737000  0.75000000  1
  O  O37  1  0.33516100  0.41263000  0.25000000  1
  O  O38  1  0.74328500  0.99919700  0.91519200  1
  O  O39  1  0.25671500  0.00080300  0.08480800  1
  O  O40  1  0.25591100  0.25671500  0.91519200  1
  O  O41  1  0.25671500  0.00080300  0.41519200  1
  O  O42  1  0.74408900  0.74328500  0.08480800  1
  O  O43  1  0.74328500  0.99919700  0.58480800  1
  O  O44  1  0.00080300  0.74408900  0.91519200  1
  O  O45  1  0.74408900  0.74328500  0.41519200  1
  O  O46  1  0.99919700  0.25591100  0.08480800  1
  O  O47  1  0.25591100  0.25671500  0.58480800  1
  O  O48  1  0.99919700  0.25591100  0.41519200  1
  O  O49  1  0.00080300  0.74408900  0.58480800  1
  O  O50  1  0.49890800  0.62551900  0.91774700  1
  O  O51  1  0.50109200  0.37448100  0.08225300  1
  O  O52  1  0.12661100  0.50109200  0.91774700  1
  O  O53  1  0.50109200  0.37448100  0.41774700  1
  O  O54  1  0.87338900  0.49890800  0.08225300  1
  O  O55  1  0.49890800  0.62551900  0.58225300  1
  O  O56  1  0.37448100  0.87338900  0.91774700  1
  O  O57  1  0.87338900  0.49890800  0.41774700  1
  O  O58  1  0.62551900  0.12661100  0.08225300  1
  O  O59  1  0.12661100  0.50109200  0.58225300  1
  O  O60  1  0.62551900  0.12661100  0.41774700  1
  O  O61  1  0.37448100  0.87338900  0.58225300  1
