# generated using pymatgen
data_Ba4Ti6Si4O25
_symmetry_space_group_name_H-M   'P 1'
_cell_length_a   16.94338200
_cell_length_b   5.93200400
_cell_length_c   10.95840913
_cell_angle_alpha   74.49705083
_cell_angle_beta   90.00000000
_cell_angle_gamma   90.00000000
_symmetry_Int_Tables_number   1
_chemical_formula_structural   Ba4Ti6Si4O25
_chemical_formula_sum   'Ba8 Ti12 Si8 O50'
_cell_volume   1061.33714605
_cell_formula_units_Z   2
loop_
 _symmetry_equiv_pos_site_id
 _symmetry_equiv_pos_as_xyz
  1  'x, y, z'
loop_
 _atom_site_type_symbol
 _atom_site_label
 _atom_site_symmetry_multiplicity
 _atom_site_fract_x
 _atom_site_fract_y
 _atom_site_fract_z
 _atom_site_occupancy
  Ba  Ba0  1  0.37795800  0.60130300  0.54721600  1
  Ba  Ba1  1  0.62204200  0.39869700  0.45278400  1
  Ba  Ba2  1  0.37795800  0.39869700  0.95278400  1
  Ba  Ba3  1  0.62204200  0.60130300  0.04721600  1
  Ba  Ba4  1  0.87770500  0.59382800  0.04815500  1
  Ba  Ba5  1  0.12229500  0.40617200  0.95184500  1
  Ba  Ba6  1  0.87770500  0.40617200  0.45184500  1
  Ba  Ba7  1  0.12229500  0.59382800  0.54815500  1
  Ti  Ti8  1  0.75174300  0.50000000  0.75000000  1
  Ti  Ti9  1  0.24825700  0.50000000  0.25000000  1
  Ti  Ti10  1  0.74719800  0.00000000  0.75000000  1
  Ti  Ti11  1  0.25280200  0.00000000  0.25000000  1
  Ti  Ti12  1  0.94849500  0.76329800  0.72777100  1
  Ti  Ti13  1  0.05150500  0.23670200  0.27222900  1
  Ti  Ti14  1  0.94849500  0.23670200  0.77222900  1
  Ti  Ti15  1  0.05150500  0.76329800  0.22777100  1
  Ti  Ti16  1  0.55127200  0.75808400  0.73031900  1
  Ti  Ti17  1  0.44872800  0.24191600  0.26968100  1
  Ti  Ti18  1  0.55127200  0.24191600  0.76968100  1
  Ti  Ti19  1  0.44872800  0.75808400  0.23031900  1
  Si  Si20  1  0.25104800  0.88742900  0.97260100  1
  Si  Si21  1  0.74895200  0.11257100  0.02739900  1
  Si  Si22  1  0.25104800  0.11257100  0.52739900  1
  Si  Si23  1  0.74895200  0.88742900  0.47260100  1
  Si  Si24  1  0.38315700  0.00000000  0.75000000  1
  Si  Si25  1  0.61684300  0.00000000  0.25000000  1
  Si  Si26  1  0.11860700  0.00000000  0.75000000  1
  Si  Si27  1  0.88139300  0.00000000  0.25000000  1
  O  O28  1  0.32876200  0.93908800  0.87930200  1
  O  O29  1  0.67123800  0.06091200  0.12069800  1
  O  O30  1  0.32876200  0.06091200  0.62069800  1
  O  O31  1  0.67123800  0.93908800  0.37930200  1
  O  O32  1  0.74728100  0.61605500  0.55662700  1
  O  O33  1  0.25271900  0.38394500  0.44337300  1
  O  O34  1  0.74728100  0.38394500  0.94337300  1
  O  O35  1  0.25271900  0.61605500  0.05662700  1
  O  O36  1  0.75074300  0.92382100  0.94354300  1
  O  O37  1  0.24925700  0.07617900  0.05645700  1
  O  O38  1  0.75074300  0.07617900  0.55645700  1
  O  O39  1  0.24925700  0.92382100  0.44354300  1
  O  O40  1  0.54752800  0.55902700  0.62745500  1
  O  O41  1  0.45247200  0.44097300  0.37254500  1
  O  O42  1  0.54752800  0.44097300  0.87254500  1
  O  O43  1  0.45247200  0.55902700  0.12745500  1
  O  O44  1  0.55524200  0.94018400  0.87009900  1
  O  O45  1  0.44475800  0.05981600  0.12990100  1
  O  O46  1  0.55524200  0.05981600  0.62990100  1
  O  O47  1  0.44475800  0.94018400  0.37009900  1
  O  O48  1  0.82498300  0.74441600  0.75601200  1
  O  O49  1  0.17501700  0.25558400  0.24398800  1
  O  O50  1  0.82498300  0.25558400  0.74398800  1
  O  O51  1  0.17501700  0.74441600  0.25601200  1
  O  O52  1  0.43248500  0.76619800  0.74930200  1
  O  O53  1  0.56751500  0.23380200  0.25069800  1
  O  O54  1  0.43248500  0.23380200  0.75069800  1
  O  O55  1  0.56751500  0.76619800  0.24930200  1
  O  O56  1  0.82629300  0.92206300  0.37846700  1
  O  O57  1  0.17370700  0.07793700  0.62153300  1
  O  O58  1  0.82629300  0.07793700  0.12153300  1
  O  O59  1  0.17370700  0.92206300  0.87846700  1
  O  O60  1  0.93173600  0.77072200  0.24389800  1
  O  O61  1  0.06826400  0.22927800  0.75610200  1
  O  O62  1  0.93173600  0.22927800  0.25610200  1
  O  O63  1  0.06826400  0.77072200  0.74389800  1
  O  O64  1  0.25182300  0.50000000  0.75000000  1
  O  O65  1  0.74817700  0.50000000  0.25000000  1
  O  O66  1  0.94352000  0.93557100  0.87067500  1
  O  O67  1  0.05648000  0.06442900  0.12932500  1
  O  O68  1  0.94352000  0.06442900  0.62932500  1
  O  O69  1  0.05648000  0.93557100  0.37067500  1
  O  O70  1  0.67321000  0.74552700  0.75905500  1
  O  O71  1  0.32679000  0.25447300  0.24094500  1
  O  O72  1  0.67321000  0.25447300  0.74094500  1
  O  O73  1  0.32679000  0.74552700  0.25905500  1
  O  O74  1  0.95229800  0.55819600  0.62766800  1
  O  O75  1  0.04770200  0.44180400  0.37233200  1
  O  O76  1  0.95229800  0.44180400  0.87233200  1
  O  O77  1  0.04770200  0.55819600  0.12766800  1
