# generated using pymatgen
data_Ba2Ti4Fe2O13
_symmetry_space_group_name_H-M   'P 1'
_cell_length_a   7.90445556
_cell_length_b   7.90445556
_cell_length_c   9.25823590
_cell_angle_alpha   81.41983455
_cell_angle_beta   81.41983455
_cell_angle_gamma   28.79688439
_symmetry_Int_Tables_number   1
_chemical_formula_structural   Ba2Ti4Fe2O13
_chemical_formula_sum   'Ba2 Ti4 Fe2 O13'
_cell_volume   275.32154140
_cell_formula_units_Z   1
loop_
 _symmetry_equiv_pos_site_id
 _symmetry_equiv_pos_as_xyz
  1  'x, y, z'
loop_
 _atom_site_type_symbol
 _atom_site_label
 _atom_site_symmetry_multiplicity
 _atom_site_fract_x
 _atom_site_fract_y
 _atom_site_fract_z
 _atom_site_occupancy
  Ba  Ba0  1  0.55029000  0.55029000  0.23137600  1
  Ba  Ba1  1  0.44971000  0.44971000  0.76862400  1
  Ti  Ti2  1  0.83368400  0.83368400  0.43625300  1
  Ti  Ti3  1  0.16631600  0.16631600  0.56374700  1
  Ti  Ti4  1  0.87765900  0.87765900  0.08616100  1
  Ti  Ti5  1  0.12234100  0.12234100  0.91383900  1
  Fe  Fe6  1  0.24157800  0.24157800  0.23703800  1
  Fe  Fe7  1  0.75842200  0.75842200  0.76296200  1
  O  O8  1  0.87218900  0.87218900  0.61408500  1
  O  O9  1  0.12781100  0.12781100  0.38591500  1
  O  O10  1  0.36852500  0.36852500  0.11158800  1
  O  O11  1  0.63147500  0.63147500  0.88841200  1
  O  O12  1  0.93100800  0.93100800  0.29961000  1
  O  O13  1  0.06899200  0.06899200  0.70039000  1
  O  O14  1  0.76527700  0.76527700  0.24144000  1
  O  O15  1  0.23472300  0.23472300  0.75856000  1
  O  O16  1  0.00000000  0.00000000  0.00000000  1
  O  O17  1  0.69955200  0.69955200  0.56916300  1
  O  O18  1  0.30044800  0.30044800  0.43083700  1
  O  O19  1  0.16542500  0.16542500  0.08608500  1
  O  O20  1  0.83457500  0.83457500  0.91391500  1
