# generated using pymatgen
data_AsC2S3NF8
_symmetry_space_group_name_H-M   'P 1'
_cell_length_a   6.71940000
_cell_length_b   7.88848237
_cell_length_c   9.81597362
_cell_angle_alpha   101.04581615
_cell_angle_beta   96.14483683
_cell_angle_gamma   106.94504210
_symmetry_Int_Tables_number   1
_chemical_formula_structural   AsC2S3NF8
_chemical_formula_sum   'As2 C4 S6 N2 F16'
_cell_volume   481.08687204
_cell_formula_units_Z   2
loop_
 _symmetry_equiv_pos_site_id
 _symmetry_equiv_pos_as_xyz
  1  'x, y, z'
loop_
 _atom_site_type_symbol
 _atom_site_label
 _atom_site_symmetry_multiplicity
 _atom_site_fract_x
 _atom_site_fract_y
 _atom_site_fract_z
 _atom_site_occupancy
  As  As0  1  0.55628300  0.30408100  0.22315000  1
  As  As1  1  0.44371700  0.69591900  0.77685000  1
  C  C2  1  0.05092900  0.10565800  0.53221800  1
  C  C3  1  0.94907100  0.89434200  0.46778200  1
  C  C4  1  0.02265000  0.82911300  0.33117600  1
  C  C5  1  0.97735000  0.17088700  0.66882400  1
  S  S6  1  0.20407800  0.70786700  0.34198000  1
  S  S7  1  0.79592200  0.29213300  0.65802000  1
  S  S8  1  0.25101700  0.67843000  0.13895800  1
  S  S9  1  0.74898300  0.32157000  0.86104200  1
  S  S10  1  0.02323700  0.79583600  0.06957200  1
  S  S11  1  0.97676300  0.20416400  0.93042800  1
  N  N12  1  0.05054900  0.14210700  0.78511600  1
  N  N13  1  0.94945100  0.85789300  0.21488400  1
  F  F14  1  0.51263000  0.10828800  0.29327000  1
  F  F15  1  0.48737000  0.89171200  0.70673000  1
  F  F16  1  0.40188800  0.16663200  0.05899100  1
  F  F17  1  0.59811200  0.83336800  0.94100900  1
  F  F18  1  0.60336000  0.50090200  0.15172600  1
  F  F19  1  0.39664000  0.49909800  0.84827400  1
  F  F20  1  0.99701300  0.19482700  0.43536700  1
  F  F21  1  0.00298700  0.80517300  0.56463300  1
  F  F22  1  0.32790400  0.34331000  0.27835800  1
  F  F23  1  0.67209600  0.65669000  0.72164200  1
  F  F24  1  0.26485700  0.14340600  0.55716600  1
  F  F25  1  0.73514300  0.85659400  0.44283400  1
  F  F26  1  0.28534700  0.55898000  0.61507900  1
  F  F27  1  0.71465300  0.44102000  0.38492100  1
  F  F28  1  0.78706300  0.26987800  0.16183200  1
  F  F29  1  0.21293700  0.73012200  0.83816800  1
