# generated using pymatgen
data_Ba3Eu(BO2)9
_symmetry_space_group_name_H-M   'P 1'
_cell_length_a   7.30470963
_cell_length_b   7.30470963
_cell_length_c   17.80214500
_cell_angle_alpha   90.00000000
_cell_angle_beta   90.00000000
_cell_angle_gamma   119.99999665
_symmetry_Int_Tables_number   1
_chemical_formula_structural   Ba3Eu(BO2)9
_chemical_formula_sum   'Ba6 Eu2 B18 O36'
_cell_volume   822.63824130
_cell_formula_units_Z   2
loop_
 _symmetry_equiv_pos_site_id
 _symmetry_equiv_pos_as_xyz
  1  'x, y, z'
loop_
 _atom_site_type_symbol
 _atom_site_label
 _atom_site_symmetry_multiplicity
 _atom_site_fract_x
 _atom_site_fract_y
 _atom_site_fract_z
 _atom_site_occupancy
  Ba  Ba0  1  0.66666700  0.33333300  0.86744500  1
  Ba  Ba1  1  0.33333300  0.66666700  0.13255500  1
  Ba  Ba2  1  0.33333300  0.66666700  0.36744500  1
  Ba  Ba3  1  0.66666700  0.33333300  0.63255500  1
  Ba  Ba4  1  0.00000000  0.00000000  0.75000000  1
  Ba  Ba5  1  0.00000000  0.00000000  0.25000000  1
  Eu  Eu6  1  0.00000000  0.00000000  0.00000000  1
  Eu  Eu7  1  0.00000000  0.00000000  0.50000000  1
  B  B8  1  0.54910000  0.83477700  0.91776500  1
  B  B9  1  0.45090000  0.16522300  0.08223500  1
  B  B10  1  0.28567700  0.45090000  0.91776500  1
  B  B11  1  0.45090000  0.16522300  0.41776500  1
  B  B12  1  0.71432300  0.54910000  0.08223500  1
  B  B13  1  0.54910000  0.83477700  0.58223500  1
  B  B14  1  0.16522300  0.71432300  0.91776500  1
  B  B15  1  0.71432300  0.54910000  0.41776500  1
  B  B16  1  0.83477700  0.28567700  0.08223500  1
  B  B17  1  0.28567700  0.45090000  0.58223500  1
  B  B18  1  0.83477700  0.28567700  0.41776500  1
  B  B19  1  0.16522300  0.71432300  0.58223500  1
  B  B20  1  0.50459700  0.62211300  0.75000000  1
  B  B21  1  0.49540300  0.37788700  0.25000000  1
  B  B22  1  0.11751600  0.49540300  0.75000000  1
  B  B23  1  0.88248400  0.50459700  0.25000000  1
  B  B24  1  0.37788700  0.88248400  0.75000000  1
  B  B25  1  0.62211300  0.11751600  0.25000000  1
  O  O26  1  0.54109600  0.83230600  0.75000000  1
  O  O27  1  0.45890400  0.16769400  0.25000000  1
  O  O28  1  0.29121000  0.45890400  0.75000000  1
  O  O29  1  0.70879000  0.54109600  0.25000000  1
  O  O30  1  0.16769400  0.70879000  0.75000000  1
  O  O31  1  0.83230600  0.29121000  0.25000000  1
  O  O32  1  0.92093300  0.33342600  0.75000000  1
  O  O33  1  0.07906700  0.66657400  0.25000000  1
  O  O34  1  0.41249300  0.07906700  0.75000000  1
  O  O35  1  0.58750700  0.92093300  0.25000000  1
  O  O36  1  0.66657400  0.58750700  0.75000000  1
  O  O37  1  0.33342600  0.41249300  0.25000000  1
  O  O38  1  0.74635300  0.99564300  0.91725100  1
  O  O39  1  0.25364700  0.00435700  0.08274900  1
  O  O40  1  0.24928900  0.25364700  0.91725100  1
  O  O41  1  0.25364700  0.00435700  0.41725100  1
  O  O42  1  0.75071100  0.74635300  0.08274900  1
  O  O43  1  0.74635300  0.99564300  0.58274900  1
  O  O44  1  0.00435700  0.75071100  0.91725100  1
  O  O45  1  0.75071100  0.74635300  0.41725100  1
  O  O46  1  0.99564300  0.24928900  0.08274900  1
  O  O47  1  0.24928900  0.25364700  0.58274900  1
  O  O48  1  0.99564300  0.24928900  0.41725100  1
  O  O49  1  0.00435700  0.75071100  0.58274900  1
  O  O50  1  0.49671600  0.62092800  0.91832100  1
  O  O51  1  0.50328400  0.37907200  0.08167900  1
  O  O52  1  0.12421200  0.50328400  0.91832100  1
  O  O53  1  0.50328400  0.37907200  0.41832100  1
  O  O54  1  0.87578800  0.49671600  0.08167900  1
  O  O55  1  0.49671600  0.62092800  0.58167900  1
  O  O56  1  0.37907200  0.87578800  0.91832100  1
  O  O57  1  0.87578800  0.49671600  0.41832100  1
  O  O58  1  0.62092800  0.12421200  0.08167900  1
  O  O59  1  0.12421200  0.50328400  0.58167900  1
  O  O60  1  0.62092800  0.12421200  0.41832100  1
  O  O61  1  0.37907200  0.87578800  0.58167900  1
