# generated using pymatgen
data_Ba2Tm2CuPtO8
_symmetry_space_group_name_H-M   'P 1'
_cell_length_a   5.69418700
_cell_length_b   10.36922600
_cell_length_c   13.29394700
_cell_angle_alpha   90.00000000
_cell_angle_beta   90.00000000
_cell_angle_gamma   90.00000000
_symmetry_Int_Tables_number   1
_chemical_formula_structural   Ba2Tm2CuPtO8
_chemical_formula_sum   'Ba8 Tm8 Cu4 Pt4 O32'
_cell_volume   784.93195291
_cell_formula_units_Z   4
loop_
 _symmetry_equiv_pos_site_id
 _symmetry_equiv_pos_as_xyz
  1  'x, y, z'
loop_
 _atom_site_type_symbol
 _atom_site_label
 _atom_site_symmetry_multiplicity
 _atom_site_fract_x
 _atom_site_fract_y
 _atom_site_fract_z
 _atom_site_occupancy
  Ba  Ba0  1  0.25000000  0.40725400  0.42276000  1
  Ba  Ba1  1  0.75000000  0.59274600  0.57724000  1
  Ba  Ba2  1  0.75000000  0.90725400  0.07724000  1
  Ba  Ba3  1  0.25000000  0.09274600  0.92276000  1
  Ba  Ba4  1  0.25000000  0.68495600  0.20717500  1
  Ba  Ba5  1  0.75000000  0.31504400  0.79282500  1
  Ba  Ba6  1  0.75000000  0.18495600  0.29282500  1
  Ba  Ba7  1  0.25000000  0.81504400  0.70717500  1
  Tm  Tm8  1  0.25000000  0.01286900  0.41734300  1
  Tm  Tm9  1  0.75000000  0.98713100  0.58265700  1
  Tm  Tm10  1  0.75000000  0.51286900  0.08265700  1
  Tm  Tm11  1  0.25000000  0.48713100  0.91734300  1
  Tm  Tm12  1  0.25000000  0.31202200  0.14113700  1
  Tm  Tm13  1  0.75000000  0.68797800  0.85886300  1
  Tm  Tm14  1  0.75000000  0.81202200  0.35886300  1
  Tm  Tm15  1  0.25000000  0.18797800  0.64113700  1
  Cu  Cu16  1  0.25000000  0.73439200  0.46053900  1
  Cu  Cu17  1  0.75000000  0.26560800  0.53946100  1
  Cu  Cu18  1  0.75000000  0.23439200  0.03946100  1
  Cu  Cu19  1  0.25000000  0.76560800  0.96053900  1
  Pt  Pt20  1  0.25000000  0.03183900  0.19476100  1
  Pt  Pt21  1  0.75000000  0.96816100  0.80523900  1
  Pt  Pt22  1  0.75000000  0.53183900  0.30523900  1
  Pt  Pt23  1  0.25000000  0.46816100  0.69476100  1
  O  O24  1  0.25000000  0.18582600  0.29698000  1
  O  O25  1  0.75000000  0.81417400  0.70302000  1
  O  O26  1  0.75000000  0.68582600  0.20302000  1
  O  O27  1  0.25000000  0.31417400  0.79698000  1
  O  O28  1  0.50897400  0.44263700  0.21403000  1
  O  O29  1  0.49102600  0.55736300  0.78597000  1
  O  O30  1  0.49102600  0.94263700  0.28597000  1
  O  O31  1  0.00897400  0.55736300  0.78597000  1
  O  O32  1  0.50897400  0.05736300  0.71403000  1
  O  O33  1  0.99102600  0.44263700  0.21403000  1
  O  O34  1  0.99102600  0.05736300  0.71403000  1
  O  O35  1  0.00897400  0.94263700  0.28597000  1
  O  O36  1  0.00988500  0.14039100  0.11384100  1
  O  O37  1  0.99011500  0.85960900  0.88615900  1
  O  O38  1  0.99011500  0.64039100  0.38615900  1
  O  O39  1  0.50988500  0.85960900  0.88615900  1
  O  O40  1  0.00988500  0.35960900  0.61384100  1
  O  O41  1  0.49011500  0.14039100  0.11384100  1
  O  O42  1  0.49011500  0.35960900  0.61384100  1
  O  O43  1  0.50988500  0.64039100  0.38615900  1
  O  O44  1  0.50365300  0.36594900  0.00854800  1
  O  O45  1  0.49634700  0.63405100  0.99145200  1
  O  O46  1  0.49634700  0.86594900  0.49145200  1
  O  O47  1  0.00365300  0.63405100  0.99145200  1
  O  O48  1  0.50365300  0.13405100  0.50854800  1
  O  O49  1  0.99634700  0.36594900  0.00854800  1
  O  O50  1  0.99634700  0.13405100  0.50854800  1
  O  O51  1  0.00365300  0.86594900  0.49145200  1
  O  O52  1  0.25000000  0.60998600  0.58841700  1
  O  O53  1  0.75000000  0.39001400  0.41158300  1
  O  O54  1  0.75000000  0.10998600  0.91158300  1
  O  O55  1  0.25000000  0.89001400  0.08841700  1
