# generated using pymatgen
data_Ba6Na2Nb2V2O17
_symmetry_space_group_name_H-M   'P 1'
_cell_length_a   6.00663432
_cell_length_b   6.00663432
_cell_length_c   30.48695400
_cell_angle_alpha   90.00000000
_cell_angle_beta   90.00000000
_cell_angle_gamma   120.00000348
_symmetry_Int_Tables_number   1
_chemical_formula_structural   Ba6Na2Nb2V2O17
_chemical_formula_sum   'Ba12 Na4 Nb4 V4 O34'
_cell_volume   952.59223646
_cell_formula_units_Z   2
loop_
 _symmetry_equiv_pos_site_id
 _symmetry_equiv_pos_as_xyz
  1  'x, y, z'
loop_
 _atom_site_type_symbol
 _atom_site_label
 _atom_site_symmetry_multiplicity
 _atom_site_fract_x
 _atom_site_fract_y
 _atom_site_fract_z
 _atom_site_occupancy
  Ba  Ba0  1  0.33333300  0.66666700  0.18103800  1
  Ba  Ba1  1  0.66666700  0.33333300  0.81896200  1
  Ba  Ba2  1  0.66666700  0.33333300  0.68103800  1
  Ba  Ba3  1  0.33333300  0.66666700  0.31896200  1
  Ba  Ba4  1  0.00000000  0.00000000  0.00000000  1
  Ba  Ba5  1  0.00000000  0.00000000  0.50000000  1
  Ba  Ba6  1  0.33333300  0.66666700  0.59039000  1
  Ba  Ba7  1  0.66666700  0.33333300  0.40961000  1
  Ba  Ba8  1  0.66666700  0.33333300  0.09039000  1
  Ba  Ba9  1  0.33333300  0.66666700  0.90961000  1
  Ba  Ba10  1  0.00000000  0.00000000  0.25000000  1
  Ba  Ba11  1  0.00000000  0.00000000  0.75000000  1
  Na  Na12  1  0.00000000  0.00000000  0.12422800  1
  Na  Na13  1  0.00000000  0.00000000  0.87577200  1
  Na  Na14  1  0.00000000  0.00000000  0.62422800  1
  Na  Na15  1  0.00000000  0.00000000  0.37577200  1
  Nb  Nb16  1  0.33333300  0.66666700  0.70134800  1
  Nb  Nb17  1  0.66666700  0.33333300  0.29865200  1
  Nb  Nb18  1  0.66666700  0.33333300  0.20134800  1
  Nb  Nb19  1  0.33333300  0.66666700  0.79865200  1
  V  V20  1  0.33333300  0.66666700  0.05212300  1
  V  V21  1  0.66666700  0.33333300  0.94787700  1
  V  V22  1  0.66666700  0.33333300  0.55212300  1
  V  V23  1  0.33333300  0.66666700  0.44787700  1
  O  O24  1  0.33333300  0.66666700  0.50437300  1
  O  O25  1  0.66666700  0.33333300  0.49562700  1
  O  O26  1  0.66666700  0.33333300  0.00437300  1
  O  O27  1  0.33333300  0.66666700  0.99562700  1
  O  O28  1  0.17491300  0.34982500  0.66953800  1
  O  O29  1  0.82508700  0.65017500  0.33046200  1
  O  O30  1  0.65017500  0.82508700  0.66953800  1
  O  O31  1  0.82508700  0.65017500  0.16953800  1
  O  O32  1  0.34982500  0.17491300  0.33046200  1
  O  O33  1  0.17491300  0.34982500  0.83046200  1
  O  O34  1  0.17491300  0.82508700  0.66953800  1
  O  O35  1  0.34982500  0.17491300  0.16953800  1
  O  O36  1  0.82508700  0.17491300  0.33046200  1
  O  O37  1  0.65017500  0.82508700  0.83046200  1
  O  O38  1  0.82508700  0.17491300  0.16953800  1
  O  O39  1  0.17491300  0.82508700  0.83046200  1
  O  O40  1  0.51440600  0.02881200  0.25000000  1
  O  O41  1  0.48559400  0.97118800  0.75000000  1
  O  O42  1  0.97118800  0.48559400  0.25000000  1
  O  O43  1  0.02881200  0.51440600  0.75000000  1
  O  O44  1  0.51440600  0.48559400  0.25000000  1
  O  O45  1  0.48559400  0.51440600  0.75000000  1
  O  O46  1  0.17578700  0.35157400  0.07230300  1
  O  O47  1  0.82421300  0.64842600  0.92769700  1
  O  O48  1  0.64842600  0.82421300  0.07230300  1
  O  O49  1  0.82421300  0.64842600  0.57230300  1
  O  O50  1  0.35157400  0.17578700  0.92769700  1
  O  O51  1  0.17578700  0.35157400  0.42769700  1
  O  O52  1  0.17578700  0.82421300  0.07230300  1
  O  O53  1  0.35157400  0.17578700  0.57230300  1
  O  O54  1  0.82421300  0.17578700  0.92769700  1
  O  O55  1  0.64842600  0.82421300  0.42769700  1
  O  O56  1  0.82421300  0.17578700  0.57230300  1
  O  O57  1  0.17578700  0.82421300  0.42769700  1
