# generated using pymatgen
data_Ba2V2CuClO7
_symmetry_space_group_name_H-M   'P 1'
_cell_length_a   9.10073500
_cell_length_b   9.10073500
_cell_length_c   5.51178200
_cell_angle_alpha   90.00000000
_cell_angle_beta   90.00000000
_cell_angle_gamma   90.00000000
_symmetry_Int_Tables_number   1
_chemical_formula_structural   Ba2V2CuClO7
_chemical_formula_sum   'Ba4 V4 Cu2 Cl2 O14'
_cell_volume   456.50440151
_cell_formula_units_Z   2
loop_
 _symmetry_equiv_pos_site_id
 _symmetry_equiv_pos_as_xyz
  1  'x, y, z'
loop_
 _atom_site_type_symbol
 _atom_site_label
 _atom_site_symmetry_multiplicity
 _atom_site_fract_x
 _atom_site_fract_y
 _atom_site_fract_z
 _atom_site_occupancy
  Ba  Ba0  1  0.17743300  0.67743300  0.38548700  1
  Ba  Ba1  1  0.82256700  0.32256700  0.38548700  1
  Ba  Ba2  1  0.67743300  0.82256700  0.38548700  1
  Ba  Ba3  1  0.32256700  0.17743300  0.38548700  1
  V  V4  1  0.63044700  0.13044700  0.92763100  1
  V  V5  1  0.36955300  0.86955300  0.92763100  1
  V  V6  1  0.13044700  0.36955300  0.92763100  1
  V  V7  1  0.86955300  0.63044700  0.92763100  1
  Cu  Cu8  1  0.00000000  0.00000000  0.99183600  1
  Cu  Cu9  1  0.50000000  0.50000000  0.99183600  1
  Cl  Cl10  1  0.00000000  0.00000000  0.53443600  1
  Cl  Cl11  1  0.50000000  0.50000000  0.53443600  1
  O  O12  1  0.00000000  0.50000000  0.07034200  1
  O  O13  1  0.50000000  0.00000000  0.07034200  1
  O  O14  1  0.62546700  0.12546700  0.61155400  1
  O  O15  1  0.37453300  0.87453300  0.61155400  1
  O  O16  1  0.12546700  0.37453300  0.61155400  1
  O  O17  1  0.87453300  0.62546700  0.61155400  1
  O  O18  1  0.08868600  0.20141900  0.04831000  1
  O  O19  1  0.91131400  0.79858100  0.04831000  1
  O  O20  1  0.20141900  0.91131400  0.04831000  1
  O  O21  1  0.41131400  0.70141900  0.04831000  1
  O  O22  1  0.79858100  0.08868600  0.04831000  1
  O  O23  1  0.58868600  0.29858100  0.04831000  1
  O  O24  1  0.29858100  0.41131400  0.04831000  1
  O  O25  1  0.70141900  0.58868600  0.04831000  1
