# generated using pymatgen
data_C10S(Cl4O)3
_symmetry_space_group_name_H-M   'P 1'
_cell_length_a   8.98628100
_cell_length_b   14.84533100
_cell_length_c   17.15800251
_cell_angle_alpha   68.31729254
_cell_angle_beta   90.00000000
_cell_angle_gamma   90.00000000
_symmetry_Int_Tables_number   1
_chemical_formula_structural   C10S(Cl4O)3
_chemical_formula_sum   'C40 S4 Cl48 O12'
_cell_volume   2126.99481086
_cell_formula_units_Z   4
loop_
 _symmetry_equiv_pos_site_id
 _symmetry_equiv_pos_as_xyz
  1  'x, y, z'
loop_
 _atom_site_type_symbol
 _atom_site_label
 _atom_site_symmetry_multiplicity
 _atom_site_fract_x
 _atom_site_fract_y
 _atom_site_fract_z
 _atom_site_occupancy
  C  C0  1  0.13171100  0.80982300  0.62212500  1
  C  C1  1  0.86828900  0.19017700  0.37787500  1
  C  C2  1  0.63171100  0.19017700  0.87787500  1
  C  C3  1  0.36828900  0.80982300  0.12212500  1
  C  C4  1  0.12944900  0.69965000  0.68305200  1
  C  C5  1  0.87055100  0.30035000  0.31694800  1
  C  C6  1  0.62944900  0.30035000  0.81694800  1
  C  C7  1  0.37055100  0.69965000  0.18305200  1
  C  C8  1  0.24828000  0.69787700  0.75300700  1
  C  C9  1  0.75172000  0.30212300  0.24699300  1
  C  C10  1  0.74828000  0.30212300  0.74699300  1
  C  C11  1  0.25172000  0.69787700  0.25300700  1
  C  C12  1  0.14975100  0.82384200  0.76187600  1
  C  C13  1  0.85024900  0.17615800  0.23812400  1
  C  C14  1  0.64975100  0.17615800  0.73812400  1
  C  C15  1  0.35024900  0.82384200  0.26187600  1
  C  C16  1  0.99218800  0.67388500  0.81892000  1
  C  C17  1  0.00781200  0.32611500  0.18108000  1
  C  C18  1  0.49218800  0.32611500  0.68108000  1
  C  C19  1  0.50781200  0.67388500  0.31892000  1
  C  C20  1  0.97847800  0.71589700  0.72252800  1
  C  C21  1  0.02152200  0.28410300  0.27747200  1
  C  C22  1  0.47847800  0.28410300  0.77747200  1
  C  C23  1  0.52152200  0.71589700  0.22252800  1
  C  C24  1  0.28653300  0.85146600  0.62652300  1
  C  C25  1  0.71346700  0.14853400  0.37347700  1
  C  C26  1  0.78653300  0.14853400  0.87347700  1
  C  C27  1  0.21346700  0.85146600  0.12652300  1
  C  C28  1  0.03043700  0.82547200  0.69139700  1
  C  C29  1  0.96956300  0.17452800  0.30860300  1
  C  C30  1  0.53043700  0.17452800  0.80860300  1
  C  C31  1  0.46956300  0.82547200  0.19139700  1
  C  C32  1  0.14853400  0.71415400  0.82260000  1
  C  C33  1  0.85146600  0.28584600  0.17740000  1
  C  C34  1  0.64853400  0.28584600  0.67740000  1
  C  C35  1  0.35146600  0.71415400  0.32260000  1
  C  C36  1  0.30145000  0.80737700  0.72224400  1
  C  C37  1  0.69855000  0.19262300  0.27775600  1
  C  C38  1  0.80145000  0.19262300  0.77775600  1
  C  C39  1  0.19855000  0.80737700  0.22224400  1
  S  S40  1  0.30857200  0.29870200  0.56025900  1
  S  S41  1  0.69142800  0.70129800  0.43974100  1
  S  S42  1  0.80857200  0.70129800  0.93974100  1
  S  S43  1  0.19142800  0.29870200  0.06025900  1
  Cl  Cl44  1  0.23002300  0.68557300  0.92022300  1
  Cl  Cl45  1  0.76997700  0.31442700  0.07977700  1
  Cl  Cl46  1  0.73002300  0.31442700  0.57977700  1
  Cl  Cl47  1  0.26997700  0.68557300  0.42022300  1
  Cl  Cl48  1  0.14510500  0.39649300  0.55261500  1
  Cl  Cl49  1  0.85489500  0.60350700  0.44738500  1
  Cl  Cl50  1  0.64510500  0.60350700  0.94738500  1
  Cl  Cl51  1  0.35489500  0.39649300  0.05261500  1
  Cl  Cl52  1  0.14232300  0.60851500  0.64295100  1
  Cl  Cl53  1  0.85767700  0.39148500  0.35704900  1
  Cl  Cl54  1  0.64232300  0.39148500  0.85704900  1
  Cl  Cl55  1  0.35767700  0.60851500  0.14295100  1
  Cl  Cl56  1  0.28772300  0.97969000  0.58755400  1
  Cl  Cl57  1  0.71227700  0.02031000  0.41244600  1
  Cl  Cl58  1  0.78772300  0.02031000  0.91244600  1
  Cl  Cl59  1  0.21227700  0.97969000  0.08755400  1
  Cl  Cl60  1  0.48248400  0.45287100  0.63560400  1
  Cl  Cl61  1  0.51751600  0.54712900  0.36439600  1
  Cl  Cl62  1  0.98248400  0.54712900  0.86439600  1
  Cl  Cl63  1  0.01751600  0.45287100  0.13560400  1
  Cl  Cl64  1  0.05627000  0.83859800  0.52316800  1
  Cl  Cl65  1  0.94373000  0.16140200  0.47683200  1
  Cl  Cl66  1  0.55627000  0.16140200  0.97683200  1
  Cl  Cl67  1  0.44373000  0.83859800  0.02316800  1
  Cl  Cl68  1  0.37702600  0.60472700  0.78125900  1
  Cl  Cl69  1  0.62297400  0.39527300  0.21874100  1
  Cl  Cl70  1  0.87702600  0.39527300  0.71874100  1
  Cl  Cl71  1  0.12297400  0.60472700  0.28125900  1
  Cl  Cl72  1  0.81436800  0.68972100  0.68235000  1
  Cl  Cl73  1  0.18563200  0.31027900  0.31765000  1
  Cl  Cl74  1  0.31436800  0.31027900  0.81765000  1
  Cl  Cl75  1  0.68563200  0.68972100  0.18235000  1
  Cl  Cl76  1  0.89937400  0.91689400  0.66298800  1
  Cl  Cl77  1  0.10062600  0.08310600  0.33701200  1
  Cl  Cl78  1  0.39937400  0.08310600  0.83701200  1
  Cl  Cl79  1  0.60062600  0.91689400  0.16298800  1
  Cl  Cl80  1  0.42366000  0.80735100  0.57554700  1
  Cl  Cl81  1  0.57634000  0.19264900  0.42445300  1
  Cl  Cl82  1  0.92366000  0.19264900  0.92445300  1
  Cl  Cl83  1  0.07634000  0.80735100  0.07554700  1
  Cl  Cl84  1  0.13262600  0.91286700  0.80378400  1
  Cl  Cl85  1  0.86737400  0.08713300  0.19621600  1
  Cl  Cl86  1  0.63262600  0.08713300  0.69621600  1
  Cl  Cl87  1  0.36737400  0.91286700  0.30378400  1
  Cl  Cl88  1  0.46525400  0.83220100  0.76368000  1
  Cl  Cl89  1  0.53474600  0.16779900  0.23632000  1
  Cl  Cl90  1  0.96525400  0.16779900  0.73632000  1
  Cl  Cl91  1  0.03474600  0.83220100  0.26368000  1
  O  O92  1  0.23667700  0.21007300  0.56852700  1
  O  O93  1  0.76332300  0.78992700  0.43147300  1
  O  O94  1  0.73667700  0.78992700  0.93147300  1
  O  O95  1  0.26332300  0.21007300  0.06852700  1
  O  O96  1  0.91386400  0.65459200  0.00455100  1
  O  O97  1  0.08613600  0.34540800  0.99544900  1
  O  O98  1  0.41386400  0.34540800  0.49544900  1
  O  O99  1  0.58613600  0.65459200  0.50455100  1
  O  O100  1  0.37588900  0.27704100  0.65307500  1
  O  O101  1  0.62411100  0.72295900  0.34692500  1
  O  O102  1  0.87588900  0.72295900  0.84692500  1
  O  O103  1  0.12411100  0.27704100  0.15307500  1
