# generated using pymatgen
data_Ba2Mg2MnF10
_symmetry_space_group_name_H-M   'P 1'
_cell_length_a   9.87873327
_cell_length_b   9.87873327
_cell_length_c   8.19336466
_cell_angle_alpha   70.09272740
_cell_angle_beta   70.09272740
_cell_angle_gamma   35.43019207
_symmetry_Int_Tables_number   1
_chemical_formula_structural   Ba2Mg2MnF10
_chemical_formula_sum   'Ba4 Mg4 Mn2 F20'
_cell_volume   432.90409191
_cell_formula_units_Z   2
loop_
 _symmetry_equiv_pos_site_id
 _symmetry_equiv_pos_as_xyz
  1  'x, y, z'
loop_
 _atom_site_type_symbol
 _atom_site_label
 _atom_site_symmetry_multiplicity
 _atom_site_fract_x
 _atom_site_fract_y
 _atom_site_fract_z
 _atom_site_occupancy
  Ba  Ba0  1  0.71635900  0.71635900  0.69381900  1
  Ba  Ba1  1  0.28364100  0.28364100  0.30618100  1
  Ba  Ba2  1  0.61661300  0.61661300  0.27534400  1
  Ba  Ba3  1  0.38338700  0.38338700  0.72465600  1
  Mg  Mg4  1  0.74509600  0.25490400  0.00000000  1
  Mg  Mg5  1  0.25490400  0.74509600  0.00000000  1
  Mg  Mg6  1  0.82269200  0.82269200  0.01383800  1
  Mg  Mg7  1  0.17730800  0.17730800  0.98616200  1
  Mn  Mn8  1  0.92464400  0.92464400  0.44552700  1
  Mn  Mn9  1  0.07535600  0.07535600  0.55447300  1
  F  F10  1  0.63667800  0.14266100  0.02387500  1
  F  F11  1  0.36332200  0.85733900  0.97612500  1
  F  F12  1  0.85733900  0.36332200  0.97612500  1
  F  F13  1  0.14266100  0.63667800  0.02387500  1
  F  F14  1  0.48428400  0.48428400  0.17306100  1
  F  F15  1  0.51571600  0.51571600  0.82693900  1
  F  F16  1  0.97930300  0.97930300  0.17161900  1
  F  F17  1  0.02069700  0.02069700  0.82838100  1
  F  F18  1  0.50000000  0.00000000  0.00000000  1
  F  F19  1  0.00000000  0.50000000  0.00000000  1
  F  F20  1  0.86260000  0.86260000  0.75146000  1
  F  F21  1  0.13740000  0.13740000  0.24854000  1
  F  F22  1  0.76154000  0.23846000  0.50000000  1
  F  F23  1  0.23846000  0.76154000  0.50000000  1
  F  F24  1  0.59657700  0.09279000  0.48340900  1
  F  F25  1  0.40342300  0.90721000  0.51659100  1
  F  F26  1  0.90721000  0.40342300  0.51659100  1
  F  F27  1  0.09279000  0.59657700  0.48340900  1
  F  F28  1  0.76617700  0.76617700  0.26512200  1
  F  F29  1  0.23382300  0.23382300  0.73487800  1
