# generated using pymatgen
data_Ba6NaNd(SiO4)4
_symmetry_space_group_name_H-M   'P 1'
_cell_length_a   5.78340600
_cell_length_b   7.45388900
_cell_length_c   20.33386500
_cell_angle_alpha   90.00000000
_cell_angle_beta   90.00000000
_cell_angle_gamma   90.00000000
_symmetry_Int_Tables_number   1
_chemical_formula_structural   Ba6NaNd(SiO4)4
_chemical_formula_sum   'Ba12 Na2 Nd2 Si8 O32'
_cell_volume   876.56986899
_cell_formula_units_Z   2
loop_
 _symmetry_equiv_pos_site_id
 _symmetry_equiv_pos_as_xyz
  1  'x, y, z'
loop_
 _atom_site_type_symbol
 _atom_site_label
 _atom_site_symmetry_multiplicity
 _atom_site_fract_x
 _atom_site_fract_y
 _atom_site_fract_z
 _atom_site_occupancy
  Ba  Ba0  1  0.50000000  0.67130100  0.02878600  1
  Ba  Ba1  1  0.50000000  0.17130100  0.97121400  1
  Ba  Ba2  1  0.50000000  0.00495800  0.16984000  1
  Ba  Ba3  1  0.50000000  0.50495800  0.83016000  1
  Ba  Ba4  1  0.00000000  0.66181600  0.24310200  1
  Ba  Ba5  1  0.00000000  0.16181600  0.75689800  1
  Ba  Ba6  1  0.00000000  0.32388800  0.08649800  1
  Ba  Ba7  1  0.00000000  0.82388800  0.91350200  1
  Ba  Ba8  1  0.00000000  0.99839900  0.41233300  1
  Ba  Ba9  1  0.00000000  0.49839900  0.58766700  1
  Ba  Ba10  1  0.50000000  0.82096400  0.67028200  1
  Ba  Ba11  1  0.50000000  0.32096400  0.32971800  1
  Na  Na12  1  0.00000000  0.65678600  0.74718400  1
  Na  Na13  1  0.00000000  0.15678600  0.25281600  1
  Nd  Nd14  1  0.50000000  0.66772300  0.47507500  1
  Nd  Nd15  1  0.50000000  0.16772300  0.52492500  1
  Si  Si16  1  0.00000000  0.94230100  0.57679100  1
  Si  Si17  1  0.00000000  0.44230100  0.42320900  1
  Si  Si18  1  0.00000000  0.88583400  0.08770400  1
  Si  Si19  1  0.00000000  0.38583400  0.91229600  1
  Si  Si20  1  0.50000000  0.44081300  0.17156600  1
  Si  Si21  1  0.50000000  0.94081300  0.82843400  1
  Si  Si22  1  0.50000000  0.87948600  0.34095700  1
  Si  Si23  1  0.50000000  0.37948600  0.65904300  1
  O  O24  1  0.75680800  0.87424600  0.53786600  1
  O  O25  1  0.24319200  0.37424600  0.46213400  1
  O  O26  1  0.75680800  0.37424600  0.46213400  1
  O  O27  1  0.24319200  0.87424600  0.53786600  1
  O  O28  1  0.50000000  0.66364200  0.35798600  1
  O  O29  1  0.50000000  0.16364200  0.64201400  1
  O  O30  1  0.00000000  0.65984600  0.42899700  1
  O  O31  1  0.00000000  0.15984600  0.57100300  1
  O  O32  1  0.50000000  0.66021600  0.17355300  1
  O  O33  1  0.50000000  0.16021600  0.82644700  1
  O  O34  1  0.50000000  0.97334100  0.41773900  1
  O  O35  1  0.50000000  0.47334100  0.58226100  1
  O  O36  1  0.76788500  0.97159200  0.05224600  1
  O  O37  1  0.23211500  0.47159200  0.94775400  1
  O  O38  1  0.76788500  0.47159200  0.94775400  1
  O  O39  1  0.23211500  0.97159200  0.05224600  1
  O  O40  1  0.73071100  0.95208800  0.30293300  1
  O  O41  1  0.26928900  0.45208800  0.69706700  1
  O  O42  1  0.73071100  0.45208800  0.69706700  1
  O  O43  1  0.26928900  0.95208800  0.30293300  1
  O  O44  1  0.72984300  0.35825400  0.20950000  1
  O  O45  1  0.27015700  0.85825400  0.79050000  1
  O  O46  1  0.72984300  0.85825400  0.79050000  1
  O  O47  1  0.27015700  0.35825400  0.20950000  1
  O  O48  1  0.50000000  0.35982900  0.09543100  1
  O  O49  1  0.50000000  0.85982900  0.90456900  1
  O  O50  1  0.00000000  0.85104100  0.64977600  1
  O  O51  1  0.00000000  0.35104100  0.35022400  1
  O  O52  1  0.00000000  0.66685700  0.08167200  1
  O  O53  1  0.00000000  0.16685700  0.91832800  1
  O  O54  1  0.00000000  0.95500000  0.16518300  1
  O  O55  1  0.00000000  0.45500000  0.83481700  1
