# generated using pymatgen
data_BaH2S5O6
_symmetry_space_group_name_H-M   'P 1'
_cell_length_a   5.40839700
_cell_length_b   10.26174000
_cell_length_c   22.35047000
_cell_angle_alpha   90.00000000
_cell_angle_beta   90.00000000
_cell_angle_gamma   90.00000000
_symmetry_Int_Tables_number   1
_chemical_formula_structural   BaH2S5O6
_chemical_formula_sum   'Ba4 H8 S20 O24'
_cell_volume   1240.44133641
_cell_formula_units_Z   4
loop_
 _symmetry_equiv_pos_site_id
 _symmetry_equiv_pos_as_xyz
  1  'x, y, z'
loop_
 _atom_site_type_symbol
 _atom_site_label
 _atom_site_symmetry_multiplicity
 _atom_site_fract_x
 _atom_site_fract_y
 _atom_site_fract_z
 _atom_site_occupancy
  Ba  Ba0  1  0.20674500  0.25000000  0.54938100  1
  Ba  Ba1  1  0.79325500  0.75000000  0.45061900  1
  Ba  Ba2  1  0.29325500  0.75000000  0.04938100  1
  Ba  Ba3  1  0.70674500  0.25000000  0.95061900  1
  H  H4  1  0.20400900  0.25000000  0.00950200  1
  H  H5  1  0.79599100  0.75000000  0.99049800  1
  H  H6  1  0.29599100  0.75000000  0.50950200  1
  H  H7  1  0.70400900  0.25000000  0.49049800  1
  H  H8  1  0.35875100  0.25000000  0.67771700  1
  H  H9  1  0.64124900  0.75000000  0.32228300  1
  H  H10  1  0.14124900  0.75000000  0.17771700  1
  H  H11  1  0.85875100  0.25000000  0.82228300  1
  S  S12  1  0.29375200  0.08692500  0.31902700  1
  S  S13  1  0.70624800  0.91307500  0.68097300  1
  S  S14  1  0.20624800  0.91307500  0.81902700  1
  S  S15  1  0.70624800  0.58692500  0.68097300  1
  S  S16  1  0.79375200  0.08692500  0.18097300  1
  S  S17  1  0.29375200  0.41307500  0.31902700  1
  S  S18  1  0.79375200  0.41307500  0.18097300  1
  S  S19  1  0.20624800  0.58692500  0.81902700  1
  S  S20  1  0.01164400  0.25000000  0.18137500  1
  S  S21  1  0.98835600  0.75000000  0.81862500  1
  S  S22  1  0.48835600  0.75000000  0.68137500  1
  S  S23  1  0.51164400  0.25000000  0.31862500  1
  S  S24  1  0.30687100  0.01129500  0.40851800  1
  S  S25  1  0.69312900  0.98870500  0.59148200  1
  S  S26  1  0.19312900  0.98870500  0.90851800  1
  S  S27  1  0.69312900  0.51129500  0.59148200  1
  S  S28  1  0.80687100  0.01129500  0.09148200  1
  S  S29  1  0.30687100  0.48870500  0.40851800  1
  S  S30  1  0.80687100  0.48870500  0.09148200  1
  S  S31  1  0.19312900  0.51129500  0.90851800  1
  O  O32  1  0.18426600  0.10374700  0.44875500  1
  O  O33  1  0.81573400  0.89625300  0.55124500  1
  O  O34  1  0.31573400  0.89625300  0.94875500  1
  O  O35  1  0.81573400  0.60374700  0.55124500  1
  O  O36  1  0.68426600  0.10374700  0.05124500  1
  O  O37  1  0.18426600  0.39625300  0.44875500  1
  O  O38  1  0.68426600  0.39625300  0.05124500  1
  O  O39  1  0.31573400  0.60374700  0.94875500  1
  O  O40  1  0.16869500  0.61108200  0.39946800  1
  O  O41  1  0.83130500  0.38891800  0.60053200  1
  O  O42  1  0.33130500  0.38891800  0.89946800  1
  O  O43  1  0.83130500  0.11108200  0.60053200  1
  O  O44  1  0.66869500  0.61108200  0.10053200  1
  O  O45  1  0.16869500  0.88891800  0.39946800  1
  O  O46  1  0.66869500  0.88891800  0.10053200  1
  O  O47  1  0.33130500  0.11108200  0.89946800  1
  O  O48  1  0.06880300  0.98837500  0.07675300  1
  O  O49  1  0.93119700  0.01162500  0.92324700  1
  O  O50  1  0.43119700  0.01162500  0.57675300  1
  O  O51  1  0.93119700  0.48837500  0.92324700  1
  O  O52  1  0.56880300  0.98837500  0.42324700  1
  O  O53  1  0.06880300  0.51162500  0.07675300  1
  O  O54  1  0.56880300  0.51162500  0.42324700  1
  O  O55  1  0.43119700  0.48837500  0.57675300  1
