# generated using pymatgen
data_CoS2(NO7)2
_symmetry_space_group_name_H-M   'P 1'
_cell_length_a   6.43479047
_cell_length_b   9.56760435
_cell_length_c   12.89437400
_cell_angle_alpha   90.00000000
_cell_angle_beta   90.00000000
_cell_angle_gamma   131.27569868
_symmetry_Int_Tables_number   1
_chemical_formula_structural   CoS2(NO7)2
_chemical_formula_sum   'Co2 S4 N4 O28'
_cell_volume   596.61242083
_cell_formula_units_Z   2
loop_
 _symmetry_equiv_pos_site_id
 _symmetry_equiv_pos_as_xyz
  1  'x, y, z'
loop_
 _atom_site_type_symbol
 _atom_site_label
 _atom_site_symmetry_multiplicity
 _atom_site_fract_x
 _atom_site_fract_y
 _atom_site_fract_z
 _atom_site_occupancy
  Co  Co0  1  0.50000000  0.00000000  0.00000000  1
  Co  Co1  1  0.50000000  0.50000000  0.50000000  1
  S  S2  1  0.97604600  0.66516000  0.88166900  1
  S  S3  1  0.02395400  0.33484000  0.11833100  1
  S  S4  1  0.02395400  0.83484000  0.38166900  1
  S  S5  1  0.97604600  0.16516000  0.61833100  1
  N  N6  1  0.83572400  0.63071400  0.16906800  1
  N  N7  1  0.16427600  0.36928600  0.83093200  1
  N  N8  1  0.16427600  0.86928600  0.66906800  1
  N  N9  1  0.83572400  0.13071400  0.33093200  1
  O  O10  1  0.86273200  0.74044400  0.93262800  1
  O  O11  1  0.13726800  0.25955600  0.06737200  1
  O  O12  1  0.13726800  0.75955600  0.43262800  1
  O  O13  1  0.86273200  0.24044400  0.56737200  1
  O  O14  1  0.79838200  0.03882500  0.95662900  1
  O  O15  1  0.20161800  0.96117500  0.04337100  1
  O  O16  1  0.20161800  0.46117500  0.45662900  1
  O  O17  1  0.79838200  0.53882500  0.54337100  1
  O  O18  1  0.29163800  0.79696500  0.89968500  1
  O  O19  1  0.70836200  0.20303500  0.10031500  1
  O  O20  1  0.70836200  0.70303500  0.39968500  1
  O  O21  1  0.29163800  0.29696500  0.60031500  1
  O  O22  1  0.85040200  0.97761800  0.58761900  1
  O  O23  1  0.14959800  0.02238200  0.41238100  1
  O  O24  1  0.14959800  0.52238200  0.08761900  1
  O  O25  1  0.85040200  0.47761800  0.91238100  1
  O  O26  1  0.33977700  0.50863300  0.79627900  1
  O  O27  1  0.66022300  0.49136700  0.20372100  1
  O  O28  1  0.66022300  0.99136700  0.29627900  1
  O  O29  1  0.33977700  0.00863300  0.70372100  1
  O  O30  1  0.46659700  0.62177400  0.59150200  1
  O  O31  1  0.53340300  0.37822600  0.40849800  1
  O  O32  1  0.53340300  0.87822600  0.09150200  1
  O  O33  1  0.46659700  0.12177400  0.90849800  1
  O  O34  1  0.94405900  0.66109100  0.76353500  1
  O  O35  1  0.05594100  0.33890900  0.23646500  1
  O  O36  1  0.05594100  0.83890900  0.26353500  1
  O  O37  1  0.94405900  0.16109100  0.73646500  1
