# generated using pymatgen
data_Ba2Dy2Co4O11
_symmetry_space_group_name_H-M   'P 1'
_cell_length_a   3.92521200
_cell_length_b   7.70064700
_cell_length_c   7.79406600
_cell_angle_alpha   90.00000000
_cell_angle_beta   90.00000000
_cell_angle_gamma   90.00000000
_symmetry_Int_Tables_number   1
_chemical_formula_structural   Ba2Dy2Co4O11
_chemical_formula_sum   'Ba2 Dy2 Co4 O11'
_cell_volume   235.58867662
_cell_formula_units_Z   1
loop_
 _symmetry_equiv_pos_site_id
 _symmetry_equiv_pos_as_xyz
  1  'x, y, z'
loop_
 _atom_site_type_symbol
 _atom_site_label
 _atom_site_symmetry_multiplicity
 _atom_site_fract_x
 _atom_site_fract_y
 _atom_site_fract_z
 _atom_site_occupancy
  Ba  Ba0  1  0.50000000  0.00000000  0.24918200  1
  Ba  Ba1  1  0.50000000  0.00000000  0.75081800  1
  Dy  Dy2  1  0.50000000  0.50000000  0.22863600  1
  Dy  Dy3  1  0.50000000  0.50000000  0.77136400  1
  Co  Co4  1  0.00000000  0.25537300  0.00000000  1
  Co  Co5  1  0.00000000  0.74462700  0.00000000  1
  Co  Co6  1  0.00000000  0.26003600  0.50000000  1
  Co  Co7  1  0.00000000  0.73996400  0.50000000  1
  O  O8  1  0.50000000  0.31830400  0.50000000  1
  O  O9  1  0.50000000  0.68169600  0.50000000  1
  O  O10  1  0.50000000  0.28012400  0.00000000  1
  O  O11  1  0.50000000  0.71987600  0.00000000  1
  O  O12  1  0.00000000  0.00000000  0.50000000  1
  O  O13  1  0.00000000  0.50000000  0.00000000  1
  O  O14  1  0.00000000  0.00000000  0.00000000  1
  O  O15  1  0.00000000  0.30290700  0.26855700  1
  O  O16  1  0.00000000  0.69709300  0.73144300  1
  O  O17  1  0.00000000  0.69709300  0.26855700  1
  O  O18  1  0.00000000  0.30290700  0.73144300  1
