# generated using pymatgen
data_Ba2EuCoCu2O7
_symmetry_space_group_name_H-M   'P 1'
_cell_length_a   3.90179100
_cell_length_b   3.92760500
_cell_length_c   11.98501600
_cell_angle_alpha   90.00000000
_cell_angle_beta   90.00000000
_cell_angle_gamma   90.00000000
_symmetry_Int_Tables_number   1
_chemical_formula_structural   Ba2EuCoCu2O7
_chemical_formula_sum   'Ba2 Eu1 Co1 Cu2 O7'
_cell_volume   183.66670087
_cell_formula_units_Z   1
loop_
 _symmetry_equiv_pos_site_id
 _symmetry_equiv_pos_as_xyz
  1  'x, y, z'
loop_
 _atom_site_type_symbol
 _atom_site_label
 _atom_site_symmetry_multiplicity
 _atom_site_fract_x
 _atom_site_fract_y
 _atom_site_fract_z
 _atom_site_occupancy
  Ba  Ba0  1  0.50000000  0.50000000  0.18524200  1
  Ba  Ba1  1  0.50000000  0.50000000  0.81475800  1
  Eu  Eu2  1  0.50000000  0.50000000  0.50000000  1
  Co  Co3  1  0.00000000  0.00000000  0.00000000  1
  Cu  Cu4  1  0.00000000  0.00000000  0.35767300  1
  Cu  Cu5  1  0.00000000  0.00000000  0.64232700  1
  O  O6  1  0.50000000  0.00000000  0.37175800  1
  O  O7  1  0.50000000  0.00000000  0.62824200  1
  O  O8  1  0.00000000  0.00000000  0.15019300  1
  O  O9  1  0.00000000  0.00000000  0.84980700  1
  O  O10  1  0.00000000  0.50000000  0.37205500  1
  O  O11  1  0.00000000  0.50000000  0.62794500  1
  O  O12  1  0.00000000  0.50000000  0.00000000  1
