# generated using pymatgen
data_Ba6Fe3Si8C2(ClO10)3
_symmetry_space_group_name_H-M   'P 1'
_cell_length_a   10.86779564
_cell_length_b   10.86779564
_cell_length_c   7.23343500
_cell_angle_alpha   90.00000000
_cell_angle_beta   90.00000000
_cell_angle_gamma   119.99999779
_symmetry_Int_Tables_number   1
_chemical_formula_structural   Ba6Fe3Si8C2(ClO10)3
_chemical_formula_sum   'Ba6 Fe3 Si8 C2 Cl3 O30'
_cell_volume   739.87465572
_cell_formula_units_Z   1
loop_
 _symmetry_equiv_pos_site_id
 _symmetry_equiv_pos_as_xyz
  1  'x, y, z'
loop_
 _atom_site_type_symbol
 _atom_site_label
 _atom_site_symmetry_multiplicity
 _atom_site_fract_x
 _atom_site_fract_y
 _atom_site_fract_z
 _atom_site_occupancy
  Ba  Ba0  1  0.16196500  0.83803500  0.52451500  1
  Ba  Ba1  1  0.16196500  0.32393000  0.52451500  1
  Ba  Ba2  1  0.67607000  0.83803500  0.52451500  1
  Ba  Ba3  1  0.84574100  0.15425900  0.00141100  1
  Ba  Ba4  1  0.84574100  0.69148200  0.00141100  1
  Ba  Ba5  1  0.30851800  0.15425900  0.00141100  1
  Fe  Fe6  1  0.76978200  0.23021800  0.50373400  1
  Fe  Fe7  1  0.76978200  0.53956400  0.50373400  1
  Fe  Fe8  1  0.46043600  0.23021800  0.50373400  1
  Si  Si9  1  0.50155900  0.49844100  0.77503300  1
  Si  Si10  1  0.50155900  0.00311800  0.77503300  1
  Si  Si11  1  0.99688200  0.49844100  0.77503300  1
  Si  Si12  1  0.33333300  0.66666700  0.21979800  1
  Si  Si13  1  0.50181600  0.49818400  0.23198400  1
  Si  Si14  1  0.50181600  0.00363200  0.23198400  1
  Si  Si15  1  0.99636800  0.49818400  0.23198400  1
  Si  Si16  1  0.33333300  0.66666700  0.78363900  1
  C  C17  1  0.00000000  0.00000000  0.66457700  1
  C  C18  1  0.00000000  0.00000000  0.25020100  1
  Cl  Cl19  1  0.17126100  0.82873900  0.95202000  1
  Cl  Cl20  1  0.17126100  0.34252300  0.95202000  1
  Cl  Cl21  1  0.65747700  0.82873900  0.95202000  1
  O  O22  1  0.41252600  0.07612100  0.31262000  1
  O  O23  1  0.92387900  0.33640500  0.31262000  1
  O  O24  1  0.92387900  0.58747400  0.31262000  1
  O  O25  1  0.66359500  0.58747400  0.31262000  1
  O  O26  1  0.66359500  0.07612100  0.31262000  1
  O  O27  1  0.41252600  0.33640500  0.31262000  1
  O  O28  1  0.50641500  0.49358500  0.00337100  1
  O  O29  1  0.50641500  0.01282900  0.00337100  1
  O  O30  1  0.98717100  0.49358500  0.00337100  1
  O  O31  1  0.66666700  0.33333300  0.50106000  1
  O  O32  1  0.06850500  0.93149500  0.24624600  1
  O  O33  1  0.06850500  0.13701000  0.24624600  1
  O  O34  1  0.86299000  0.93149500  0.24624600  1
  O  O35  1  0.66666700  0.33333300  0.00556800  1
  O  O36  1  0.33333300  0.66666700  0.00163000  1
  O  O37  1  0.93093700  0.06906300  0.66292300  1
  O  O38  1  0.93093700  0.86187400  0.66292300  1
  O  O39  1  0.13812600  0.06906300  0.66292300  1
  O  O40  1  0.41535100  0.07805400  0.69316300  1
  O  O41  1  0.92194600  0.33729600  0.69316300  1
  O  O42  1  0.92194600  0.58464900  0.69316300  1
  O  O43  1  0.66270400  0.58464900  0.69316300  1
  O  O44  1  0.66270400  0.07805400  0.69316300  1
  O  O45  1  0.41535100  0.33729600  0.69316300  1
  O  O46  1  0.41571900  0.58428100  0.70322000  1
  O  O47  1  0.41571900  0.83143800  0.70322000  1
  O  O48  1  0.16856200  0.58428100  0.70322000  1
  O  O49  1  0.41568900  0.58431100  0.29711900  1
  O  O50  1  0.41568900  0.83137900  0.29711900  1
  O  O51  1  0.16862100  0.58431100  0.29711900  1
