# generated using pymatgen
data_CoN7ClO5
_symmetry_space_group_name_H-M   'P 1'
_cell_length_a   6.71016200
_cell_length_b   10.67309500
_cell_length_c   15.76595500
_cell_angle_alpha   90.00000000
_cell_angle_beta   90.00000000
_cell_angle_gamma   90.00000000
_symmetry_Int_Tables_number   1
_chemical_formula_structural   CoN7ClO5
_chemical_formula_sum   'Co4 N28 Cl4 O20'
_cell_volume   1129.12926306
_cell_formula_units_Z   4
loop_
 _symmetry_equiv_pos_site_id
 _symmetry_equiv_pos_as_xyz
  1  'x, y, z'
loop_
 _atom_site_type_symbol
 _atom_site_label
 _atom_site_symmetry_multiplicity
 _atom_site_fract_x
 _atom_site_fract_y
 _atom_site_fract_z
 _atom_site_occupancy
  Co  Co0  1  0.25000000  0.20167100  0.17756500  1
  Co  Co1  1  0.75000000  0.79832900  0.82243500  1
  Co  Co2  1  0.75000000  0.70167100  0.32243500  1
  Co  Co3  1  0.25000000  0.29832900  0.67756500  1
  N  N4  1  0.25000000  0.04777500  0.20367400  1
  N  N5  1  0.75000000  0.95222500  0.79632600  1
  N  N6  1  0.75000000  0.54777500  0.29632600  1
  N  N7  1  0.25000000  0.45222500  0.70367400  1
  N  N8  1  0.25000000  0.56958800  0.14742500  1
  N  N9  1  0.75000000  0.43041200  0.85257500  1
  N  N10  1  0.75000000  0.06958800  0.35257500  1
  N  N11  1  0.25000000  0.93041200  0.64742500  1
  N  N12  1  0.25000000  0.50805300  0.41205800  1
  N  N13  1  0.75000000  0.49194700  0.58794200  1
  N  N14  1  0.75000000  0.00805300  0.08794200  1
  N  N15  1  0.25000000  0.99194700  0.91205800  1
  N  N16  1  0.16691900  0.31737400  0.00544300  1
  N  N17  1  0.83308100  0.68262600  0.99455700  1
  N  N18  1  0.83308100  0.81737400  0.49455700  1
  N  N19  1  0.66691900  0.68262600  0.99455700  1
  N  N20  1  0.16691900  0.18262600  0.50544300  1
  N  N21  1  0.33308100  0.31737400  0.00544300  1
  N  N22  1  0.33308100  0.18262600  0.50544300  1
  N  N23  1  0.66691900  0.81737400  0.49455700  1
  N  N24  1  0.06388500  0.27470100  0.22197200  1
  N  N25  1  0.93611500  0.72529900  0.77802800  1
  N  N26  1  0.93611500  0.77470100  0.27802800  1
  N  N27  1  0.56388500  0.72529900  0.77802800  1
  N  N28  1  0.06388500  0.22529900  0.72197200  1
  N  N29  1  0.43611500  0.27470100  0.22197200  1
  N  N30  1  0.43611500  0.22529900  0.72197200  1
  N  N31  1  0.56388500  0.77470100  0.27802800  1
  Cl  Cl32  1  0.25000000  0.97916200  0.29434700  1
  Cl  Cl33  1  0.75000000  0.02083800  0.70565300  1
  Cl  Cl34  1  0.75000000  0.47916200  0.20565300  1
  Cl  Cl35  1  0.25000000  0.52083800  0.79434700  1
  O  O36  1  0.25000000  0.63046900  0.08259400  1
  O  O37  1  0.75000000  0.36953100  0.91740600  1
  O  O38  1  0.75000000  0.13046900  0.41740600  1
  O  O39  1  0.25000000  0.86953100  0.58259400  1
  O  O40  1  0.08826600  0.44875100  0.40881700  1
  O  O41  1  0.91173400  0.55124900  0.59118300  1
  O  O42  1  0.91173400  0.94875100  0.09118300  1
  O  O43  1  0.58826600  0.55124900  0.59118300  1
  O  O44  1  0.08826600  0.05124900  0.90881700  1
  O  O45  1  0.41173400  0.44875100  0.40881700  1
  O  O46  1  0.41173400  0.05124900  0.90881700  1
  O  O47  1  0.58826600  0.94875100  0.09118300  1
  O  O48  1  0.25000000  0.59528300  0.22217600  1
  O  O49  1  0.75000000  0.40471700  0.77782400  1
  O  O50  1  0.75000000  0.09528300  0.27782400  1
  O  O51  1  0.25000000  0.90471700  0.72217600  1
  O  O52  1  0.25000000  0.62525000  0.41819100  1
  O  O53  1  0.75000000  0.37475000  0.58180900  1
  O  O54  1  0.75000000  0.12525000  0.08180900  1
  O  O55  1  0.25000000  0.87475000  0.91819100  1
