# generated using pymatgen
data_Ba2MnAl2CoF14
_symmetry_space_group_name_H-M   'P 1'
_cell_length_a   7.40386909
_cell_length_b   7.40386909
_cell_length_c   14.61814762
_cell_angle_alpha   88.60193438
_cell_angle_beta   88.60193438
_cell_angle_gamma   41.65966715
_symmetry_Int_Tables_number   1
_chemical_formula_structural   Ba2MnAl2CoF14
_chemical_formula_sum   'Ba4 Mn2 Al4 Co2 F28'
_cell_volume   532.46426296
_cell_formula_units_Z   2
loop_
 _symmetry_equiv_pos_site_id
 _symmetry_equiv_pos_as_xyz
  1  'x, y, z'
loop_
 _atom_site_type_symbol
 _atom_site_label
 _atom_site_symmetry_multiplicity
 _atom_site_fract_x
 _atom_site_fract_y
 _atom_site_fract_z
 _atom_site_occupancy
  Ba  Ba0  1  0.64294600  0.73509100  0.87956300  1
  Ba  Ba1  1  0.35705400  0.26490900  0.12043700  1
  Ba  Ba2  1  0.26490900  0.35705400  0.62043700  1
  Ba  Ba3  1  0.73509100  0.64294600  0.37956300  1
  Mn  Mn4  1  0.94309200  0.05690800  0.75000000  1
  Mn  Mn5  1  0.05690800  0.94309200  0.25000000  1
  Al  Al6  1  0.61638000  0.61930900  0.62435700  1
  Al  Al7  1  0.38362000  0.38069100  0.37564300  1
  Al  Al8  1  0.38069100  0.38362000  0.87564300  1
  Al  Al9  1  0.61930900  0.61638000  0.12435700  1
  Co  Co10  1  0.00000000  0.00000000  0.50000000  1
  Co  Co11  1  0.00000000  0.00000000  0.00000000  1
  F  F12  1  0.34037300  0.89490200  0.70022000  1
  F  F13  1  0.65962700  0.10509800  0.29978000  1
  F  F14  1  0.10509800  0.65962700  0.79978000  1
  F  F15  1  0.89490200  0.34037300  0.20022000  1
  F  F16  1  0.65864200  0.09390600  0.95236500  1
  F  F17  1  0.34135800  0.90609400  0.04763500  1
  F  F18  1  0.90609400  0.34135800  0.54763500  1
  F  F19  1  0.09390600  0.65864200  0.45236500  1
  F  F20  1  0.39545500  0.76545100  0.52402900  1
  F  F21  1  0.60454500  0.23454900  0.47597100  1
  F  F22  1  0.23454900  0.60454500  0.97597100  1
  F  F23  1  0.76545100  0.39545500  0.02402900  1
  F  F24  1  0.54110000  0.13495600  0.78212500  1
  F  F25  1  0.45890000  0.86504400  0.21787500  1
  F  F26  1  0.86504400  0.45890000  0.71787500  1
  F  F27  1  0.13495600  0.54110000  0.28212500  1
  F  F28  1  0.58531000  0.40890500  0.65779200  1
  F  F29  1  0.41469000  0.59109500  0.34220800  1
  F  F30  1  0.59109500  0.41469000  0.84220800  1
  F  F31  1  0.40890500  0.58531000  0.15779200  1
  F  F32  1  0.88173400  0.99830800  0.12437800  1
  F  F33  1  0.11826600  0.00169200  0.87562200  1
  F  F34  1  0.00169200  0.11826600  0.37562200  1
  F  F35  1  0.99830800  0.88173400  0.62437800  1
  F  F36  1  0.68135900  0.80151800  0.58794800  1
  F  F37  1  0.31864100  0.19848200  0.41205200  1
  F  F38  1  0.19848200  0.31864100  0.91205200  1
  F  F39  1  0.80151800  0.68135900  0.08794800  1
