# generated using pymatgen
data_AuBr4N
_symmetry_space_group_name_H-M   'P 1'
_cell_length_a   6.34459400
_cell_length_b   7.66981900
_cell_length_c   10.72996350
_cell_angle_alpha   58.19854518
_cell_angle_beta   90.00000000
_cell_angle_gamma   90.00000000
_symmetry_Int_Tables_number   1
_chemical_formula_structural   AuBr4N
_chemical_formula_sum   'Au2 Br8 N2'
_cell_volume   443.75622027
_cell_formula_units_Z   2
loop_
 _symmetry_equiv_pos_site_id
 _symmetry_equiv_pos_as_xyz
  1  'x, y, z'
loop_
 _atom_site_type_symbol
 _atom_site_label
 _atom_site_symmetry_multiplicity
 _atom_site_fract_x
 _atom_site_fract_y
 _atom_site_fract_z
 _atom_site_occupancy
  Au  Au0  1  0.00000000  0.50000000  0.50000000  1
  Au  Au1  1  0.50000000  0.50000000  0.00000000  1
  Br  Br2  1  0.98316400  0.87194200  0.38353800  1
  Br  Br3  1  0.01683600  0.12805800  0.61646200  1
  Br  Br4  1  0.48316400  0.12805800  0.11646200  1
  Br  Br5  1  0.51683600  0.87194200  0.88353800  1
  Br  Br6  1  0.78819800  0.46024900  0.16537800  1
  Br  Br7  1  0.21180200  0.53975100  0.83462200  1
  Br  Br8  1  0.28819800  0.53975100  0.33462200  1
  Br  Br9  1  0.71180200  0.46024900  0.66537800  1
  N  N10  1  0.00000000  0.00000000  0.00000000  1
  N  N11  1  0.50000000  0.00000000  0.50000000  1
