# generated using pymatgen
data_BaFe3Si4SO11
_symmetry_space_group_name_H-M   'P 1'
_cell_length_a   5.34980700
_cell_length_b   9.30648300
_cell_length_c   20.02552000
_cell_angle_alpha   90.00000000
_cell_angle_beta   90.00000000
_cell_angle_gamma   90.00000000
_symmetry_Int_Tables_number   1
_chemical_formula_structural   BaFe3Si4SO11
_chemical_formula_sum   'Ba4 Fe12 Si16 S4 O44'
_cell_volume   997.02834487
_cell_formula_units_Z   4
loop_
 _symmetry_equiv_pos_site_id
 _symmetry_equiv_pos_as_xyz
  1  'x, y, z'
loop_
 _atom_site_type_symbol
 _atom_site_label
 _atom_site_symmetry_multiplicity
 _atom_site_fract_x
 _atom_site_fract_y
 _atom_site_fract_z
 _atom_site_occupancy
  Ba  Ba0  1  0.66799600  0.00000000  0.24881100  1
  Ba  Ba1  1  0.33200400  0.00000000  0.75118900  1
  Ba  Ba2  1  0.83200400  0.50000000  0.74881100  1
  Ba  Ba3  1  0.16799600  0.50000000  0.25118900  1
  Fe  Fe4  1  0.00000000  0.33428500  0.50000000  1
  Fe  Fe5  1  0.00000000  0.66571500  0.50000000  1
  Fe  Fe6  1  0.50000000  0.16571500  0.00000000  1
  Fe  Fe7  1  0.50000000  0.83428500  0.00000000  1
  Fe  Fe8  1  0.00000000  0.35048600  0.00000000  1
  Fe  Fe9  1  0.00000000  0.64951400  0.00000000  1
  Fe  Fe10  1  0.50000000  0.14951400  0.50000000  1
  Fe  Fe11  1  0.50000000  0.85048600  0.50000000  1
  Fe  Fe12  1  0.00000000  0.00000000  0.50000000  1
  Fe  Fe13  1  0.50000000  0.50000000  0.00000000  1
  Fe  Fe14  1  0.00000000  0.00000000  0.00000000  1
  Fe  Fe15  1  0.50000000  0.50000000  0.50000000  1
  Si  Si16  1  0.16777900  0.16657300  0.13832100  1
  Si  Si17  1  0.83222100  0.83342700  0.86167900  1
  Si  Si18  1  0.83222100  0.16657300  0.86167900  1
  Si  Si19  1  0.33222100  0.33342700  0.63832100  1
  Si  Si20  1  0.16777900  0.83342700  0.13832100  1
  Si  Si21  1  0.66777900  0.66657300  0.36167900  1
  Si  Si22  1  0.66777900  0.33342700  0.36167900  1
  Si  Si23  1  0.33222100  0.66657300  0.63832100  1
  Si  Si24  1  0.16824600  0.16787800  0.36087600  1
  Si  Si25  1  0.83175400  0.83212200  0.63912400  1
  Si  Si26  1  0.83175400  0.16787800  0.63912400  1
  Si  Si27  1  0.33175400  0.33212200  0.86087600  1
  Si  Si28  1  0.16824600  0.83212200  0.36087600  1
  Si  Si29  1  0.66824600  0.66787800  0.13912400  1
  Si  Si30  1  0.66824600  0.33212200  0.13912400  1
  Si  Si31  1  0.33175400  0.66787800  0.86087600  1
  S  S32  1  0.66449400  0.00000000  0.08687700  1
  S  S33  1  0.33550600  0.00000000  0.91312300  1
  S  S34  1  0.83550600  0.50000000  0.58687700  1
  S  S35  1  0.16449400  0.50000000  0.41312300  1
  O  O36  1  0.16818900  0.00000000  0.17369800  1
  O  O37  1  0.83181100  0.00000000  0.82630200  1
  O  O38  1  0.33181100  0.50000000  0.67369800  1
  O  O39  1  0.66818900  0.50000000  0.32630200  1
  O  O40  1  0.16053400  0.17092000  0.05867700  1
  O  O41  1  0.83946600  0.82908000  0.94132300  1
  O  O42  1  0.83946600  0.17092000  0.94132300  1
  O  O43  1  0.33946600  0.32908000  0.55867700  1
  O  O44  1  0.16053400  0.82908000  0.05867700  1
  O  O45  1  0.66053400  0.67092000  0.44132300  1
  O  O46  1  0.66053400  0.32908000  0.44132300  1
  O  O47  1  0.33946600  0.67092000  0.55867700  1
  O  O48  1  0.41350600  0.25411300  0.17370800  1
  O  O49  1  0.58649400  0.74588700  0.82629200  1
  O  O50  1  0.58649400  0.25411300  0.82629200  1
  O  O51  1  0.08649400  0.24588700  0.67370800  1
  O  O52  1  0.41350600  0.74588700  0.17370800  1
  O  O53  1  0.91350600  0.75411300  0.32629200  1
  O  O54  1  0.91350600  0.24588700  0.32629200  1
  O  O55  1  0.08649400  0.75411300  0.67370800  1
  O  O56  1  0.16596500  0.17137100  0.43997300  1
  O  O57  1  0.83403500  0.82862900  0.56002700  1
  O  O58  1  0.83403500  0.17137100  0.56002700  1
  O  O59  1  0.33403500  0.32862900  0.93997300  1
  O  O60  1  0.16596500  0.82862900  0.43997300  1
  O  O61  1  0.66596500  0.67137100  0.06002700  1
  O  O62  1  0.66596500  0.32862900  0.06002700  1
  O  O63  1  0.33403500  0.67137100  0.93997300  1
  O  O64  1  0.17034300  0.00000000  0.32826500  1
  O  O65  1  0.82965700  0.00000000  0.67173500  1
  O  O66  1  0.32965700  0.50000000  0.82826500  1
  O  O67  1  0.67034300  0.50000000  0.17173500  1
  O  O68  1  0.31577700  0.00000000  0.55668200  1
  O  O69  1  0.68422300  0.00000000  0.44331800  1
  O  O70  1  0.18422300  0.50000000  0.05668200  1
  O  O71  1  0.81577700  0.50000000  0.94331800  1
  O  O72  1  0.42347400  0.24505700  0.32604000  1
  O  O73  1  0.57652600  0.75494300  0.67396000  1
  O  O74  1  0.57652600  0.24505700  0.67396000  1
  O  O75  1  0.07652600  0.25494300  0.82604000  1
  O  O76  1  0.42347400  0.75494300  0.32604000  1
  O  O77  1  0.92347400  0.74505700  0.17396000  1
  O  O78  1  0.92347400  0.25494300  0.17396000  1
  O  O79  1  0.07652600  0.74505700  0.82604000  1
