# generated using pymatgen
data_Ba4Nd(RuO4)3
_symmetry_space_group_name_H-M   'P 1'
_cell_length_a   5.99302937
_cell_length_b   5.99302937
_cell_length_c   10.64501129
_cell_angle_alpha   72.59212353
_cell_angle_beta   72.59212353
_cell_angle_gamma   59.97569973
_symmetry_Int_Tables_number   1
_chemical_formula_structural   Ba4Nd(RuO4)3
_chemical_formula_sum   'Ba4 Nd1 Ru3 O12'
_cell_volume   310.65252230
_cell_formula_units_Z   1
loop_
 _symmetry_equiv_pos_site_id
 _symmetry_equiv_pos_as_xyz
  1  'x, y, z'
loop_
 _atom_site_type_symbol
 _atom_site_label
 _atom_site_symmetry_multiplicity
 _atom_site_fract_x
 _atom_site_fract_y
 _atom_site_fract_z
 _atom_site_occupancy
  Ba  Ba0  1  0.86956100  0.86956100  0.39215900  1
  Ba  Ba1  1  0.13043900  0.13043900  0.60784100  1
  Ba  Ba2  1  0.27963600  0.27963600  0.15312400  1
  Ba  Ba3  1  0.72036400  0.72036400  0.84687600  1
  Nd  Nd4  1  0.00000000  0.00000000  0.00000000  1
  Ru  Ru5  1  0.50000000  0.50000000  0.50000000  1
  Ru  Ru6  1  0.57966900  0.57966900  0.24451700  1
  Ru  Ru7  1  0.42033100  0.42033100  0.75548300  1
  O  O8  1  0.76932400  0.76932400  0.12539000  1
  O  O9  1  0.23067600  0.23067600  0.87461000  1
  O  O10  1  0.29778300  0.76535900  0.14232800  1
  O  O11  1  0.70221700  0.23464100  0.85767200  1
  O  O12  1  0.23464100  0.70221700  0.85767200  1
  O  O13  1  0.76535900  0.29778300  0.14232800  1
  O  O14  1  0.61779600  0.61779600  0.61749000  1
  O  O15  1  0.38220400  0.38220400  0.38251000  1
  O  O16  1  0.14994700  0.61338100  0.62845200  1
  O  O17  1  0.85005300  0.38661900  0.37154800  1
  O  O18  1  0.38661900  0.85005300  0.37154800  1
  O  O19  1  0.61338100  0.14994700  0.62845200  1
