# generated using pymatgen
data_Ba2YbCl7
_symmetry_space_group_name_H-M   'P 1'
_cell_length_a   5.95635341
_cell_length_b   11.16966697
_cell_length_c   16.71914100
_cell_angle_alpha   90.00000000
_cell_angle_beta   90.00000000
_cell_angle_gamma   90.38199927
_symmetry_Int_Tables_number   1
_chemical_formula_structural   Ba2YbCl7
_chemical_formula_sum   'Ba8 Yb4 Cl28'
_cell_volume   1112.30781913
_cell_formula_units_Z   4
loop_
 _symmetry_equiv_pos_site_id
 _symmetry_equiv_pos_as_xyz
  1  'x, y, z'
loop_
 _atom_site_type_symbol
 _atom_site_label
 _atom_site_symmetry_multiplicity
 _atom_site_fract_x
 _atom_site_fract_y
 _atom_site_fract_z
 _atom_site_occupancy
  Ba  Ba0  1  0.24891300  0.94444600  0.78773000  1
  Ba  Ba1  1  0.75108700  0.05555400  0.21227000  1
  Ba  Ba2  1  0.75108700  0.55555400  0.28773000  1
  Ba  Ba3  1  0.24891300  0.44444600  0.71227000  1
  Ba  Ba4  1  0.74524600  0.68170000  0.93666000  1
  Ba  Ba5  1  0.25475400  0.31830000  0.06334000  1
  Ba  Ba6  1  0.25475400  0.81830000  0.43666000  1
  Ba  Ba7  1  0.74524600  0.18170000  0.56334000  1
  Yb  Yb8  1  0.72866000  0.69892800  0.61583200  1
  Yb  Yb9  1  0.27134000  0.30107200  0.38416800  1
  Yb  Yb10  1  0.27134000  0.80107200  0.11583200  1
  Yb  Yb11  1  0.72866000  0.19892800  0.88416800  1
  Cl  Cl12  1  0.28481300  0.63160100  0.57366600  1
  Cl  Cl13  1  0.71518700  0.36839900  0.42633400  1
  Cl  Cl14  1  0.71518700  0.86839900  0.07366600  1
  Cl  Cl15  1  0.28481300  0.13160100  0.92633400  1
  Cl  Cl16  1  0.99513100  0.91981600  0.60445300  1
  Cl  Cl17  1  0.00486900  0.08018400  0.39554700  1
  Cl  Cl18  1  0.00486900  0.58018400  0.10445300  1
  Cl  Cl19  1  0.99513100  0.41981600  0.89554700  1
  Cl  Cl20  1  0.75919300  0.72067200  0.45318700  1
  Cl  Cl21  1  0.24080700  0.27932800  0.54681300  1
  Cl  Cl22  1  0.24080700  0.77932800  0.95318700  1
  Cl  Cl23  1  0.75919300  0.22067200  0.04681300  1
  Cl  Cl24  1  0.75462100  0.95610800  0.85690900  1
  Cl  Cl25  1  0.24537900  0.04389200  0.14309100  1
  Cl  Cl26  1  0.24537900  0.54389200  0.35690900  1
  Cl  Cl27  1  0.75462100  0.45610800  0.64309100  1
  Cl  Cl28  1  0.99335700  0.69154200  0.75927500  1
  Cl  Cl29  1  0.00664300  0.30845800  0.24072500  1
  Cl  Cl30  1  0.00664300  0.80845800  0.25927500  1
  Cl  Cl31  1  0.99335700  0.19154200  0.74072500  1
  Cl  Cl32  1  0.49831800  0.69229700  0.76302300  1
  Cl  Cl33  1  0.50168200  0.30770300  0.23697700  1
  Cl  Cl34  1  0.50168200  0.80770300  0.26302300  1
  Cl  Cl35  1  0.49831800  0.19229700  0.73697700  1
  Cl  Cl36  1  0.49796400  0.92324500  0.60497400  1
  Cl  Cl37  1  0.50203600  0.07675500  0.39502600  1
  Cl  Cl38  1  0.50203600  0.57675500  0.10497400  1
  Cl  Cl39  1  0.49796400  0.42324500  0.89502600  1
