# generated using pymatgen
data_AsXe2OF10
_symmetry_space_group_name_H-M   'P 1'
_cell_length_a   8.81243224
_cell_length_b   8.81243224
_cell_length_c   8.81243224
_cell_angle_alpha   119.58214318
_cell_angle_beta   119.58214318
_cell_angle_gamma   90.72528590
_symmetry_Int_Tables_number   1
_chemical_formula_structural   AsXe2OF10
_chemical_formula_sum   'As2 Xe4 O2 F20'
_cell_volume   486.93280947
_cell_formula_units_Z   2
loop_
 _symmetry_equiv_pos_site_id
 _symmetry_equiv_pos_as_xyz
  1  'x, y, z'
loop_
 _atom_site_type_symbol
 _atom_site_label
 _atom_site_symmetry_multiplicity
 _atom_site_fract_x
 _atom_site_fract_y
 _atom_site_fract_z
 _atom_site_occupancy
  As  As0  1  0.00000000  0.00000000  0.00000000  1
  As  As1  1  0.50000000  0.50000000  0.00000000  1
  Xe  Xe2  1  0.50000000  0.50000000  0.50000000  1
  Xe  Xe3  1  0.00000000  0.00000000  0.50000000  1
  Xe  Xe4  1  0.50000000  0.00000000  0.00000000  1
  Xe  Xe5  1  0.00000000  0.50000000  0.00000000  1
  O  O6  1  0.50000000  0.00000000  0.50000000  1
  O  O7  1  0.00000000  0.50000000  0.50000000  1
  F  F8  1  0.17658400  0.09542800  0.27201200  1
  F  F9  1  0.82341600  0.90457200  0.72798800  1
  F  F10  1  0.09542800  0.82341600  0.91884400  1
  F  F11  1  0.67658400  0.40457200  0.08115600  1
  F  F12  1  0.90457200  0.17658400  0.08115600  1
  F  F13  1  0.32341600  0.59542800  0.91884400  1
  F  F14  1  0.59542800  0.67658400  0.27201200  1
  F  F15  1  0.40457200  0.32341600  0.72798800  1
  F  F16  1  0.14337500  0.14337500  0.00000000  1
  F  F17  1  0.85662500  0.85662500  0.00000000  1
  F  F18  1  0.35662500  0.35662500  0.00000000  1
  F  F19  1  0.64337500  0.64337500  0.00000000  1
  F  F20  1  0.76822000  0.26822000  0.72231000  1
  F  F21  1  0.23178000  0.73178000  0.27769000  1
  F  F22  1  0.54590900  0.04590900  0.27769000  1
  F  F23  1  0.26822000  0.54590900  0.50000000  1
  F  F24  1  0.95409100  0.23178000  0.50000000  1
  F  F25  1  0.45409100  0.95409100  0.72231000  1
  F  F26  1  0.73178000  0.45409100  0.50000000  1
  F  F27  1  0.04590900  0.76822000  0.50000000  1
