# generated using pymatgen
data_AsPb2S3I
_symmetry_space_group_name_H-M   'P 1'
_cell_length_a   6.84606800
_cell_length_b   9.71653200
_cell_length_c   11.92286400
_cell_angle_alpha   90.00000000
_cell_angle_beta   90.00000000
_cell_angle_gamma   90.00000000
_symmetry_Int_Tables_number   1
_chemical_formula_structural   AsPb2S3I
_chemical_formula_sum   'As4 Pb8 S12 I4'
_cell_volume   793.10937584
_cell_formula_units_Z   4
loop_
 _symmetry_equiv_pos_site_id
 _symmetry_equiv_pos_as_xyz
  1  'x, y, z'
loop_
 _atom_site_type_symbol
 _atom_site_label
 _atom_site_symmetry_multiplicity
 _atom_site_fract_x
 _atom_site_fract_y
 _atom_site_fract_z
 _atom_site_occupancy
  As  As0  1  0.25000000  0.03476600  0.08039200  1
  As  As1  1  0.75000000  0.96523400  0.91960800  1
  As  As2  1  0.75000000  0.53476600  0.41960800  1
  As  As3  1  0.25000000  0.46523400  0.58039200  1
  Pb  Pb4  1  0.25000000  0.79372300  0.37473800  1
  Pb  Pb5  1  0.75000000  0.20627700  0.62526200  1
  Pb  Pb6  1  0.75000000  0.29372300  0.12526200  1
  Pb  Pb7  1  0.25000000  0.70627700  0.87473800  1
  Pb  Pb8  1  0.25000000  0.27728600  0.32175600  1
  Pb  Pb9  1  0.75000000  0.72271400  0.67824400  1
  Pb  Pb10  1  0.75000000  0.77728600  0.17824400  1
  Pb  Pb11  1  0.25000000  0.22271400  0.82175600  1
  S  S12  1  0.00484300  0.08137900  0.20489000  1
  S  S13  1  0.99515700  0.91862100  0.79511000  1
  S  S14  1  0.99515700  0.58137900  0.29511000  1
  S  S15  1  0.50484300  0.91862100  0.79511000  1
  S  S16  1  0.00484300  0.41862100  0.70489000  1
  S  S17  1  0.49515700  0.08137900  0.20489000  1
  S  S18  1  0.49515700  0.41862100  0.70489000  1
  S  S19  1  0.50484300  0.58137900  0.29511000  1
  S  S20  1  0.25000000  0.80329100  0.09760400  1
  S  S21  1  0.75000000  0.19670900  0.90239600  1
  S  S22  1  0.75000000  0.30329100  0.40239600  1
  S  S23  1  0.25000000  0.69670900  0.59760400  1
  I  I24  1  0.25000000  0.40112000  0.04662600  1
  I  I25  1  0.75000000  0.59888000  0.95337400  1
  I  I26  1  0.75000000  0.90112000  0.45337400  1
  I  I27  1  0.25000000  0.09888000  0.54662600  1
