# generated using pymatgen
data_B3H5N3
_symmetry_space_group_name_H-M   'P 1'
_cell_length_a   6.20133106
_cell_length_b   9.66895418
_cell_length_c   11.64398190
_cell_angle_alpha   111.43548918
_cell_angle_beta   100.87923041
_cell_angle_gamma   100.76496293
_symmetry_Int_Tables_number   1
_chemical_formula_structural   B3H5N3
_chemical_formula_sum   'B12 H20 N12'
_cell_volume   612.71509451
_cell_formula_units_Z   4
loop_
 _symmetry_equiv_pos_site_id
 _symmetry_equiv_pos_as_xyz
  1  'x, y, z'
loop_
 _atom_site_type_symbol
 _atom_site_label
 _atom_site_symmetry_multiplicity
 _atom_site_fract_x
 _atom_site_fract_y
 _atom_site_fract_z
 _atom_site_occupancy
  B  B0  1  0.83396900  0.97190700  0.79336600  1
  B  B1  1  0.16603100  0.02809300  0.20663400  1
  B  B2  1  0.45939600  0.82145800  0.79336600  1
  B  B3  1  0.54060400  0.17854100  0.20663400  1
  B  B4  1  0.62197800  0.75612000  0.36814200  1
  B  B5  1  0.37802200  0.24388000  0.63185800  1
  B  B6  1  0.24616300  0.61202100  0.36814200  1
  B  B7  1  0.75383700  0.38797900  0.63185800  1
  B  B8  1  0.54104900  0.79104900  0.58209800  1
  B  B9  1  0.45895100  0.20895100  0.41790200  1
  B  B10  1  0.32889100  0.57889100  0.15778300  1
  B  B11  1  0.67110900  0.42110900  0.84221700  1
  H  H12  1  0.87251800  0.92499600  0.60830100  1
  H  H13  1  0.12748200  0.07500400  0.39169900  1
  H  H14  1  0.23578300  0.68330500  0.60830100  1
  H  H15  1  0.76421700  0.31669500  0.39169900  1
  H  H16  1  0.72898300  0.97898300  0.95796600  1
  H  H17  1  0.27101700  0.02101700  0.04203400  1
  H  H18  1  0.66292100  0.70913900  0.18351500  1
  H  H19  1  0.33707900  0.29086100  0.81648500  1
  H  H20  1  0.02059300  0.47437600  0.18351500  1
  H  H21  1  0.97940700  0.52562400  0.81648500  1
  H  H22  1  0.27102900  0.52102900  0.04205900  1
  H  H23  1  0.72897100  0.47897100  0.95794100  1
  H  H24  1  0.01695200  0.06668600  0.85008700  1
  H  H25  1  0.98304800  0.93331400  0.14991300  1
  H  H26  1  0.33313500  0.78340100  0.85008700  1
  H  H27  1  0.66686500  0.21659900  0.14991300  1
  H  H28  1  0.80816700  0.84806000  0.42061500  1
  H  H29  1  0.19183300  0.15194000  0.57938500  1
  H  H30  1  0.11244700  0.57255500  0.42061500  1
  H  H31  1  0.88755300  0.42744500  0.57938500  1
  N  N32  1  0.47000300  0.72000300  0.44000500  1
  N  N33  1  0.52999700  0.27999700  0.55999500  1
  N  N34  1  0.55147700  0.68229900  0.23097700  1
  N  N35  1  0.44852300  0.31770100  0.76902300  1
  N  N36  1  0.17950000  0.54867800  0.23097700  1
  N  N37  1  0.82050000  0.45132200  0.76902300  1
  N  N38  1  0.76274000  0.89783700  0.65627100  1
  N  N39  1  0.23726000  0.10216300  0.34372900  1
  N  N40  1  0.39353000  0.75843400  0.65627100  1
  N  N41  1  0.60647000  0.24156600  0.34372900  1
  N  N42  1  0.68030300  0.93030300  0.86060500  1
  N  N43  1  0.31969700  0.06969700  0.13939500  1
