# generated using pymatgen
data_Ba2TbV3O11
_symmetry_space_group_name_H-M   'P 1'
_cell_length_a   7.79788300
_cell_length_b   12.42463523
_cell_length_c   11.33972517
_cell_angle_alpha   103.30301632
_cell_angle_beta   90.00000000
_cell_angle_gamma   90.00000000
_symmetry_Int_Tables_number   1
_chemical_formula_structural   Ba2TbV3O11
_chemical_formula_sum   'Ba8 Tb4 V12 O44'
_cell_volume   1069.17835436
_cell_formula_units_Z   4
loop_
 _symmetry_equiv_pos_site_id
 _symmetry_equiv_pos_as_xyz
  1  'x, y, z'
loop_
 _atom_site_type_symbol
 _atom_site_label
 _atom_site_symmetry_multiplicity
 _atom_site_fract_x
 _atom_site_fract_y
 _atom_site_fract_z
 _atom_site_occupancy
  Ba  Ba0  1  0.27494200  0.77046800  0.94228700  1
  Ba  Ba1  1  0.72505800  0.22953200  0.05771300  1
  Ba  Ba2  1  0.77494200  0.22953200  0.55771300  1
  Ba  Ba3  1  0.22505800  0.77046800  0.44228700  1
  Ba  Ba4  1  0.74773300  0.55441200  0.88938000  1
  Ba  Ba5  1  0.25226700  0.44558800  0.11062000  1
  Ba  Ba6  1  0.24773300  0.44558800  0.61062000  1
  Ba  Ba7  1  0.75226700  0.55441200  0.38938000  1
  Tb  Tb8  1  0.50172100  0.99746000  0.71409700  1
  Tb  Tb9  1  0.49827900  0.00254000  0.28590300  1
  Tb  Tb10  1  0.00172100  0.00254000  0.78590300  1
  Tb  Tb11  1  0.99827900  0.99746000  0.21409700  1
  V  V12  1  0.75532600  0.90650400  0.97666500  1
  V  V13  1  0.24467400  0.09349600  0.02333500  1
  V  V14  1  0.25532600  0.09349600  0.52333500  1
  V  V15  1  0.74467400  0.90650400  0.47666500  1
  V  V16  1  0.51967900  0.68436900  0.67326800  1
  V  V17  1  0.48032100  0.31563100  0.32673200  1
  V  V18  1  0.01967900  0.31563100  0.82673200  1
  V  V19  1  0.98032100  0.68436900  0.17326800  1
  V  V20  1  0.98074100  0.68831600  0.67135900  1
  V  V21  1  0.01925900  0.31168400  0.32864100  1
  V  V22  1  0.48074100  0.31168400  0.82864100  1
  V  V23  1  0.51925900  0.68831600  0.17135900  1
  O  O24  1  0.44565000  0.81957400  0.71702800  1
  O  O25  1  0.55435000  0.18042600  0.28297200  1
  O  O26  1  0.94565000  0.18042600  0.78297200  1
  O  O27  1  0.05435000  0.81957400  0.21702800  1
  O  O28  1  0.54973100  0.17553900  0.80509600  1
  O  O29  1  0.45026900  0.82446100  0.19490400  1
  O  O30  1  0.04973100  0.82446100  0.69490400  1
  O  O31  1  0.95026900  0.17553900  0.30509600  1
  O  O32  1  0.75044900  0.66511300  0.66690100  1
  O  O33  1  0.24955100  0.33488700  0.33309900  1
  O  O34  1  0.25044900  0.33488700  0.83309900  1
  O  O35  1  0.74955100  0.66511300  0.16690100  1
  O  O36  1  0.94415900  0.37570600  0.96697200  1
  O  O37  1  0.05584100  0.62429400  0.03302800  1
  O  O38  1  0.44415900  0.62429400  0.53302800  1
  O  O39  1  0.55584100  0.37570600  0.46697200  1
  O  O40  1  0.93957300  0.39091100  0.73098600  1
  O  O41  1  0.06042700  0.60908900  0.26901400  1
  O  O42  1  0.43957300  0.60908900  0.76901400  1
  O  O43  1  0.56042700  0.39091100  0.23098600  1
  O  O44  1  0.78311100  0.98717300  0.62623000  1
  O  O45  1  0.21688900  0.01282700  0.37377000  1
  O  O46  1  0.28311100  0.01282700  0.87377000  1
  O  O47  1  0.71688900  0.98717300  0.12623000  1
  O  O48  1  0.97441800  0.88435600  0.97506100  1
  O  O49  1  0.02558200  0.11564400  0.02493900  1
  O  O50  1  0.47441900  0.11564400  0.52493900  1
  O  O51  1  0.52558200  0.88435600  0.47506100  1
  O  O52  1  0.64316000  0.78687200  0.94671200  1
  O  O53  1  0.35684000  0.21312800  0.05328800  1
  O  O54  1  0.14316000  0.21312800  0.55328800  1
  O  O55  1  0.85684000  0.78687200  0.44671200  1
  O  O56  1  0.71999300  0.98361200  0.86396000  1
  O  O57  1  0.28000700  0.01638800  0.13604000  1
  O  O58  1  0.21999300  0.01638800  0.63604000  1
  O  O59  1  0.78000700  0.98361200  0.36396000  1
  O  O60  1  0.55863600  0.37025500  0.71851100  1
  O  O61  1  0.44136400  0.62974500  0.28148900  1
  O  O62  1  0.05863600  0.62974500  0.78148900  1
  O  O63  1  0.94136400  0.37025500  0.21851100  1
  O  O64  1  0.56375700  0.38633200  0.96143000  1
  O  O65  1  0.43624300  0.61366800  0.03857000  1
  O  O66  1  0.06375700  0.61366800  0.53857000  1
  O  O67  1  0.93624300  0.38633200  0.46143000  1
