# generated using pymatgen
data_CaVSi4H12O11
_symmetry_space_group_name_H-M   'P 1'
_cell_length_a   9.76966600
_cell_length_b   10.23696900
_cell_length_c   14.08754100
_cell_angle_alpha   90.00000000
_cell_angle_beta   90.00000000
_cell_angle_gamma   90.00000000
_symmetry_Int_Tables_number   1
_chemical_formula_structural   CaVSi4H12O11
_chemical_formula_sum   'Ca4 V4 Si16 H48 O44'
_cell_volume   1408.91988193
_cell_formula_units_Z   4
loop_
 _symmetry_equiv_pos_site_id
 _symmetry_equiv_pos_as_xyz
  1  'x, y, z'
loop_
 _atom_site_type_symbol
 _atom_site_label
 _atom_site_symmetry_multiplicity
 _atom_site_fract_x
 _atom_site_fract_y
 _atom_site_fract_z
 _atom_site_occupancy
  Ca  Ca0  1  0.11669400  0.15400100  0.25000000  1
  Ca  Ca1  1  0.88330600  0.84599900  0.75000000  1
  Ca  Ca2  1  0.61669400  0.34599900  0.75000000  1
  Ca  Ca3  1  0.38330600  0.65400100  0.25000000  1
  V  V4  1  0.08969000  0.47944000  0.25000000  1
  V  V5  1  0.91031000  0.52056000  0.75000000  1
  V  V6  1  0.58969000  0.02056000  0.75000000  1
  V  V7  1  0.41031000  0.97944000  0.25000000  1
  Si  Si8  1  0.31428200  0.10387000  0.04377200  1
  Si  Si9  1  0.68571800  0.89613000  0.95622800  1
  Si  Si10  1  0.81428200  0.39613000  0.95622800  1
  Si  Si11  1  0.68571800  0.89613000  0.54377200  1
  Si  Si12  1  0.18571800  0.60387000  0.04377200  1
  Si  Si13  1  0.31428200  0.10387000  0.45622800  1
  Si  Si14  1  0.18571800  0.60387000  0.45622800  1
  Si  Si15  1  0.81428200  0.39613000  0.54377200  1
  Si  Si16  1  0.10572100  0.32657400  0.03703400  1
  Si  Si17  1  0.89427900  0.67342600  0.96296600  1
  Si  Si18  1  0.60572100  0.17342600  0.96296600  1
  Si  Si19  1  0.89427900  0.67342600  0.53703400  1
  Si  Si20  1  0.39427900  0.82657400  0.03703400  1
  Si  Si21  1  0.10572100  0.32657400  0.46296600  1
  Si  Si22  1  0.39427900  0.82657400  0.46296600  1
  Si  Si23  1  0.60572100  0.17342600  0.53703400  1
  H  H24  1  0.44161400  0.37596200  0.15369400  1
  H  H25  1  0.55838600  0.62403800  0.84630600  1
  H  H26  1  0.94161400  0.12403800  0.84630600  1
  H  H27  1  0.55838600  0.62403800  0.65369400  1
  H  H28  1  0.05838600  0.87596200  0.15369400  1
  H  H29  1  0.44161400  0.37596200  0.34630600  1
  H  H30  1  0.05838600  0.87596200  0.34630600  1
  H  H31  1  0.94161400  0.12403800  0.65369400  1
  H  H32  1  0.39940500  0.37388500  0.62521100  1
  H  H33  1  0.60059500  0.62611500  0.37478900  1
  H  H34  1  0.89940500  0.12611500  0.37478900  1
  H  H35  1  0.60059500  0.62611500  0.12521100  1
  H  H36  1  0.10059500  0.87388500  0.62521100  1
  H  H37  1  0.39940500  0.37388500  0.87478900  1
  H  H38  1  0.10059500  0.87388500  0.87478900  1
  H  H39  1  0.89940500  0.12611500  0.12521100  1
  H  H40  1  0.58420300  0.55416400  0.12581900  1
  H  H41  1  0.41579700  0.44583600  0.87418100  1
  H  H42  1  0.08420300  0.94583600  0.87418100  1
  H  H43  1  0.41579700  0.44583600  0.62581900  1
  H  H44  1  0.91579700  0.05416400  0.12581900  1
  H  H45  1  0.58420300  0.55416400  0.37418100  1
  H  H46  1  0.91579700  0.05416400  0.37418100  1
  H  H47  1  0.08420300  0.94583600  0.62581900  1
  H  H48  1  0.95755200  0.10090600  0.60309800  1
  H  H49  1  0.04244800  0.89909400  0.39690200  1
  H  H50  1  0.45755200  0.39909400  0.39690200  1
  H  H51  1  0.04244800  0.89909400  0.10309800  1
  H  H52  1  0.54244800  0.60090600  0.60309800  1
  H  H53  1  0.95755200  0.10090600  0.89690200  1
  H  H54  1  0.54244800  0.60090600  0.89690200  1
  H  H55  1  0.45755200  0.39909400  0.10309800  1
  H  H56  1  0.40094700  0.32500500  0.25000000  1
  H  H57  1  0.59905300  0.67499500  0.75000000  1
  H  H58  1  0.90094700  0.17499500  0.75000000  1
  H  H59  1  0.09905300  0.82500500  0.25000000  1
  H  H60  1  0.74245000  0.16477100  0.25000000  1
  H  H61  1  0.25755000  0.83522900  0.75000000  1
  H  H62  1  0.24245000  0.33522900  0.75000000  1
  H  H63  1  0.75755000  0.66477100  0.25000000  1
  H  H64  1  0.77383800  0.23238100  0.25000000  1
  H  H65  1  0.22616200  0.76761900  0.75000000  1
  H  H66  1  0.27383800  0.26761900  0.75000000  1
  H  H67  1  0.72616200  0.73238100  0.25000000  1
  H  H68  1  0.74466600  0.41510900  0.25000000  1
  H  H69  1  0.25533400  0.58489100  0.75000000  1
  H  H70  1  0.24466600  0.08489100  0.75000000  1
  H  H71  1  0.75533400  0.91510900  0.25000000  1
  O  O72  1  0.09567500  0.33112400  0.15308000  1
  O  O73  1  0.90432500  0.66887600  0.84692000  1
  O  O74  1  0.59567500  0.16887600  0.84692000  1
  O  O75  1  0.90432500  0.66887600  0.65308000  1
  O  O76  1  0.40432500  0.83112400  0.15308000  1
  O  O77  1  0.09567500  0.33112400  0.34692000  1
  O  O78  1  0.40432500  0.83112400  0.34692000  1
  O  O79  1  0.59567500  0.16887600  0.65308000  1
  O  O80  1  0.68652000  0.04344500  0.00304800  1
  O  O81  1  0.31348000  0.95655500  0.99695200  1
  O  O82  1  0.18652000  0.45655500  0.99695200  1
  O  O83  1  0.31348000  0.95655500  0.50304800  1
  O  O84  1  0.81348000  0.54344500  0.00304800  1
  O  O85  1  0.68652000  0.04344500  0.49695200  1
  O  O86  1  0.81348000  0.54344500  0.49695200  1
  O  O87  1  0.18652000  0.45655500  0.50304800  1
  O  O88  1  0.18414800  0.19096800  0.49482700  1
  O  O89  1  0.81585200  0.80903200  0.50517300  1
  O  O90  1  0.68414800  0.30903200  0.50517300  1
  O  O91  1  0.81585200  0.80903200  0.99482700  1
  O  O92  1  0.31585200  0.69096800  0.49482700  1
  O  O93  1  0.18414800  0.19096800  0.00517300  1
  O  O94  1  0.31585200  0.69096800  0.00517300  1
  O  O95  1  0.68414800  0.30903200  0.99482700  1
  O  O96  1  0.45403800  0.17979900  0.01163800  1
  O  O97  1  0.54596200  0.82020100  0.98836200  1
  O  O98  1  0.95403800  0.32020100  0.98836200  1
  O  O99  1  0.54596200  0.82020100  0.51163800  1
  O  O100  1  0.04596200  0.67979900  0.01163800  1
  O  O101  1  0.45403800  0.17979900  0.48836200  1
  O  O102  1  0.04596200  0.67979900  0.48836200  1
  O  O103  1  0.95403800  0.32020100  0.51163800  1
  O  O104  1  0.29870600  0.08753300  0.15836500  1
  O  O105  1  0.70129400  0.91246700  0.84163500  1
  O  O106  1  0.79870600  0.41246700  0.84163500  1
  O  O107  1  0.70129400  0.91246700  0.65836500  1
  O  O108  1  0.20129400  0.58753300  0.15836500  1
  O  O109  1  0.29870600  0.08753300  0.34163500  1
  O  O110  1  0.20129400  0.58753300  0.34163500  1
  O  O111  1  0.79870600  0.41246700  0.65836500  1
  O  O112  1  0.56714200  0.03373100  0.25000000  1
  O  O113  1  0.43285800  0.96626900  0.75000000  1
  O  O114  1  0.06714200  0.46626900  0.75000000  1
  O  O115  1  0.93285800  0.53373100  0.25000000  1
