# generated using pymatgen
data_Al2CuMo
_symmetry_space_group_name_H-M   'P 1'
_cell_length_a   4.76985749
_cell_length_b   4.76985749
_cell_length_c   4.76985749
_cell_angle_alpha   132.37619831
_cell_angle_beta   132.37619831
_cell_angle_gamma   69.63550760
_symmetry_Int_Tables_number   1
_chemical_formula_structural   Al2CuMo
_chemical_formula_sum   'Al2 Cu1 Mo1'
_cell_volume   58.08958001
_cell_formula_units_Z   1
loop_
 _symmetry_equiv_pos_site_id
 _symmetry_equiv_pos_as_xyz
  1  'x, y, z'
loop_
 _atom_site_type_symbol
 _atom_site_label
 _atom_site_symmetry_multiplicity
 _atom_site_fract_x
 _atom_site_fract_y
 _atom_site_fract_z
 _atom_site_occupancy
  Al  Al0  1  0.75000000  0.25000000  0.50000000  1
  Al  Al1  1  0.25000000  0.75000000  0.50000000  1
  Cu  Cu2  1  0.50000000  0.50000000  0.00000000  1
  Mo  Mo3  1  0.00000000  0.00000000  0.00000000  1
