# generated using pymatgen
data_BaBe2(BO2)2
_symmetry_space_group_name_H-M   'P 1'
_cell_length_a   12.83634000
_cell_length_b   8.72034310
_cell_length_c   8.93574153
_cell_angle_alpha   58.08653348
_cell_angle_beta   44.08913577
_cell_angle_gamma   42.60824197
_symmetry_Int_Tables_number   1
_chemical_formula_structural   BaBe2(BO2)2
_chemical_formula_sum   'Ba4 Be8 B8 O16'
_cell_volume   471.14244996
_cell_formula_units_Z   4
loop_
 _symmetry_equiv_pos_site_id
 _symmetry_equiv_pos_as_xyz
  1  'x, y, z'
loop_
 _atom_site_type_symbol
 _atom_site_label
 _atom_site_symmetry_multiplicity
 _atom_site_fract_x
 _atom_site_fract_y
 _atom_site_fract_z
 _atom_site_occupancy
  Ba  Ba0  1  0.37500000  0.25000000  0.25000000  1
  Ba  Ba1  1  0.37500000  0.75000000  0.25000000  1
  Ba  Ba2  1  0.37500000  0.25000000  0.75000000  1
  Ba  Ba3  1  0.87500000  0.75000000  0.75000000  1
  Be  Be4  1  0.01137200  0.24190100  0.10771900  1
  Be  Be5  1  0.88090900  0.75809900  0.10771900  1
  Be  Be6  1  0.74672600  0.24190100  0.89228100  1
  Be  Be7  1  0.73862800  0.25809900  0.39228100  1
  Be  Be8  1  0.36099300  0.75809900  0.89228100  1
  Be  Be9  1  0.86909100  0.74190100  0.39228100  1
  Be  Be10  1  0.00327400  0.25809900  0.60771900  1
  Be  Be11  1  0.38900700  0.74190100  0.60771900  1
  B  B12  1  0.63922800  0.67993500  0.29564900  1
  B  B13  1  0.06512200  0.32006500  0.29564900  1
  B  B14  1  0.68083700  0.67993500  0.70435100  1
  B  B15  1  0.11077200  0.82006500  0.20435100  1
  B  B16  1  0.61481300  0.32006500  0.70435100  1
  B  B17  1  0.68487800  0.17993500  0.20435100  1
  B  B18  1  0.06916300  0.82006500  0.79564900  1
  B  B19  1  0.13518700  0.17993500  0.79564900  1
  O  O20  1  0.70366300  0.81005300  0.15974000  1
  O  O21  1  0.13659700  0.18994700  0.15974000  1
  O  O22  1  0.48628400  0.81005300  0.84026000  1
  O  O23  1  0.04633700  0.68994700  0.34026000  1
  O  O24  1  0.67345600  0.18994700  0.84026000  1
  O  O25  1  0.61340300  0.31005300  0.34026000  1
  O  O26  1  0.26371600  0.68994700  0.65974000  1
  O  O27  1  0.07654400  0.31005300  0.65974000  1
  O  O28  1  0.97164600  0.05096400  0.24439000  1
  O  O29  1  0.78396500  0.94903600  0.24439000  1
  O  O30  1  0.97739000  0.05096400  0.75561000  1
  O  O31  1  0.77835400  0.44903600  0.25561000  1
  O  O32  1  0.26700000  0.94903600  0.75561000  1
  O  O33  1  0.96603500  0.55096400  0.25561000  1
  O  O34  1  0.77261000  0.44903600  0.74439000  1
  O  O35  1  0.48300000  0.55096400  0.74439000  1
