# generated using pymatgen
data_CaBe(SiO4)3
_symmetry_space_group_name_H-M   'P 1'
_cell_length_a   18.22546600
_cell_length_b   5.12948800
_cell_length_c   11.09954525
_cell_angle_alpha   72.68414653
_cell_angle_beta   90.00000000
_cell_angle_gamma   90.00000000
_symmetry_Int_Tables_number   1
_chemical_formula_structural   CaBe(SiO4)3
_chemical_formula_sum   'Ca4 Be4 Si12 O48'
_cell_volume   990.63799086
_cell_formula_units_Z   4
loop_
 _symmetry_equiv_pos_site_id
 _symmetry_equiv_pos_as_xyz
  1  'x, y, z'
loop_
 _atom_site_type_symbol
 _atom_site_label
 _atom_site_symmetry_multiplicity
 _atom_site_fract_x
 _atom_site_fract_y
 _atom_site_fract_z
 _atom_site_occupancy
  Ca  Ca0  1  0.97574300  0.50000000  0.25000000  1
  Ca  Ca1  1  0.02425700  0.50000000  0.75000000  1
  Ca  Ca2  1  0.51072100  0.50000000  0.25000000  1
  Ca  Ca3  1  0.48927900  0.50000000  0.75000000  1
  Be  Be4  1  0.83469400  0.66480900  0.04707900  1
  Be  Be5  1  0.16530600  0.33519100  0.95292100  1
  Be  Be6  1  0.83469400  0.33519100  0.45292100  1
  Be  Be7  1  0.16530600  0.66480900  0.54707900  1
  Si  Si8  1  0.92100400  0.86757300  0.45081800  1
  Si  Si9  1  0.07899600  0.13242700  0.54918200  1
  Si  Si10  1  0.92100400  0.13242700  0.04918200  1
  Si  Si11  1  0.07899600  0.86757300  0.95081800  1
  Si  Si12  1  0.57535200  0.85715300  0.45695000  1
  Si  Si13  1  0.42464800  0.14284700  0.54305000  1
  Si  Si14  1  0.57535200  0.14284700  0.04305000  1
  Si  Si15  1  0.42464800  0.85715300  0.95695000  1
  Si  Si16  1  0.66584900  0.67094100  0.03079000  1
  Si  Si17  1  0.33415100  0.32905900  0.96921000  1
  Si  Si18  1  0.66584900  0.32905900  0.46921000  1
  Si  Si19  1  0.33415100  0.67094100  0.53079000  1
  O  O20  1  0.60929000  0.83091700  0.10341600  1
  O  O21  1  0.39071000  0.16908300  0.89658400  1
  O  O22  1  0.60929000  0.16908300  0.39658400  1
  O  O23  1  0.39071000  0.83091700  0.60341600  1
  O  O24  1  0.88956500  0.82679700  0.10898200  1
  O  O25  1  0.11043500  0.17320300  0.89101800  1
  O  O26  1  0.88956500  0.17320300  0.39101800  1
  O  O27  1  0.11043500  0.82679700  0.60898200  1
  O  O28  1  0.50133400  0.81642100  0.38083800  1
  O  O29  1  0.49866600  0.18357900  0.61916200  1
  O  O30  1  0.50133400  0.18357900  0.11916200  1
  O  O31  1  0.49866600  0.81642100  0.88083800  1
  O  O32  1  0.99514000  0.83487200  0.36740900  1
  O  O33  1  0.00486000  0.16512800  0.63259100  1
  O  O34  1  0.99514000  0.16512800  0.13259100  1
  O  O35  1  0.00486000  0.83487200  0.86740900  1
  O  O36  1  0.32794800  0.80493600  0.37792100  1
  O  O37  1  0.67205200  0.19506400  0.62207900  1
  O  O38  1  0.32794800  0.19506400  0.12207900  1
  O  O39  1  0.67205200  0.80493600  0.87792100  1
  O  O40  1  0.83803000  0.77392900  0.88996700  1
  O  O41  1  0.16197000  0.22607100  0.11003300  1
  O  O42  1  0.83803000  0.22607100  0.61003300  1
  O  O43  1  0.16197000  0.77392900  0.38996700  1
  O  O44  1  0.94290500  0.78062200  0.60169000  1
  O  O45  1  0.05709500  0.21937800  0.39831000  1
  O  O46  1  0.94290500  0.21937800  0.89831000  1
  O  O47  1  0.05709500  0.78062200  0.10169000  1
  O  O48  1  0.43732000  0.79269800  0.10863000  1
  O  O49  1  0.56268000  0.20730200  0.89137000  1
  O  O50  1  0.43732000  0.20730200  0.39137000  1
  O  O51  1  0.56268000  0.79269800  0.60863000  1
  O  O52  1  0.74983300  0.68708100  0.07158100  1
  O  O53  1  0.25016700  0.31291900  0.92841900  1
  O  O54  1  0.74983300  0.31291900  0.42841900  1
  O  O55  1  0.25016700  0.68708100  0.57158100  1
  O  O56  1  0.75400300  0.59103900  0.70078200  1
  O  O57  1  0.24599700  0.40896100  0.29921800  1
  O  O58  1  0.75400300  0.40896100  0.79921800  1
  O  O59  1  0.24599700  0.59103900  0.20078200  1
  O  O60  1  0.86580300  0.63410600  0.43151100  1
  O  O61  1  0.13419700  0.36589400  0.56848900  1
  O  O62  1  0.86580300  0.36589400  0.06848900  1
  O  O63  1  0.13419700  0.63410600  0.93151100  1
  O  O64  1  0.63264900  0.64056000  0.42431000  1
  O  O65  1  0.36735100  0.35944000  0.57569000  1
  O  O66  1  0.63264900  0.35944000  0.07569000  1
  O  O67  1  0.36735100  0.64056000  0.92431000  1
