# generated using pymatgen
data_AgSbO12
_symmetry_space_group_name_H-M   'P 1'
_cell_length_a   7.43822028
_cell_length_b   7.43822028
_cell_length_c   7.43822028
_cell_angle_alpha   60.00000000
_cell_angle_beta   60.00000000
_cell_angle_gamma   60.00000000
_symmetry_Int_Tables_number   1
_chemical_formula_structural   AgSbO12
_chemical_formula_sum   'Ag2 Sb2 O24'
_cell_volume   290.99941050
_cell_formula_units_Z   2
loop_
 _symmetry_equiv_pos_site_id
 _symmetry_equiv_pos_as_xyz
  1  'x, y, z'
loop_
 _atom_site_type_symbol
 _atom_site_label
 _atom_site_symmetry_multiplicity
 _atom_site_fract_x
 _atom_site_fract_y
 _atom_site_fract_z
 _atom_site_occupancy
  Ag  Ag0  1  0.00000000  0.00000000  0.00000000  1
  Ag  Ag1  1  0.25000000  0.25000000  0.25000000  1
  Sb  Sb2  1  0.50000000  0.50000000  0.50000000  1
  Sb  Sb3  1  0.75000000  0.75000000  0.75000000  1
  O  O4  1  0.89481700  0.28249600  0.28249600  1
  O  O5  1  0.28249600  0.89481700  0.54019100  1
  O  O6  1  0.28249600  0.54019100  0.89481700  1
  O  O7  1  0.28249600  0.89481700  0.28249600  1
  O  O8  1  0.35518300  0.96750400  0.70980900  1
  O  O9  1  0.35518300  0.96750400  0.96750400  1
  O  O10  1  0.54019100  0.28249600  0.28249600  1
  O  O11  1  0.54019100  0.28249600  0.89481700  1
  O  O12  1  0.96750400  0.35518300  0.96750400  1
  O  O13  1  0.96750400  0.35518300  0.70980900  1
  O  O14  1  0.89481700  0.28249600  0.54019100  1
  O  O15  1  0.96750400  0.70980900  0.96750400  1
  O  O16  1  0.96750400  0.70980900  0.35518300  1
  O  O17  1  0.28249600  0.54019100  0.28249600  1
  O  O18  1  0.70980900  0.96750400  0.35518300  1
  O  O19  1  0.70980900  0.96750400  0.96750400  1
  O  O20  1  0.28249600  0.28249600  0.89481700  1
  O  O21  1  0.54019100  0.89481700  0.28249600  1
  O  O22  1  0.28249600  0.28249600  0.54019100  1
  O  O23  1  0.89481700  0.54019100  0.28249600  1
  O  O24  1  0.70980900  0.35518300  0.96750400  1
  O  O25  1  0.96750400  0.96750400  0.35518300  1
  O  O26  1  0.35518300  0.70980900  0.96750400  1
  O  O27  1  0.96750400  0.96750400  0.70980900  1
