# generated using pymatgen
data_AsXe(OF2)3
_symmetry_space_group_name_H-M   'P 1'
_cell_length_a   8.92923000
_cell_length_b   9.12102300
_cell_length_c   9.22298200
_cell_angle_alpha   90.00000000
_cell_angle_beta   90.00000000
_cell_angle_gamma   90.00000000
_symmetry_Int_Tables_number   1
_chemical_formula_structural   AsXe(OF2)3
_chemical_formula_sum   'As4 Xe4 O12 F24'
_cell_volume   751.15389165
_cell_formula_units_Z   4
loop_
 _symmetry_equiv_pos_site_id
 _symmetry_equiv_pos_as_xyz
  1  'x, y, z'
loop_
 _atom_site_type_symbol
 _atom_site_label
 _atom_site_symmetry_multiplicity
 _atom_site_fract_x
 _atom_site_fract_y
 _atom_site_fract_z
 _atom_site_occupancy
  As  As0  1  0.13255600  0.12732600  0.11098800  1
  As  As1  1  0.36744400  0.87267400  0.61098800  1
  As  As2  1  0.86744400  0.62732600  0.38901200  1
  As  As3  1  0.63255600  0.37267400  0.88901200  1
  Xe  Xe4  1  0.48249200  0.45395100  0.45197000  1
  Xe  Xe5  1  0.01750800  0.54604900  0.95197000  1
  Xe  Xe6  1  0.51750800  0.95395100  0.04803000  1
  Xe  Xe7  1  0.98249200  0.04604900  0.54803000  1
  O  O8  1  0.59990800  0.03652400  0.21375900  1
  O  O9  1  0.90009200  0.96347600  0.71375900  1
  O  O10  1  0.40009200  0.53652400  0.28624100  1
  O  O11  1  0.09990800  0.46347600  0.78624100  1
  O  O12  1  0.18206300  0.62229200  0.06464900  1
  O  O13  1  0.31793700  0.37770800  0.56464900  1
  O  O14  1  0.81793700  0.12229200  0.43535100  1
  O  O15  1  0.68206300  0.87770800  0.93535100  1
  O  O16  1  0.00063300  0.25343600  0.58463400  1
  O  O17  1  0.49936700  0.74656400  0.08463400  1
  O  O18  1  0.99936700  0.75343600  0.91536600  1
  O  O19  1  0.50063300  0.24656400  0.41536600  1
  F  F20  1  0.63344200  0.37513000  0.07879100  1
  F  F21  1  0.86655800  0.62487000  0.57879100  1
  F  F22  1  0.36655800  0.87513000  0.42120900  1
  F  F23  1  0.13344200  0.12487000  0.92120900  1
  F  F24  1  0.31364400  0.20685900  0.11088200  1
  F  F25  1  0.18635600  0.79314100  0.61088200  1
  F  F26  1  0.68635600  0.70685900  0.38911800  1
  F  F27  1  0.81364400  0.29314100  0.88911800  1
  F  F28  1  0.13654400  0.13271300  0.30494400  1
  F  F29  1  0.36345600  0.86728700  0.80494400  1
  F  F30  1  0.86345600  0.63271300  0.19505600  1
  F  F31  1  0.63654400  0.36728700  0.69505600  1
  F  F32  1  0.27514900  0.04896000  0.61696900  1
  F  F33  1  0.22485100  0.95104000  0.11696900  1
  F  F34  1  0.72485100  0.54896000  0.88303100  1
  F  F35  1  0.77514900  0.45104000  0.38303100  1
  F  F36  1  0.05169900  0.30856800  0.11168700  1
  F  F37  1  0.44830100  0.69143200  0.61168700  1
  F  F38  1  0.94830100  0.80856800  0.38831300  1
  F  F39  1  0.55169900  0.19143200  0.88831300  1
  F  F40  1  0.04303300  0.54518600  0.38248400  1
  F  F41  1  0.45696700  0.45481400  0.88248400  1
  F  F42  1  0.95696700  0.04518600  0.11751600  1
  F  F43  1  0.54303300  0.95481400  0.61751600  1
