# generated using pymatgen
data_BC6BrNF5
_symmetry_space_group_name_H-M   'P 1'
_cell_length_a   11.70398002
_cell_length_b   11.70398002
_cell_length_c   12.02303755
_cell_angle_alpha   62.55753126
_cell_angle_beta   62.55753126
_cell_angle_gamma   85.42300686
_symmetry_Int_Tables_number   1
_chemical_formula_structural   BC6BrNF5
_chemical_formula_sum   'B6 C36 Br6 N6 F30'
_cell_volume   1278.64421892
_cell_formula_units_Z   6
loop_
 _symmetry_equiv_pos_site_id
 _symmetry_equiv_pos_as_xyz
  1  'x, y, z'
loop_
 _atom_site_type_symbol
 _atom_site_label
 _atom_site_symmetry_multiplicity
 _atom_site_fract_x
 _atom_site_fract_y
 _atom_site_fract_z
 _atom_site_occupancy
  B  B0  1  0.51441800  0.32539200  0.87572100  1
  B  B1  1  0.48558200  0.67460800  0.12427900  1
  B  B2  1  0.67460800  0.48558200  0.62427900  1
  B  B3  1  0.32539200  0.51441800  0.37572100  1
  B  B4  1  0.45839700  0.54160300  0.75000000  1
  B  B5  1  0.54160300  0.45839700  0.25000000  1
  C  C6  1  0.30764700  0.03598300  0.72651700  1
  C  C7  1  0.69235300  0.96401700  0.27348300  1
  C  C8  1  0.96401700  0.69235300  0.77348300  1
  C  C9  1  0.03598300  0.30764700  0.22651700  1
  C  C10  1  0.66708800  0.81654100  0.50750600  1
  C  C11  1  0.33291200  0.18345900  0.49249400  1
  C  C12  1  0.18345900  0.33291200  0.99249400  1
  C  C13  1  0.81654100  0.66708800  0.00750600  1
  C  C14  1  0.73967600  0.18536500  0.69338000  1
  C  C15  1  0.26032400  0.81463500  0.30662000  1
  C  C16  1  0.81463500  0.26032400  0.80662000  1
  C  C17  1  0.18536500  0.73967600  0.19338000  1
  C  C18  1  0.38687900  0.26600700  0.61348900  1
  C  C19  1  0.61312100  0.73399300  0.38651100  1
  C  C20  1  0.73399300  0.61312100  0.88651100  1
  C  C21  1  0.26600700  0.38687900  0.11348900  1
  C  C22  1  0.82746000  0.09768000  0.69225200  1
  C  C23  1  0.17254000  0.90232000  0.30774800  1
  C  C24  1  0.90232000  0.17254000  0.80774800  1
  C  C25  1  0.09768000  0.82746000  0.19225200  1
  C  C26  1  0.90890400  0.09109600  0.75000000  1
  C  C27  1  0.09109600  0.90890400  0.25000000  1
  C  C28  1  0.62290900  0.70833600  0.50764500  1
  C  C29  1  0.37709100  0.29166400  0.49235500  1
  C  C30  1  0.29166400  0.37709100  0.99235500  1
  C  C31  1  0.70833600  0.62290900  0.00764500  1
  C  C32  1  0.73067000  0.26933000  0.75000000  1
  C  C33  1  0.26933000  0.73067000  0.25000000  1
  C  C34  1  0.29913600  0.05745400  0.60653300  1
  C  C35  1  0.70086400  0.94254600  0.39346700  1
  C  C36  1  0.94254600  0.70086400  0.89346700  1
  C  C37  1  0.05745400  0.29913600  0.10653300  1
  C  C38  1  0.35198200  0.14114100  0.72949300  1
  C  C39  1  0.64801800  0.85885900  0.27050700  1
  C  C40  1  0.85885900  0.64801800  0.77050700  1
  C  C41  1  0.14114100  0.35198200  0.22949300  1
  Br  Br42  1  0.33768100  0.66231900  0.75000000  1
  Br  Br43  1  0.66231900  0.33768100  0.25000000  1
  Br  Br44  1  0.52717800  0.83728900  0.95385900  1
  Br  Br45  1  0.47282200  0.16271100  0.04614100  1
  Br  Br46  1  0.16271100  0.47282200  0.54614100  1
  Br  Br47  1  0.83728900  0.52717800  0.45385900  1
  N  N48  1  0.64020400  0.35979600  0.75000000  1
  N  N49  1  0.35979600  0.64020400  0.25000000  1
  N  N50  1  0.42075400  0.41364200  0.87323500  1
  N  N51  1  0.57924600  0.58635800  0.12676500  1
  N  N52  1  0.58635800  0.57924600  0.62676500  1
  N  N53  1  0.41364200  0.42075400  0.37323500  1
  F  F54  1  0.66195000  0.18745800  0.63740400  1
  F  F55  1  0.33805000  0.81254200  0.36259600  1
  F  F56  1  0.81254200  0.33805000  0.86259600  1
  F  F57  1  0.18745800  0.66195000  0.13740400  1
  F  F58  1  0.67636200  0.80204800  0.62100000  1
  F  F59  1  0.32363800  0.19795200  0.37900000  1
  F  F60  1  0.19795200  0.32363800  0.87900000  1
  F  F61  1  0.80204800  0.67636200  0.12100000  1
  F  F62  1  0.43263900  0.36427700  0.61934600  1
  F  F63  1  0.56736100  0.63572300  0.38065400  1
  F  F64  1  0.63572300  0.56736100  0.88065400  1
  F  F65  1  0.36427700  0.43263900  0.11934600  1
  F  F66  1  0.99359300  0.00640700  0.75000000  1
  F  F67  1  0.00640700  0.99359300  0.25000000  1
  F  F68  1  0.27383200  0.91542700  0.83799900  1
  F  F69  1  0.72616800  0.08457300  0.16200100  1
  F  F70  1  0.08457300  0.72616800  0.66200100  1
  F  F71  1  0.91542700  0.27383200  0.33799900  1
  F  F72  1  0.83402800  0.01882300  0.63649600  1
  F  F73  1  0.16597200  0.98117700  0.36350400  1
  F  F74  1  0.98117700  0.16597200  0.86350400  1
  F  F75  1  0.01882300  0.83402800  0.13649600  1
  F  F76  1  0.36128700  0.12047600  0.84496500  1
  F  F77  1  0.63871300  0.87952500  0.15503500  1
  F  F78  1  0.87952400  0.63871300  0.65503500  1
  F  F79  1  0.12047600  0.36128700  0.34496500  1
  F  F80  1  0.25856700  0.95666300  0.60093000  1
  F  F81  1  0.74143300  0.04333700  0.39907000  1
  F  F82  1  0.04333700  0.74143300  0.89907000  1
  F  F83  1  0.95666300  0.25856700  0.10093000  1
