# generated using pymatgen
data_Ba2V3InO11
_symmetry_space_group_name_H-M   'P 1'
_cell_length_a   7.70674300
_cell_length_b   12.28105223
_cell_length_c   11.60128467
_cell_angle_alpha   103.49460412
_cell_angle_beta   90.00000000
_cell_angle_gamma   90.00000000
_symmetry_Int_Tables_number   1
_chemical_formula_structural   Ba2V3InO11
_chemical_formula_sum   'Ba8 V12 In4 O44'
_cell_volume   1067.71138000
_cell_formula_units_Z   4
loop_
 _symmetry_equiv_pos_site_id
 _symmetry_equiv_pos_as_xyz
  1  'x, y, z'
loop_
 _atom_site_type_symbol
 _atom_site_label
 _atom_site_symmetry_multiplicity
 _atom_site_fract_x
 _atom_site_fract_y
 _atom_site_fract_z
 _atom_site_occupancy
  Ba  Ba0  1  0.27435700  0.77557700  0.94373600  1
  Ba  Ba1  1  0.72564300  0.22442300  0.05626400  1
  Ba  Ba2  1  0.77435700  0.22442300  0.55626400  1
  Ba  Ba3  1  0.22564300  0.77557700  0.44373600  1
  Ba  Ba4  1  0.74716600  0.55757500  0.89013600  1
  Ba  Ba5  1  0.25283400  0.44242500  0.10986400  1
  Ba  Ba6  1  0.24716600  0.44242500  0.60986400  1
  Ba  Ba7  1  0.75283400  0.55757500  0.39013600  1
  V  V8  1  0.76345100  0.90619300  0.97452700  1
  V  V9  1  0.23654900  0.09380700  0.02547300  1
  V  V10  1  0.26345100  0.09380700  0.52547300  1
  V  V11  1  0.73654900  0.90619300  0.47452700  1
  V  V12  1  0.51859800  0.68699200  0.67186900  1
  V  V13  1  0.48140200  0.31300800  0.32813100  1
  V  V14  1  0.01859800  0.31300800  0.82813100  1
  V  V15  1  0.98140200  0.68699200  0.17186900  1
  V  V16  1  0.98239200  0.69063600  0.67364000  1
  V  V17  1  0.01760800  0.30936400  0.32636000  1
  V  V18  1  0.48239200  0.30936400  0.82636000  1
  V  V19  1  0.51760800  0.69063600  0.17364000  1
  In  In20  1  0.49184500  0.99865500  0.74820700  1
  In  In21  1  0.50815500  0.00134500  0.25179300  1
  In  In22  1  0.99184500  0.00134500  0.75179300  1
  In  In23  1  0.00815500  0.99865500  0.24820700  1
  O  O24  1  0.44796700  0.82556700  0.71462100  1
  O  O25  1  0.55203300  0.17443300  0.28537900  1
  O  O26  1  0.94796700  0.17443300  0.78537900  1
  O  O27  1  0.05203300  0.82556700  0.21462100  1
  O  O28  1  0.54821900  0.16976500  0.79975500  1
  O  O29  1  0.45178100  0.83023500  0.20024500  1
  O  O30  1  0.04821900  0.83023500  0.70024500  1
  O  O31  1  0.95178100  0.16976500  0.29975500  1
  O  O32  1  0.75078500  0.66562300  0.66691700  1
  O  O33  1  0.24921500  0.33437700  0.33308300  1
  O  O34  1  0.25078500  0.33437700  0.83308300  1
  O  O35  1  0.74921500  0.66562300  0.16691700  1
  O  O36  1  0.94472300  0.37520800  0.96550400  1
  O  O37  1  0.05527700  0.62479200  0.03449600  1
  O  O38  1  0.44472300  0.62479200  0.53449600  1
  O  O39  1  0.55527700  0.37520800  0.46550400  1
  O  O40  1  0.93814200  0.38771200  0.73325600  1
  O  O41  1  0.06185800  0.61228800  0.26674400  1
  O  O42  1  0.43814200  0.61228800  0.76674400  1
  O  O43  1  0.56185800  0.38771200  0.23325600  1
  O  O44  1  0.77516300  0.99130300  0.62173900  1
  O  O45  1  0.22483700  0.00869700  0.37826100  1
  O  O46  1  0.27516300  0.00869700  0.87826100  1
  O  O47  1  0.72483700  0.99130300  0.12173900  1
  O  O48  1  0.97262500  0.86783900  0.97032300  1
  O  O49  1  0.02737500  0.13216100  0.02967700  1
  O  O50  1  0.47262500  0.13216100  0.52967700  1
  O  O51  1  0.52737500  0.86783900  0.47032300  1
  O  O52  1  0.63817200  0.78845600  0.94602500  1
  O  O53  1  0.36182800  0.21154400  0.05397500  1
  O  O54  1  0.13817200  0.21154400  0.55397500  1
  O  O55  1  0.86182800  0.78845600  0.44602500  1
  O  O56  1  0.73518100  0.98606500  0.86119300  1
  O  O57  1  0.26481900  0.01393500  0.13880700  1
  O  O58  1  0.23518100  0.01393500  0.63880700  1
  O  O59  1  0.76481900  0.98606500  0.36119300  1
  O  O60  1  0.55861800  0.37039000  0.71969300  1
  O  O61  1  0.44138200  0.62961000  0.28030700  1
  O  O62  1  0.05861800  0.62961000  0.78030700  1
  O  O63  1  0.94138200  0.37039000  0.21969300  1
  O  O64  1  0.56532800  0.38304600  0.95750000  1
  O  O65  1  0.43467200  0.61695400  0.04250000  1
  O  O66  1  0.06532800  0.61695400  0.54250000  1
  O  O67  1  0.93467200  0.38304600  0.45750000  1
