# generated using pymatgen
data_Bi17As5Pb5O43
_symmetry_space_group_name_H-M   'P 1'
_cell_length_a   11.87380129
_cell_length_b   11.87380129
_cell_length_c   11.93835050
_cell_angle_alpha   61.91787356
_cell_angle_beta   61.91787356
_cell_angle_gamma   92.95047627
_symmetry_Int_Tables_number   1
_chemical_formula_structural   Bi17As5Pb5O43
_chemical_formula_sum   'Bi17 As5 Pb5 O43'
_cell_volume   1226.91717104
_cell_formula_units_Z   1
loop_
 _symmetry_equiv_pos_site_id
 _symmetry_equiv_pos_as_xyz
  1  'x, y, z'
loop_
 _atom_site_type_symbol
 _atom_site_label
 _atom_site_symmetry_multiplicity
 _atom_site_fract_x
 _atom_site_fract_y
 _atom_site_fract_z
 _atom_site_occupancy
  Bi  Bi0  1  0.99788500  0.99788500  0.35073400  1
  Bi  Bi1  1  0.35407200  0.01613300  0.30118200  1
  Bi  Bi2  1  0.01613300  0.35407200  0.30118200  1
  Bi  Bi3  1  0.35684000  0.64238300  0.00519200  1
  Bi  Bi4  1  0.64238300  0.35684000  0.00519200  1
  Bi  Bi5  1  0.63037200  0.63037200  0.40373400  1
  Bi  Bi6  1  0.66843900  0.02910400  0.01289100  1
  Bi  Bi7  1  0.02910400  0.66843900  0.01289100  1
  Bi  Bi8  1  0.65817500  0.65817500  0.01054100  1
  Bi  Bi9  1  0.32284100  0.00639100  0.02095800  1
  Bi  Bi10  1  0.00639100  0.32284100  0.02095800  1
  Bi  Bi11  1  0.65442700  0.99509200  0.35691200  1
  Bi  Bi12  1  0.99509200  0.65442700  0.35691200  1
  Bi  Bi13  1  0.35574500  0.00789200  0.65438700  1
  Bi  Bi14  1  0.00789200  0.35574500  0.65438700  1
  Bi  Bi15  1  0.03210700  0.03210700  0.64820700  1
  Bi  Bi16  1  0.32988600  0.32988600  0.69638600  1
  As  As17  1  0.65823000  0.97010900  0.70591300  1
  As  As18  1  0.97010900  0.65823000  0.70591300  1
  As  As19  1  0.98135600  0.98135600  0.02902700  1
  As  As20  1  0.65043200  0.34513900  0.34365500  1
  As  As21  1  0.34513900  0.65043200  0.34365500  1
  Pb  Pb22  1  0.33413900  0.33413900  0.32699100  1
  Pb  Pb23  1  0.33935800  0.33935800  0.99461800  1
  Pb  Pb24  1  0.66757900  0.33712000  0.67641700  1
  Pb  Pb25  1  0.33712000  0.66757900  0.67641700  1
  Pb  Pb26  1  0.65750400  0.65750400  0.68464500  1
  O  O27  1  0.44399300  0.64452500  0.18365300  1
  O  O28  1  0.64452500  0.44399300  0.18365300  1
  O  O29  1  0.06401200  0.06401200  0.06995800  1
  O  O30  1  0.48567300  0.48567300  0.64353500  1
  O  O31  1  0.38772600  0.21145900  0.85335500  1
  O  O32  1  0.21145900  0.38772600  0.85335500  1
  O  O33  1  0.58916600  0.06675200  0.19491500  1
  O  O34  1  0.06675200  0.58916600  0.19491500  1
  O  O35  1  0.21378000  0.02676300  0.21031700  1
  O  O36  1  0.02676300  0.21378000  0.21031700  1
  O  O37  1  0.59333400  0.77072300  0.47370300  1
  O  O38  1  0.77072300  0.59333400  0.47370300  1
  O  O39  1  0.73931600  0.98724100  0.53122000  1
  O  O40  1  0.98724100  0.73931600  0.53122000  1
  O  O41  1  0.81361300  0.97764800  0.11277300  1
  O  O42  1  0.97764800  0.81361300  0.11277300  1
  O  O43  1  0.06696100  0.06696100  0.83308200  1
  O  O44  1  0.24238400  0.78201300  0.85245900  1
  O  O45  1  0.78201300  0.24238400  0.85245900  1
  O  O46  1  0.52218000  0.52218000  0.02692200  1
  O  O47  1  0.47832000  0.07204200  0.04388300  1
  O  O48  1  0.07204200  0.47832000  0.04388300  1
  O  O49  1  0.42153000  0.23815100  0.18173500  1
  O  O50  1  0.23815100  0.42153000  0.18173500  1
  O  O51  1  0.50767400  0.00125900  0.75722500  1
  O  O52  1  0.00125900  0.50767400  0.75722500  1
  O  O53  1  0.60625500  0.79142000  0.83867600  1
  O  O54  1  0.79142000  0.60625500  0.83867600  1
  O  O55  1  0.58306300  0.17952700  0.40441200  1
  O  O56  1  0.17952700  0.58306300  0.40441200  1
  O  O57  1  0.43991200  0.92134600  0.52776000  1
  O  O58  1  0.92134600  0.43991200  0.52776000  1
  O  O59  1  0.39828900  0.81276300  0.29281000  1
  O  O60  1  0.81276300  0.39828900  0.29281000  1
  O  O61  1  0.24937400  0.07253300  0.53613600  1
  O  O62  1  0.07253300  0.24937400  0.53613600  1
  O  O63  1  0.41728700  0.60226300  0.83279100  1
  O  O64  1  0.60226300  0.41728700  0.83279100  1
  O  O65  1  0.76100100  0.05135800  0.72825100  1
  O  O66  1  0.05135800  0.76100100  0.72825100  1
  O  O67  1  0.07679400  0.07679400  0.43320900  1
  O  O68  1  0.54940700  0.37242100  0.48212400  1
  O  O69  1  0.37242100  0.54940700  0.48212400  1
