# generated using pymatgen
data_Ba2HoV3O11
_symmetry_space_group_name_H-M   'P 1'
_cell_length_a   7.76557500
_cell_length_b   12.44911941
_cell_length_c   11.34945542
_cell_angle_alpha   103.24224709
_cell_angle_beta   90.00000000
_cell_angle_gamma   90.00000000
_symmetry_Int_Tables_number   1
_chemical_formula_structural   Ba2HoV3O11
_chemical_formula_sum   'Ba8 Ho4 V12 O44'
_cell_volume   1068.02936947
_cell_formula_units_Z   4
loop_
 _symmetry_equiv_pos_site_id
 _symmetry_equiv_pos_as_xyz
  1  'x, y, z'
loop_
 _atom_site_type_symbol
 _atom_site_label
 _atom_site_symmetry_multiplicity
 _atom_site_fract_x
 _atom_site_fract_y
 _atom_site_fract_z
 _atom_site_occupancy
  Ba  Ba0  1  0.27469900  0.77198500  0.94286900  1
  Ba  Ba1  1  0.72530100  0.22801500  0.05713100  1
  Ba  Ba2  1  0.77469900  0.22801500  0.55713100  1
  Ba  Ba3  1  0.22530100  0.77198500  0.44286900  1
  Ba  Ba4  1  0.74764200  0.55446900  0.88945100  1
  Ba  Ba5  1  0.25235800  0.44553100  0.11054900  1
  Ba  Ba6  1  0.24764200  0.44553100  0.61054900  1
  Ba  Ba7  1  0.75235800  0.55446900  0.38945100  1
  Ho  Ho8  1  0.49983600  0.99761500  0.71940900  1
  Ho  Ho9  1  0.50016400  0.00238500  0.28059100  1
  Ho  Ho10  1  0.99983600  0.00238500  0.78059100  1
  Ho  Ho11  1  0.00016400  0.99761500  0.21940900  1
  V  V12  1  0.75547300  0.90731800  0.97672400  1
  V  V13  1  0.24452700  0.09268200  0.02327600  1
  V  V14  1  0.25547300  0.09268200  0.52327600  1
  V  V15  1  0.74452700  0.90731800  0.47672400  1
  V  V16  1  0.51899700  0.68551500  0.67344900  1
  V  V17  1  0.48100300  0.31448500  0.32655100  1
  V  V18  1  0.01899700  0.31448500  0.82655100  1
  V  V19  1  0.98100300  0.68551500  0.17344900  1
  V  V20  1  0.98151600  0.68925100  0.67203900  1
  V  V21  1  0.01848400  0.31074900  0.32796100  1
  V  V22  1  0.48151600  0.31074900  0.82796100  1
  V  V23  1  0.51848400  0.68925100  0.17203900  1
  O  O24  1  0.44602200  0.82085600  0.71729500  1
  O  O25  1  0.55397800  0.17914400  0.28270500  1
  O  O26  1  0.94602200  0.17914400  0.78270500  1
  O  O27  1  0.05397800  0.82085600  0.21729500  1
  O  O28  1  0.54922800  0.17451800  0.80444200  1
  O  O29  1  0.45077200  0.82548200  0.19555800  1
  O  O30  1  0.04922800  0.82548200  0.69555800  1
  O  O31  1  0.95077200  0.17451800  0.30444200  1
  O  O32  1  0.75047000  0.66559900  0.66725200  1
  O  O33  1  0.24953000  0.33440100  0.33274800  1
  O  O34  1  0.25047000  0.33440100  0.83274800  1
  O  O35  1  0.74953000  0.66559900  0.16725200  1
  O  O36  1  0.94438100  0.37467000  0.96660300  1
  O  O37  1  0.05561900  0.62533000  0.03339700  1
  O  O38  1  0.44438100  0.62533000  0.53339700  1
  O  O39  1  0.55561900  0.37467000  0.46660300  1
  O  O40  1  0.93964100  0.39002300  0.73064100  1
  O  O41  1  0.06035900  0.60997700  0.26935900  1
  O  O42  1  0.43964100  0.60997700  0.76935900  1
  O  O43  1  0.56035900  0.39002300  0.23064100  1
  O  O44  1  0.78369200  0.98753500  0.62632600  1
  O  O45  1  0.21630800  0.01246500  0.37367400  1
  O  O46  1  0.28369200  0.01246500  0.87367400  1
  O  O47  1  0.71630800  0.98753500  0.12632600  1
  O  O48  1  0.97381100  0.88407500  0.97470400  1
  O  O49  1  0.02618900  0.11592500  0.02529600  1
  O  O50  1  0.47381100  0.11592500  0.52529600  1
  O  O51  1  0.52618900  0.88407500  0.47470400  1
  O  O52  1  0.64232000  0.78704000  0.94656800  1
  O  O53  1  0.35768000  0.21296000  0.05343200  1
  O  O54  1  0.14232000  0.21296000  0.55343200  1
  O  O55  1  0.85768000  0.78704000  0.44656800  1
  O  O56  1  0.72034400  0.98384400  0.86311100  1
  O  O57  1  0.27965600  0.01615600  0.13688900  1
  O  O58  1  0.22034400  0.01615600  0.63688900  1
  O  O59  1  0.77965600  0.98384400  0.36311100  1
  O  O60  1  0.55880700  0.36949600  0.71794000  1
  O  O61  1  0.44119300  0.63050400  0.28206000  1
  O  O62  1  0.05880700  0.63050400  0.78206000  1
  O  O63  1  0.94119300  0.36949600  0.21794000  1
  O  O64  1  0.56369500  0.38547700  0.96113300  1
  O  O65  1  0.43630500  0.61452300  0.03886700  1
  O  O66  1  0.06369500  0.61452300  0.53886700  1
  O  O67  1  0.93630500  0.38547700  0.46113300  1
