# generated using pymatgen
data_Ba3Fe8Sn3O20
_symmetry_space_group_name_H-M   'P 1'
_cell_length_a   10.19507115
_cell_length_b   10.19507115
_cell_length_c   5.36602458
_cell_angle_alpha   76.99826010
_cell_angle_beta   76.99826010
_cell_angle_gamma   72.73960477
_symmetry_Int_Tables_number   1
_chemical_formula_structural   Ba3Fe8Sn3O20
_chemical_formula_sum   'Ba3 Fe8 Sn3 O20'
_cell_volume   511.41148180
_cell_formula_units_Z   1
loop_
 _symmetry_equiv_pos_site_id
 _symmetry_equiv_pos_as_xyz
  1  'x, y, z'
loop_
 _atom_site_type_symbol
 _atom_site_label
 _atom_site_symmetry_multiplicity
 _atom_site_fract_x
 _atom_site_fract_y
 _atom_site_fract_z
 _atom_site_occupancy
  Ba  Ba0  1  0.22784000  0.22784000  0.26719700  1
  Ba  Ba1  1  0.77216000  0.77216000  0.73280300  1
  Ba  Ba2  1  0.50000000  0.50000000  0.00000000  1
  Fe  Fe3  1  0.36072700  0.92189500  0.84211000  1
  Fe  Fe4  1  0.63927300  0.07810500  0.15789000  1
  Fe  Fe5  1  0.07810500  0.63927300  0.15789000  1
  Fe  Fe6  1  0.92189500  0.36072700  0.84211000  1
  Fe  Fe7  1  0.48624200  0.21755300  0.65748400  1
  Fe  Fe8  1  0.51375800  0.78244700  0.34251600  1
  Fe  Fe9  1  0.78244700  0.51375800  0.34251600  1
  Fe  Fe10  1  0.21755300  0.48624200  0.65748400  1
  Sn  Sn11  1  0.00000000  0.00000000  0.00000000  1
  Sn  Sn12  1  0.14333400  0.85666600  0.50000000  1
  Sn  Sn13  1  0.85666600  0.14333400  0.50000000  1
  O  O14  1  0.66363000  0.17135200  0.41541200  1
  O  O15  1  0.33637000  0.82864800  0.58458800  1
  O  O16  1  0.82864800  0.33637000  0.58458800  1
  O  O17  1  0.17135200  0.66363000  0.41541200  1
  O  O18  1  0.06655800  0.06655800  0.60857200  1
  O  O19  1  0.93344200  0.93344200  0.39142800  1
  O  O20  1  0.39878800  0.39878800  0.51139800  1
  O  O21  1  0.60121200  0.60121200  0.48860200  1
  O  O22  1  0.37371000  0.09637500  0.69723500  1
  O  O23  1  0.62629000  0.90362500  0.30276500  1
  O  O24  1  0.90362500  0.62629000  0.30276500  1
  O  O25  1  0.09637500  0.37371000  0.69723500  1
  O  O26  1  0.50149100  0.78700100  0.98432000  1
  O  O27  1  0.49850900  0.21299900  0.01568000  1
  O  O28  1  0.21299900  0.49850900  0.01568000  1
  O  O29  1  0.78700100  0.50149100  0.98432000  1
  O  O30  1  0.19353200  0.95424500  0.11901800  1
  O  O31  1  0.80646800  0.04575500  0.88098200  1
  O  O32  1  0.04575500  0.80646800  0.88098200  1
  O  O33  1  0.95424500  0.19353200  0.11901800  1
