# generated using pymatgen
data_AgW6CCl18
_symmetry_space_group_name_H-M   'P 1'
_cell_length_a   9.09063402
_cell_length_b   9.09063402
_cell_length_c   17.79981900
_cell_angle_alpha   90.00000000
_cell_angle_beta   90.00000000
_cell_angle_gamma   120.00000012
_symmetry_Int_Tables_number   1
_chemical_formula_structural   AgW6CCl18
_chemical_formula_sum   'Ag2 W12 C2 Cl36'
_cell_volume   1273.89773285
_cell_formula_units_Z   2
loop_
 _symmetry_equiv_pos_site_id
 _symmetry_equiv_pos_as_xyz
  1  'x, y, z'
loop_
 _atom_site_type_symbol
 _atom_site_label
 _atom_site_symmetry_multiplicity
 _atom_site_fract_x
 _atom_site_fract_y
 _atom_site_fract_z
 _atom_site_occupancy
  Ag  Ag0  1  0.00000000  0.00000000  0.00000000  1
  Ag  Ag1  1  0.00000000  0.00000000  0.50000000  1
  W  W2  1  0.82250000  0.30489000  0.83458400  1
  W  W3  1  0.17750000  0.69511000  0.16541600  1
  W  W4  1  0.48239000  0.17750000  0.83458400  1
  W  W5  1  0.17750000  0.69511000  0.33458400  1
  W  W6  1  0.51761000  0.82250000  0.16541600  1
  W  W7  1  0.82250000  0.30489000  0.66541600  1
  W  W8  1  0.69511000  0.51761000  0.83458400  1
  W  W9  1  0.51761000  0.82250000  0.33458400  1
  W  W10  1  0.30489000  0.48239000  0.16541600  1
  W  W11  1  0.48239000  0.17750000  0.66541600  1
  W  W12  1  0.30489000  0.48239000  0.33458400  1
  W  W13  1  0.69511000  0.51761000  0.66541600  1
  C  C14  1  0.66666700  0.33333300  0.75000000  1
  C  C15  1  0.33333300  0.66666700  0.25000000  1
  Cl  Cl16  1  0.80758300  0.08461200  0.75000000  1
  Cl  Cl17  1  0.19241700  0.91538800  0.25000000  1
  Cl  Cl18  1  0.27702900  0.19241700  0.75000000  1
  Cl  Cl19  1  0.72297100  0.80758300  0.25000000  1
  Cl  Cl20  1  0.91538800  0.72297100  0.75000000  1
  Cl  Cl21  1  0.08461200  0.27702900  0.25000000  1
  Cl  Cl22  1  0.73234400  0.77265100  0.90052800  1
  Cl  Cl23  1  0.26765600  0.22734900  0.09947200  1
  Cl  Cl24  1  0.04030700  0.26765600  0.90052800  1
  Cl  Cl25  1  0.26765600  0.22734900  0.40052800  1
  Cl  Cl26  1  0.95969300  0.73234400  0.09947200  1
  Cl  Cl27  1  0.73234400  0.77265100  0.59947200  1
  Cl  Cl28  1  0.22734900  0.95969300  0.90052800  1
  Cl  Cl29  1  0.95969300  0.73234400  0.40052800  1
  Cl  Cl30  1  0.77265100  0.04030700  0.09947200  1
  Cl  Cl31  1  0.04030700  0.26765600  0.59947200  1
  Cl  Cl32  1  0.77265100  0.04030700  0.40052800  1
  Cl  Cl33  1  0.22734900  0.95969300  0.59947200  1
  Cl  Cl34  1  0.51267000  0.57234100  0.75000000  1
  Cl  Cl35  1  0.48733000  0.42765900  0.25000000  1
  Cl  Cl36  1  0.05967100  0.48733000  0.75000000  1
  Cl  Cl37  1  0.94032900  0.51267000  0.25000000  1
  Cl  Cl38  1  0.42765900  0.94032900  0.75000000  1
  Cl  Cl39  1  0.57234100  0.05967100  0.25000000  1
  Cl  Cl40  1  0.63204700  0.10743200  0.92619000  1
  Cl  Cl41  1  0.36795300  0.89256800  0.07381000  1
  Cl  Cl42  1  0.47538400  0.36795300  0.92619000  1
  Cl  Cl43  1  0.36795300  0.89256800  0.42619000  1
  Cl  Cl44  1  0.52461600  0.63204700  0.07381000  1
  Cl  Cl45  1  0.63204700  0.10743200  0.57381000  1
  Cl  Cl46  1  0.89256800  0.52461600  0.92619000  1
  Cl  Cl47  1  0.52461600  0.63204700  0.42619000  1
  Cl  Cl48  1  0.10743200  0.47538400  0.07381000  1
  Cl  Cl49  1  0.47538400  0.36795300  0.57381000  1
  Cl  Cl50  1  0.10743200  0.47538400  0.42619000  1
  Cl  Cl51  1  0.89256800  0.52461600  0.57381000  1
