# generated using pymatgen
data_Ba2In2(PO4)3
_symmetry_space_group_name_H-M   'P 1'
_cell_length_a   10.48593300
_cell_length_b   10.48593300
_cell_length_c   10.48593300
_cell_angle_alpha   90.00000000
_cell_angle_beta   90.00000000
_cell_angle_gamma   90.00000000
_symmetry_Int_Tables_number   1
_chemical_formula_structural   Ba2In2(PO4)3
_chemical_formula_sum   'Ba8 In8 P12 O48'
_cell_volume   1152.97857020
_cell_formula_units_Z   4
loop_
 _symmetry_equiv_pos_site_id
 _symmetry_equiv_pos_as_xyz
  1  'x, y, z'
loop_
 _atom_site_type_symbol
 _atom_site_label
 _atom_site_symmetry_multiplicity
 _atom_site_fract_x
 _atom_site_fract_y
 _atom_site_fract_z
 _atom_site_occupancy
  Ba  Ba0  1  0.05574000  0.05574000  0.05574000  1
  Ba  Ba1  1  0.44426000  0.94426000  0.55574000  1
  Ba  Ba2  1  0.94426000  0.55574000  0.44426000  1
  Ba  Ba3  1  0.55574000  0.44426000  0.94426000  1
  Ba  Ba4  1  0.80727200  0.80727200  0.80727200  1
  Ba  Ba5  1  0.69272800  0.19272800  0.30727200  1
  Ba  Ba6  1  0.19272800  0.30727200  0.69272800  1
  Ba  Ba7  1  0.30727200  0.69272800  0.19272800  1
  In  In8  1  0.33051000  0.33051000  0.33051000  1
  In  In9  1  0.16949000  0.66949000  0.83051000  1
  In  In10  1  0.66949000  0.83051000  0.16949000  1
  In  In11  1  0.83051000  0.16949000  0.66949000  1
  In  In12  1  0.58541900  0.58541900  0.58541900  1
  In  In13  1  0.91458100  0.41458100  0.08541900  1
  In  In14  1  0.41458100  0.08541900  0.91458100  1
  In  In15  1  0.08541900  0.91458100  0.41458100  1
  P  P16  1  0.01450800  0.23038400  0.37905000  1
  P  P17  1  0.48549200  0.76961600  0.87905000  1
  P  P18  1  0.98549200  0.73038400  0.12095000  1
  P  P19  1  0.37905000  0.01450800  0.23038400  1
  P  P20  1  0.51450800  0.26961600  0.62095000  1
  P  P21  1  0.87905000  0.48549200  0.76961600  1
  P  P22  1  0.12095000  0.98549200  0.73038400  1
  P  P23  1  0.62095000  0.51450800  0.26961600  1
  P  P24  1  0.23038400  0.37905000  0.01450800  1
  P  P25  1  0.73038400  0.12095000  0.98549200  1
  P  P26  1  0.26961600  0.62095000  0.51450800  1
  P  P27  1  0.76961600  0.87905000  0.48549200  1
  O  O28  1  0.00097600  0.10158800  0.30795600  1
  O  O29  1  0.49902400  0.89841200  0.80795600  1
  O  O30  1  0.99902400  0.60158800  0.19204400  1
  O  O31  1  0.30795600  0.00097600  0.10158800  1
  O  O32  1  0.50097600  0.39841200  0.69204400  1
  O  O33  1  0.80795600  0.49902400  0.89841200  1
  O  O34  1  0.19204400  0.99902400  0.60158800  1
  O  O35  1  0.69204400  0.50097600  0.39841200  1
  O  O36  1  0.10158800  0.30795600  0.00097600  1
  O  O37  1  0.60158800  0.19204400  0.99902400  1
  O  O38  1  0.39841200  0.69204400  0.50097600  1
  O  O39  1  0.89841200  0.80795600  0.49902400  1
  O  O40  1  0.04752300  0.83671500  0.20429500  1
  O  O41  1  0.45247700  0.16328500  0.70429500  1
  O  O42  1  0.95247700  0.33671500  0.29570500  1
  O  O43  1  0.20429500  0.04752300  0.83671500  1
  O  O44  1  0.54752300  0.66328500  0.79570500  1
  O  O45  1  0.70429500  0.45247700  0.16328500  1
  O  O46  1  0.29570500  0.95247700  0.33671500  1
  O  O47  1  0.79570500  0.54752300  0.66328500  1
  O  O48  1  0.83671500  0.20429500  0.04752300  1
  O  O49  1  0.33671500  0.29570500  0.95247700  1
  O  O50  1  0.66328500  0.79570500  0.54752300  1
  O  O51  1  0.16328500  0.70429500  0.45247700  1
  O  O52  1  0.15665200  0.25704600  0.41465900  1
  O  O53  1  0.34334800  0.74295400  0.91465900  1
  O  O54  1  0.84334800  0.75704600  0.08534100  1
  O  O55  1  0.41465900  0.15665200  0.25704600  1
  O  O56  1  0.65665200  0.24295400  0.58534100  1
  O  O57  1  0.91465900  0.34334800  0.74295400  1
  O  O58  1  0.08534100  0.84334800  0.75704600  1
  O  O59  1  0.58534100  0.65665200  0.24295400  1
  O  O60  1  0.25704600  0.41465900  0.15665200  1
  O  O61  1  0.75704600  0.08534100  0.84334800  1
  O  O62  1  0.24295400  0.58534100  0.65665200  1
  O  O63  1  0.74295400  0.91465900  0.34334800  1
  O  O64  1  0.26641500  0.49385500  0.43914400  1
  O  O65  1  0.23358500  0.50614500  0.93914400  1
  O  O66  1  0.73358500  0.99385500  0.06085600  1
  O  O67  1  0.43914400  0.26641500  0.49385500  1
  O  O68  1  0.76641500  0.00614500  0.56085600  1
  O  O69  1  0.93914400  0.23358500  0.50614500  1
  O  O70  1  0.06085600  0.73358500  0.99385500  1
  O  O71  1  0.56085600  0.76641500  0.00614500  1
  O  O72  1  0.49385500  0.43914400  0.26641500  1
  O  O73  1  0.99385500  0.06085600  0.73358500  1
  O  O74  1  0.00614500  0.56085600  0.76641500  1
  O  O75  1  0.50614500  0.93914400  0.23358500  1
