# generated using pymatgen
data_BaBi12Mo5O34
_symmetry_space_group_name_H-M   'P 1'
_cell_length_a   5.92318000
_cell_length_b   11.98213600
_cell_length_c   25.48834807
_cell_angle_alpha   77.35916418
_cell_angle_beta   90.00000000
_cell_angle_gamma   90.00000000
_symmetry_Int_Tables_number   1
_chemical_formula_structural   BaBi12Mo5O34
_chemical_formula_sum   'Ba2 Bi24 Mo10 O68'
_cell_volume   1765.12041468
_cell_formula_units_Z   2
loop_
 _symmetry_equiv_pos_site_id
 _symmetry_equiv_pos_as_xyz
  1  'x, y, z'
loop_
 _atom_site_type_symbol
 _atom_site_label
 _atom_site_symmetry_multiplicity
 _atom_site_fract_x
 _atom_site_fract_y
 _atom_site_fract_z
 _atom_site_occupancy
  Ba  Ba0  1  0.00000000  0.00000000  0.50000000  1
  Ba  Ba1  1  0.00000000  0.00000000  0.00000000  1
  Bi  Bi2  1  0.98515500  0.76556400  0.84122100  1
  Bi  Bi3  1  0.01484500  0.23443600  0.15877900  1
  Bi  Bi4  1  0.98515500  0.23443600  0.65877900  1
  Bi  Bi5  1  0.01484500  0.76556400  0.34122100  1
  Bi  Bi6  1  0.47456500  0.74218900  0.60203200  1
  Bi  Bi7  1  0.52543500  0.25781100  0.39796800  1
  Bi  Bi8  1  0.47456500  0.25781100  0.89796800  1
  Bi  Bi9  1  0.52543500  0.74218900  0.10203200  1
  Bi  Bi10  1  0.98513100  0.85903100  0.67862800  1
  Bi  Bi11  1  0.01486900  0.14096900  0.32137200  1
  Bi  Bi12  1  0.98513100  0.14096900  0.82137200  1
  Bi  Bi13  1  0.01486900  0.85903100  0.17862800  1
  Bi  Bi14  1  0.91903400  0.53992200  0.17459200  1
  Bi  Bi15  1  0.08096600  0.46007800  0.82540800  1
  Bi  Bi16  1  0.91903400  0.46007800  0.32540800  1
  Bi  Bi17  1  0.08096600  0.53992200  0.67459200  1
  Bi  Bi18  1  0.58161200  0.65589300  0.75510000  1
  Bi  Bi19  1  0.41838800  0.34410700  0.24490000  1
  Bi  Bi20  1  0.58161200  0.34410700  0.74490000  1
  Bi  Bi21  1  0.41838800  0.65589300  0.25510000  1
  Bi  Bi22  1  0.48183400  0.58100900  0.90745900  1
  Bi  Bi23  1  0.51816600  0.41899100  0.09254100  1
  Bi  Bi24  1  0.48183400  0.41899100  0.59254100  1
  Bi  Bi25  1  0.51816600  0.58100900  0.40745900  1
  Mo  Mo26  1  0.48444200  0.00000000  0.75000000  1
  Mo  Mo27  1  0.51555800  0.00000000  0.25000000  1
  Mo  Mo28  1  0.49911600  0.92350300  0.92075600  1
  Mo  Mo29  1  0.50088400  0.07649700  0.07924400  1
  Mo  Mo30  1  0.49911600  0.07649700  0.57924400  1
  Mo  Mo31  1  0.50088400  0.92350300  0.42075600  1
  Mo  Mo32  1  0.97536900  0.65951900  0.51326200  1
  Mo  Mo33  1  0.02463100  0.34048100  0.48673800  1
  Mo  Mo34  1  0.97536900  0.34048100  0.98673800  1
  Mo  Mo35  1  0.02463100  0.65951900  0.01326200  1
  O  O36  1  0.77246300  0.50000000  0.75000000  1
  O  O37  1  0.22753700  0.50000000  0.25000000  1
  O  O38  1  0.72743800  0.97630700  0.10288800  1
  O  O39  1  0.27256200  0.02369300  0.89711200  1
  O  O40  1  0.72743800  0.02369300  0.39711200  1
  O  O41  1  0.27256200  0.97630700  0.60288800  1
  O  O42  1  0.42292800  0.56156400  0.63323400  1
  O  O43  1  0.57707200  0.43843600  0.36676600  1
  O  O44  1  0.42292800  0.43843600  0.86676600  1
  O  O45  1  0.57707200  0.56156400  0.13323400  1
  O  O46  1  0.23265300  0.63501200  0.84184900  1
  O  O47  1  0.76734700  0.36498800  0.15815100  1
  O  O48  1  0.23265300  0.36498800  0.65815100  1
  O  O49  1  0.76734700  0.63501200  0.34184900  1
  O  O50  1  0.66419500  0.99580600  0.80699100  1
  O  O51  1  0.33580500  0.00419400  0.19300900  1
  O  O52  1  0.66419500  0.00419400  0.69300900  1
  O  O53  1  0.33580500  0.99580600  0.30699100  1
  O  O54  1  0.77746000  0.72630800  0.16739000  1
  O  O55  1  0.22254000  0.27369200  0.83261000  1
  O  O56  1  0.77746000  0.27369200  0.33261000  1
  O  O57  1  0.22254000  0.72630800  0.66739000  1
  O  O58  1  0.81500700  0.55077200  0.03062100  1
  O  O59  1  0.18499300  0.44922800  0.96937900  1
  O  O60  1  0.81500700  0.44922800  0.46937900  1
  O  O61  1  0.18499300  0.55077200  0.53062100  1
  O  O62  1  0.72271300  0.73650000  0.66567000  1
  O  O63  1  0.27728700  0.26350000  0.33433000  1
  O  O64  1  0.72271300  0.26350000  0.83433000  1
  O  O65  1  0.27728700  0.73650000  0.16567000  1
  O  O66  1  0.89580500  0.75807600  0.75805200  1
  O  O67  1  0.10419500  0.24192400  0.24194800  1
  O  O68  1  0.89580500  0.24192400  0.74194800  1
  O  O69  1  0.10419500  0.75807600  0.25805200  1
  O  O70  1  0.95504000  0.29250300  0.05888300  1
  O  O71  1  0.04496000  0.70749700  0.94111700  1
  O  O72  1  0.95504000  0.70749700  0.44111700  1
  O  O73  1  0.04496000  0.29250300  0.55888300  1
  O  O74  1  0.70941800  0.61123200  0.54526800  1
  O  O75  1  0.29058200  0.38876800  0.45473200  1
  O  O76  1  0.70941800  0.38876800  0.95473200  1
  O  O77  1  0.29058200  0.61123200  0.04526800  1
  O  O78  1  0.44049800  0.87489900  0.99071800  1
  O  O79  1  0.55950200  0.12510100  0.00928200  1
  O  O80  1  0.44049800  0.12510100  0.50928200  1
  O  O81  1  0.55950200  0.87489900  0.49071800  1
  O  O82  1  0.51517700  0.79999100  0.89095500  1
  O  O83  1  0.48482300  0.20000900  0.10904500  1
  O  O84  1  0.51517700  0.20000900  0.60904500  1
  O  O85  1  0.48482300  0.79999100  0.39095500  1
  O  O86  1  0.74347900  0.62575000  0.84571800  1
  O  O87  1  0.25652100  0.37425000  0.15428200  1
  O  O88  1  0.74347900  0.37425000  0.65428200  1
  O  O89  1  0.25652100  0.62575000  0.34571800  1
  O  O90  1  0.30558600  0.87491900  0.75927200  1
  O  O91  1  0.69441400  0.12508100  0.24072800  1
  O  O92  1  0.30558600  0.12508100  0.74072800  1
  O  O93  1  0.69441400  0.87491900  0.25927200  1
  O  O94  1  0.93068600  0.77548500  0.04268600  1
  O  O95  1  0.06931400  0.22451500  0.95731400  1
  O  O96  1  0.93068600  0.22451500  0.45731400  1
  O  O97  1  0.06931400  0.77548500  0.54268600  1
  O  O98  1  0.76113600  0.99816200  0.58575100  1
  O  O99  1  0.23886400  0.00183800  0.41424900  1
  O  O100  1  0.76113600  0.00183800  0.91424900  1
  O  O101  1  0.23886400  0.99816200  0.08575100  1
  O  O102  1  0.26321300  0.50000000  0.75000000  1
  O  O103  1  0.73678700  0.50000000  0.25000000  1
