# generated using pymatgen
data_Ba3PtF12
_symmetry_space_group_name_H-M   'P 1'
_cell_length_a   7.83603168
_cell_length_b   7.83603168
_cell_length_c   7.10480021
_cell_angle_alpha   88.57469220
_cell_angle_beta   88.57469220
_cell_angle_gamma   119.69796436
_symmetry_Int_Tables_number   1
_chemical_formula_structural   Ba3PtF12
_chemical_formula_sum   'Ba3 Pt1 F12'
_cell_volume   378.49089425
_cell_formula_units_Z   1
loop_
 _symmetry_equiv_pos_site_id
 _symmetry_equiv_pos_as_xyz
  1  'x, y, z'
loop_
 _atom_site_type_symbol
 _atom_site_label
 _atom_site_symmetry_multiplicity
 _atom_site_fract_x
 _atom_site_fract_y
 _atom_site_fract_z
 _atom_site_occupancy
  Ba  Ba0  1  0.00000000  0.00000000  0.50000000  1
  Ba  Ba1  1  0.50000000  0.00000000  0.00000000  1
  Ba  Ba2  1  0.00000000  0.50000000  0.00000000  1
  Pt  Pt3  1  0.00000000  0.00000000  0.00000000  1
  F  F4  1  0.33108100  0.69317500  0.80276400  1
  F  F5  1  0.66891900  0.30682500  0.19723600  1
  F  F6  1  0.91342100  0.45607200  0.58490300  1
  F  F7  1  0.30682500  0.66891900  0.19723600  1
  F  F8  1  0.08657900  0.54392800  0.41509700  1
  F  F9  1  0.69317500  0.33108100  0.80276400  1
  F  F10  1  0.83076300  0.03373200  0.19198200  1
  F  F11  1  0.54392800  0.08657900  0.41509700  1
  F  F12  1  0.16923700  0.96626800  0.80801800  1
  F  F13  1  0.45607200  0.91342100  0.58490300  1
  F  F14  1  0.96626800  0.16923700  0.80801800  1
  F  F15  1  0.03373200  0.83076300  0.19198200  1
