# generated using pymatgen
data_Be13W
_symmetry_space_group_name_H-M   'P 1'
_cell_length_a   9.64064153
_cell_length_b   9.64064153
_cell_length_c   9.64064153
_cell_angle_alpha   60.00000000
_cell_angle_beta   60.00000000
_cell_angle_gamma   60.00000000
_symmetry_Int_Tables_number   1
_chemical_formula_structural   Be13W
_chemical_formula_sum   'Be52 W4'
_cell_volume   633.58196441
_cell_formula_units_Z   4
loop_
 _symmetry_equiv_pos_site_id
 _symmetry_equiv_pos_as_xyz
  1  'x, y, z'
loop_
 _atom_site_type_symbol
 _atom_site_label
 _atom_site_symmetry_multiplicity
 _atom_site_fract_x
 _atom_site_fract_y
 _atom_site_fract_z
 _atom_site_occupancy
  Be  Be0  1  0.49746300  0.49746300  0.26623300  1
  Be  Be1  1  0.73884100  0.26623300  0.49746300  1
  Be  Be2  1  0.26623300  0.73884100  0.49746300  1
  Be  Be3  1  0.49746300  0.26623300  0.49746300  1
  Be  Be4  1  0.01115900  0.25253700  0.48376700  1
  Be  Be5  1  0.25253700  0.25253700  0.48376700  1
  Be  Be6  1  0.49746300  0.49746300  0.73884100  1
  Be  Be7  1  0.26623300  0.49746300  0.73884100  1
  Be  Be8  1  0.25253700  0.48376700  0.25253700  1
  Be  Be9  1  0.01115900  0.48376700  0.25253700  1
  Be  Be10  1  0.73884100  0.49746300  0.26623300  1
  Be  Be11  1  0.25253700  0.01115900  0.25253700  1
  Be  Be12  1  0.48376700  0.01115900  0.25253700  1
  Be  Be13  1  0.49746300  0.73884100  0.49746300  1
  Be  Be14  1  0.48376700  0.25253700  0.01115900  1
  Be  Be15  1  0.25253700  0.25253700  0.01115900  1
  Be  Be16  1  0.26623300  0.49746300  0.49746300  1
  Be  Be17  1  0.49746300  0.26623300  0.73884100  1
  Be  Be18  1  0.73884100  0.49746300  0.49746300  1
  Be  Be19  1  0.49746300  0.73884100  0.26623300  1
  Be  Be20  1  0.25253700  0.48376700  0.01115900  1
  Be  Be21  1  0.48376700  0.25253700  0.25253700  1
  Be  Be22  1  0.25253700  0.01115900  0.48376700  1
  Be  Be23  1  0.01115900  0.25253700  0.25253700  1
  Be  Be24  1  0.50000000  0.50000000  0.50000000  1
  Be  Be25  1  0.25000000  0.25000000  0.25000000  1
  Be  Be26  1  0.00000000  0.00000000  0.00000000  1
  Be  Be27  1  0.75000000  0.75000000  0.75000000  1
  Be  Be28  1  0.14601300  0.75052000  0.75052000  1
  Be  Be29  1  0.35294600  0.75052000  0.75052000  1
  Be  Be30  1  0.75052000  0.35294600  0.14601300  1
  Be  Be31  1  0.75052000  0.75052000  0.14601300  1
  Be  Be32  1  0.39705400  0.99948000  0.99948000  1
  Be  Be33  1  0.60398700  0.99948000  0.99948000  1
  Be  Be34  1  0.75052000  0.14601300  0.35294600  1
  Be  Be35  1  0.75052000  0.75052000  0.35294600  1
  Be  Be36  1  0.35294600  0.14601300  0.75052000  1
  Be  Be37  1  0.99948000  0.39705400  0.60398700  1
  Be  Be38  1  0.14601300  0.35294600  0.75052000  1
  Be  Be39  1  0.99948000  0.60398700  0.39705400  1
  Be  Be40  1  0.75052000  0.14601300  0.75052000  1
  Be  Be41  1  0.39705400  0.99948000  0.60398700  1
  Be  Be42  1  0.99948000  0.99948000  0.60398700  1
  Be  Be43  1  0.14601300  0.75052000  0.35294600  1
  Be  Be44  1  0.99948000  0.60398700  0.99948000  1
  Be  Be45  1  0.39705400  0.60398700  0.99948000  1
  Be  Be46  1  0.35294600  0.75052000  0.14601300  1
  Be  Be47  1  0.99948000  0.39705400  0.99948000  1
  Be  Be48  1  0.60398700  0.39705400  0.99948000  1
  Be  Be49  1  0.75052000  0.35294600  0.75052000  1
  Be  Be50  1  0.60398700  0.99948000  0.39705400  1
  Be  Be51  1  0.99948000  0.99948000  0.39705400  1
  W  W52  1  0.87500000  0.87500000  0.87500000  1
  W  W53  1  0.37500000  0.87500000  0.87500000  1
  W  W54  1  0.87500000  0.37500000  0.87500000  1
  W  W55  1  0.87500000  0.87500000  0.37500000  1
