# generated using pymatgen
data_BaMn2O4
_symmetry_space_group_name_H-M   'P 1'
_cell_length_a   8.18744929
_cell_length_b   8.18744929
_cell_length_c   9.78537630
_cell_angle_alpha   108.54292561
_cell_angle_beta   108.54292561
_cell_angle_gamma   103.87693639
_symmetry_Int_Tables_number   1
_chemical_formula_structural   BaMn2O4
_chemical_formula_sum   'Ba4 Mn8 O16'
_cell_volume   545.54877607
_cell_formula_units_Z   4
loop_
 _symmetry_equiv_pos_site_id
 _symmetry_equiv_pos_as_xyz
  1  'x, y, z'
loop_
 _atom_site_type_symbol
 _atom_site_label
 _atom_site_symmetry_multiplicity
 _atom_site_fract_x
 _atom_site_fract_y
 _atom_site_fract_z
 _atom_site_occupancy
  Ba  Ba0  1  0.62500000  0.87500000  0.75000000  1
  Ba  Ba1  1  0.12500000  0.87500000  0.75000000  1
  Ba  Ba2  1  0.12500000  0.37500000  0.25000000  1
  Ba  Ba3  1  0.12500000  0.87500000  0.25000000  1
  Mn  Mn4  1  0.49301200  0.27104300  0.78799500  1
  Mn  Mn5  1  0.29498300  0.51695300  0.78799500  1
  Mn  Mn6  1  0.72895700  0.50698800  0.21200500  1
  Mn  Mn7  1  0.75698800  0.47895700  0.71200500  1
  Mn  Mn8  1  0.48304700  0.70501700  0.21200500  1
  Mn  Mn9  1  0.95501700  0.23304700  0.71200500  1
  Mn  Mn10  1  0.52104300  0.24301200  0.28799500  1
  Mn  Mn11  1  0.76695300  0.04498300  0.28799500  1
  O  O12  1  0.49551200  0.46040200  0.23026600  1
  O  O13  1  0.73475400  0.76986400  0.23026600  1
  O  O14  1  0.53959800  0.50448800  0.76973400  1
  O  O15  1  0.75448800  0.28959800  0.26973400  1
  O  O16  1  0.23013600  0.26524600  0.76973400  1
  O  O17  1  0.51524600  0.98013600  0.26973400  1
  O  O18  1  0.71040200  0.24551200  0.73026600  1
  O  O19  1  0.01986400  0.48475400  0.73026600  1
  O  O20  1  0.47459200  0.09459800  0.85667500  1
  O  O21  1  0.38208300  0.76207700  0.85667500  1
  O  O22  1  0.90540200  0.52540800  0.14332500  1
  O  O23  1  0.77540800  0.65540200  0.64332500  1
  O  O24  1  0.23792300  0.61791700  0.14332500  1
  O  O25  1  0.86791700  0.98792300  0.64332500  1
  O  O26  1  0.34459800  0.22459200  0.35667500  1
  O  O27  1  0.01207700  0.13208300  0.35667500  1
