# generated using pymatgen
data_Be13Re
_symmetry_space_group_name_H-M   'P 1'
_cell_length_a   9.56583529
_cell_length_b   9.56583529
_cell_length_c   9.56583529
_cell_angle_alpha   60.00000000
_cell_angle_beta   60.00000000
_cell_angle_gamma   60.00000000
_symmetry_Int_Tables_number   1
_chemical_formula_structural   Be13Re
_chemical_formula_sum   'Be52 Re4'
_cell_volume   618.94733585
_cell_formula_units_Z   4
loop_
 _symmetry_equiv_pos_site_id
 _symmetry_equiv_pos_as_xyz
  1  'x, y, z'
loop_
 _atom_site_type_symbol
 _atom_site_label
 _atom_site_symmetry_multiplicity
 _atom_site_fract_x
 _atom_site_fract_y
 _atom_site_fract_z
 _atom_site_occupancy
  Be  Be0  1  0.50000000  0.50000000  0.50000000  1
  Be  Be1  1  0.75000000  0.75000000  0.75000000  1
  Be  Be2  1  0.73704100  0.50538800  0.50538800  1
  Be  Be3  1  0.50538800  0.73704100  0.25218200  1
  Be  Be4  1  0.50538800  0.25218200  0.73704100  1
  Be  Be5  1  0.50538800  0.73704100  0.50538800  1
  Be  Be6  1  0.51295900  0.74461200  0.99781800  1
  Be  Be7  1  0.51295900  0.74461200  0.74461200  1
  Be  Be8  1  0.25218200  0.50538800  0.50538800  1
  Be  Be9  1  0.25218200  0.50538800  0.73704100  1
  Be  Be10  1  0.74461200  0.51295900  0.74461200  1
  Be  Be11  1  0.74461200  0.51295900  0.99781800  1
  Be  Be12  1  0.73704100  0.50538800  0.25218200  1
  Be  Be13  1  0.74461200  0.99781800  0.74461200  1
  Be  Be14  1  0.74461200  0.99781800  0.51295900  1
  Be  Be15  1  0.50538800  0.25218200  0.50538800  1
  Be  Be16  1  0.99781800  0.74461200  0.51295900  1
  Be  Be17  1  0.99781800  0.74461200  0.74461200  1
  Be  Be18  1  0.50538800  0.50538800  0.73704100  1
  Be  Be19  1  0.25218200  0.73704100  0.50538800  1
  Be  Be20  1  0.50538800  0.50538800  0.25218200  1
  Be  Be21  1  0.73704100  0.25218200  0.50538800  1
  Be  Be22  1  0.99781800  0.51295900  0.74461200  1
  Be  Be23  1  0.74461200  0.74461200  0.51295900  1
  Be  Be24  1  0.51295900  0.99781800  0.74461200  1
  Be  Be25  1  0.74461200  0.74461200  0.99781800  1
  Be  Be26  1  0.00000000  0.00000000  0.00000000  1
  Be  Be27  1  0.25000000  0.25000000  0.25000000  1
  Be  Be28  1  0.24874700  0.24874700  0.85835500  1
  Be  Be29  1  0.24874700  0.24874700  0.64415000  1
  Be  Be30  1  0.85835500  0.64415000  0.24874700  1
  Be  Be31  1  0.85835500  0.24874700  0.24874700  1
  Be  Be32  1  0.00125300  0.00125300  0.60585000  1
  Be  Be33  1  0.00125300  0.00125300  0.39164500  1
  Be  Be34  1  0.64415000  0.85835500  0.24874700  1
  Be  Be35  1  0.64415000  0.24874700  0.24874700  1
  Be  Be36  1  0.24874700  0.85835500  0.64415000  1
  Be  Be37  1  0.39164500  0.60585000  0.00125300  1
  Be  Be38  1  0.24874700  0.64415000  0.85835500  1
  Be  Be39  1  0.60585000  0.39164500  0.00125300  1
  Be  Be40  1  0.24874700  0.85835500  0.24874700  1
  Be  Be41  1  0.39164500  0.00125300  0.60585000  1
  Be  Be42  1  0.39164500  0.00125300  0.00125300  1
  Be  Be43  1  0.64415000  0.24874700  0.85835500  1
  Be  Be44  1  0.00125300  0.39164500  0.00125300  1
  Be  Be45  1  0.00125300  0.39164500  0.60585000  1
  Be  Be46  1  0.85835500  0.24874700  0.64415000  1
  Be  Be47  1  0.00125300  0.60585000  0.00125300  1
  Be  Be48  1  0.00125300  0.60585000  0.39164500  1
  Be  Be49  1  0.24874700  0.64415000  0.24874700  1
  Be  Be50  1  0.60585000  0.00125300  0.39164500  1
  Be  Be51  1  0.60585000  0.00125300  0.00125300  1
  Re  Re52  1  0.12500000  0.12500000  0.12500000  1
  Re  Re53  1  0.12500000  0.12500000  0.62500000  1
  Re  Re54  1  0.12500000  0.62500000  0.12500000  1
  Re  Re55  1  0.62500000  0.12500000  0.12500000  1
