# generated using pymatgen
data_AlAsO6
_symmetry_space_group_name_H-M   'P 1'
_cell_length_a   8.89253400
_cell_length_b   10.01366200
_cell_length_c   10.05425900
_cell_angle_alpha   90.00000000
_cell_angle_beta   90.00000000
_cell_angle_gamma   90.00000000
_symmetry_Int_Tables_number   1
_chemical_formula_structural   AlAsO6
_chemical_formula_sum   'Al8 As8 O48'
_cell_volume   895.29988993
_cell_formula_units_Z   8
loop_
 _symmetry_equiv_pos_site_id
 _symmetry_equiv_pos_as_xyz
  1  'x, y, z'
loop_
 _atom_site_type_symbol
 _atom_site_label
 _atom_site_symmetry_multiplicity
 _atom_site_fract_x
 _atom_site_fract_y
 _atom_site_fract_z
 _atom_site_occupancy
  Al  Al0  1  0.35862700  0.18834600  0.12718600  1
  Al  Al1  1  0.64137300  0.81165400  0.87281400  1
  Al  Al2  1  0.14137300  0.81165400  0.62718600  1
  Al  Al3  1  0.64137300  0.68834600  0.37281400  1
  Al  Al4  1  0.85862700  0.18834600  0.37281400  1
  Al  Al5  1  0.35862700  0.31165400  0.62718600  1
  Al  Al6  1  0.85862700  0.31165400  0.87281400  1
  Al  Al7  1  0.14137300  0.68834600  0.12718600  1
  As  As8  1  0.04082700  0.36407700  0.16133500  1
  As  As9  1  0.95917300  0.63592300  0.83866500  1
  As  As10  1  0.45917300  0.63592300  0.66133500  1
  As  As11  1  0.95917300  0.86407700  0.33866500  1
  As  As12  1  0.54082700  0.36407700  0.33866500  1
  As  As13  1  0.04082700  0.13592300  0.66133500  1
  As  As14  1  0.54082700  0.13592300  0.83866500  1
  As  As15  1  0.45917300  0.86407700  0.16133500  1
  O  O16  1  0.47545500  0.03491700  0.16994800  1
  O  O17  1  0.52454500  0.96508300  0.83005200  1
  O  O18  1  0.02454500  0.96508300  0.66994800  1
  O  O19  1  0.52454500  0.53491700  0.33005200  1
  O  O20  1  0.97545500  0.03491700  0.33005200  1
  O  O21  1  0.47545500  0.46508300  0.66994800  1
  O  O22  1  0.97545500  0.46508300  0.83005200  1
  O  O23  1  0.02454500  0.53491700  0.16994800  1
  O  O24  1  0.21558800  0.32422200  0.10269300  1
  O  O25  1  0.78441200  0.67577800  0.89730700  1
  O  O26  1  0.28441200  0.67577800  0.60269300  1
  O  O27  1  0.78441200  0.82422200  0.39730700  1
  O  O28  1  0.71558800  0.32422200  0.39730700  1
  O  O29  1  0.21558800  0.17577800  0.60269300  1
  O  O30  1  0.71558800  0.17577800  0.89730700  1
  O  O31  1  0.28441200  0.82422200  0.10269300  1
  O  O32  1  0.40279700  0.30590300  0.44627500  1
  O  O33  1  0.59720300  0.69409700  0.55372500  1
  O  O34  1  0.09720300  0.69409700  0.94627500  1
  O  O35  1  0.59720300  0.80590300  0.05372500  1
  O  O36  1  0.90279700  0.30590300  0.05372500  1
  O  O37  1  0.40279700  0.19409700  0.94627500  1
  O  O38  1  0.90279700  0.19409700  0.55372500  1
  O  O39  1  0.09720300  0.80590300  0.44627500  1
  O  O40  1  0.20021700  0.07710700  0.05169100  1
  O  O41  1  0.79978300  0.92289300  0.94830900  1
  O  O42  1  0.29978300  0.92289300  0.55169100  1
  O  O43  1  0.79978300  0.57710700  0.44830900  1
  O  O44  1  0.70021700  0.07710700  0.44830900  1
  O  O45  1  0.20021700  0.42289300  0.55169100  1
  O  O46  1  0.70021700  0.42289300  0.94830900  1
  O  O47  1  0.29978300  0.57710700  0.05169100  1
  O  O48  1  0.28057400  0.12912000  0.29474300  1
  O  O49  1  0.71942600  0.87088000  0.70525700  1
  O  O50  1  0.21942600  0.87088000  0.79474300  1
  O  O51  1  0.71942600  0.62912000  0.20525700  1
  O  O52  1  0.78057400  0.12912000  0.20525700  1
  O  O53  1  0.28057400  0.37088000  0.79474300  1
  O  O54  1  0.78057400  0.37088000  0.70525700  1
  O  O55  1  0.21942600  0.62912000  0.29474300  1
  O  O56  1  0.00868400  0.29696800  0.31307500  1
  O  O57  1  0.99131600  0.70303200  0.68692500  1
  O  O58  1  0.49131600  0.70303200  0.81307500  1
  O  O59  1  0.99131600  0.79696800  0.18692500  1
  O  O60  1  0.50868400  0.29696800  0.18692500  1
  O  O61  1  0.00868400  0.20303200  0.81307500  1
  O  O62  1  0.50868400  0.20303200  0.68692500  1
  O  O63  1  0.49131600  0.79696800  0.31307500  1
