# generated using pymatgen
data_AgH4C2S2N3
_symmetry_space_group_name_H-M   'P 1'
_cell_length_a   4.51496053
_cell_length_b   8.88639931
_cell_length_c   17.08685400
_cell_angle_alpha   90.00000000
_cell_angle_beta   90.00000000
_cell_angle_gamma   93.84427748
_symmetry_Int_Tables_number   1
_chemical_formula_structural   AgH4C2S2N3
_chemical_formula_sum   'Ag4 H16 C8 S8 N12'
_cell_volume   684.01182194
_cell_formula_units_Z   4
loop_
 _symmetry_equiv_pos_site_id
 _symmetry_equiv_pos_as_xyz
  1  'x, y, z'
loop_
 _atom_site_type_symbol
 _atom_site_label
 _atom_site_symmetry_multiplicity
 _atom_site_fract_x
 _atom_site_fract_y
 _atom_site_fract_z
 _atom_site_occupancy
  Ag  Ag0  1  0.16693900  0.96928400  0.57695500  1
  Ag  Ag1  1  0.83306100  0.03071600  0.42304500  1
  Ag  Ag2  1  0.33306100  0.53071600  0.07695500  1
  Ag  Ag3  1  0.66693900  0.46928400  0.92304500  1
  H  H4  1  0.72856400  0.95746600  0.22452900  1
  H  H5  1  0.27143600  0.04253400  0.77547100  1
  H  H6  1  0.77143600  0.54253400  0.72452900  1
  H  H7  1  0.22856400  0.45746600  0.27547100  1
  H  H8  1  0.90505000  0.72482400  0.75353300  1
  H  H9  1  0.09495000  0.27517600  0.24646800  1
  H  H10  1  0.59495000  0.77517600  0.25353200  1
  H  H11  1  0.40505000  0.22482400  0.74646700  1
  H  H12  1  0.20713200  0.83776100  0.07857200  1
  H  H13  1  0.79286800  0.16223900  0.92142800  1
  H  H14  1  0.29286800  0.66223900  0.57857200  1
  H  H15  1  0.70713200  0.33776100  0.42142800  1
  H  H16  1  0.08003000  0.99341500  0.13008300  1
  H  H17  1  0.91997000  0.00658500  0.86991700  1
  H  H18  1  0.41997000  0.50658500  0.63008300  1
  H  H19  1  0.58003000  0.49341500  0.36991700  1
  C  C20  1  0.90185200  0.78579600  0.16426100  1
  C  C21  1  0.09814800  0.21420400  0.83573900  1
  C  C22  1  0.59814800  0.71420400  0.66426100  1
  C  C23  1  0.40185200  0.28579600  0.33573900  1
  C  C24  1  0.15726600  0.71546900  0.39394700  1
  C  C25  1  0.84273400  0.28453100  0.60605300  1
  C  C26  1  0.34273400  0.78453100  0.89394700  1
  C  C27  1  0.65726600  0.21546900  0.10605300  1
  S  S28  1  0.94487300  0.76170100  0.46750800  1
  S  S29  1  0.05512700  0.23829900  0.53249200  1
  S  S30  1  0.55512700  0.73829900  0.96750800  1
  S  S31  1  0.44487300  0.26170100  0.03249200  1
  S  S32  1  0.87733000  0.59262400  0.14847900  1
  S  S33  1  0.12267000  0.40737600  0.85152100  1
  S  S34  1  0.62267000  0.90737600  0.64847900  1
  S  S35  1  0.37733000  0.09262400  0.35152100  1
  N  N36  1  0.30390400  0.67749500  0.34084600  1
  N  N37  1  0.69609600  0.32250500  0.65915400  1
  N  N38  1  0.19609600  0.82250500  0.84084600  1
  N  N39  1  0.80390400  0.17749500  0.15915400  1
  N  N40  1  0.08604700  0.87929500  0.12296800  1
  N  N41  1  0.91395300  0.12070500  0.87703200  1
  N  N42  1  0.41395300  0.62070500  0.62296800  1
  N  N43  1  0.58604700  0.37929500  0.37703200  1
  N  N44  1  0.76817700  0.65689000  0.71888700  1
  N  N45  1  0.23182300  0.34311000  0.28111300  1
  N  N46  1  0.73182300  0.84311000  0.21888700  1
  N  N47  1  0.26817700  0.15689000  0.78111300  1
