# generated using pymatgen
data_CoPdN5Cl5O
_symmetry_space_group_name_H-M   'P 1'
_cell_length_a   10.82224100
_cell_length_b   7.77399700
_cell_length_c   16.10668752
_cell_angle_alpha   81.54869363
_cell_angle_beta   90.00000000
_cell_angle_gamma   90.00000000
_symmetry_Int_Tables_number   1
_chemical_formula_structural   CoPdN5Cl5O
_chemical_formula_sum   'Co4 Pd4 N20 Cl20 O4'
_cell_volume   1340.37420425
_cell_formula_units_Z   4
loop_
 _symmetry_equiv_pos_site_id
 _symmetry_equiv_pos_as_xyz
  1  'x, y, z'
loop_
 _atom_site_type_symbol
 _atom_site_label
 _atom_site_symmetry_multiplicity
 _atom_site_fract_x
 _atom_site_fract_y
 _atom_site_fract_z
 _atom_site_occupancy
  Co  Co0  1  0.20202000  0.42109200  0.32193100  1
  Co  Co1  1  0.79798000  0.57890800  0.67806900  1
  Co  Co2  1  0.70202000  0.57890800  0.17806900  1
  Co  Co3  1  0.29798000  0.42109200  0.82193100  1
  Pd  Pd4  1  0.00000000  0.00000000  0.50000000  1
  Pd  Pd5  1  0.50000000  0.00000000  0.00000000  1
  Pd  Pd6  1  0.00000000  0.00000000  0.00000000  1
  Pd  Pd7  1  0.50000000  0.00000000  0.50000000  1
  N  N8  1  0.23137800  0.62105500  0.26509200  1
  N  N9  1  0.76862200  0.37894500  0.73490800  1
  N  N10  1  0.73137800  0.37894500  0.23490800  1
  N  N11  1  0.26862200  0.62105500  0.76509200  1
  N  N12  1  0.30875200  0.37510500  0.42386500  1
  N  N13  1  0.69124800  0.62489500  0.57613500  1
  N  N14  1  0.80875200  0.62489500  0.07613500  1
  N  N15  1  0.19124800  0.37510500  0.92386500  1
  N  N16  1  0.06829700  0.31338600  0.35043800  1
  N  N17  1  0.93170300  0.68661400  0.64956200  1
  N  N18  1  0.56829700  0.68661400  0.14956200  1
  N  N19  1  0.43170300  0.31338600  0.85043800  1
  N  N20  1  0.29035400  0.27277900  0.24287200  1
  N  N21  1  0.70964600  0.72722100  0.75712800  1
  N  N22  1  0.79035400  0.72722100  0.25712800  1
  N  N23  1  0.20964600  0.27277900  0.74287200  1
  N  N24  1  0.31811000  0.19886900  0.19152200  1
  N  N25  1  0.68189000  0.80113100  0.80847800  1
  N  N26  1  0.81811000  0.80113100  0.30847800  1
  N  N27  1  0.18189000  0.19886900  0.69152200  1
  Cl  Cl28  1  0.02167600  0.07282300  0.13313400  1
  Cl  Cl29  1  0.97832400  0.92717700  0.86686600  1
  Cl  Cl30  1  0.52167600  0.92717700  0.36686600  1
  Cl  Cl31  1  0.47832400  0.07282300  0.63313400  1
  Cl  Cl32  1  0.56698700  0.26074100  0.03909700  1
  Cl  Cl33  1  0.43301300  0.73925900  0.96090300  1
  Cl  Cl34  1  0.06698700  0.73925900  0.46090300  1
  Cl  Cl35  1  0.93301300  0.26074100  0.53909700  1
  Cl  Cl36  1  0.45473600  0.44036300  0.39570200  1
  Cl  Cl37  1  0.54526400  0.55963700  0.60429800  1
  Cl  Cl38  1  0.95473600  0.55963700  0.10429800  1
  Cl  Cl39  1  0.04526400  0.44036300  0.89570200  1
  Cl  Cl40  1  0.30876000  0.13017600  0.46092300  1
  Cl  Cl41  1  0.69124000  0.86982400  0.53907700  1
  Cl  Cl42  1  0.80876000  0.86982400  0.03907700  1
  Cl  Cl43  1  0.19124000  0.13017600  0.96092300  1
  Cl  Cl44  1  0.52110400  0.88658400  0.14105500  1
  Cl  Cl45  1  0.47889600  0.11341600  0.85894500  1
  Cl  Cl46  1  0.02110400  0.11341600  0.35894500  1
  Cl  Cl47  1  0.97889600  0.88658400  0.64105500  1
  O  O48  1  0.21073200  0.74258500  0.21531400  1
  O  O49  1  0.78926800  0.25741500  0.78468600  1
  O  O50  1  0.71073200  0.25741500  0.28468600  1
  O  O51  1  0.28926800  0.74258500  0.71531400  1
