# generated using pymatgen
data_Ba2NaTi2MnRe2Si8HO26F
_symmetry_space_group_name_H-M   'P 1'
_cell_length_a   7.28867737
_cell_length_b   7.28867737
_cell_length_c   21.34398400
_cell_angle_alpha   90.00000000
_cell_angle_beta   90.00000000
_cell_angle_gamma   95.22598318
_symmetry_Int_Tables_number   1
_chemical_formula_structural   Ba2NaTi2MnRe2Si8HO26F
_chemical_formula_sum   'Ba4 Na2 Ti4 Mn2 Re4 Si16 H2 O52 F2'
_cell_volume   1129.18188111
_cell_formula_units_Z   2
loop_
 _symmetry_equiv_pos_site_id
 _symmetry_equiv_pos_as_xyz
  1  'x, y, z'
loop_
 _atom_site_type_symbol
 _atom_site_label
 _atom_site_symmetry_multiplicity
 _atom_site_fract_x
 _atom_site_fract_y
 _atom_site_fract_z
 _atom_site_occupancy
  Ba  Ba0  1  0.38447600  0.56027200  0.25000000  1
  Ba  Ba1  1  0.56027200  0.38447600  0.75000000  1
  Ba  Ba2  1  0.91632500  0.98317700  0.25000000  1
  Ba  Ba3  1  0.98317700  0.91632500  0.75000000  1
  Na  Na4  1  0.95386600  0.95386600  0.00000000  1
  Na  Na5  1  0.95386600  0.95386600  0.50000000  1
  Ti  Ti6  1  0.87680100  0.49949400  0.18581100  1
  Ti  Ti7  1  0.49949400  0.87680100  0.81418900  1
  Ti  Ti8  1  0.49949400  0.87680100  0.68581100  1
  Ti  Ti9  1  0.87680100  0.49949400  0.31418900  1
  Mn  Mn10  1  0.32176500  0.32176500  0.00000000  1
  Mn  Mn11  1  0.32176500  0.32176500  0.50000000  1
  Re  Re12  1  0.92059500  0.46033000  0.02386900  1
  Re  Re13  1  0.46033000  0.92059500  0.97613100  1
  Re  Re14  1  0.46033000  0.92059500  0.52386900  1
  Re  Re15  1  0.92059500  0.46033000  0.47613100  1
  Si  Si16  1  0.16410000  0.20869800  0.12858100  1
  Si  Si17  1  0.20869800  0.16410000  0.87141900  1
  Si  Si18  1  0.20869800  0.16410000  0.62858100  1
  Si  Si19  1  0.16410000  0.20869800  0.37141900  1
  Si  Si20  1  0.19871800  0.79067300  0.09807900  1
  Si  Si21  1  0.79067300  0.19871800  0.90192100  1
  Si  Si22  1  0.79067300  0.19871800  0.59807900  1
  Si  Si23  1  0.19871800  0.79067300  0.40192100  1
  Si  Si24  1  0.20962600  0.57513700  0.60446400  1
  Si  Si25  1  0.57513700  0.20962600  0.39553600  1
  Si  Si26  1  0.57513700  0.20962600  0.10446400  1
  Si  Si27  1  0.20962600  0.57513700  0.89553600  1
  Si  Si28  1  0.60590000  0.81817700  0.11822600  1
  Si  Si29  1  0.81817700  0.60590000  0.88177400  1
  Si  Si30  1  0.81817700  0.60590000  0.61822600  1
  Si  Si31  1  0.60590000  0.81817700  0.38177400  1
  H  H32  1  0.30543900  0.91814500  0.25000000  1
  H  H33  1  0.91814500  0.30543900  0.75000000  1
  O  O34  1  0.13267400  0.49351400  0.53717800  1
  O  O35  1  0.49351400  0.13267400  0.46282200  1
  O  O36  1  0.49351400  0.13267400  0.03717800  1
  O  O37  1  0.13267400  0.49351400  0.96282200  1
  O  O38  1  0.03023700  0.62665100  0.10001000  1
  O  O39  1  0.62665100  0.03023700  0.89999000  1
  O  O40  1  0.62665100  0.03023700  0.60001000  1
  O  O41  1  0.03023700  0.62665100  0.39999000  1
  O  O42  1  0.08944200  0.26909600  0.06020500  1
  O  O43  1  0.26909600  0.08944200  0.93979500  1
  O  O44  1  0.26909600  0.08944200  0.56020500  1
  O  O45  1  0.08944200  0.26909600  0.43979500  1
  O  O46  1  0.74151400  0.37592300  0.09954600  1
  O  O47  1  0.37592300  0.74151400  0.90045400  1
  O  O48  1  0.37592300  0.74151400  0.59954600  1
  O  O49  1  0.74151400  0.37592300  0.40045400  1
  O  O50  1  0.64544100  0.03565600  0.14463000  1
  O  O51  1  0.03565600  0.64544100  0.85537000  1
  O  O52  1  0.03565600  0.64544100  0.64463000  1
  O  O53  1  0.64544100  0.03565600  0.35537000  1
  O  O54  1  0.38760900  0.73833100  0.13319100  1
  O  O55  1  0.73833100  0.38760900  0.86680900  1
  O  O56  1  0.73833100  0.38760900  0.63319100  1
  O  O57  1  0.38760900  0.73833100  0.36680900  1
  O  O58  1  0.97993300  0.12616900  0.62965200  1
  O  O59  1  0.12616900  0.97993300  0.37034800  1
  O  O60  1  0.12616900  0.97993300  0.12965200  1
  O  O61  1  0.97993300  0.12616900  0.87034800  1
  O  O62  1  0.01884700  0.63110000  0.25000000  1
  O  O63  1  0.63110000  0.01884700  0.75000000  1
  O  O64  1  0.72226400  0.38526600  0.25000000  1
  O  O65  1  0.38526600  0.72226400  0.75000000  1
  O  O66  1  0.64295300  0.82994500  0.04272300  1
  O  O67  1  0.82994500  0.64295300  0.95727700  1
  O  O68  1  0.82994500  0.64295300  0.54272300  1
  O  O69  1  0.64295300  0.82994500  0.45727700  1
  O  O70  1  0.27976300  0.38662800  0.63838300  1
  O  O71  1  0.38662800  0.27976300  0.36161700  1
  O  O72  1  0.38662800  0.27976300  0.13838300  1
  O  O73  1  0.27976300  0.38662800  0.86161700  1
  O  O74  1  0.24297900  0.82757400  0.02466900  1
  O  O75  1  0.82757400  0.24297900  0.97533100  1
  O  O76  1  0.82757400  0.24297900  0.52466900  1
  O  O77  1  0.24297900  0.82757400  0.47533100  1
  O  O78  1  0.04852600  0.29981000  0.18291900  1
  O  O79  1  0.29981000  0.04852600  0.81708100  1
  O  O80  1  0.29981000  0.04852600  0.68291900  1
  O  O81  1  0.04852600  0.29981000  0.31708100  1
  O  O82  1  0.72170500  0.70418000  0.16805100  1
  O  O83  1  0.70418000  0.72170500  0.83194900  1
  O  O84  1  0.70418000  0.72170500  0.66805100  1
  O  O85  1  0.72170500  0.70418000  0.33194900  1
  F  F86  1  0.51491000  0.51491000  0.00000000  1
  F  F87  1  0.51491000  0.51491000  0.50000000  1
