# generated using pymatgen
data_Cd5H18C8N20(Cl2O)2
_symmetry_space_group_name_H-M   'P 1'
_cell_length_a   10.42048400
_cell_length_b   9.27819000
_cell_length_c   14.36165728
_cell_angle_alpha   85.32071011
_cell_angle_beta   90.00000000
_cell_angle_gamma   90.00000000
_symmetry_Int_Tables_number   1
_chemical_formula_structural   Cd5H18C8N20(Cl2O)2
_chemical_formula_sum   'Cd10 H36 C16 N40 Cl8 O4'
_cell_volume   1383.90336041
_cell_formula_units_Z   2
loop_
 _symmetry_equiv_pos_site_id
 _symmetry_equiv_pos_as_xyz
  1  'x, y, z'
loop_
 _atom_site_type_symbol
 _atom_site_label
 _atom_site_symmetry_multiplicity
 _atom_site_fract_x
 _atom_site_fract_y
 _atom_site_fract_z
 _atom_site_occupancy
  Cd  Cd0  1  0.54288500  0.97333200  0.12018300  1
  Cd  Cd1  1  0.45711500  0.02666800  0.87981700  1
  Cd  Cd2  1  0.04288500  0.02666800  0.37981700  1
  Cd  Cd3  1  0.95711500  0.97333200  0.62018300  1
  Cd  Cd4  1  0.00000000  0.50000000  0.00000000  1
  Cd  Cd5  1  0.50000000  0.50000000  0.50000000  1
  Cd  Cd6  1  0.67642900  0.31257500  0.01375100  1
  Cd  Cd7  1  0.32357100  0.68742500  0.98624900  1
  Cd  Cd8  1  0.17642900  0.68742500  0.48624900  1
  Cd  Cd9  1  0.82357100  0.31257500  0.51375100  1
  H  H10  1  0.29699900  0.96972200  0.04059500  1
  H  H11  1  0.70300100  0.03027800  0.95940500  1
  H  H12  1  0.79699900  0.03027800  0.45940500  1
  H  H13  1  0.20300100  0.96972200  0.54059500  1
  H  H14  1  0.45034300  0.65893100  0.16739200  1
  H  H15  1  0.54965700  0.34106900  0.83260800  1
  H  H16  1  0.95034300  0.34106900  0.33260800  1
  H  H17  1  0.04965700  0.65893100  0.66739200  1
  H  H18  1  0.25533800  0.99302700  0.20832100  1
  H  H19  1  0.74466200  0.00697300  0.79167900  1
  H  H20  1  0.75533800  0.00697300  0.29167900  1
  H  H21  1  0.24466200  0.99302700  0.70832100  1
  H  H22  1  0.16437300  0.85061900  0.24411500  1
  H  H23  1  0.83562700  0.14938100  0.75588500  1
  H  H24  1  0.66437300  0.14938100  0.25588500  1
  H  H25  1  0.33562700  0.85061900  0.74411500  1
  H  H26  1  0.86182200  0.95013500  0.09219600  1
  H  H27  1  0.13817800  0.04986500  0.90780400  1
  H  H28  1  0.36182200  0.04986500  0.40780400  1
  H  H29  1  0.63817800  0.95013500  0.59219600  1
  H  H30  1  0.70397800  0.77614600  0.26402300  1
  H  H31  1  0.29602200  0.22385400  0.73597700  1
  H  H32  1  0.20397800  0.22385400  0.23597700  1
  H  H33  1  0.79602200  0.77614600  0.76402300  1
  H  H34  1  0.96972200  0.50387300  0.37330600  1
  H  H35  1  0.03027800  0.49612700  0.62669400  1
  H  H36  1  0.46972200  0.49612700  0.12669400  1
  H  H37  1  0.53027800  0.50387300  0.87330600  1
  H  H38  1  0.70393100  0.69596900  0.37291000  1
  H  H39  1  0.29606900  0.30403100  0.62709000  1
  H  H40  1  0.20393100  0.30403100  0.12709000  1
  H  H41  1  0.79606900  0.69596900  0.87291000  1
  H  H42  1  0.96746300  0.83186900  0.04903000  1
  H  H43  1  0.03253700  0.16813100  0.95097000  1
  H  H44  1  0.46746300  0.16813100  0.45097000  1
  H  H45  1  0.53253700  0.83186900  0.54903000  1
  C  C46  1  0.61366200  0.63649400  0.09368800  1
  C  C47  1  0.38633800  0.36350600  0.90631200  1
  C  C48  1  0.11366200  0.36350600  0.40631200  1
  C  C49  1  0.88633800  0.63649400  0.59368800  1
  C  C50  1  0.34120800  0.84980900  0.30199300  1
  C  C51  1  0.65879200  0.15019100  0.69800700  1
  C  C52  1  0.84120800  0.15019100  0.19800700  1
  C  C53  1  0.15879200  0.84980900  0.80199300  1
  C  C54  1  0.78798500  0.75292500  0.06755600  1
  C  C55  1  0.21201500  0.24707500  0.93244400  1
  C  C56  1  0.28798500  0.24707500  0.43244400  1
  C  C57  1  0.71201500  0.75292500  0.56755600  1
  C  C58  1  0.53380400  0.78198700  0.33072500  1
  C  C59  1  0.46619600  0.21801300  0.66927500  1
  C  C60  1  0.03380400  0.21801300  0.16927500  1
  C  C61  1  0.96619600  0.78198700  0.83072500  1
  N  N62  1  0.87419500  0.86438400  0.05368200  1
  N  N63  1  0.12580500  0.13561600  0.94631800  1
  N  N64  1  0.37419500  0.13561600  0.44631800  1
  N  N65  1  0.62580500  0.86438400  0.55368200  1
  N  N66  1  0.96128800  0.28625900  0.10286100  1
  N  N67  1  0.03871200  0.71374100  0.89713900  1
  N  N68  1  0.46128800  0.71374100  0.39713900  1
  N  N69  1  0.53871200  0.28625900  0.60286100  1
  N  N70  1  0.66594200  0.77692400  0.32918500  1
  N  N71  1  0.33405800  0.22307600  0.67081500  1
  N  N72  1  0.16594200  0.22307600  0.17081500  1
  N  N73  1  0.83405800  0.77692400  0.82918500  1
  N  N74  1  0.23292300  0.92144600  0.26378400  1
  N  N75  1  0.76707700  0.07855400  0.73621600  1
  N  N76  1  0.73292300  0.07855400  0.23621600  1
  N  N77  1  0.26707700  0.92144600  0.76378400  1
  N  N78  1  0.48457700  0.60540500  0.11317700  1
  N  N79  1  0.51542300  0.39459500  0.88682300  1
  N  N80  1  0.98457700  0.39459500  0.38682300  1
  N  N81  1  0.01542300  0.60540500  0.61317700  1
  N  N82  1  0.69439100  0.54406700  0.06006700  1
  N  N83  1  0.30560900  0.45593300  0.93993300  1
  N  N84  1  0.19439100  0.45593300  0.43993300  1
  N  N85  1  0.80560900  0.54406700  0.56006700  1
  N  N86  1  0.83660100  0.23866000  0.12060300  1
  N  N87  1  0.16339900  0.76134000  0.87939700  1
  N  N88  1  0.33660100  0.76134000  0.37939700  1
  N  N89  1  0.66339900  0.23866000  0.62060300  1
  N  N90  1  0.46308500  0.86754900  0.26750800  1
  N  N91  1  0.53691500  0.13245100  0.73249200  1
  N  N92  1  0.96308500  0.13245100  0.23249200  1
  N  N93  1  0.03691500  0.86754900  0.76750800  1
  N  N94  1  0.80921000  0.61891700  0.04318000  1
  N  N95  1  0.19079000  0.38108300  0.95682000  1
  N  N96  1  0.30921000  0.38108300  0.45682000  1
  N  N97  1  0.69079000  0.61891700  0.54318000  1
  N  N98  1  0.66633900  0.76945700  0.10112200  1
  N  N99  1  0.33366100  0.23054300  0.89887800  1
  N  N100  1  0.16633900  0.23054300  0.39887800  1
  N  N101  1  0.83366100  0.76945700  0.60112200  1
  Cl  Cl102  1  0.65218700  0.36177900  0.37903100  1
  Cl  Cl103  1  0.34781300  0.63822100  0.62096900  1
  Cl  Cl104  1  0.15218700  0.63822100  0.12096900  1
  Cl  Cl105  1  0.84781300  0.36177900  0.87903100  1
  Cl  Cl106  1  0.97853400  0.75858700  0.36135500  1
  Cl  Cl107  1  0.02146600  0.24141300  0.63864500  1
  Cl  Cl108  1  0.47853400  0.24141300  0.13864500  1
  Cl  Cl109  1  0.52146600  0.75858700  0.86135500  1
  O  O110  1  0.37423000  0.91849700  0.02341000  1
  O  O111  1  0.62577000  0.08150300  0.97659000  1
  O  O112  1  0.87423000  0.08150300  0.47659000  1
  O  O113  1  0.12577000  0.91849700  0.52341000  1
