# generated using pymatgen
data_Al2Cu11B13
_symmetry_space_group_name_H-M   'P 1'
_cell_length_a   8.02396900
_cell_length_b   8.02396900
_cell_length_c   8.02396900
_cell_angle_alpha   90.00000000
_cell_angle_beta   90.00000000
_cell_angle_gamma   90.00000000
_symmetry_Int_Tables_number   1
_chemical_formula_structural   Al2Cu11B13
_chemical_formula_sum   'Al4 Cu22 B26'
_cell_volume   516.61585008
_cell_formula_units_Z   2
loop_
 _symmetry_equiv_pos_site_id
 _symmetry_equiv_pos_as_xyz
  1  'x, y, z'
loop_
 _atom_site_type_symbol
 _atom_site_label
 _atom_site_symmetry_multiplicity
 _atom_site_fract_x
 _atom_site_fract_y
 _atom_site_fract_z
 _atom_site_occupancy
  Al  Al0  1  0.61840300  0.61840300  0.61840300  1
  Al  Al1  1  0.38159700  0.38159700  0.61840300  1
  Al  Al2  1  0.38159700  0.61840300  0.38159700  1
  Al  Al3  1  0.61840300  0.38159700  0.38159700  1
  Cu  Cu4  1  0.14861300  0.14861300  0.53370700  1
  Cu  Cu5  1  0.85138700  0.85138700  0.53370700  1
  Cu  Cu6  1  0.85138700  0.14861300  0.46629300  1
  Cu  Cu7  1  0.53370700  0.14861300  0.14861300  1
  Cu  Cu8  1  0.14861300  0.85138700  0.46629300  1
  Cu  Cu9  1  0.53370700  0.85138700  0.85138700  1
  Cu  Cu10  1  0.46629300  0.85138700  0.14861300  1
  Cu  Cu11  1  0.46629300  0.14861300  0.85138700  1
  Cu  Cu12  1  0.14861300  0.53370700  0.14861300  1
  Cu  Cu13  1  0.14861300  0.46629300  0.85138700  1
  Cu  Cu14  1  0.85138700  0.46629300  0.14861300  1
  Cu  Cu15  1  0.85138700  0.53370700  0.85138700  1
  Cu  Cu16  1  0.29353300  0.29353300  0.29353300  1
  Cu  Cu17  1  0.70646700  0.70646700  0.29353300  1
  Cu  Cu18  1  0.70646700  0.29353300  0.70646700  1
  Cu  Cu19  1  0.29353300  0.70646700  0.70646700  1
  Cu  Cu20  1  0.14081200  0.50000000  0.50000000  1
  Cu  Cu21  1  0.85918800  0.50000000  0.50000000  1
  Cu  Cu22  1  0.50000000  0.14081200  0.50000000  1
  Cu  Cu23  1  0.50000000  0.85918800  0.50000000  1
  Cu  Cu24  1  0.50000000  0.50000000  0.14081200  1
  Cu  Cu25  1  0.50000000  0.50000000  0.85918800  1
  B  B26  1  0.77142900  0.77142900  0.77142900  1
  B  B27  1  0.22857100  0.22857100  0.77142900  1
  B  B28  1  0.22857100  0.77142900  0.22857100  1
  B  B29  1  0.77142900  0.22857100  0.22857100  1
  B  B30  1  0.27561400  0.00000000  0.00000000  1
  B  B31  1  0.72438600  0.00000000  0.00000000  1
  B  B32  1  0.00000000  0.27561400  0.00000000  1
  B  B33  1  0.00000000  0.72438600  0.00000000  1
  B  B34  1  0.00000000  0.00000000  0.27561400  1
  B  B35  1  0.00000000  0.00000000  0.72438600  1
  B  B36  1  0.13478900  0.13478900  0.13478900  1
  B  B37  1  0.86521100  0.86521100  0.13478900  1
  B  B38  1  0.86521100  0.13478900  0.86521100  1
  B  B39  1  0.13478900  0.86521100  0.86521100  1
  B  B40  1  0.24906100  0.24906100  0.99222500  1
  B  B41  1  0.75093900  0.75093900  0.99222500  1
  B  B42  1  0.75093900  0.24906100  0.00777500  1
  B  B43  1  0.99222500  0.24906100  0.24906100  1
  B  B44  1  0.24906100  0.75093900  0.00777500  1
  B  B45  1  0.99222500  0.75093900  0.75093900  1
  B  B46  1  0.00777500  0.75093900  0.24906100  1
  B  B47  1  0.00777500  0.24906100  0.75093900  1
  B  B48  1  0.24906100  0.99222500  0.24906100  1
  B  B49  1  0.24906100  0.00777500  0.75093900  1
  B  B50  1  0.75093900  0.00777500  0.24906100  1
  B  B51  1  0.75093900  0.99222500  0.75093900  1
