# generated using pymatgen
data_Ba2EuV3O11
_symmetry_space_group_name_H-M   'P 1'
_cell_length_a   7.82569600
_cell_length_b   12.51535276
_cell_length_c   11.45396532
_cell_angle_alpha   103.14795404
_cell_angle_beta   90.00000000
_cell_angle_gamma   90.00000000
_symmetry_Int_Tables_number   1
_chemical_formula_structural   Ba2EuV3O11
_chemical_formula_sum   'Ba8 Eu4 V12 O44'
_cell_volume   1092.40939601
_cell_formula_units_Z   4
loop_
 _symmetry_equiv_pos_site_id
 _symmetry_equiv_pos_as_xyz
  1  'x, y, z'
loop_
 _atom_site_type_symbol
 _atom_site_label
 _atom_site_symmetry_multiplicity
 _atom_site_fract_x
 _atom_site_fract_y
 _atom_site_fract_z
 _atom_site_occupancy
  Ba  Ba0  1  0.27353300  0.76599000  0.94149800  1
  Ba  Ba1  1  0.72646700  0.23401000  0.05850200  1
  Ba  Ba2  1  0.77353300  0.23401000  0.55850200  1
  Ba  Ba3  1  0.22646700  0.76599000  0.44149800  1
  Ba  Ba4  1  0.74737800  0.55431600  0.88932800  1
  Ba  Ba5  1  0.25262200  0.44568400  0.11067200  1
  Ba  Ba6  1  0.24737800  0.44568400  0.61067200  1
  Ba  Ba7  1  0.75262200  0.55431600  0.38932800  1
  Eu  Eu8  1  0.49890300  0.99768500  0.71843600  1
  Eu  Eu9  1  0.50109700  0.00231500  0.28156400  1
  Eu  Eu10  1  0.99890300  0.00231500  0.78156400  1
  Eu  Eu11  1  0.00109700  0.99768500  0.21843600  1
  V  V12  1  0.75378100  0.90399100  0.97530400  1
  V  V13  1  0.24621900  0.09600900  0.02469600  1
  V  V14  1  0.25378100  0.09600900  0.52469600  1
  V  V15  1  0.74621900  0.90399100  0.47530400  1
  V  V16  1  0.52000200  0.68310400  0.67332900  1
  V  V17  1  0.47999800  0.31689600  0.32667100  1
  V  V18  1  0.02000200  0.31689600  0.82667100  1
  V  V19  1  0.97999800  0.68310400  0.17332900  1
  V  V20  1  0.98058800  0.68650800  0.67038500  1
  V  V21  1  0.01941200  0.31349200  0.32961500  1
  V  V22  1  0.48058800  0.31349200  0.82961500  1
  V  V23  1  0.51941200  0.68650800  0.17038500  1
  O  O24  1  0.44242400  0.81536800  0.71944100  1
  O  O25  1  0.55757600  0.18463200  0.28055900  1
  O  O26  1  0.94242400  0.18463200  0.78055900  1
  O  O27  1  0.05757600  0.81536800  0.21944100  1
  O  O28  1  0.55234400  0.18010800  0.80956900  1
  O  O29  1  0.44765600  0.81989200  0.19043100  1
  O  O30  1  0.05234400  0.81989200  0.69043100  1
  O  O31  1  0.94765600  0.18010800  0.30956900  1
  O  O32  1  0.75034300  0.66751800  0.66760500  1
  O  O33  1  0.24965700  0.33248200  0.33239500  1
  O  O34  1  0.25034300  0.33248200  0.83239500  1
  O  O35  1  0.74965700  0.66751800  0.16760500  1
  O  O36  1  0.94490800  0.37565000  0.96592600  1
  O  O37  1  0.05509200  0.62435000  0.03407400  1
  O  O38  1  0.44490800  0.62435000  0.53407400  1
  O  O39  1  0.55509200  0.37565000  0.46592600  1
  O  O40  1  0.94167600  0.39306200  0.73219400  1
  O  O41  1  0.05832400  0.60693800  0.26780600  1
  O  O42  1  0.44167600  0.60693800  0.76780600  1
  O  O43  1  0.55832400  0.39306200  0.23219400  1
  O  O44  1  0.78355900  0.98645300  0.62089900  1
  O  O45  1  0.21644100  0.01354700  0.37910100  1
  O  O46  1  0.28355900  0.01354700  0.87910100  1
  O  O47  1  0.71644100  0.98645300  0.12089900  1
  O  O48  1  0.97034900  0.87907000  0.97234100  1
  O  O49  1  0.02965100  0.12093000  0.02765900  1
  O  O50  1  0.47034900  0.12093000  0.52765900  1
  O  O51  1  0.52965100  0.87907000  0.47234100  1
  O  O52  1  0.63771600  0.78571000  0.94641300  1
  O  O53  1  0.36228400  0.21429000  0.05358700  1
  O  O54  1  0.13771600  0.21429000  0.55358700  1
  O  O55  1  0.86228400  0.78571000  0.44641300  1
  O  O56  1  0.72090100  0.98297000  0.86592000  1
  O  O57  1  0.27909900  0.01703000  0.13408000  1
  O  O58  1  0.22090100  0.01703000  0.63408000  1
  O  O59  1  0.77909900  0.98297000  0.36592000  1
  O  O60  1  0.55890400  0.37055300  0.71938900  1
  O  O61  1  0.44109600  0.62944700  0.28061100  1
  O  O62  1  0.05890400  0.62944700  0.78061100  1
  O  O63  1  0.94109600  0.37055300  0.21938900  1
  O  O64  1  0.56266900  0.38826400  0.96139500  1
  O  O65  1  0.43733100  0.61173600  0.03860500  1
  O  O66  1  0.06266900  0.61173600  0.53860500  1
  O  O67  1  0.93733100  0.38826400  0.46139500  1
