# generated using pymatgen
data_Ba2C4O9
_symmetry_space_group_name_H-M   'P 1'
_cell_length_a   6.31389223
_cell_length_b   8.76757560
_cell_length_c   9.55218307
_cell_angle_alpha   64.41644267
_cell_angle_beta   84.63605123
_cell_angle_gamma   83.42531735
_symmetry_Int_Tables_number   1
_chemical_formula_structural   Ba2C4O9
_chemical_formula_sum   'Ba4 C8 O18'
_cell_volume   473.23204381
_cell_formula_units_Z   2
loop_
 _symmetry_equiv_pos_site_id
 _symmetry_equiv_pos_as_xyz
  1  'x, y, z'
loop_
 _atom_site_type_symbol
 _atom_site_label
 _atom_site_symmetry_multiplicity
 _atom_site_fract_x
 _atom_site_fract_y
 _atom_site_fract_z
 _atom_site_occupancy
  Ba  Ba0  1  0.20985900  0.14111400  0.57249700  1
  Ba  Ba1  1  0.79014100  0.85888600  0.42750300  1
  Ba  Ba2  1  0.71977900  0.46961200  0.19865900  1
  Ba  Ba3  1  0.28022100  0.53038800  0.80134100  1
  C  C4  1  0.38613200  0.20930800  0.19298200  1
  C  C5  1  0.61386800  0.79069200  0.80701800  1
  C  C6  1  0.32960600  0.68354100  0.37154000  1
  C  C7  1  0.67039400  0.31645900  0.62846000  1
  C  C8  1  0.18842600  0.58731500  0.31625100  1
  C  C9  1  0.81157400  0.41268500  0.68374900  1
  C  C10  1  0.13753500  0.22098400  0.18828200  1
  C  C11  1  0.86246500  0.77901600  0.81171800  1
  O  O12  1  0.48752500  0.29650600  0.06845200  1
  O  O13  1  0.51247500  0.70349400  0.93154800  1
  O  O14  1  0.28026900  0.46058700  0.29638700  1
  O  O15  1  0.71973100  0.53941300  0.70361300  1
  O  O16  1  0.23949600  0.74144200  0.46511600  1
  O  O17  1  0.76050400  0.25855800  0.53488400  1
  O  O18  1  0.00869100  0.36522500  0.69657100  1
  O  O19  1  0.99130900  0.63477500  0.30342900  1
  O  O20  1  0.47504400  0.30890500  0.67495700  1
  O  O21  1  0.52495600  0.69109500  0.32504300  1
  O  O22  1  0.03037100  0.14345400  0.31568600  1
  O  O23  1  0.96962900  0.85654600  0.68431400  1
  O  O24  1  0.46869500  0.12102000  0.32386200  1
  O  O25  1  0.53130500  0.87898000  0.67613800  1
  O  O26  1  0.05553800  0.31406600  0.06037600  1
  O  O27  1  0.94446200  0.68593400  0.93962400  1
  O  O28  1  0.91422500  0.01105500  0.03191300  1
  O  O29  1  0.08577500  0.98894500  0.96808700  1
