# generated using pymatgen
data_Be13Tc
_symmetry_space_group_name_H-M   'P 1'
_cell_length_a   9.56053199
_cell_length_b   9.56053199
_cell_length_c   9.56053199
_cell_angle_alpha   60.00000000
_cell_angle_beta   60.00000000
_cell_angle_gamma   60.00000000
_symmetry_Int_Tables_number   1
_chemical_formula_structural   Be13Tc
_chemical_formula_sum   'Be52 Tc4'
_cell_volume   617.91847291
_cell_formula_units_Z   4
loop_
 _symmetry_equiv_pos_site_id
 _symmetry_equiv_pos_as_xyz
  1  'x, y, z'
loop_
 _atom_site_type_symbol
 _atom_site_label
 _atom_site_symmetry_multiplicity
 _atom_site_fract_x
 _atom_site_fract_y
 _atom_site_fract_z
 _atom_site_occupancy
  Be  Be0  1  0.49632500  0.49632500  0.26390700  1
  Be  Be1  1  0.74344300  0.26390700  0.49632500  1
  Be  Be2  1  0.26390700  0.74344300  0.49632500  1
  Be  Be3  1  0.49632500  0.26390700  0.49632500  1
  Be  Be4  1  0.00655700  0.25367500  0.48609300  1
  Be  Be5  1  0.25367500  0.25367500  0.48609300  1
  Be  Be6  1  0.49632500  0.49632500  0.74344300  1
  Be  Be7  1  0.26390700  0.49632500  0.74344300  1
  Be  Be8  1  0.25367500  0.48609300  0.25367500  1
  Be  Be9  1  0.00655700  0.48609300  0.25367500  1
  Be  Be10  1  0.74344300  0.49632500  0.26390700  1
  Be  Be11  1  0.25367500  0.00655700  0.25367500  1
  Be  Be12  1  0.48609300  0.00655700  0.25367500  1
  Be  Be13  1  0.49632500  0.74344300  0.49632500  1
  Be  Be14  1  0.48609300  0.25367500  0.00655700  1
  Be  Be15  1  0.25367500  0.25367500  0.00655700  1
  Be  Be16  1  0.26390700  0.49632500  0.49632500  1
  Be  Be17  1  0.49632500  0.26390700  0.74344300  1
  Be  Be18  1  0.74344300  0.49632500  0.49632500  1
  Be  Be19  1  0.49632500  0.74344300  0.26390700  1
  Be  Be20  1  0.25367500  0.48609300  0.00655700  1
  Be  Be21  1  0.48609300  0.25367500  0.25367500  1
  Be  Be22  1  0.25367500  0.00655700  0.48609300  1
  Be  Be23  1  0.00655700  0.25367500  0.25367500  1
  Be  Be24  1  0.50000000  0.50000000  0.50000000  1
  Be  Be25  1  0.25000000  0.25000000  0.25000000  1
  Be  Be26  1  0.00000000  0.00000000  0.00000000  1
  Be  Be27  1  0.75000000  0.75000000  0.75000000  1
  Be  Be28  1  0.14225600  0.75184800  0.75184800  1
  Be  Be29  1  0.35404800  0.75184800  0.75184800  1
  Be  Be30  1  0.75184800  0.35404800  0.14225600  1
  Be  Be31  1  0.75184800  0.75184800  0.14225600  1
  Be  Be32  1  0.39595200  0.99815200  0.99815200  1
  Be  Be33  1  0.60774400  0.99815200  0.99815200  1
  Be  Be34  1  0.75184800  0.14225600  0.35404800  1
  Be  Be35  1  0.75184800  0.75184800  0.35404800  1
  Be  Be36  1  0.35404800  0.14225600  0.75184800  1
  Be  Be37  1  0.99815200  0.39595200  0.60774400  1
  Be  Be38  1  0.14225600  0.35404800  0.75184800  1
  Be  Be39  1  0.99815200  0.60774400  0.39595200  1
  Be  Be40  1  0.75184800  0.14225600  0.75184800  1
  Be  Be41  1  0.39595200  0.99815200  0.60774400  1
  Be  Be42  1  0.99815200  0.99815200  0.60774400  1
  Be  Be43  1  0.14225600  0.75184800  0.35404800  1
  Be  Be44  1  0.99815200  0.60774400  0.99815200  1
  Be  Be45  1  0.39595200  0.60774400  0.99815200  1
  Be  Be46  1  0.35404800  0.75184800  0.14225600  1
  Be  Be47  1  0.99815200  0.39595200  0.99815200  1
  Be  Be48  1  0.60774400  0.39595200  0.99815200  1
  Be  Be49  1  0.75184800  0.35404800  0.75184800  1
  Be  Be50  1  0.60774400  0.99815200  0.39595200  1
  Be  Be51  1  0.99815200  0.99815200  0.39595200  1
  Tc  Tc52  1  0.87500000  0.87500000  0.87500000  1
  Tc  Tc53  1  0.37500000  0.87500000  0.87500000  1
  Tc  Tc54  1  0.87500000  0.37500000  0.87500000  1
  Tc  Tc55  1  0.87500000  0.87500000  0.37500000  1
