# generated using pymatgen
data_CaAsH5(WO2)2
_symmetry_space_group_name_H-M   'P 1'
_cell_length_a   5.84859582
_cell_length_b   6.59331756
_cell_length_c   11.08486769
_cell_angle_alpha   100.29144152
_cell_angle_beta   97.46629650
_cell_angle_gamma   116.75147639
_symmetry_Int_Tables_number   1
_chemical_formula_structural   CaAsH5(WO2)2
_chemical_formula_sum   'Ca2 As2 H10 W4 O8'
_cell_volume   364.63548054
_cell_formula_units_Z   2
loop_
 _symmetry_equiv_pos_site_id
 _symmetry_equiv_pos_as_xyz
  1  'x, y, z'
loop_
 _atom_site_type_symbol
 _atom_site_label
 _atom_site_symmetry_multiplicity
 _atom_site_fract_x
 _atom_site_fract_y
 _atom_site_fract_z
 _atom_site_occupancy
  Ca  Ca0  1  0.25912900  0.59110500  0.60161300  1
  Ca  Ca1  1  0.15751600  0.98949200  0.39838700  1
  As  As2  1  0.76928500  0.08077200  0.61996700  1
  As  As3  1  0.64931800  0.46080500  0.38003300  1
  H  H4  1  0.54795200  0.75492500  0.34429500  1
  H  H5  1  0.70365700  0.41063000  0.65570500  1
  H  H6  1  0.92064700  0.07267900  0.22880300  1
  H  H7  1  0.19184400  0.84387600  0.77119700  1
  H  H8  1  0.74007900  0.55993900  0.08786800  1
  H  H9  1  0.15221100  0.47207100  0.91213200  1
  H  H10  1  0.51723700  0.28464800  0.83895200  1
  H  H11  1  0.17828400  0.44569600  0.16104800  1
  H  H12  1  0.28899600  0.97504500  0.01337000  1
  H  H13  1  0.77562600  0.96167500  0.98663000  1
  W  W14  1  0.50163900  0.01733300  0.88847900  1
  W  W15  1  0.11316100  0.12885500  0.11152100  1
  W  W16  1  0.50827200  0.55427800  0.93355300  1
  W  W17  1  0.07472000  0.62072600  0.06644700  1
  O  O18  1  0.68193500  0.71040900  0.32538800  1
  O  O19  1  0.85654700  0.38502100  0.67461200  1
  O  O20  1  0.05394200  0.12834900  0.57813300  1
  O  O21  1  0.97581000  0.55021600  0.42186700  1
  O  O22  1  0.48861500  0.92877000  0.49985800  1
  O  O23  1  0.48875700  0.42891100  0.50014200  1
  O  O24  1  0.68470900  0.93608400  0.73539500  1
  O  O25  1  0.44931300  0.20068900  0.26460500  1
