# generated using pymatgen
data_Ag3SI3
_symmetry_space_group_name_H-M   'P 1'
_cell_length_a   14.13663000
_cell_length_b   14.26748021
_cell_length_c   17.41211255
_cell_angle_alpha   91.37169779
_cell_angle_beta   90.15050098
_cell_angle_gamma   107.74039767
_symmetry_Int_Tables_number   1
_chemical_formula_structural   Ag3SI3
_chemical_formula_sum   'Ag3 S1 I3'
_cell_volume   3343.77736558
_cell_formula_units_Z   1
loop_
 _symmetry_equiv_pos_site_id
 _symmetry_equiv_pos_as_xyz
  1  'x, y, z'
loop_
 _atom_site_type_symbol
 _atom_site_label
 _atom_site_symmetry_multiplicity
 _atom_site_fract_x
 _atom_site_fract_y
 _atom_site_fract_z
 _atom_site_occupancy
  Ag  Ag0  1  0.88400600  0.61864600  0.90391300  1
  Ag  Ag1  1  0.61837500  0.90366200  0.88434900  1
  Ag  Ag2  1  0.89316700  0.87137100  0.62619100  1
  S  S3  1  0.99896100  0.99887300  0.99943200  1
  I  I4  1  0.00005400  0.00057900  0.53631500  1
  I  I5  1  0.98846800  0.54454800  0.98963400  1
  I  I6  1  0.54463800  0.98999200  0.98783600  1
