# generated using pymatgen
data_BaU2V2(HO3)4
_symmetry_space_group_name_H-M   'P 1'
_cell_length_a   8.54466700
_cell_length_b   10.62450000
_cell_length_c   15.72799400
_cell_angle_alpha   90.00000000
_cell_angle_beta   90.00000000
_cell_angle_gamma   90.00000000
_symmetry_Int_Tables_number   1
_chemical_formula_structural   BaU2V2(HO3)4
_chemical_formula_sum   'Ba4 U8 V8 H16 O48'
_cell_volume   1427.83156241
_cell_formula_units_Z   4
loop_
 _symmetry_equiv_pos_site_id
 _symmetry_equiv_pos_as_xyz
  1  'x, y, z'
loop_
 _atom_site_type_symbol
 _atom_site_label
 _atom_site_symmetry_multiplicity
 _atom_site_fract_x
 _atom_site_fract_y
 _atom_site_fract_z
 _atom_site_occupancy
  Ba  Ba0  1  0.00000000  0.83587200  0.25000000  1
  Ba  Ba1  1  0.00000000  0.16412800  0.75000000  1
  Ba  Ba2  1  0.50000000  0.66412800  0.75000000  1
  Ba  Ba3  1  0.50000000  0.33587200  0.25000000  1
  U  U4  1  0.02123200  0.31805600  0.49417400  1
  U  U5  1  0.97876800  0.68194400  0.50582600  1
  U  U6  1  0.47876800  0.18194400  0.99417400  1
  U  U7  1  0.97876800  0.31805600  0.00582600  1
  U  U8  1  0.52123200  0.81805600  0.00582600  1
  U  U9  1  0.02123200  0.68194400  0.99417400  1
  U  U10  1  0.52123200  0.18194400  0.50582600  1
  U  U11  1  0.47876800  0.81805600  0.49417400  1
  V  V12  1  0.15017600  0.03462400  0.04551300  1
  V  V13  1  0.84982400  0.96537600  0.95448700  1
  V  V14  1  0.34982400  0.46537600  0.54551300  1
  V  V15  1  0.84982400  0.03462400  0.45448700  1
  V  V16  1  0.65017600  0.53462400  0.45448700  1
  V  V17  1  0.15017600  0.96537600  0.54551300  1
  V  V18  1  0.65017600  0.46537600  0.95448700  1
  V  V19  1  0.34982400  0.53462400  0.04551300  1
  H  H20  1  0.19789200  0.24176500  0.19567200  1
  H  H21  1  0.80210800  0.75823500  0.80432800  1
  H  H22  1  0.30210800  0.25823500  0.69567200  1
  H  H23  1  0.80210800  0.24176500  0.30432800  1
  H  H24  1  0.69789200  0.74176500  0.30432800  1
  H  H25  1  0.19789200  0.75823500  0.69567200  1
  H  H26  1  0.69789200  0.25823500  0.80432800  1
  H  H27  1  0.30210800  0.74176500  0.19567200  1
  H  H28  1  0.20007500  0.03119100  0.32528700  1
  H  H29  1  0.79992500  0.96880900  0.67471300  1
  H  H30  1  0.29992500  0.46880900  0.82528700  1
  H  H31  1  0.79992500  0.03119100  0.17471300  1
  H  H32  1  0.70007500  0.53119100  0.17471300  1
  H  H33  1  0.20007500  0.96880900  0.82528700  1
  H  H34  1  0.70007500  0.46880900  0.67471300  1
  H  H35  1  0.29992500  0.53119100  0.32528700  1
  O  O36  1  0.20933900  0.19970300  0.02794700  1
  O  O37  1  0.79066100  0.80029700  0.97205300  1
  O  O38  1  0.29066100  0.30029700  0.52794700  1
  O  O39  1  0.79066100  0.19970300  0.47205300  1
  O  O40  1  0.70933900  0.69970300  0.47205300  1
  O  O41  1  0.20933900  0.80029700  0.52794700  1
  O  O42  1  0.70933900  0.30029700  0.97205300  1
  O  O43  1  0.29066100  0.69970300  0.02794700  1
  O  O44  1  0.13824800  0.00356800  0.14901800  1
  O  O45  1  0.86175200  0.99643200  0.85098200  1
  O  O46  1  0.36175200  0.49643200  0.64901800  1
  O  O47  1  0.86175200  0.00356800  0.35098200  1
  O  O48  1  0.63824800  0.50356800  0.35098200  1
  O  O49  1  0.13824800  0.99643200  0.64901800  1
  O  O50  1  0.63824800  0.49643200  0.85098200  1
  O  O51  1  0.36175200  0.50356800  0.14901800  1
  O  O52  1  0.15368500  0.48730600  0.01383200  1
  O  O53  1  0.84631500  0.51269400  0.98616800  1
  O  O54  1  0.34631500  0.01269400  0.51383200  1
  O  O55  1  0.84631500  0.48730600  0.48616800  1
  O  O56  1  0.65368500  0.98730600  0.48616800  1
  O  O57  1  0.15368500  0.51269400  0.51383200  1
  O  O58  1  0.65368500  0.01269400  0.98616800  1
  O  O59  1  0.34631500  0.98730600  0.01383200  1
  O  O60  1  0.51548300  0.19573800  0.11046000  1
  O  O61  1  0.48451700  0.80426200  0.88954000  1
  O  O62  1  0.98451700  0.30426200  0.61046000  1
  O  O63  1  0.48451700  0.19573800  0.38954000  1
  O  O64  1  0.01548300  0.69573800  0.38954000  1
  O  O65  1  0.51548300  0.80426200  0.61046000  1
  O  O66  1  0.01548300  0.30426200  0.88954000  1
  O  O67  1  0.98451700  0.69573800  0.11046000  1
  O  O68  1  0.05896400  0.10061200  0.48426700  1
  O  O69  1  0.94103600  0.89938800  0.51573300  1
  O  O70  1  0.44103600  0.39938800  0.98426700  1
  O  O71  1  0.94103600  0.10061200  0.01573300  1
  O  O72  1  0.55896400  0.60061200  0.01573300  1
  O  O73  1  0.05896400  0.89938800  0.98426700  1
  O  O74  1  0.55896400  0.39938800  0.51573300  1
  O  O75  1  0.44103600  0.60061200  0.48426700  1
  O  O76  1  0.05857300  0.32988900  0.38083900  1
  O  O77  1  0.94142700  0.67011100  0.61916100  1
  O  O78  1  0.44142700  0.17011100  0.88083900  1
  O  O79  1  0.94142700  0.32988900  0.11916100  1
  O  O80  1  0.55857300  0.82988900  0.11916100  1
  O  O81  1  0.05857300  0.67011100  0.88083900  1
  O  O82  1  0.55857300  0.17011100  0.61916100  1
  O  O83  1  0.44142700  0.82988900  0.38083900  1
