# generated using pymatgen
data_Cs2UH(OF2)2
_symmetry_space_group_name_H-M   'P 1'
_cell_length_a   8.05573122
_cell_length_b   9.39020164
_cell_length_c   12.35557900
_cell_angle_alpha   90.00000000
_cell_angle_beta   90.00000000
_cell_angle_gamma   107.99331513
_symmetry_Int_Tables_number   1
_chemical_formula_structural   Cs2UH(OF2)2
_chemical_formula_sum   'Cs8 U4 H4 O8 F16'
_cell_volume   888.92633735
_cell_formula_units_Z   4
loop_
 _symmetry_equiv_pos_site_id
 _symmetry_equiv_pos_as_xyz
  1  'x, y, z'
loop_
 _atom_site_type_symbol
 _atom_site_label
 _atom_site_symmetry_multiplicity
 _atom_site_fract_x
 _atom_site_fract_y
 _atom_site_fract_z
 _atom_site_occupancy
  Cs  Cs0  1  0.36974500  0.93449600  0.75393900  1
  Cs  Cs1  1  0.63025500  0.06550400  0.24606100  1
  Cs  Cs2  1  0.63025500  0.56550400  0.25393900  1
  Cs  Cs3  1  0.36974500  0.43449500  0.74606100  1
  Cs  Cs4  1  0.77129900  0.82310100  0.56803900  1
  Cs  Cs5  1  0.22870100  0.17689900  0.43196100  1
  Cs  Cs6  1  0.22870100  0.67689900  0.06803900  1
  Cs  Cs7  1  0.77129900  0.32310100  0.93196100  1
  U  U8  1  0.78012600  0.83845000  0.95038300  1
  U  U9  1  0.21987400  0.16155000  0.04961700  1
  U  U10  1  0.21987400  0.66155000  0.45038300  1
  U  U11  1  0.78012600  0.33845000  0.54961700  1
  H  H12  1  0.93070500  0.89226700  0.30892700  1
  H  H13  1  0.06929500  0.10773300  0.69107300  1
  H  H14  1  0.06929500  0.60773300  0.80892700  1
  H  H15  1  0.93070500  0.39226700  0.19107300  1
  O  O16  1  0.71847100  0.99475200  0.89127100  1
  O  O17  1  0.28152900  0.00524800  0.10872900  1
  O  O18  1  0.28152900  0.50524800  0.39127100  1
  O  O19  1  0.71847100  0.49475200  0.60872900  1
  O  O20  1  0.84420900  0.18187600  0.48946100  1
  O  O21  1  0.15579100  0.81812400  0.51053900  1
  O  O22  1  0.15579100  0.31812400  0.98946100  1
  O  O23  1  0.84420900  0.68187600  0.01053900  1
  F  F24  1  0.84645700  0.77314200  0.78982500  1
  F  F25  1  0.15354300  0.22685800  0.21017500  1
  F  F26  1  0.15354300  0.72685800  0.28982500  1
  F  F27  1  0.84645700  0.27314200  0.71017500  1
  F  F28  1  0.39529500  0.68837700  0.59731600  1
  F  F29  1  0.60470500  0.31162300  0.40268400  1
  F  F30  1  0.60470500  0.81162300  0.09731600  1
  F  F31  1  0.39529500  0.18837700  0.90268400  1
  F  F32  1  0.51647900  0.69529300  0.89081600  1
  F  F33  1  0.48352100  0.30470700  0.10918400  1
  F  F34  1  0.48352100  0.80470700  0.39081600  1
  F  F35  1  0.51647900  0.19529300  0.60918400  1
  F  F36  1  0.92006300  0.52725700  0.41780300  1
  F  F37  1  0.07993700  0.47274300  0.58219700  1
  F  F38  1  0.07993700  0.97274300  0.91780300  1
  F  F39  1  0.92006300  0.02725700  0.08219700  1
