# generated using pymatgen
data_Al(NO6)3
_symmetry_space_group_name_H-M   'P 1'
_cell_length_a   9.31057200
_cell_length_b   10.68979900
_cell_length_c   14.51599930
_cell_angle_alpha   83.96340268
_cell_angle_beta   90.00000000
_cell_angle_gamma   90.00000000
_symmetry_Int_Tables_number   1
_chemical_formula_structural   Al(NO6)3
_chemical_formula_sum   'Al4 N12 O72'
_cell_volume   1436.73920865
_cell_formula_units_Z   4
loop_
 _symmetry_equiv_pos_site_id
 _symmetry_equiv_pos_as_xyz
  1  'x, y, z'
loop_
 _atom_site_type_symbol
 _atom_site_label
 _atom_site_symmetry_multiplicity
 _atom_site_fract_x
 _atom_site_fract_y
 _atom_site_fract_z
 _atom_site_occupancy
  Al  Al0  1  0.00000000  0.50000000  0.50000000  1
  Al  Al1  1  0.50000000  0.00000000  0.50000000  1
  Al  Al2  1  0.00000000  0.00000000  0.00000000  1
  Al  Al3  1  0.50000000  0.50000000  0.00000000  1
  N  N4  1  0.81791700  0.79240600  0.30139400  1
  N  N5  1  0.18208300  0.20759400  0.69860600  1
  N  N6  1  0.31791700  0.70759400  0.69860600  1
  N  N7  1  0.68208300  0.29240600  0.30139400  1
  N  N8  1  0.20767200  0.71458200  0.22210600  1
  N  N9  1  0.79232800  0.28541800  0.77789400  1
  N  N10  1  0.70767200  0.78541800  0.77789400  1
  N  N11  1  0.29232800  0.21458200  0.22210600  1
  N  N12  1  0.51711000  0.88403100  0.18220200  1
  N  N13  1  0.48289000  0.11596900  0.81779800  1
  N  N14  1  0.01711000  0.61596900  0.81779800  1
  N  N15  1  0.98289000  0.38403100  0.18220200  1
  O  O16  1  0.49514400  0.99741400  0.19019700  1
  O  O17  1  0.50485600  0.00258600  0.80980300  1
  O  O18  1  0.99514400  0.50258600  0.80980300  1
  O  O19  1  0.00485600  0.49741400  0.19019700  1
  O  O20  1  0.84707500  0.65452900  0.03606600  1
  O  O21  1  0.15292500  0.34547100  0.96393400  1
  O  O22  1  0.34707500  0.84547100  0.96393400  1
  O  O23  1  0.65292500  0.15452900  0.03606600  1
  O  O24  1  0.80106900  0.78401900  0.38759200  1
  O  O25  1  0.19893100  0.21598100  0.61240800  1
  O  O26  1  0.30106900  0.71598100  0.61240800  1
  O  O27  1  0.69893100  0.28401900  0.38759200  1
  O  O28  1  0.83142300  0.69582000  0.26082200  1
  O  O29  1  0.16857700  0.30418000  0.73917800  1
  O  O30  1  0.33142300  0.80418000  0.73917800  1
  O  O31  1  0.66857700  0.19582000  0.26082200  1
  O  O32  1  0.47384100  0.50329400  0.41094300  1
  O  O33  1  0.52615900  0.49670600  0.58905700  1
  O  O34  1  0.97384100  0.99670600  0.58905700  1
  O  O35  1  0.02615900  0.00329400  0.41094300  1
  O  O36  1  0.63294700  0.59830200  0.06114700  1
  O  O37  1  0.36705300  0.40169800  0.93885300  1
  O  O38  1  0.13294700  0.90169800  0.93885300  1
  O  O39  1  0.86705300  0.09830200  0.06114700  1
  O  O40  1  0.75007700  0.87737100  0.72489000  1
  O  O41  1  0.24992300  0.12262900  0.27511000  1
  O  O42  1  0.25007700  0.62262900  0.27511000  1
  O  O43  1  0.74992300  0.37737100  0.72489000  1
  O  O44  1  0.55298800  0.85061300  0.10528900  1
  O  O45  1  0.44701200  0.14938700  0.89471100  1
  O  O46  1  0.05298800  0.64938700  0.89471100  1
  O  O47  1  0.94701200  0.35061300  0.10528900  1
  O  O48  1  0.64776300  0.69410700  0.74654400  1
  O  O49  1  0.35223700  0.30589300  0.25345600  1
  O  O50  1  0.14776300  0.80589300  0.25345600  1
  O  O51  1  0.85223700  0.19410700  0.74654400  1
  O  O52  1  0.56636100  0.84900300  0.55311200  1
  O  O53  1  0.43363900  0.15099700  0.44688800  1
  O  O54  1  0.06636100  0.65099700  0.44688800  1
  O  O55  1  0.93363900  0.34900300  0.55311200  1
  O  O56  1  0.91523100  0.84858300  0.05012500  1
  O  O57  1  0.08476900  0.15141700  0.94987500  1
  O  O58  1  0.41523100  0.65141700  0.94987500  1
  O  O59  1  0.58476900  0.34858300  0.05012500  1
  O  O60  1  0.59238200  0.57149700  0.53706400  1
  O  O61  1  0.40761800  0.42850300  0.46293600  1
  O  O62  1  0.09238200  0.92850300  0.46293600  1
  O  O63  1  0.90761800  0.07149700  0.53706400  1
  O  O64  1  0.22571800  0.71610900  0.13626100  1
  O  O65  1  0.77428200  0.28389100  0.86373900  1
  O  O66  1  0.72571800  0.78389100  0.86373900  1
  O  O67  1  0.27428200  0.21610900  0.13626100  1
  O  O68  1  0.83620200  0.51899800  0.42666900  1
  O  O69  1  0.16379800  0.48100200  0.57333100  1
  O  O70  1  0.33620200  0.98100200  0.57333100  1
  O  O71  1  0.66379800  0.01899800  0.42666900  1
  O  O72  1  0.86606900  0.58258800  0.56811800  1
  O  O73  1  0.13393100  0.41741200  0.43188200  1
  O  O74  1  0.36606900  0.91741200  0.43188200  1
  O  O75  1  0.63393100  0.08258800  0.56811800  1
  O  O76  1  0.50375000  0.80337400  0.25093900  1
  O  O77  1  0.49625000  0.19662600  0.74906100  1
  O  O78  1  0.00375000  0.69662600  0.74906100  1
  O  O79  1  0.99625000  0.30337400  0.25093900  1
  O  O80  1  0.82088400  0.89893300  0.25617500  1
  O  O81  1  0.17911600  0.10106700  0.74382500  1
  O  O82  1  0.32088400  0.60106700  0.74382500  1
  O  O83  1  0.67911600  0.39893300  0.25617500  1
  O  O84  1  0.33983200  0.48424000  0.07459700  1
  O  O85  1  0.66016800  0.51576000  0.92540300  1
  O  O86  1  0.83983200  0.01576000  0.92540300  1
  O  O87  1  0.16016800  0.98424000  0.07459700  1
