# generated using pymatgen
data_AlCu6SClO19
_symmetry_space_group_name_H-M   'P 1'
_cell_length_a   7.86872187
_cell_length_b   7.86872187
_cell_length_c   14.28969800
_cell_angle_alpha   90.00000000
_cell_angle_beta   90.00000000
_cell_angle_gamma   119.99999893
_symmetry_Int_Tables_number   1
_chemical_formula_structural   AlCu6SClO19
_chemical_formula_sum   'Al2 Cu12 S2 Cl2 O38'
_cell_volume   766.23516080
_cell_formula_units_Z   2
loop_
 _symmetry_equiv_pos_site_id
 _symmetry_equiv_pos_as_xyz
  1  'x, y, z'
loop_
 _atom_site_type_symbol
 _atom_site_label
 _atom_site_symmetry_multiplicity
 _atom_site_fract_x
 _atom_site_fract_y
 _atom_site_fract_z
 _atom_site_occupancy
  Al  Al0  1  0.66666700  0.33333300  0.38409900  1
  Al  Al1  1  0.33333300  0.66666700  0.88409900  1
  Cu  Cu2  1  0.75776500  0.80073000  0.88995100  1
  Cu  Cu3  1  0.04296500  0.24223500  0.88995100  1
  Cu  Cu4  1  0.95703500  0.19927000  0.38995100  1
  Cu  Cu5  1  0.19927000  0.95703500  0.88995100  1
  Cu  Cu6  1  0.80073000  0.75776500  0.38995100  1
  Cu  Cu7  1  0.24223500  0.04296500  0.38995100  1
  Cu  Cu8  1  0.62347300  0.09066800  0.87688200  1
  Cu  Cu9  1  0.46719400  0.37652700  0.87688200  1
  Cu  Cu10  1  0.53280600  0.90933200  0.37688200  1
  Cu  Cu11  1  0.90933200  0.53280600  0.87688200  1
  Cu  Cu12  1  0.09066800  0.62347300  0.37688200  1
  Cu  Cu13  1  0.37652700  0.46719400  0.37688200  1
  S  S14  1  0.00000000  0.00000000  0.60208100  1
  S  S15  1  0.00000000  0.00000000  0.10208100  1
  Cl  Cl16  1  0.66666700  0.33333300  0.74937600  1
  Cl  Cl17  1  0.33333300  0.66666700  0.24937600  1
  O  O18  1  0.84684100  0.29464900  0.93835700  1
  O  O19  1  0.44780700  0.15315900  0.93835700  1
  O  O20  1  0.55219300  0.70535100  0.43835700  1
  O  O21  1  0.70535100  0.55219300  0.93835700  1
  O  O22  1  0.29464900  0.84684100  0.43835700  1
  O  O23  1  0.15315900  0.44780700  0.43835700  1
  O  O24  1  0.82081400  0.03755000  0.82988900  1
  O  O25  1  0.21673600  0.17918600  0.82988900  1
  O  O26  1  0.78326400  0.96245000  0.32988900  1
  O  O27  1  0.96245000  0.78326400  0.82988900  1
  O  O28  1  0.03755000  0.82081400  0.32988900  1
  O  O29  1  0.17918600  0.21673600  0.32988900  1
  O  O30  1  0.84207400  0.03648900  0.63272300  1
  O  O31  1  0.19441500  0.15792600  0.63272300  1
  O  O32  1  0.80558500  0.96351100  0.13272300  1
  O  O33  1  0.96351100  0.80558500  0.63272300  1
  O  O34  1  0.03648900  0.84207400  0.13272300  1
  O  O35  1  0.15792600  0.19441500  0.13272300  1
  O  O36  1  0.42015800  0.63498300  0.62625600  1
  O  O37  1  0.21482500  0.57984200  0.62625600  1
  O  O38  1  0.78517500  0.36501700  0.12625600  1
  O  O39  1  0.36501700  0.78517500  0.62625600  1
  O  O40  1  0.63498300  0.42015800  0.12625600  1
  O  O41  1  0.57984200  0.21482500  0.12625600  1
  O  O42  1  0.49578700  0.59705400  0.81506800  1
  O  O43  1  0.10126700  0.50421300  0.81506800  1
  O  O44  1  0.89873300  0.40294600  0.31506800  1
  O  O45  1  0.40294600  0.89873300  0.81506800  1
  O  O46  1  0.59705400  0.49578700  0.31506800  1
  O  O47  1  0.50421300  0.10126700  0.31506800  1
  O  O48  1  0.00000000  0.00000000  0.99291800  1
  O  O49  1  0.00000000  0.00000000  0.49291800  1
  O  O50  1  0.56736900  0.83137200  0.95214900  1
  O  O51  1  0.26400300  0.43263100  0.95214900  1
  O  O52  1  0.73599700  0.16862800  0.45214900  1
  O  O53  1  0.16862800  0.73599700  0.95214900  1
  O  O54  1  0.83137200  0.56736900  0.45214900  1
  O  O55  1  0.43263100  0.26400300  0.45214900  1
