# generated using pymatgen
data_Ba2H2C4O9
_symmetry_space_group_name_H-M   'P 1'
_cell_length_a   6.47319600
_cell_length_b   8.69412351
_cell_length_c   9.76985822
_cell_angle_alpha   65.07721681
_cell_angle_beta   83.74496131
_cell_angle_gamma   82.03360026
_symmetry_Int_Tables_number   1
_chemical_formula_structural   Ba2H2C4O9
_chemical_formula_sum   'Ba4 H4 C8 O18'
_cell_volume   493.03804503
_cell_formula_units_Z   2
loop_
 _symmetry_equiv_pos_site_id
 _symmetry_equiv_pos_as_xyz
  1  'x, y, z'
loop_
 _atom_site_type_symbol
 _atom_site_label
 _atom_site_symmetry_multiplicity
 _atom_site_fract_x
 _atom_site_fract_y
 _atom_site_fract_z
 _atom_site_occupancy
  Ba  Ba0  1  0.75074100  0.49061200  0.20365300  1
  Ba  Ba1  1  0.24925900  0.50938800  0.79634700  1
  Ba  Ba2  1  0.19367000  0.13441500  0.57805500  1
  Ba  Ba3  1  0.80633000  0.86558500  0.42194500  1
  H  H4  1  0.14019800  0.04053700  0.96793300  1
  H  H5  1  0.85980200  0.95946300  0.03206700  1
  H  H6  1  0.71759700  0.10152800  0.07139100  1
  H  H7  1  0.28240300  0.89847200  0.92860900  1
  C  C8  1  0.39205100  0.18447800  0.18826500  1
  C  C9  1  0.60794900  0.81552200  0.81173500  1
  C  C10  1  0.23200500  0.58580000  0.31937900  1
  C  C11  1  0.76799500  0.41420000  0.68062100  1
  C  C12  1  0.34847800  0.67595200  0.39246200  1
  C  C13  1  0.65152200  0.32404800  0.60753800  1
  C  C14  1  0.14943000  0.22337900  0.19282800  1
  C  C15  1  0.85057000  0.77662100  0.80717200  1
  O  O16  1  0.06665200  0.32256200  0.07098700  1
  O  O17  1  0.93334800  0.67743800  0.92901300  1
  O  O18  1  0.47734300  0.11165400  0.31406500  1
  O  O19  1  0.52265700  0.88834600  0.68593500  1
  O  O20  1  0.83592800  0.00924100  0.10560600  1
  O  O21  1  0.16407200  0.99075900  0.89439400  1
  O  O22  1  0.96438800  0.37569500  0.69061300  1
  O  O23  1  0.03561200  0.62430500  0.30938700  1
  O  O24  1  0.45747600  0.31287600  0.64271400  1
  O  O25  1  0.54252400  0.68712400  0.35728600  1
  O  O26  1  0.48401100  0.23294600  0.05764700  1
  O  O27  1  0.51598900  0.76705400  0.94235300  1
  O  O28  1  0.04633100  0.15807900  0.31900900  1
  O  O29  1  0.95366900  0.84192100  0.68099100  1
  O  O30  1  0.24120600  0.72752200  0.48453100  1
  O  O31  1  0.75879400  0.27247800  0.51546900  1
  O  O32  1  0.33952400  0.47552100  0.28071500  1
  O  O33  1  0.66047600  0.52447900  0.71928500  1
