# generated using pymatgen
data_CaCr(WO2)2
_symmetry_space_group_name_H-M   'P 1'
_cell_length_a   6.43662900
_cell_length_b   9.75573800
_cell_length_c   17.39528100
_cell_angle_alpha   90.00000000
_cell_angle_beta   90.00000000
_cell_angle_gamma   90.00000000
_symmetry_Int_Tables_number   1
_chemical_formula_structural   CaCr(WO2)2
_chemical_formula_sum   'Ca8 Cr8 W16 O32'
_cell_volume   1092.32042542
_cell_formula_units_Z   8
loop_
 _symmetry_equiv_pos_site_id
 _symmetry_equiv_pos_as_xyz
  1  'x, y, z'
loop_
 _atom_site_type_symbol
 _atom_site_label
 _atom_site_symmetry_multiplicity
 _atom_site_fract_x
 _atom_site_fract_y
 _atom_site_fract_z
 _atom_site_occupancy
  Ca  Ca0  1  0.79555900  0.75000000  0.31648900  1
  Ca  Ca1  1  0.20444100  0.25000000  0.68351100  1
  Ca  Ca2  1  0.20444100  0.75000000  0.81648900  1
  Ca  Ca3  1  0.79555900  0.25000000  0.18351100  1
  Ca  Ca4  1  0.61057000  0.75000000  0.53867400  1
  Ca  Ca5  1  0.38943000  0.25000000  0.46132600  1
  Ca  Ca6  1  0.38943000  0.75000000  0.03867400  1
  Ca  Ca7  1  0.61057000  0.25000000  0.96132600  1
  Cr  Cr8  1  0.61176300  0.93132000  0.86312400  1
  Cr  Cr9  1  0.38823700  0.06868000  0.13687600  1
  Cr  Cr10  1  0.38823700  0.43132000  0.13687600  1
  Cr  Cr11  1  0.38823700  0.56868000  0.36312400  1
  Cr  Cr12  1  0.61176300  0.56868000  0.86312400  1
  Cr  Cr13  1  0.61176300  0.43132000  0.63687600  1
  Cr  Cr14  1  0.61176300  0.06868000  0.63687600  1
  Cr  Cr15  1  0.38823700  0.93132000  0.36312400  1
  W  W16  1  0.13946300  0.75000000  0.48800900  1
  W  W17  1  0.86053700  0.25000000  0.51199100  1
  W  W18  1  0.86053700  0.75000000  0.98800900  1
  W  W19  1  0.13946300  0.25000000  0.01199100  1
  W  W20  1  0.94613900  0.92236200  0.13929100  1
  W  W21  1  0.05386100  0.07763800  0.86070900  1
  W  W22  1  0.05386100  0.42236200  0.86070900  1
  W  W23  1  0.05386100  0.57763800  0.63929100  1
  W  W24  1  0.94613900  0.57763800  0.13929100  1
  W  W25  1  0.94613900  0.42236200  0.36070900  1
  W  W26  1  0.94613900  0.07763800  0.36070900  1
  W  W27  1  0.05386100  0.92236200  0.63929100  1
  W  W28  1  0.77861400  0.75000000  0.73633300  1
  W  W29  1  0.22138600  0.25000000  0.26366700  1
  W  W30  1  0.22138600  0.75000000  0.23633300  1
  W  W31  1  0.77861400  0.25000000  0.76366700  1
  O  O32  1  0.90138900  0.88817700  0.82414600  1
  O  O33  1  0.09861100  0.11182300  0.17585400  1
  O  O34  1  0.09861100  0.38817700  0.17585400  1
  O  O35  1  0.09861100  0.61182300  0.32414600  1
  O  O36  1  0.90138900  0.61182300  0.82414600  1
  O  O37  1  0.90138900  0.38817700  0.67585400  1
  O  O38  1  0.90138900  0.11182300  0.67585400  1
  O  O39  1  0.09861100  0.88817700  0.32414600  1
  O  O40  1  0.31227400  0.96057800  0.85926700  1
  O  O41  1  0.68772600  0.03942200  0.14073300  1
  O  O42  1  0.68772600  0.46057800  0.14073300  1
  O  O43  1  0.68772600  0.53942200  0.35926700  1
  O  O44  1  0.31227400  0.53942200  0.85926700  1
  O  O45  1  0.31227400  0.46057800  0.64073300  1
  O  O46  1  0.31227400  0.03942200  0.64073300  1
  O  O47  1  0.68772600  0.96057800  0.35926700  1
  O  O48  1  0.67808400  0.90562200  0.97405400  1
  O  O49  1  0.32191600  0.09437800  0.02594600  1
  O  O50  1  0.32191600  0.40562200  0.02594600  1
  O  O51  1  0.32191600  0.59437800  0.47405400  1
  O  O52  1  0.67808400  0.59437800  0.97405400  1
  O  O53  1  0.67808400  0.40562200  0.52594600  1
  O  O54  1  0.67808400  0.09437800  0.52594600  1
  O  O55  1  0.32191600  0.90562200  0.47405400  1
  O  O56  1  0.72462800  0.87898200  0.63778500  1
  O  O57  1  0.27537200  0.12101800  0.36221500  1
  O  O58  1  0.27537200  0.37898200  0.36221500  1
  O  O59  1  0.27537200  0.62101800  0.13778500  1
  O  O60  1  0.72462800  0.62101800  0.63778500  1
  O  O61  1  0.72462800  0.37898200  0.86221500  1
  O  O62  1  0.72462800  0.12101800  0.86221500  1
  O  O63  1  0.27537200  0.87898200  0.13778500  1
