# generated using pymatgen
data_AsO3
_symmetry_space_group_name_H-M   'P 1'
_cell_length_a   27.15764380
_cell_length_b   27.15764380
_cell_length_c   27.15764380
_cell_angle_alpha   60.00000000
_cell_angle_beta   60.00000000
_cell_angle_gamma   60.00000000
_symmetry_Int_Tables_number   1
_chemical_formula_structural   AsO3
_chemical_formula_sum   'As8 O24'
_cell_volume   14163.19600649
_cell_formula_units_Z   8
loop_
 _symmetry_equiv_pos_site_id
 _symmetry_equiv_pos_as_xyz
  1  'x, y, z'
loop_
 _atom_site_type_symbol
 _atom_site_label
 _atom_site_symmetry_multiplicity
 _atom_site_fract_x
 _atom_site_fract_y
 _atom_site_fract_z
 _atom_site_occupancy
  As  As0  1  0.77258906  0.77258906  0.77258906  1
  As  As1  1  0.68223281  0.77258906  0.77258906  1
  As  As2  1  0.77258906  0.68223281  0.77258906  1
  As  As3  1  0.06776719  0.97741094  0.97741094  1
  As  As4  1  0.97741094  0.97741094  0.97741094  1
  As  As5  1  0.77258906  0.77258906  0.68223281  1
  As  As6  1  0.97741094  0.06776719  0.97741094  1
  As  As7  1  0.97741094  0.97741094  0.06776719  1
  O  O8  1  0.70238414  0.70238414  0.04758589  1
  O  O9  1  0.54764582  0.04758589  0.70238414  1
  O  O10  1  0.04758589  0.54764582  0.70238414  1
  O  O11  1  0.70238414  0.04758589  0.70238414  1
  O  O12  1  0.20235418  0.04761586  0.70241411  1
  O  O13  1  0.04761586  0.04761586  0.70241411  1
  O  O14  1  0.70238414  0.70238414  0.54764582  1
  O  O15  1  0.04758589  0.70238414  0.54764582  1
  O  O16  1  0.04761586  0.70241411  0.04761586  1
  O  O17  1  0.20235418  0.70241411  0.04761586  1
  O  O18  1  0.54764582  0.70238414  0.04758589  1
  O  O19  1  0.04761586  0.20235418  0.04761586  1
  O  O20  1  0.70241411  0.20235418  0.04761586  1
  O  O21  1  0.70238414  0.54764582  0.70238414  1
  O  O22  1  0.70241411  0.04761586  0.20235418  1
  O  O23  1  0.04761586  0.04761586  0.20235418  1
  O  O24  1  0.04758589  0.70238414  0.70238414  1
  O  O25  1  0.70238414  0.04758589  0.54764582  1
  O  O26  1  0.54764582  0.70238414  0.70238414  1
  O  O27  1  0.70238414  0.54764582  0.04758589  1
  O  O28  1  0.04761586  0.70241411  0.20235418  1
  O  O29  1  0.70241411  0.04761586  0.04761586  1
  O  O30  1  0.04761586  0.20235418  0.70241411  1
  O  O31  1  0.20235418  0.04761586  0.04761586  1
