# generated using pymatgen
data_Ba3NaMn4Si6O23
_symmetry_space_group_name_H-M   'P 1'
_cell_length_a   7.11576556
_cell_length_b   12.69490080
_cell_length_c   23.19725043
_cell_angle_alpha   90.00000000
_cell_angle_beta   90.00000000
_cell_angle_gamma   90.00000000
_symmetry_Int_Tables_number   1
_chemical_formula_structural   Ba3NaMn4Si6O23
_chemical_formula_sum   'Ba12 Na4 Mn16 Si24 O92'
_cell_volume   2095.49897980
_cell_formula_units_Z   4
loop_
 _symmetry_equiv_pos_site_id
 _symmetry_equiv_pos_as_xyz
  1  'x, y, z'
loop_
 _atom_site_type_symbol
 _atom_site_label
 _atom_site_symmetry_multiplicity
 _atom_site_fract_x
 _atom_site_fract_y
 _atom_site_fract_z
 _atom_site_occupancy
  Ba  Ba0  1  0.98741295  0.48931366  0.79838472  1
  Ba  Ba1  1  0.01258705  0.51068634  0.20161528  1
  Ba  Ba2  1  0.48741295  0.51068634  0.70161528  1
  Ba  Ba3  1  0.01258705  0.98931366  0.20161528  1
  Ba  Ba4  1  0.51258705  0.48931366  0.29838472  1
  Ba  Ba5  1  0.98741295  0.01068634  0.79838472  1
  Ba  Ba6  1  0.51258705  0.01068634  0.29838472  1
  Ba  Ba7  1  0.48741295  0.98931366  0.70161528  1
  Ba  Ba8  1  0.97869113  0.75000000  0.50182725  1
  Ba  Ba9  1  0.02130887  0.25000000  0.49817275  1
  Ba  Ba10  1  0.47869113  0.25000000  0.99817275  1
  Ba  Ba11  1  0.52130887  0.75000000  0.00182725  1
  Na  Na12  1  0.10706735  0.75000000  0.90886939  1
  Na  Na13  1  0.89293265  0.25000000  0.09113061  1
  Na  Na14  1  0.60706735  0.25000000  0.59113061  1
  Na  Na15  1  0.39293265  0.75000000  0.40886939  1
  Mn  Mn16  1  0.99133392  0.88634741  0.65920719  1
  Mn  Mn17  1  0.00866608  0.11365259  0.34079281  1
  Mn  Mn18  1  0.49133392  0.11365259  0.84079281  1
  Mn  Mn19  1  0.00866608  0.38634741  0.34079281  1
  Mn  Mn20  1  0.50866608  0.88634741  0.15920719  1
  Mn  Mn21  1  0.99133392  0.61365259  0.65920719  1
  Mn  Mn22  1  0.50866608  0.61365259  0.15920719  1
  Mn  Mn23  1  0.49133392  0.38634741  0.84079281  1
  Mn  Mn24  1  0.50643552  0.87120611  0.84897904  1
  Mn  Mn25  1  0.49356448  0.12879389  0.15102096  1
  Mn  Mn26  1  0.00643552  0.12879389  0.65102096  1
  Mn  Mn27  1  0.49356448  0.37120611  0.15102096  1
  Mn  Mn28  1  0.99356448  0.87120611  0.34897904  1
  Mn  Mn29  1  0.50643552  0.62879389  0.84897904  1
  Mn  Mn30  1  0.99356448  0.62879389  0.34897904  1
  Mn  Mn31  1  0.00643552  0.37120611  0.65102096  1
  Si  Si32  1  0.77785443  0.75000000  0.76175256  1
  Si  Si33  1  0.22214557  0.25000000  0.23824744  1
  Si  Si34  1  0.27785443  0.25000000  0.73824744  1
  Si  Si35  1  0.72214557  0.75000000  0.26175256  1
  Si  Si36  1  0.80129061  0.47305900  0.93581350  1
  Si  Si37  1  0.19870939  0.52694100  0.06418650  1
  Si  Si38  1  0.30129061  0.52694100  0.56418650  1
  Si  Si39  1  0.19870939  0.97305900  0.06418650  1
  Si  Si40  1  0.69870939  0.47305900  0.43581350  1
  Si  Si41  1  0.80129061  0.02694100  0.93581350  1
  Si  Si42  1  0.69870939  0.02694100  0.43581350  1
  Si  Si43  1  0.30129061  0.97305900  0.56418650  1
  Si  Si44  1  0.74862018  0.99329443  0.56259996  1
  Si  Si45  1  0.25137982  0.00670557  0.43740004  1
  Si  Si46  1  0.24862018  0.00670557  0.93740004  1
  Si  Si47  1  0.25137982  0.49329443  0.43740004  1
  Si  Si48  1  0.75137982  0.99329443  0.06259996  1
  Si  Si49  1  0.74862018  0.50670557  0.56259996  1
  Si  Si50  1  0.75137982  0.50670557  0.06259996  1
  Si  Si51  1  0.24862018  0.49329443  0.93740004  1
  Si  Si52  1  0.17649601  0.75000000  0.76075145  1
  Si  Si53  1  0.82350399  0.25000000  0.23924855  1
  Si  Si54  1  0.67649601  0.25000000  0.73924855  1
  Si  Si55  1  0.32350399  0.75000000  0.26075145  1
  O  O56  1  0.66840546  0.85945548  0.77627567  1
  O  O57  1  0.33159454  0.14054452  0.22372433  1
  O  O58  1  0.16840546  0.14054452  0.72372433  1
  O  O59  1  0.33159454  0.35945548  0.22372433  1
  O  O60  1  0.83159454  0.85945548  0.27627567  1
  O  O61  1  0.66840546  0.64054452  0.77627567  1
  O  O62  1  0.83159454  0.64054452  0.27627567  1
  O  O63  1  0.16840546  0.35945548  0.72372433  1
  O  O64  1  0.47698843  0.99360541  0.41991232  1
  O  O65  1  0.52301157  0.00639459  0.58008768  1
  O  O66  1  0.97698843  0.00639459  0.08008768  1
  O  O67  1  0.52301157  0.49360541  0.58008768  1
  O  O68  1  0.02301157  0.99360541  0.91991232  1
  O  O69  1  0.47698843  0.50639459  0.41991232  1
  O  O70  1  0.02301157  0.50639459  0.91991232  1
  O  O71  1  0.97698843  0.49360541  0.08008768  1
  O  O72  1  0.33714089  0.75000000  0.81148980  1
  O  O73  1  0.66285911  0.25000000  0.18851020  1
  O  O74  1  0.83714089  0.25000000  0.68851020  1
  O  O75  1  0.16285911  0.75000000  0.31148980  1
  O  O76  1  0.67769185  0.35812120  0.77895831  1
  O  O77  1  0.32230815  0.64187880  0.22104169  1
  O  O78  1  0.17769185  0.64187880  0.72104169  1
  O  O79  1  0.32230815  0.85812120  0.22104169  1
  O  O80  1  0.82230815  0.35812120  0.27895831  1
  O  O81  1  0.67769185  0.14187880  0.77895831  1
  O  O82  1  0.82230815  0.14187880  0.27895831  1
  O  O83  1  0.17769185  0.85812120  0.72104169  1
  O  O84  1  0.87637850  0.48764545  0.68887080  1
  O  O85  1  0.12362150  0.51235455  0.31112920  1
  O  O86  1  0.37637850  0.51235455  0.81112920  1
  O  O87  1  0.12362150  0.98764545  0.31112920  1
  O  O88  1  0.62362150  0.48764545  0.18887080  1
  O  O89  1  0.87637850  0.01235455  0.68887080  1
  O  O90  1  0.62362150  0.01235455  0.18887080  1
  O  O91  1  0.37637850  0.98764545  0.81112920  1
  O  O92  1  0.34447187  0.89369219  0.92019034  1
  O  O93  1  0.65552813  0.10630781  0.07980966  1
  O  O94  1  0.84447187  0.10630781  0.57980966  1
  O  O95  1  0.65552813  0.39369219  0.07980966  1
  O  O96  1  0.15552813  0.89369219  0.42019034  1
  O  O97  1  0.34447187  0.60630781  0.92019034  1
  O  O98  1  0.15552813  0.60630781  0.42019034  1
  O  O99  1  0.84447187  0.39369219  0.57980966  1
  O  O100  1  0.02120907  0.75000000  0.00798453  1
  O  O101  1  0.97879093  0.25000000  0.99201547  1
  O  O102  1  0.52120907  0.25000000  0.49201547  1
  O  O103  1  0.47879093  0.75000000  0.50798453  1
  O  O104  1  0.73876680  0.95842387  0.99369659  1
  O  O105  1  0.26123320  0.04157613  0.00630341  1
  O  O106  1  0.23876680  0.04157613  0.50630341  1
  O  O107  1  0.26123320  0.45842387  0.00630341  1
  O  O108  1  0.76123320  0.95842387  0.49369659  1
  O  O109  1  0.73876680  0.54157613  0.99369659  1
  O  O110  1  0.76123320  0.54157613  0.49369659  1
  O  O111  1  0.23876680  0.45842387  0.50630341  1
  O  O112  1  0.68595557  0.99102032  0.87729534  1
  O  O113  1  0.31404443  0.00897968  0.12270466  1
  O  O114  1  0.18595557  0.00897968  0.62270466  1
  O  O115  1  0.31404443  0.49102032  0.12270466  1
  O  O116  1  0.81404443  0.99102032  0.37729534  1
  O  O117  1  0.68595557  0.50897968  0.87729534  1
  O  O118  1  0.81404443  0.50897968  0.37729534  1
  O  O119  1  0.18595557  0.49102032  0.62270466  1
  O  O120  1  0.62094086  0.75000000  0.88328299  1
  O  O121  1  0.37905914  0.25000000  0.11671701  1
  O  O122  1  0.12094086  0.25000000  0.61671701  1
  O  O123  1  0.87905914  0.75000000  0.38328299  1
  O  O124  1  0.97897276  0.75000000  0.80052275  1
  O  O125  1  0.02102724  0.25000000  0.19947725  1
  O  O126  1  0.47897276  0.25000000  0.69947725  1
  O  O127  1  0.52102724  0.75000000  0.30052275  1
  O  O128  1  0.83980443  0.88874222  0.59338672  1
  O  O129  1  0.16019557  0.11125778  0.40661328  1
  O  O130  1  0.33980443  0.11125778  0.90661328  1
  O  O131  1  0.16019557  0.38874222  0.40661328  1
  O  O132  1  0.66019557  0.88874222  0.09338672  1
  O  O133  1  0.83980443  0.61125778  0.59338672  1
  O  O134  1  0.66019557  0.61125778  0.09338672  1
  O  O135  1  0.33980443  0.38874222  0.90661328  1
  O  O136  1  0.84852773  0.75000000  0.69310973  1
  O  O137  1  0.15147227  0.25000000  0.30689027  1
  O  O138  1  0.34852773  0.25000000  0.80689027  1
  O  O139  1  0.65147227  0.75000000  0.19310973  1
  O  O140  1  0.76121154  0.35079173  0.94478970  1
  O  O141  1  0.23878846  0.64920827  0.05521030  1
  O  O142  1  0.26121154  0.64920827  0.55521030  1
  O  O143  1  0.23878846  0.85079173  0.05521030  1
  O  O144  1  0.73878846  0.35079173  0.44478970  1
  O  O145  1  0.76121154  0.14920827  0.94478970  1
  O  O146  1  0.73878846  0.14920827  0.44478970  1
  O  O147  1  0.26121154  0.85079173  0.55521030  1
