# generated using pymatgen
data_ZrMoC2
_symmetry_space_group_name_H-M   'P 1'
_cell_length_a   5.56808878
_cell_length_b   5.56808878
_cell_length_c   5.56808910
_cell_angle_alpha   33.41444255
_cell_angle_beta   33.41444255
_cell_angle_gamma   33.41444148
_symmetry_Int_Tables_number   1
_chemical_formula_structural   ZrMoC2
_chemical_formula_sum   'Zr1 Mo1 C2'
_cell_volume   46.62037687
_cell_formula_units_Z   1
loop_
 _symmetry_equiv_pos_site_id
 _symmetry_equiv_pos_as_xyz
  1  'x, y, z'
loop_
 _atom_site_type_symbol
 _atom_site_label
 _atom_site_symmetry_multiplicity
 _atom_site_fract_x
 _atom_site_fract_y
 _atom_site_fract_z
 _atom_site_occupancy
  Zr  Zr0  1  0.50000000  0.50000000  0.50000000  1
  Mo  Mo1  1  0.00000000  0.00000000  0.00000000  1
  C  C2  1  0.74435900  0.74435900  0.74435900  1
  C  C3  1  0.25564100  0.25564100  0.25564100  1
