# generated using pymatgen
data_ZrTaCN
_symmetry_space_group_name_H-M   'P 1'
_cell_length_a   5.61471463
_cell_length_b   5.61471463
_cell_length_c   5.61471476
_cell_angle_alpha   33.26857369
_cell_angle_beta   33.26857369
_cell_angle_gamma   33.26856768
_symmetry_Int_Tables_number   1
_chemical_formula_structural   ZrTaCN
_chemical_formula_sum   'Zr1 Ta1 C1 N1'
_cell_volume   47.42153847
_cell_formula_units_Z   1
loop_
 _symmetry_equiv_pos_site_id
 _symmetry_equiv_pos_as_xyz
  1  'x, y, z'
loop_
 _atom_site_type_symbol
 _atom_site_label
 _atom_site_symmetry_multiplicity
 _atom_site_fract_x
 _atom_site_fract_y
 _atom_site_fract_z
 _atom_site_occupancy
  Zr  Zr0  1  0.25327300  0.25327300  0.25327300  1
  Ta  Ta1  1  0.74642000  0.74642000  0.74642000  1
  C  C2  1  0.00541700  0.00541700  0.00541700  1
  N  N3  1  0.49489000  0.49489000  0.49489000  1
