# generated using pymatgen
data_ZrTi2Ni9
_symmetry_space_group_name_H-M   'P 1'
_cell_length_a   6.98653901
_cell_length_b   6.98653901
_cell_length_c   6.98653978
_cell_angle_alpha   43.59887683
_cell_angle_beta   43.59887683
_cell_angle_gamma   43.59887171
_symmetry_Int_Tables_number   1
_chemical_formula_structural   ZrTi2Ni9
_chemical_formula_sum   'Zr1 Ti2 Ni9'
_cell_volume   147.17775005
_cell_formula_units_Z   1
loop_
 _symmetry_equiv_pos_site_id
 _symmetry_equiv_pos_as_xyz
  1  'x, y, z'
loop_
 _atom_site_type_symbol
 _atom_site_label
 _atom_site_symmetry_multiplicity
 _atom_site_fract_x
 _atom_site_fract_y
 _atom_site_fract_z
 _atom_site_occupancy
  Zr  Zr0  1  0.21917400  0.21917400  0.21917400  1
  Ti  Ti1  1  0.78285400  0.78285400  0.78285400  1
  Ti  Ti2  1  0.99970700  0.99970700  0.99970700  1
  Ni  Ni3  1  0.50592600  0.50592600  0.99382700  1
  Ni  Ni4  1  0.50592600  0.99382700  0.50592600  1
  Ni  Ni5  1  0.99382700  0.50592600  0.50592600  1
  Ni  Ni6  1  0.75913600  0.28225000  0.28225000  1
  Ni  Ni7  1  0.28225000  0.28225000  0.75913600  1
  Ni  Ni8  1  0.28225000  0.75913600  0.28225000  1
  Ni  Ni9  1  0.23630100  0.71632500  0.71632500  1
  Ni  Ni10  1  0.71632500  0.71632500  0.23630100  1
  Ni  Ni11  1  0.71632500  0.23630100  0.71632500  1
