# generated using pymatgen
data_Zr4CuNi
_symmetry_space_group_name_H-M   'P 1'
_cell_length_a   5.33812612
_cell_length_b   5.33812612
_cell_length_c   5.33812612
_cell_angle_alpha   103.76448747
_cell_angle_beta   103.76448747
_cell_angle_gamma   121.61016567
_symmetry_Int_Tables_number   1
_chemical_formula_structural   Zr4CuNi
_chemical_formula_sum   'Zr4 Cu1 Ni1'
_cell_volume   113.08798490
_cell_formula_units_Z   1
loop_
 _symmetry_equiv_pos_site_id
 _symmetry_equiv_pos_as_xyz
  1  'x, y, z'
loop_
 _atom_site_type_symbol
 _atom_site_label
 _atom_site_symmetry_multiplicity
 _atom_site_fract_x
 _atom_site_fract_y
 _atom_site_fract_z
 _atom_site_occupancy
  Zr  Zr0  1  0.41118900  0.91118900  0.82237800  1
  Zr  Zr1  1  0.08881100  0.58881100  0.17762200  1
  Zr  Zr2  1  0.58881100  0.41118900  0.50000000  1
  Zr  Zr3  1  0.91118900  0.08881100  0.50000000  1
  Cu  Cu4  1  0.50000000  0.50000000  0.00000000  1
  Ni  Ni5  1  0.00000000  0.00000000  0.00000000  1
