# generated using pymatgen
data_Zr3V9Ge10
_symmetry_space_group_name_H-M   'P 1'
_cell_length_a   5.12982100
_cell_length_b   7.85333383
_cell_length_c   9.56386018
_cell_angle_alpha   65.83376789
_cell_angle_beta   74.44354506
_cell_angle_gamma   90.00000000
_symmetry_Int_Tables_number   1
_chemical_formula_structural   Zr3V9Ge10
_chemical_formula_sum   'Zr3 V9 Ge10'
_cell_volume   335.99520794
_cell_formula_units_Z   1
loop_
 _symmetry_equiv_pos_site_id
 _symmetry_equiv_pos_as_xyz
  1  'x, y, z'
loop_
 _atom_site_type_symbol
 _atom_site_label
 _atom_site_symmetry_multiplicity
 _atom_site_fract_x
 _atom_site_fract_y
 _atom_site_fract_z
 _atom_site_occupancy
  Zr  Zr0  1  0.85761000  0.73979800  0.28478100  1
  Zr  Zr1  1  0.64210400  0.03012700  0.71579300  1
  Zr  Zr2  1  0.35748300  0.97436700  0.28503300  1
  V  V3  1  0.43946600  0.69031700  0.62046500  1
  V  V4  1  0.05799800  0.30977700  0.38168900  1
  V  V5  1  0.56031300  0.30977700  0.38168900  1
  V  V6  1  0.94006900  0.69031700  0.62046500  1
  V  V7  1  0.43604900  0.67998500  0.12790200  1
  V  V8  1  0.56474700  0.31933300  0.87050700  1
  V  V9  1  0.93633600  0.19309500  0.12732900  1
  V  V10  1  0.06324400  0.80660200  0.87351100  1
  V  V11  1  0.14350900  0.25983600  0.71298200  1
  Ge  Ge12  1  0.06768500  0.47140900  0.86462900  1
  Ge  Ge13  1  0.93530100  0.51944900  0.12939900  1
  Ge  Ge14  1  0.56514800  0.65041100  0.86970300  1
  Ge  Ge15  1  0.43477800  0.35031300  0.13044400  1
  Ge  Ge16  1  0.75492900  0.00383100  0.99617800  1
  Ge  Ge17  1  0.24889300  0.00383100  0.99617800  1
  Ge  Ge18  1  0.28490100  0.57639300  0.43019900  1
  Ge  Ge19  1  0.71117700  0.41595700  0.57764700  1
  Ge  Ge20  1  0.78799800  0.99267900  0.42400400  1
  Ge  Ge21  1  0.21026300  0.01239700  0.57947400  1
