# generated using pymatgen
data_ZrCu
_symmetry_space_group_name_H-M   'P 1'
_cell_length_a   4.13821600
_cell_length_b   3.24218900
_cell_length_c   5.50956305
_cell_angle_alpha   74.08954990
_cell_angle_beta   90.00000000
_cell_angle_gamma   90.00000000
_symmetry_Int_Tables_number   1
_chemical_formula_structural   ZrCu
_chemical_formula_sum   'Zr2 Cu2'
_cell_volume   71.08931676
_cell_formula_units_Z   2
loop_
 _symmetry_equiv_pos_site_id
 _symmetry_equiv_pos_as_xyz
  1  'x, y, z'
loop_
 _atom_site_type_symbol
 _atom_site_label
 _atom_site_symmetry_multiplicity
 _atom_site_fract_x
 _atom_site_fract_y
 _atom_site_fract_z
 _atom_site_occupancy
  Zr  Zr0  1  0.75000000  0.64740200  0.19367500  1
  Zr  Zr1  1  0.25000000  0.35259800  0.80632500  1
  Cu  Cu2  1  0.75000000  0.94078300  0.63769700  1
  Cu  Cu3  1  0.25000000  0.05921700  0.36230300  1
