# generated using pymatgen
data_ZnCdSe2
_symmetry_space_group_name_H-M   'P 1'
_cell_length_a   4.22496852
_cell_length_b   4.22496852
_cell_length_c   6.92533400
_cell_angle_alpha   90.00010440
_cell_angle_beta   89.99989560
_cell_angle_gamma   119.99587401
_symmetry_Int_Tables_number   1
_chemical_formula_structural   ZnCdSe2
_chemical_formula_sum   'Zn1 Cd1 Se2'
_cell_volume   107.06224948
_cell_formula_units_Z   1
loop_
 _symmetry_equiv_pos_site_id
 _symmetry_equiv_pos_as_xyz
  1  'x, y, z'
loop_
 _atom_site_type_symbol
 _atom_site_label
 _atom_site_symmetry_multiplicity
 _atom_site_fract_x
 _atom_site_fract_y
 _atom_site_fract_z
 _atom_site_occupancy
  Zn  Zn0  1  0.66667800  0.33332200  0.00012600  1
  Cd  Cd1  1  0.33332800  0.66667200  0.49713800  1
  Se  Se2  1  0.33332400  0.66667600  0.10854000  1
  Se  Se3  1  0.66667000  0.33333000  0.64219600  1
