# generated using pymatgen
data_Zn2SeS
_symmetry_space_group_name_H-M   'P 1'
_cell_length_a   6.85554274
_cell_length_b   6.85554274
_cell_length_c   6.85554319
_cell_angle_alpha   33.55820000
_cell_angle_beta   33.55820000
_cell_angle_gamma   33.55820496
_symmetry_Int_Tables_number   1
_chemical_formula_structural   Zn2SeS
_chemical_formula_sum   'Zn2 Se1 S1'
_cell_volume   87.69598146
_cell_formula_units_Z   1
loop_
 _symmetry_equiv_pos_site_id
 _symmetry_equiv_pos_as_xyz
  1  'x, y, z'
loop_
 _atom_site_type_symbol
 _atom_site_label
 _atom_site_symmetry_multiplicity
 _atom_site_fract_x
 _atom_site_fract_y
 _atom_site_fract_z
 _atom_site_occupancy
  Zn  Zn0  1  0.00373900  0.00373900  0.00373900  1
  Zn  Zn1  1  0.49634700  0.49634700  0.49634700  1
  Se  Se2  1  0.62465700  0.62465700  0.62465700  1
  S  S3  1  0.12525700  0.12525700  0.12525700  1
