# generated using pymatgen
data_Zn2CoS3
_symmetry_space_group_name_H-M   'P 1'
_cell_length_a   3.76556423
_cell_length_b   3.76556423
_cell_length_c   9.31455875
_cell_angle_alpha   90.00000000
_cell_angle_beta   90.00000000
_cell_angle_gamma   120.00000000
_symmetry_Int_Tables_number   1
_chemical_formula_structural   Zn2CoS3
_chemical_formula_sum   'Zn2 Co1 S3'
_cell_volume   114.38077554
_cell_formula_units_Z   1
loop_
 _symmetry_equiv_pos_site_id
 _symmetry_equiv_pos_as_xyz
  1  'x, y, z'
loop_
 _atom_site_type_symbol
 _atom_site_label
 _atom_site_symmetry_multiplicity
 _atom_site_fract_x
 _atom_site_fract_y
 _atom_site_fract_z
 _atom_site_occupancy
  Zn  Zn0  1  0.66666700  0.33333300  0.33017900  1
  Zn  Zn1  1  0.33333300  0.66666700  0.67229200  1
  Co  Co2  1  0.00000000  0.00000000  0.99610100  1
  S  S3  1  0.00000000  0.00000000  0.24119100  1
  S  S4  1  0.66666700  0.33333300  0.58355700  1
  S  S5  1  0.33333300  0.66666700  0.92668000  1
