# generated using pymatgen
data_Zn2FeS3
_symmetry_space_group_name_H-M   'P 1'
_cell_length_a   6.65027000
_cell_length_b   6.65027000
_cell_length_c   6.65027000
_cell_angle_alpha   146.45569462
_cell_angle_beta   131.80684847
_cell_angle_gamma   59.99468428
_symmetry_Int_Tables_number   1
_chemical_formula_structural   Zn2FeS3
_chemical_formula_sum   'Zn2 Fe1 S3'
_cell_volume   120.03826728
_cell_formula_units_Z   1
loop_
 _symmetry_equiv_pos_site_id
 _symmetry_equiv_pos_as_xyz
  1  'x, y, z'
loop_
 _atom_site_type_symbol
 _atom_site_label
 _atom_site_symmetry_multiplicity
 _atom_site_fract_x
 _atom_site_fract_y
 _atom_site_fract_z
 _atom_site_occupancy
  Zn  Zn0  1  0.33314300  0.33347100  0.99967200  1
  Zn  Zn1  1  0.66620100  0.66652900  0.99967200  1
  Fe  Fe2  1  0.99857800  0.00000000  0.99857800  1
  S  S3  1  0.58734200  0.83472500  0.75261800  1
  S  S4  1  0.91789300  0.16527500  0.75261800  1
  S  S5  1  0.24684400  0.50000000  0.74684400  1
