# generated using pymatgen
data_Zn2Si2AsP3
_symmetry_space_group_name_H-M   'P 1'
_cell_length_a   5.49029536
_cell_length_b   5.47599700
_cell_length_c   6.60447886
_cell_angle_alpha   65.50795805
_cell_angle_beta   65.14957790
_cell_angle_gamma   90.00000000
_symmetry_Int_Tables_number   1
_chemical_formula_structural   Zn2Si2AsP3
_chemical_formula_sum   'Zn2 Si2 As1 P3'
_cell_volume   160.27380229
_cell_formula_units_Z   1
loop_
 _symmetry_equiv_pos_site_id
 _symmetry_equiv_pos_as_xyz
  1  'x, y, z'
loop_
 _atom_site_type_symbol
 _atom_site_label
 _atom_site_symmetry_multiplicity
 _atom_site_fract_x
 _atom_site_fract_y
 _atom_site_fract_z
 _atom_site_occupancy
  Zn  Zn0  1  0.75972500  0.26011200  0.49442100  1
  Zn  Zn1  1  0.99027500  0.00453300  0.00557900  1
  Si  Si2  1  0.24559900  0.74589800  0.49454900  1
  Si  Si3  1  0.50440100  0.49044700  0.00545100  1
  As  As4  1  0.37500000  0.86023200  0.75000000  1
  P  P5  1  0.87500000  0.39071100  0.75000000  1
  P  P6  1  0.14337000  0.12412500  0.24981700  1
  P  P7  1  0.60663000  0.62394200  0.25018300  1
