# generated using pymatgen
data_ZnSiNi2
_symmetry_space_group_name_H-M   'P 1'
_cell_length_a   2.73694000
_cell_length_b   2.73694000
_cell_length_c   6.21638800
_cell_angle_alpha   90.00000000
_cell_angle_beta   90.00000000
_cell_angle_gamma   90.00000000
_symmetry_Int_Tables_number   1
_chemical_formula_structural   ZnSiNi2
_chemical_formula_sum   'Zn1 Si1 Ni2'
_cell_volume   46.56597139
_cell_formula_units_Z   1
loop_
 _symmetry_equiv_pos_site_id
 _symmetry_equiv_pos_as_xyz
  1  'x, y, z'
loop_
 _atom_site_type_symbol
 _atom_site_label
 _atom_site_symmetry_multiplicity
 _atom_site_fract_x
 _atom_site_fract_y
 _atom_site_fract_z
 _atom_site_occupancy
  Zn  Zn0  1  0.50000000  0.50000000  0.50000000  1
  Si  Si1  1  0.50000000  0.50000000  0.00000000  1
  Ni  Ni2  1  0.00000000  0.00000000  0.78569700  1
  Ni  Ni3  1  0.00000000  0.00000000  0.21430300  1
