# generated using pymatgen
data_Zn5Se4S
_symmetry_space_group_name_H-M   'P 1'
_cell_length_a   16.60955504
_cell_length_b   16.60955504
_cell_length_c   16.60955482
_cell_angle_alpha   13.95105471
_cell_angle_beta   13.95105471
_cell_angle_gamma   13.95105573
_symmetry_Int_Tables_number   1
_chemical_formula_structural   Zn5Se4S
_chemical_formula_sum   'Zn5 Se4 S1'
_cell_volume   231.80023392
_cell_formula_units_Z   1
loop_
 _symmetry_equiv_pos_site_id
 _symmetry_equiv_pos_as_xyz
  1  'x, y, z'
loop_
 _atom_site_type_symbol
 _atom_site_label
 _atom_site_symmetry_multiplicity
 _atom_site_fract_x
 _atom_site_fract_y
 _atom_site_fract_z
 _atom_site_occupancy
  Zn  Zn0  1  0.99795900  0.99795900  0.99795900  1
  Zn  Zn1  1  0.60201000  0.60201000  0.60201000  1
  Zn  Zn2  1  0.20055400  0.20055400  0.20055400  1
  Zn  Zn3  1  0.79998100  0.79998100  0.79998100  1
  Zn  Zn4  1  0.39938500  0.39938500  0.39938500  1
  Se  Se5  1  0.55130400  0.55130400  0.55130400  1
  Se  Se6  1  0.15026500  0.15026500  0.15026500  1
  Se  Se7  1  0.74979000  0.74979000  0.74979000  1
  Se  Se8  1  0.34893000  0.34893000  0.34893000  1
  S  S9  1  0.94982200  0.94982200  0.94982200  1
