# generated using pymatgen
data_YbSi3C4
_symmetry_space_group_name_H-M   'P 1'
_cell_length_a   3.14361714
_cell_length_b   3.14361714
_cell_length_c   11.61483629
_cell_angle_alpha   97.77757060
_cell_angle_beta   90.00000000
_cell_angle_gamma   120.00000000
_symmetry_Int_Tables_number   1
_chemical_formula_structural   YbSi3C4
_chemical_formula_sum   'Yb1 Si3 C4'
_cell_volume   98.18268034
_cell_formula_units_Z   1
loop_
 _symmetry_equiv_pos_site_id
 _symmetry_equiv_pos_as_xyz
  1  'x, y, z'
loop_
 _atom_site_type_symbol
 _atom_site_label
 _atom_site_symmetry_multiplicity
 _atom_site_fract_x
 _atom_site_fract_y
 _atom_site_fract_z
 _atom_site_occupancy
  Yb  Yb0  1  0.25556100  0.51112200  0.76668300  1
  Si  Si1  1  0.00933200  0.01866500  0.02799700  1
  Si  Si2  1  0.74992600  0.49985200  0.24977800  1
  Si  Si3  1  0.49088900  0.98177900  0.47266800  1
  C  C4  1  0.06593700  0.13187500  0.19781200  1
  C  C5  1  0.80566700  0.61133500  0.41700300  1
  C  C6  1  0.54497700  0.08995500  0.63493200  1
  C  C7  1  0.32770900  0.65541800  0.98312700  1
