# generated using pymatgen
data_ZnGaCuSe3
_symmetry_space_group_name_H-M   'P 1'
_cell_length_a   6.95133038
_cell_length_b   6.95133038
_cell_length_c   5.69257522
_cell_angle_alpha   65.84757270
_cell_angle_beta   65.84757270
_cell_angle_gamma   33.56839423
_symmetry_Int_Tables_number   1
_chemical_formula_structural   ZnGaCuSe3
_chemical_formula_sum   'Zn1 Ga1 Cu1 Se3'
_cell_volume   137.50587469
_cell_formula_units_Z   1
loop_
 _symmetry_equiv_pos_site_id
 _symmetry_equiv_pos_as_xyz
  1  'x, y, z'
loop_
 _atom_site_type_symbol
 _atom_site_label
 _atom_site_symmetry_multiplicity
 _atom_site_fract_x
 _atom_site_fract_y
 _atom_site_fract_z
 _atom_site_occupancy
  Zn  Zn0  1  0.33632600  0.33632600  0.66465200  1
  Ga  Ga1  1  0.66436400  0.66436400  0.32493800  1
  Cu  Cu2  1  0.99981700  0.99981700  0.00644500  1
  Se  Se3  1  0.50044000  0.50044000  0.24341400  1
  Se  Se4  1  0.83552500  0.83552500  0.92130800  1
  Se  Se5  1  0.16353100  0.16353100  0.58924300  1
