# generated using pymatgen
data_Zn5SeS4
_symmetry_space_group_name_H-M   'P 1'
_cell_length_a   14.02683245
_cell_length_b   14.02683245
_cell_length_c   14.02683245
_cell_angle_alpha   164.05017147
_cell_angle_beta   164.05017147
_cell_angle_gamma   22.63051990
_symmetry_Int_Tables_number   1
_chemical_formula_structural   Zn5SeS4
_chemical_formula_sum   'Zn5 Se1 S4'
_cell_volume   208.36004680
_cell_formula_units_Z   1
loop_
 _symmetry_equiv_pos_site_id
 _symmetry_equiv_pos_as_xyz
  1  'x, y, z'
loop_
 _atom_site_type_symbol
 _atom_site_label
 _atom_site_symmetry_multiplicity
 _atom_site_fract_x
 _atom_site_fract_y
 _atom_site_fract_z
 _atom_site_occupancy
  Zn  Zn0  1  0.30347900  0.30347900  0.00000000  1
  Zn  Zn1  1  0.69652100  0.69652100  0.00000000  1
  Zn  Zn2  1  0.09919100  0.09919100  0.00000000  1
  Zn  Zn3  1  0.50000000  0.50000000  0.00000000  1
  Zn  Zn4  1  0.90080900  0.90080900  0.00000000  1
  Se  Se5  1  0.25000000  0.75000000  0.50000000  1
  S  S6  1  0.64808000  0.14808000  0.50000000  1
  S  S7  1  0.04974700  0.54974700  0.50000000  1
  S  S8  1  0.45025300  0.95025300  0.50000000  1
  S  S9  1  0.85192000  0.35192000  0.50000000  1
