# generated using pymatgen
data_Zn2GaAgSe4
_symmetry_space_group_name_H-M   'P 1'
_cell_length_a   4.08502826
_cell_length_b   7.19859115
_cell_length_c   6.78496468
_cell_angle_alpha   90.15996041
_cell_angle_beta   90.00025701
_cell_angle_gamma   89.99908307
_symmetry_Int_Tables_number   1
_chemical_formula_structural   Zn2GaAgSe4
_chemical_formula_sum   'Zn2 Ga1 Ag1 Se4'
_cell_volume   199.52093541
_cell_formula_units_Z   1
loop_
 _symmetry_equiv_pos_site_id
 _symmetry_equiv_pos_as_xyz
  1  'x, y, z'
loop_
 _atom_site_type_symbol
 _atom_site_label
 _atom_site_symmetry_multiplicity
 _atom_site_fract_x
 _atom_site_fract_y
 _atom_site_fract_z
 _atom_site_occupancy
  Zn  Zn0  1  0.49999300  0.83355800  0.51491400  1
  Zn  Zn1  1  0.00000400  0.67349500  0.98554800  1
  Ga  Ga2  1  0.50000300  0.15789900  0.98550700  1
  Ag  Ag3  1  0.99999900  0.33704300  0.50394800  1
  Se  Se4  1  0.99999600  0.33191000  0.11194000  1
  Se  Se5  1  0.49999800  0.83592900  0.13311500  1
  Se  Se6  1  0.50000700  0.15200200  0.63475300  1
  Se  Se7  1  0.99999900  0.67816400  0.62627500  1
