# generated using pymatgen
data_YbYAl6
_symmetry_space_group_name_H-M   'P 1'
_cell_length_a   6.08097043
_cell_length_b   6.08097043
_cell_length_c   9.74802200
_cell_angle_alpha   90.00000000
_cell_angle_beta   90.00000000
_cell_angle_gamma   120.00000471
_symmetry_Int_Tables_number   1
_chemical_formula_structural   YbYAl6
_chemical_formula_sum   'Yb2 Y2 Al12'
_cell_volume   312.17124420
_cell_formula_units_Z   2
loop_
 _symmetry_equiv_pos_site_id
 _symmetry_equiv_pos_as_xyz
  1  'x, y, z'
loop_
 _atom_site_type_symbol
 _atom_site_label
 _atom_site_symmetry_multiplicity
 _atom_site_fract_x
 _atom_site_fract_y
 _atom_site_fract_z
 _atom_site_occupancy
  Yb  Yb0  1  0.00000000  0.00000000  0.50000000  1
  Yb  Yb1  1  0.00000000  0.00000000  0.00000000  1
  Y  Y2  1  0.33333300  0.66666700  0.25000000  1
  Y  Y3  1  0.66666700  0.33333300  0.75000000  1
  Al  Al4  1  0.82216700  0.64433500  0.25000000  1
  Al  Al5  1  0.35566500  0.17783300  0.25000000  1
  Al  Al6  1  0.82216700  0.17783300  0.25000000  1
  Al  Al7  1  0.17783300  0.35566500  0.75000000  1
  Al  Al8  1  0.64433500  0.82216700  0.75000000  1
  Al  Al9  1  0.17783300  0.82216700  0.75000000  1
  Al  Al10  1  0.50000000  0.50000000  0.50000000  1
  Al  Al11  1  0.50000000  0.00000000  0.50000000  1
  Al  Al12  1  0.00000000  0.50000000  0.50000000  1
  Al  Al13  1  0.50000000  0.50000000  0.00000000  1
  Al  Al14  1  0.50000000  0.00000000  0.00000000  1
  Al  Al15  1  0.00000000  0.50000000  0.00000000  1
