# generated using pymatgen
data_Zn3Cr8FeSe16
_symmetry_space_group_name_H-M   'P 1'
_cell_length_a   12.95506826
_cell_length_b   12.95506826
_cell_length_c   12.95506785
_cell_angle_alpha   33.55076848
_cell_angle_beta   33.55076848
_cell_angle_gamma   33.55076821
_symmetry_Int_Tables_number   1
_chemical_formula_structural   Zn3Cr8FeSe16
_chemical_formula_sum   'Zn3 Cr8 Fe1 Se16'
_cell_volume   591.55895229
_cell_formula_units_Z   1
loop_
 _symmetry_equiv_pos_site_id
 _symmetry_equiv_pos_as_xyz
  1  'x, y, z'
loop_
 _atom_site_type_symbol
 _atom_site_label
 _atom_site_symmetry_multiplicity
 _atom_site_fract_x
 _atom_site_fract_y
 _atom_site_fract_z
 _atom_site_occupancy
  Zn  Zn0  1  0.18753300  0.18753300  0.18753300  1
  Zn  Zn1  1  0.81250400  0.81250400  0.81250400  1
  Zn  Zn2  1  0.31250500  0.31250500  0.31250500  1
  Cr  Cr3  1  0.99987200  0.99987200  0.99987200  1
  Cr  Cr4  1  0.50006100  0.50006100  0.50006100  1
  Cr  Cr5  1  0.75009400  0.25017100  0.25017100  1
  Cr  Cr6  1  0.24959400  0.75003500  0.75003500  1
  Cr  Cr7  1  0.25017100  0.75009400  0.25017100  1
  Cr  Cr8  1  0.75003500  0.24959400  0.75003500  1
  Cr  Cr9  1  0.25017100  0.25017100  0.75009400  1
  Cr  Cr10  1  0.75003500  0.75003500  0.24959400  1
  Fe  Fe11  1  0.68739000  0.68739000  0.68739000  1
  Se  Se12  1  0.11971000  0.11971000  0.11971000  1
  Se  Se13  1  0.62068400  0.62068400  0.62068400  1
  Se  Se14  1  0.35303600  0.88817500  0.88817500  1
  Se  Se15  1  0.84887600  0.39070000  0.39070000  1
  Se  Se16  1  0.88817500  0.35303600  0.88817500  1
  Se  Se17  1  0.39070000  0.84887600  0.39070000  1
  Se  Se18  1  0.88817500  0.88817500  0.35303600  1
  Se  Se19  1  0.39070000  0.39070000  0.84887600  1
  Se  Se20  1  0.38017600  0.38017600  0.38017600  1
  Se  Se21  1  0.88018100  0.88018100  0.88018100  1
  Se  Se22  1  0.15090300  0.60947400  0.60947400  1
  Se  Se23  1  0.65087800  0.10944600  0.10944600  1
  Se  Se24  1  0.60947400  0.15090300  0.60947400  1
  Se  Se25  1  0.10944600  0.65087800  0.10944600  1
  Se  Se26  1  0.60947400  0.60947400  0.15090300  1
  Se  Se27  1  0.10944600  0.10944600  0.65087800  1
