# generated using pymatgen
data_Yb8Al3Ga
_symmetry_space_group_name_H-M   'P 1'
_cell_length_a   11.08339955
_cell_length_b   11.08339955
_cell_length_c   11.08339992
_cell_angle_alpha   33.33922686
_cell_angle_beta   33.33922686
_cell_angle_gamma   33.33922798
_symmetry_Int_Tables_number   1
_chemical_formula_structural   Yb8Al3Ga
_chemical_formula_sum   'Yb8 Al3 Ga1'
_cell_volume   366.17782786
_cell_formula_units_Z   1
loop_
 _symmetry_equiv_pos_site_id
 _symmetry_equiv_pos_as_xyz
  1  'x, y, z'
loop_
 _atom_site_type_symbol
 _atom_site_label
 _atom_site_symmetry_multiplicity
 _atom_site_fract_x
 _atom_site_fract_y
 _atom_site_fract_z
 _atom_site_occupancy
  Yb  Yb0  1  0.56234900  0.06250900  0.56234900  1
  Yb  Yb1  1  0.06244600  0.56281100  0.06244600  1
  Yb  Yb2  1  0.06250900  0.56234900  0.56234900  1
  Yb  Yb3  1  0.56281100  0.06244600  0.06244600  1
  Yb  Yb4  1  0.81257700  0.81257700  0.81257700  1
  Yb  Yb5  1  0.31252800  0.31252800  0.31252800  1
  Yb  Yb6  1  0.56234900  0.56234900  0.06250900  1
  Yb  Yb7  1  0.06244600  0.06244600  0.56281100  1
  Al  Al8  1  0.62467000  0.62467000  0.62467000  1
  Al  Al9  1  0.00014800  0.00014800  0.00014800  1
  Al  Al10  1  0.50045300  0.50045300  0.50045300  1
  Ga  Ga11  1  0.12471300  0.12471300  0.12471300  1
