# generated using pymatgen
data_Zn2GaCuSe4
_symmetry_space_group_name_H-M   'P 1'
_cell_length_a   13.38527422
_cell_length_b   13.38527422
_cell_length_c   13.38527434
_cell_angle_alpha   17.52647860
_cell_angle_beta   17.52647860
_cell_angle_gamma   17.52647761
_symmetry_Int_Tables_number   1
_chemical_formula_structural   Zn2GaCuSe4
_chemical_formula_sum   'Zn2 Ga1 Cu1 Se4'
_cell_volume   189.81953990
_cell_formula_units_Z   1
loop_
 _symmetry_equiv_pos_site_id
 _symmetry_equiv_pos_as_xyz
  1  'x, y, z'
loop_
 _atom_site_type_symbol
 _atom_site_label
 _atom_site_symmetry_multiplicity
 _atom_site_fract_x
 _atom_site_fract_y
 _atom_site_fract_z
 _atom_site_occupancy
  Zn  Zn0  1  0.49841900  0.49841900  0.49841900  1
  Zn  Zn1  1  0.74731000  0.74731000  0.74731000  1
  Ga  Ga2  1  0.25000800  0.25000800  0.25000800  1
  Cu  Cu3  1  0.00469500  0.00469500  0.00469500  1
  Se  Se4  1  0.93953600  0.93953600  0.93953600  1
  Se  Se5  1  0.18734000  0.18734000  0.18734000  1
  Se  Se6  1  0.43725900  0.43725900  0.43725900  1
  Se  Se7  1  0.68543300  0.68543300  0.68543300  1
