# generated using pymatgen
data_Zn4CdSe4S
_symmetry_space_group_name_H-M   'P 1'
_cell_length_a   4.09086729
_cell_length_b   5.79147500
_cell_length_c   10.79193021
_cell_angle_alpha   74.43541790
_cell_angle_beta   79.07443171
_cell_angle_gamma   90.00000000
_symmetry_Int_Tables_number   1
_chemical_formula_structural   Zn4CdSe4S
_chemical_formula_sum   'Zn4 Cd1 Se4 S1'
_cell_volume   241.49345807
_cell_formula_units_Z   1
loop_
 _symmetry_equiv_pos_site_id
 _symmetry_equiv_pos_as_xyz
  1  'x, y, z'
loop_
 _atom_site_type_symbol
 _atom_site_label
 _atom_site_symmetry_multiplicity
 _atom_site_fract_x
 _atom_site_fract_y
 _atom_site_fract_z
 _atom_site_occupancy
  Zn  Zn0  1  0.40129300  0.40757300  0.19741400  1
  Zn  Zn1  1  0.79858600  0.79830700  0.40282800  1
  Zn  Zn2  1  0.20141400  0.20113500  0.59717200  1
  Zn  Zn3  1  0.59870700  0.60498600  0.80258600  1
  Cd  Cd4  1  0.00000000  0.98810800  0.00000000  1
  Se  Se5  1  0.89543700  0.15705000  0.20912700  1
  Se  Se6  1  0.30103200  0.55454600  0.39793500  1
  Se  Se7  1  0.69896700  0.95248100  0.60206500  1
  Se  Se8  1  0.10456300  0.36617600  0.79087300  1
  S  S9  1  0.50000000  0.71963800  0.00000000  1
