# generated using pymatgen
data_ZnCu2SnSe3S
_symmetry_space_group_name_H-M   'P 1'
_cell_length_a   5.69192100
_cell_length_b   5.69394107
_cell_length_c   6.95314975
_cell_angle_alpha   114.00851665
_cell_angle_beta   114.09595738
_cell_angle_gamma   90.13183007
_symmetry_Int_Tables_number   1
_chemical_formula_structural   ZnCu2SnSe3S
_chemical_formula_sum   'Zn1 Cu2 Sn1 Se3 S1'
_cell_volume   184.04228637
_cell_formula_units_Z   1
loop_
 _symmetry_equiv_pos_site_id
 _symmetry_equiv_pos_as_xyz
  1  'x, y, z'
loop_
 _atom_site_type_symbol
 _atom_site_label
 _atom_site_symmetry_multiplicity
 _atom_site_fract_x
 _atom_site_fract_y
 _atom_site_fract_z
 _atom_site_occupancy
  Zn  Zn0  1  0.25533000  0.73556200  0.49294400  1
  Cu  Cu1  1  0.01552000  0.01551100  0.01037900  1
  Cu  Cu2  1  0.73392000  0.25533700  0.49025800  1
  Sn  Sn3  1  0.49530800  0.49448500  0.00483200  1
  Se  Se4  1  0.88926100  0.89757100  0.26178500  1
  Se  Se5  1  0.10005700  0.63026900  0.74062600  1
  Se  Se6  1  0.63979300  0.10961400  0.74013200  1
  S  S7  1  0.37081200  0.36165100  0.25904500  1
