# generated using pymatgen
data_Zn3GaAgS5
_symmetry_space_group_name_H-M   'P 1'
_cell_length_a   6.40302700
_cell_length_b   6.74996410
_cell_length_c   10.31199259
_cell_angle_alpha   70.89905128
_cell_angle_beta   89.96842396
_cell_angle_gamma   89.94505517
_symmetry_Int_Tables_number   1
_chemical_formula_structural   Zn3GaAgS5
_chemical_formula_sum   'Zn6 Ga2 Ag2 S10'
_cell_volume   421.14826364
_cell_formula_units_Z   2
loop_
 _symmetry_equiv_pos_site_id
 _symmetry_equiv_pos_as_xyz
  1  'x, y, z'
loop_
 _atom_site_type_symbol
 _atom_site_label
 _atom_site_symmetry_multiplicity
 _atom_site_fract_x
 _atom_site_fract_y
 _atom_site_fract_z
 _atom_site_occupancy
  Zn  Zn0  1  0.49436400  0.87249100  0.59839200  1
  Zn  Zn1  1  0.50084800  0.46317300  0.40146600  1
  Zn  Zn2  1  0.50345700  0.06540400  0.20110800  1
  Zn  Zn3  1  0.99893000  0.33034800  0.00022500  1
  Zn  Zn4  1  0.00068000  0.93782400  0.79759900  1
  Zn  Zn5  1  0.99698800  0.13198300  0.40244100  1
  Ga  Ga6  1  0.49911100  0.26352700  0.79951600  1
  Ga  Ga7  1  0.99810200  0.73134200  0.19960400  1
  Ag  Ag8  1  0.49747900  0.66784800  0.99992000  1
  Ag  Ag9  1  0.99807300  0.53434600  0.60026400  1
  S  S10  1  0.09960800  0.66590500  0.00182300  1
  S  S11  1  0.13881300  0.25373800  0.81306500  1
  S  S12  1  0.13045500  0.88929400  0.59990300  1
  S  S13  1  0.13094000  0.46819500  0.38338100  1
  S  S14  1  0.12629800  0.05736200  0.20144900  1
  S  S15  1  0.63741800  0.73391700  0.21385900  1
  S  S16  1  0.62973600  0.31277500  0.99640100  1
  S  S17  1  0.63193200  0.95291500  0.78731900  1
  S  S18  1  0.60052700  0.53201200  0.60470900  1
  S  S19  1  0.62624200  0.13560100  0.39755500  1
