# generated using pymatgen
data_Zn2InCuS4
_symmetry_space_group_name_H-M   'P 1'
_cell_length_a   6.75085379
_cell_length_b   6.75085379
_cell_length_c   6.75085379
_cell_angle_alpha   131.83685751
_cell_angle_beta   131.83685751
_cell_angle_gamma   70.48681507
_symmetry_Int_Tables_number   1
_chemical_formula_structural   Zn2InCuS4
_chemical_formula_sum   'Zn2 In1 Cu1 S4'
_cell_volume   167.34071493
_cell_formula_units_Z   1
loop_
 _symmetry_equiv_pos_site_id
 _symmetry_equiv_pos_as_xyz
  1  'x, y, z'
loop_
 _atom_site_type_symbol
 _atom_site_label
 _atom_site_symmetry_multiplicity
 _atom_site_fract_x
 _atom_site_fract_y
 _atom_site_fract_z
 _atom_site_occupancy
  Zn  Zn0  1  0.75000000  0.25000000  0.50000000  1
  Zn  Zn1  1  0.25000000  0.75000000  0.50000000  1
  In  In2  1  0.50000000  0.50000000  0.00000000  1
  Cu  Cu3  1  0.00000000  0.00000000  0.00000000  1
  S  S4  1  0.36438500  0.36438500  0.47158200  1
  S  S5  1  0.10719700  0.63561500  0.00000000  1
  S  S6  1  0.89280300  0.89280300  0.52841800  1
  S  S7  1  0.63561500  0.10719700  0.00000000  1
