# generated using pymatgen
data_Zn3Cu3(TeO6)2
_symmetry_space_group_name_H-M   'P 1'
_cell_length_a   8.42102318
_cell_length_b   8.42102318
_cell_length_c   8.42102318
_cell_angle_alpha   109.47122063
_cell_angle_beta   109.47122063
_cell_angle_gamma   109.47122063
_symmetry_Int_Tables_number   1
_chemical_formula_structural   Zn3Cu3(TeO6)2
_chemical_formula_sum   'Zn6 Cu6 Te4 O24'
_cell_volume   459.69808833
_cell_formula_units_Z   2
loop_
 _symmetry_equiv_pos_site_id
 _symmetry_equiv_pos_as_xyz
  1  'x, y, z'
loop_
 _atom_site_type_symbol
 _atom_site_label
 _atom_site_symmetry_multiplicity
 _atom_site_fract_x
 _atom_site_fract_y
 _atom_site_fract_z
 _atom_site_occupancy
  Zn  Zn0  1  0.25000000  0.53563700  0.28563700  1
  Zn  Zn1  1  0.75000000  0.96436300  0.21436300  1
  Zn  Zn2  1  0.96436300  0.21436300  0.75000000  1
  Zn  Zn3  1  0.53563700  0.28563700  0.25000000  1
  Zn  Zn4  1  0.28563700  0.25000000  0.53563700  1
  Zn  Zn5  1  0.21436300  0.75000000  0.96436300  1
  Cu  Cu6  1  0.75000000  0.46878600  0.71878600  1
  Cu  Cu7  1  0.25000000  0.03121400  0.78121400  1
  Cu  Cu8  1  0.03121400  0.78121400  0.25000000  1
  Cu  Cu9  1  0.46878600  0.71878600  0.75000000  1
  Cu  Cu10  1  0.71878600  0.75000000  0.46878600  1
  Cu  Cu11  1  0.78121400  0.25000000  0.03121400  1
  Te  Te12  1  0.50734900  0.50000000  0.00000000  1
  Te  Te13  1  0.99265100  0.99265100  0.99265100  1
  Te  Te14  1  0.00000000  0.50734900  0.50000000  1
  Te  Te15  1  0.50000000  0.00000000  0.50734900  1
  O  O16  1  0.43813900  0.69773000  0.97605500  1
  O  O17  1  0.06186100  0.03791600  0.25959100  1
  O  O18  1  0.22167500  0.46208400  0.52394500  1
  O  O19  1  0.27832500  0.80227000  0.24040900  1
  O  O20  1  0.80227000  0.24040900  0.27832500  1
  O  O21  1  0.46208400  0.52394500  0.22167500  1
  O  O22  1  0.03791600  0.25959100  0.06186100  1
  O  O23  1  0.69773000  0.97605500  0.43813900  1
  O  O24  1  0.25959100  0.06186100  0.03791600  1
  O  O25  1  0.97605500  0.43813900  0.69773000  1
  O  O26  1  0.24040900  0.27832500  0.80227000  1
  O  O27  1  0.52394500  0.22167500  0.46208400  1
  O  O28  1  0.57019700  0.30045200  0.02172100  1
  O  O29  1  0.92980300  0.95152400  0.73025400  1
  O  O30  1  0.77873000  0.54847600  0.47827900  1
  O  O31  1  0.72127000  0.19954800  0.76974600  1
  O  O32  1  0.19954800  0.76974600  0.72127000  1
  O  O33  1  0.54847600  0.47827900  0.77873000  1
  O  O34  1  0.95152400  0.73025400  0.92980300  1
  O  O35  1  0.30045200  0.02172100  0.57019700  1
  O  O36  1  0.73025400  0.92980300  0.95152400  1
  O  O37  1  0.02172100  0.57019700  0.30045200  1
  O  O38  1  0.76974600  0.72127000  0.19954800  1
  O  O39  1  0.47827900  0.77873000  0.54847600  1
