# generated using pymatgen
data_Yb3Se4
_symmetry_space_group_name_H-M   'P 1'
_cell_length_a   7.18668233
_cell_length_b   7.18668233
_cell_length_c   4.17961100
_cell_angle_alpha   90.00000000
_cell_angle_beta   90.00000000
_cell_angle_gamma   110.32860650
_symmetry_Int_Tables_number   1
_chemical_formula_structural   Yb3Se4
_chemical_formula_sum   'Yb3 Se4'
_cell_volume   202.42488490
_cell_formula_units_Z   1
loop_
 _symmetry_equiv_pos_site_id
 _symmetry_equiv_pos_as_xyz
  1  'x, y, z'
loop_
 _atom_site_type_symbol
 _atom_site_label
 _atom_site_symmetry_multiplicity
 _atom_site_fract_x
 _atom_site_fract_y
 _atom_site_fract_z
 _atom_site_occupancy
  Yb  Yb0  1  0.00000000  0.50000000  0.00000000  1
  Yb  Yb1  1  0.00000000  0.00000000  0.50000000  1
  Yb  Yb2  1  0.50000000  0.00000000  0.00000000  1
  Se  Se3  1  0.75317000  0.24683000  0.50000000  1
  Se  Se4  1  0.75995300  0.75995300  0.00000000  1
  Se  Se5  1  0.24683000  0.75317000  0.50000000  1
  Se  Se6  1  0.24004700  0.24004700  0.00000000  1
