# generated using pymatgen
data_Yb4Pt3Au
_symmetry_space_group_name_H-M   'P 1'
_cell_length_a   4.44619200
_cell_length_b   5.65302400
_cell_length_c   7.21158534
_cell_angle_alpha   89.93029882
_cell_angle_beta   90.00000000
_cell_angle_gamma   90.00000000
_symmetry_Int_Tables_number   1
_chemical_formula_structural   Yb4Pt3Au
_chemical_formula_sum   'Yb4 Pt3 Au1'
_cell_volume   181.25895331
_cell_formula_units_Z   1
loop_
 _symmetry_equiv_pos_site_id
 _symmetry_equiv_pos_as_xyz
  1  'x, y, z'
loop_
 _atom_site_type_symbol
 _atom_site_label
 _atom_site_symmetry_multiplicity
 _atom_site_fract_x
 _atom_site_fract_y
 _atom_site_fract_z
 _atom_site_occupancy
  Yb  Yb0  1  0.50000000  0.64630800  0.69122800  1
  Yb  Yb1  1  0.50000000  0.85313200  0.17950200  1
  Yb  Yb2  1  0.00000000  0.36105500  0.30524600  1
  Yb  Yb3  1  0.00000000  0.14160700  0.82571000  1
  Pt  Pt4  1  0.50000000  0.34587300  0.03809000  1
  Pt  Pt5  1  0.00000000  0.84595500  0.46328000  1
  Pt  Pt6  1  0.00000000  0.65161400  0.95961600  1
  Au  Au7  1  0.50000000  0.15445600  0.53732800  1
