# generated using pymatgen
data_ZnCr4NiO8
_symmetry_space_group_name_H-M   'P 1'
_cell_length_a   5.98624863
_cell_length_b   5.98624863
_cell_length_c   5.98624863
_cell_angle_alpha   60.00000000
_cell_angle_beta   60.00000000
_cell_angle_gamma   60.00000000
_symmetry_Int_Tables_number   1
_chemical_formula_structural   ZnCr4NiO8
_chemical_formula_sum   'Zn1 Cr4 Ni1 O8'
_cell_volume   151.68731154
_cell_formula_units_Z   1
loop_
 _symmetry_equiv_pos_site_id
 _symmetry_equiv_pos_as_xyz
  1  'x, y, z'
loop_
 _atom_site_type_symbol
 _atom_site_label
 _atom_site_symmetry_multiplicity
 _atom_site_fract_x
 _atom_site_fract_y
 _atom_site_fract_z
 _atom_site_occupancy
  Zn  Zn0  1  0.00000000  0.00000000  0.00000000  1
  Cr  Cr1  1  0.62503000  0.62503000  0.12490900  1
  Cr  Cr2  1  0.62503000  0.12490900  0.62503000  1
  Cr  Cr3  1  0.12490900  0.62503000  0.62503000  1
  Cr  Cr4  1  0.62503000  0.62503000  0.62503000  1
  Ni  Ni5  1  0.25000000  0.25000000  0.25000000  1
  O  O6  1  0.86353100  0.86353100  0.40940700  1
  O  O7  1  0.86353100  0.40940700  0.86353100  1
  O  O8  1  0.40940700  0.86353100  0.86353100  1
  O  O9  1  0.86353100  0.86353100  0.86353100  1
  O  O10  1  0.38534800  0.38534800  0.84395700  1
  O  O11  1  0.38534800  0.84395700  0.38534800  1
  O  O12  1  0.84395700  0.38534800  0.38534800  1
  O  O13  1  0.38534800  0.38534800  0.38534800  1
