# generated using pymatgen
data_Zn3Cr12(GaSe12)2
_symmetry_space_group_name_H-M   'P 1'
_cell_length_a   7.49744613
_cell_length_b   16.74927860
_cell_length_c   7.49744613
_cell_angle_alpha   77.06685301
_cell_angle_beta   90.00000000
_cell_angle_gamma   77.06685301
_symmetry_Int_Tables_number   1
_chemical_formula_structural   Zn3Cr12(GaSe12)2
_chemical_formula_sum   'Zn3 Cr12 Ga2 Se24'
_cell_volume   893.09843554
_cell_formula_units_Z   1
loop_
 _symmetry_equiv_pos_site_id
 _symmetry_equiv_pos_as_xyz
  1  'x, y, z'
loop_
 _atom_site_type_symbol
 _atom_site_label
 _atom_site_symmetry_multiplicity
 _atom_site_fract_x
 _atom_site_fract_y
 _atom_site_fract_z
 _atom_site_occupancy
  Zn  Zn0  1  0.95801300  0.58397300  0.20801300  1
  Zn  Zn1  1  0.29198700  0.91602700  0.54198700  1
  Zn  Zn2  1  0.37500000  0.75000000  0.12500000  1
  Cr  Cr3  1  0.16785800  0.16428500  0.15526000  1
  Cr  Cr4  1  0.50131600  0.49736800  0.49696900  1
  Cr  Cr5  1  0.83345400  0.83309100  0.83348300  1
  Cr  Cr6  1  0.16785800  0.16428500  0.68045600  1
  Cr  Cr7  1  0.50131600  0.49736800  0.00566200  1
  Cr  Cr8  1  0.83345400  0.83309100  0.33342500  1
  Cr  Cr9  1  0.49433800  0.00263200  0.99868400  1
  Cr  Cr10  1  0.81954400  0.33571500  0.33214200  1
  Cr  Cr11  1  0.16657500  0.66690900  0.66654600  1
  Cr  Cr12  1  0.00303100  0.00263200  0.99868400  1
  Cr  Cr13  1  0.34474000  0.33571500  0.33214200  1
  Cr  Cr14  1  0.66651700  0.66690900  0.66654600  1
  Ga  Ga15  1  0.04286100  0.41427800  0.79286100  1
  Ga  Ga16  1  0.70713900  0.08572200  0.45713900  1
  Se  Se17  1  0.57981700  0.34036600  0.09856800  1
  Se  Se18  1  0.91316900  0.67366100  0.43394100  1
  Se  Se19  1  0.24692700  0.00614700  0.76741800  1
  Se  Se20  1  0.57981700  0.34036600  0.56106500  1
  Se  Se21  1  0.91316900  0.67366100  0.89239800  1
  Se  Se22  1  0.24692700  0.00614700  0.22643600  1
  Se  Se23  1  0.93893500  0.15963400  0.92018300  1
  Se  Se24  1  0.27356400  0.49385300  0.25307300  1
  Se  Se25  1  0.60760200  0.82633900  0.58683100  1
  Se  Se26  1  0.40143200  0.15963400  0.92018300  1
  Se  Se27  1  0.73258200  0.49385300  0.25307300  1
  Se  Se28  1  0.06605900  0.82633900  0.58683100  1
  Se  Se29  1  0.08698300  0.32603500  0.56595400  1
  Se  Se30  1  0.42030800  0.65938300  0.89883500  1
  Se  Se31  1  0.75310400  0.99379000  0.23240100  1
  Se  Se32  1  0.08698300  0.32603500  0.10801200  1
  Se  Se33  1  0.42030800  0.65938300  0.44178200  1
  Se  Se34  1  0.75310400  0.99379000  0.77380800  1
  Se  Se35  1  0.72619200  0.50621000  0.74689600  1
  Se  Se36  1  0.05821800  0.84061700  0.07969200  1
  Se  Se37  1  0.39198800  0.17396500  0.41301700  1
  Se  Se38  1  0.26759900  0.50621000  0.74689600  1
  Se  Se39  1  0.60116500  0.84061700  0.07969200  1
  Se  Se40  1  0.93404600  0.17396500  0.41301700  1
