# generated using pymatgen
data_ZnGaFeO4
_symmetry_space_group_name_H-M   'P 1'
_cell_length_a   6.00236713
_cell_length_b   6.01056108
_cell_length_c   8.51024000
_cell_angle_alpha   90.00001905
_cell_angle_beta   90.00001907
_cell_angle_gamma   90.00001349
_symmetry_Int_Tables_number   1
_chemical_formula_structural   ZnGaFeO4
_chemical_formula_sum   'Zn4 Ga4 Fe4 O16'
_cell_volume   307.02898583
_cell_formula_units_Z   4
loop_
 _symmetry_equiv_pos_site_id
 _symmetry_equiv_pos_as_xyz
  1  'x, y, z'
loop_
 _atom_site_type_symbol
 _atom_site_label
 _atom_site_symmetry_multiplicity
 _atom_site_fract_x
 _atom_site_fract_y
 _atom_site_fract_z
 _atom_site_occupancy
  Zn  Zn0  1  0.00000000  0.24999900  0.12417500  1
  Zn  Zn1  1  0.50000000  0.75000000  0.62417500  1
  Zn  Zn2  1  0.50000000  0.25000000  0.37582500  1
  Zn  Zn3  1  0.00000000  0.75000000  0.87582500  1
  Ga  Ga4  1  0.75000000  0.75000100  0.25000000  1
  Ga  Ga5  1  0.25000000  0.24999900  0.75000000  1
  Ga  Ga6  1  0.25000000  0.75000100  0.25000000  1
  Ga  Ga7  1  0.75000000  0.24999900  0.75000000  1
  Fe  Fe8  1  0.00000200  0.50000000  0.50000100  1
  Fe  Fe9  1  0.50000000  0.50000100  0.00000000  1
  Fe  Fe10  1  0.50000000  0.00000100  0.00000000  1
  Fe  Fe11  1  0.99999800  0.00000100  0.49999900  1
  O  O12  1  0.22967800  0.75000200  0.48753700  1
  O  O13  1  0.72967800  0.24999800  0.98753700  1
  O  O14  1  0.77032200  0.75000200  0.48753700  1
  O  O15  1  0.27032200  0.24999800  0.98753700  1
  O  O16  1  0.27032200  0.75000200  0.01246300  1
  O  O17  1  0.77032200  0.24999800  0.51246300  1
  O  O18  1  0.72967800  0.75000200  0.01246300  1
  O  O19  1  0.22967800  0.24999800  0.51246300  1
  O  O20  1  0.00000000  0.97554200  0.25976900  1
  O  O21  1  0.50000000  0.47554200  0.75976900  1
  O  O22  1  0.00000000  0.52445800  0.25976900  1
  O  O23  1  0.50000000  0.02445700  0.75976900  1
  O  O24  1  0.50000000  0.52445800  0.24023200  1
  O  O25  1  0.00000000  0.02445800  0.74023000  1
  O  O26  1  0.50000000  0.97554200  0.24023100  1
  O  O27  1  0.00000000  0.47554200  0.74023100  1
