# generated using pymatgen
data_Zn10Pd3
_symmetry_space_group_name_H-M   'P 1'
_cell_length_a   7.95098349
_cell_length_b   7.95098349
_cell_length_c   7.81587079
_cell_angle_alpha   71.46566363
_cell_angle_beta   71.46566363
_cell_angle_gamma   110.12766187
_symmetry_Int_Tables_number   1
_chemical_formula_structural   Zn10Pd3
_chemical_formula_sum   'Zn20 Pd6'
_cell_volume   385.89530553
_cell_formula_units_Z   2
loop_
 _symmetry_equiv_pos_site_id
 _symmetry_equiv_pos_as_xyz
  1  'x, y, z'
loop_
 _atom_site_type_symbol
 _atom_site_label
 _atom_site_symmetry_multiplicity
 _atom_site_fract_x
 _atom_site_fract_y
 _atom_site_fract_z
 _atom_site_occupancy
  Zn  Zn0  1  0.00625000  0.00625000  0.78160800  1
  Zn  Zn1  1  0.77497500  0.77497500  0.22216700  1
  Zn  Zn2  1  0.22034700  0.00132800  0.99377600  1
  Zn  Zn3  1  0.00132800  0.22034700  0.99377600  1
  Zn  Zn4  1  0.26777300  0.26777300  0.39124700  1
  Zn  Zn5  1  0.00822000  0.73135700  0.64930100  1
  Zn  Zn6  1  0.73135700  0.00822000  0.64930100  1
  Zn  Zn7  1  0.65665700  0.65665700  0.62776700  1
  Zn  Zn8  1  0.37357800  0.64247300  0.35198800  1
  Zn  Zn9  1  0.64247300  0.37357800  0.35198800  1
  Zn  Zn10  1  0.35036500  0.73262800  0.98458000  1
  Zn  Zn11  1  0.61648400  0.26001800  0.72971000  1
  Zn  Zn12  1  0.35160200  0.00615500  0.27759200  1
  Zn  Zn13  1  0.73262800  0.35036500  0.98458000  1
  Zn  Zn14  1  0.00615500  0.35160200  0.27759200  1
  Zn  Zn15  1  0.26001800  0.61648400  0.72971000  1
  Zn  Zn16  1  0.64501300  0.64501300  0.99329200  1
  Zn  Zn17  1  0.00223000  0.65137900  0.35145800  1
  Zn  Zn18  1  0.65137900  0.00223000  0.35145800  1
  Zn  Zn19  1  0.35628500  0.35628500  0.00675000  1
  Pd  Pd20  1  0.99729000  0.36395100  0.63362900  1
  Pd  Pd21  1  0.36395100  0.99729000  0.63362900  1
  Pd  Pd22  1  0.99945500  0.99945500  0.34418500  1
  Pd  Pd23  1  0.35725100  0.35725100  0.65887100  1
  Pd  Pd24  1  0.64109100  0.98584400  0.01502300  1
  Pd  Pd25  1  0.98584400  0.64109100  0.01502300  1
