# generated using pymatgen
data_ZnFeCu4(GeS4)2
_symmetry_space_group_name_H-M   'P 1'
_cell_length_a   6.51283939
_cell_length_b   6.51283939
_cell_length_c   7.54350700
_cell_angle_alpha   90.00000000
_cell_angle_beta   90.00000000
_cell_angle_gamma   109.25926729
_symmetry_Int_Tables_number   1
_chemical_formula_structural   ZnFeCu4(GeS4)2
_chemical_formula_sum   'Zn1 Fe1 Cu4 Ge2 S8'
_cell_volume   302.06641740
_cell_formula_units_Z   1
loop_
 _symmetry_equiv_pos_site_id
 _symmetry_equiv_pos_as_xyz
  1  'x, y, z'
loop_
 _atom_site_type_symbol
 _atom_site_label
 _atom_site_symmetry_multiplicity
 _atom_site_fract_x
 _atom_site_fract_y
 _atom_site_fract_z
 _atom_site_occupancy
  Zn  Zn0  1  0.49990700  0.50009300  0.50000000  1
  Fe  Fe1  1  0.99984300  0.00015700  0.00000000  1
  Cu  Cu2  1  0.50077200  0.00064200  0.24933600  1
  Cu  Cu3  1  0.99935800  0.49922800  0.75066400  1
  Cu  Cu4  1  0.99935800  0.49922800  0.24933600  1
  Cu  Cu5  1  0.50077200  0.00064200  0.75066400  1
  Ge  Ge6  1  0.99846100  0.00153900  0.50000000  1
  Ge  Ge7  1  0.50153600  0.49846400  0.00000000  1
  S  S8  1  0.87425800  0.12574200  0.75077200  1
  S  S9  1  0.37214300  0.62785700  0.24273900  1
  S  S10  1  0.87425800  0.12574200  0.24922800  1
  S  S11  1  0.37214300  0.62785700  0.75726100  1
  S  S12  1  0.87491600  0.62494300  0.00000000  1
  S  S13  1  0.37208000  0.11486000  0.50000000  1
  S  S14  1  0.37505700  0.12508400  0.00000000  1
  S  S15  1  0.88514000  0.62792000  0.50000000  1
