# generated using pymatgen
data_Zn2Cu10Sb4S13
_symmetry_space_group_name_H-M   'P 1'
_cell_length_a   9.03952655
_cell_length_b   9.03952655
_cell_length_c   9.03952655
_cell_angle_alpha   109.77039133
_cell_angle_beta   109.77039133
_cell_angle_gamma   108.87452199
_symmetry_Int_Tables_number   1
_chemical_formula_structural   Zn2Cu10Sb4S13
_chemical_formula_sum   'Zn2 Cu10 Sb4 S13'
_cell_volume   568.56468226
_cell_formula_units_Z   1
loop_
 _symmetry_equiv_pos_site_id
 _symmetry_equiv_pos_as_xyz
  1  'x, y, z'
loop_
 _atom_site_type_symbol
 _atom_site_label
 _atom_site_symmetry_multiplicity
 _atom_site_fract_x
 _atom_site_fract_y
 _atom_site_fract_z
 _atom_site_occupancy
  Zn  Zn0  1  0.77387200  0.77387200  0.00000000  1
  Zn  Zn1  1  0.22612800  0.22612800  0.00000000  1
  Cu  Cu2  1  0.50000000  0.75336900  0.25336900  1
  Cu  Cu3  1  0.24663100  0.50000000  0.74663100  1
  Cu  Cu4  1  0.75000000  0.25000000  0.50000000  1
  Cu  Cu5  1  0.75336900  0.50000000  0.25336900  1
  Cu  Cu6  1  0.50000000  0.24663100  0.74663100  1
  Cu  Cu7  1  0.25000000  0.75000000  0.50000000  1
  Cu  Cu8  1  0.00000000  0.77605100  0.77605100  1
  Cu  Cu9  1  0.77605100  0.00000000  0.77605100  1
  Cu  Cu10  1  0.00000000  0.22394900  0.22394900  1
  Cu  Cu11  1  0.22394900  0.00000000  0.22394900  1
  Sb  Sb12  1  0.46684600  0.46684600  0.46101600  1
  Sb  Sb13  1  0.00583000  0.00583000  0.53898400  1
  Sb  Sb14  1  0.99417000  0.53315400  0.00000000  1
  Sb  Sb15  1  0.53315400  0.99417000  0.00000000  1
  S  S16  1  0.00000000  0.00000000  0.00000000  1
  S  S17  1  0.51230800  0.51230800  0.76447000  1
  S  S18  1  0.77090900  0.51962900  0.52128100  1
  S  S19  1  0.51962900  0.77090900  0.52128100  1
  S  S20  1  0.74783800  0.74783800  0.23553000  1
  S  S21  1  0.99834800  0.24962800  0.47871900  1
  S  S22  1  0.24962800  0.99834800  0.47871900  1
  S  S23  1  0.25216200  0.48769200  0.00000000  1
  S  S24  1  0.00165200  0.48037100  0.25128000  1
  S  S25  1  0.75037200  0.22909100  0.74872000  1
  S  S26  1  0.48769200  0.25216200  0.00000000  1
  S  S27  1  0.22909100  0.75037200  0.74872000  1
  S  S28  1  0.48037100  0.00165200  0.25128000  1
