# generated using pymatgen
data_YbGdS3
_symmetry_space_group_name_H-M   'P 1'
_cell_length_a   3.95578000
_cell_length_b   10.07027200
_cell_length_c   11.10951100
_cell_angle_alpha   90.00000000
_cell_angle_beta   90.00000000
_cell_angle_gamma   90.00000000
_symmetry_Int_Tables_number   1
_chemical_formula_structural   YbGdS3
_chemical_formula_sum   'Yb4 Gd4 S12'
_cell_volume   442.55604246
_cell_formula_units_Z   4
loop_
 _symmetry_equiv_pos_site_id
 _symmetry_equiv_pos_as_xyz
  1  'x, y, z'
loop_
 _atom_site_type_symbol
 _atom_site_label
 _atom_site_symmetry_multiplicity
 _atom_site_fract_x
 _atom_site_fract_y
 _atom_site_fract_z
 _atom_site_occupancy
  Yb  Yb0  1  0.25000000  0.18186300  0.50151600  1
  Yb  Yb1  1  0.25000000  0.31813700  0.00151600  1
  Yb  Yb2  1  0.75000000  0.81813700  0.49848400  1
  Yb  Yb3  1  0.75000000  0.68186300  0.99848400  1
  Gd  Gd4  1  0.75000000  0.50450900  0.67774600  1
  Gd  Gd5  1  0.75000000  0.99549100  0.17774600  1
  Gd  Gd6  1  0.25000000  0.49549100  0.32225400  1
  Gd  Gd7  1  0.25000000  0.00450900  0.82225400  1
  S  S8  1  0.25000000  0.30934800  0.73901000  1
  S  S9  1  0.25000000  0.19065200  0.23901000  1
  S  S10  1  0.75000000  0.69065200  0.26099000  1
  S  S11  1  0.75000000  0.80934800  0.76099000  1
  S  S12  1  0.75000000  0.05109900  0.64429500  1
  S  S13  1  0.75000000  0.44890100  0.14429500  1
  S  S14  1  0.25000000  0.94890100  0.35570500  1
  S  S15  1  0.25000000  0.55109900  0.85570500  1
  S  S16  1  0.25000000  0.63479900  0.53947800  1
  S  S17  1  0.25000000  0.86520100  0.03947800  1
  S  S18  1  0.75000000  0.36520100  0.46052200  1
  S  S19  1  0.75000000  0.13479900  0.96052200  1
