# generated using pymatgen
data_YbV4O8
_symmetry_space_group_name_H-M   'P 1'
_cell_length_a   3.05378050
_cell_length_b   9.03073547
_cell_length_c   10.68820250
_cell_angle_alpha   90.90807063
_cell_angle_beta   89.99005298
_cell_angle_gamma   90.02012117
_symmetry_Int_Tables_number   1
_chemical_formula_structural   YbV4O8
_chemical_formula_sum   'Yb2 V8 O16'
_cell_volume   294.72096680
_cell_formula_units_Z   2
loop_
 _symmetry_equiv_pos_site_id
 _symmetry_equiv_pos_as_xyz
  1  'x, y, z'
loop_
 _atom_site_type_symbol
 _atom_site_label
 _atom_site_symmetry_multiplicity
 _atom_site_fract_x
 _atom_site_fract_y
 _atom_site_fract_z
 _atom_site_occupancy
  Yb  Yb0  1  0.24914400  0.74644300  0.15799400  1
  Yb  Yb1  1  0.75085600  0.25355700  0.84200600  1
  V  V2  1  0.24974400  0.55181600  0.38792400  1
  V  V3  1  0.75025600  0.44818400  0.61207600  1
  V  V4  1  0.75046800  0.93029700  0.88438200  1
  V  V5  1  0.24953200  0.06970300  0.11561800  1
  V  V6  1  0.25024000  0.58479900  0.89333900  1
  V  V7  1  0.74976000  0.41520100  0.10666100  1
  V  V8  1  0.74917000  0.92287000  0.39812100  1
  V  V9  1  0.25083000  0.07713000  0.60187900  1
  O  O10  1  0.24917500  0.96733000  0.28345800  1
  O  O11  1  0.75082500  0.03267000  0.71654200  1
  O  O12  1  0.75024800  0.51263000  0.79631200  1
  O  O13  1  0.24975200  0.48737000  0.20368800  1
  O  O14  1  0.25058700  0.78388200  0.86268200  1
  O  O15  1  0.74941300  0.21611800  0.13731800  1
  O  O16  1  0.74903600  0.71758400  0.33673500  1
  O  O17  1  0.25096400  0.28241600  0.66326500  1
  O  O18  1  0.25002600  0.57191200  0.57633600  1
  O  O19  1  0.74997400  0.42808800  0.42366400  1
  O  O20  1  0.74957700  0.91909000  0.07500100  1
  O  O21  1  0.25042300  0.08091000  0.92499900  1
  O  O22  1  0.24958700  0.89062300  0.51808800  1
  O  O23  1  0.75041300  0.10937700  0.48191200  1
  O  O24  1  0.74996700  0.61451200  0.02508200  1
  O  O25  1  0.25003300  0.38548800  0.97491800  1
