# generated using pymatgen
data_ZnFe8Co3O16
_symmetry_space_group_name_H-M   'P 1'
_cell_length_a   6.04434200
_cell_length_b   6.04434200
_cell_length_c   8.54767900
_cell_angle_alpha   90.00000000
_cell_angle_beta   90.00000000
_cell_angle_gamma   90.00000000
_symmetry_Int_Tables_number   1
_chemical_formula_structural   ZnFe8Co3O16
_chemical_formula_sum   'Zn1 Fe8 Co3 O16'
_cell_volume   312.28150474
_cell_formula_units_Z   1
loop_
 _symmetry_equiv_pos_site_id
 _symmetry_equiv_pos_as_xyz
  1  'x, y, z'
loop_
 _atom_site_type_symbol
 _atom_site_label
 _atom_site_symmetry_multiplicity
 _atom_site_fract_x
 _atom_site_fract_y
 _atom_site_fract_z
 _atom_site_occupancy
  Zn  Zn0  1  0.50000000  0.50000000  0.00000000  1
  Fe  Fe1  1  0.50000000  0.74989200  0.37491800  1
  Fe  Fe2  1  0.00000000  0.25010300  0.87508300  1
  Fe  Fe3  1  0.25010300  0.00000000  0.12491700  1
  Fe  Fe4  1  0.74989200  0.50000000  0.62508200  1
  Fe  Fe5  1  0.74989700  0.00000000  0.12491700  1
  Fe  Fe6  1  0.25010800  0.50000000  0.62508200  1
  Fe  Fe7  1  0.50000000  0.25010800  0.37491800  1
  Fe  Fe8  1  0.00000000  0.74989700  0.87508300  1
  Co  Co9  1  0.00000000  0.00000000  0.50000000  1
  Co  Co10  1  0.50000000  0.00000000  0.75018600  1
  Co  Co11  1  0.00000000  0.50000000  0.24981400  1
  O  O12  1  0.50000000  0.27045000  0.61471500  1
  O  O13  1  0.00000000  0.77059800  0.11472900  1
  O  O14  1  0.27045000  0.50000000  0.38528500  1
  O  O15  1  0.77059800  0.00000000  0.88527100  1
  O  O16  1  0.72955000  0.50000000  0.38528500  1
  O  O17  1  0.22940200  0.00000000  0.88527100  1
  O  O18  1  0.50000000  0.72955000  0.61471500  1
  O  O19  1  0.00000000  0.22940200  0.11472900  1
  O  O20  1  0.50000000  0.22945700  0.13521800  1
  O  O21  1  0.00000000  0.72915300  0.63551300  1
  O  O22  1  0.72915300  0.00000000  0.36448700  1
  O  O23  1  0.22945700  0.50000000  0.86478200  1
  O  O24  1  0.27084700  0.00000000  0.36448700  1
  O  O25  1  0.77054300  0.50000000  0.86478200  1
  O  O26  1  0.50000000  0.77054300  0.13521800  1
  O  O27  1  0.00000000  0.27084700  0.63551300  1
