# generated using pymatgen
data_YbGdS3
_symmetry_space_group_name_H-M   'P 1'
_cell_length_a   4.10236800
_cell_length_b   7.30839500
_cell_length_c   15.07539500
_cell_angle_alpha   90.00000000
_cell_angle_beta   90.00000000
_cell_angle_gamma   90.00000000
_symmetry_Int_Tables_number   1
_chemical_formula_structural   YbGdS3
_chemical_formula_sum   'Yb4 Gd4 S12'
_cell_volume   451.98635891
_cell_formula_units_Z   4
loop_
 _symmetry_equiv_pos_site_id
 _symmetry_equiv_pos_as_xyz
  1  'x, y, z'
loop_
 _atom_site_type_symbol
 _atom_site_label
 _atom_site_symmetry_multiplicity
 _atom_site_fract_x
 _atom_site_fract_y
 _atom_site_fract_z
 _atom_site_occupancy
  Yb  Yb0  1  0.25000000  0.15523300  0.78184700  1
  Yb  Yb1  1  0.25000000  0.65523300  0.71815300  1
  Yb  Yb2  1  0.75000000  0.84476700  0.21815300  1
  Yb  Yb3  1  0.75000000  0.34476700  0.28184700  1
  Gd  Gd4  1  0.25000000  0.76360300  0.46336700  1
  Gd  Gd5  1  0.25000000  0.26360300  0.03663300  1
  Gd  Gd6  1  0.75000000  0.23639700  0.53663300  1
  Gd  Gd7  1  0.75000000  0.73639700  0.96336700  1
  S  S8  1  0.25000000  0.02702000  0.60053800  1
  S  S9  1  0.25000000  0.52702000  0.89946200  1
  S  S10  1  0.75000000  0.97298000  0.39946200  1
  S  S11  1  0.75000000  0.47298000  0.10053800  1
  S  S12  1  0.25000000  0.12355800  0.21119300  1
  S  S13  1  0.25000000  0.62355800  0.28880700  1
  S  S14  1  0.75000000  0.87644200  0.78880700  1
  S  S15  1  0.75000000  0.37644200  0.71119300  1
  S  S16  1  0.25000000  0.37769100  0.42165100  1
  S  S17  1  0.25000000  0.87769100  0.07834900  1
  S  S18  1  0.75000000  0.62230900  0.57834900  1
  S  S19  1  0.75000000  0.12230900  0.92165100  1
