# generated using pymatgen
data_YbPrCo17
_symmetry_space_group_name_H-M   'P 1'
_cell_length_a   8.16996200
_cell_length_b   8.33374036
_cell_length_c   8.33374036
_cell_angle_alpha   120.00011396
_cell_angle_beta   90.00000000
_cell_angle_gamma   90.00000000
_symmetry_Int_Tables_number   1
_chemical_formula_structural   YbPrCo17
_chemical_formula_sum   'Yb2 Pr2 Co34'
_cell_volume   491.39428420
_cell_formula_units_Z   2
loop_
 _symmetry_equiv_pos_site_id
 _symmetry_equiv_pos_as_xyz
  1  'x, y, z'
loop_
 _atom_site_type_symbol
 _atom_site_label
 _atom_site_symmetry_multiplicity
 _atom_site_fract_x
 _atom_site_fract_y
 _atom_site_fract_z
 _atom_site_occupancy
  Yb  Yb0  1  0.75000000  0.00004600  0.99995400  1
  Yb  Yb1  1  0.25000000  0.99995400  0.00004600  1
  Pr  Pr2  1  0.25000000  0.66669800  0.33330200  1
  Pr  Pr3  1  0.75000000  0.33330200  0.66669800  1
  Co  Co4  1  0.60805700  0.66666900  0.33333100  1
  Co  Co5  1  0.39194300  0.33333100  0.66666900  1
  Co  Co6  1  0.10805700  0.33333100  0.66666900  1
  Co  Co7  1  0.89194300  0.66666900  0.33333100  1
  Co  Co8  1  0.48237000  0.83479800  0.66961400  1
  Co  Co9  1  0.48235700  0.83481400  0.16518600  1
  Co  Co10  1  0.48237000  0.33038600  0.16520200  1
  Co  Co11  1  0.51763000  0.16520200  0.33038600  1
  Co  Co12  1  0.51764300  0.16518600  0.83481400  1
  Co  Co13  1  0.51763000  0.66961400  0.83479800  1
  Co  Co14  1  0.98237000  0.16520200  0.33038600  1
  Co  Co15  1  0.98235700  0.16518600  0.83481400  1
  Co  Co16  1  0.98237000  0.66961400  0.83479800  1
  Co  Co17  1  0.01763000  0.83479800  0.66961400  1
  Co  Co18  1  0.01764300  0.83481400  0.16518600  1
  Co  Co19  1  0.01763000  0.33038600  0.16520200  1
  Co  Co20  1  0.50000000  0.50000000  0.00000000  1
  Co  Co21  1  0.50000000  0.50000000  0.50000000  1
  Co  Co22  1  0.50000000  0.00000000  0.50000000  1
  Co  Co23  1  0.00000000  0.50000000  0.00000000  1
  Co  Co24  1  0.00000000  0.50000000  0.50000000  1
  Co  Co25  1  0.00000000  0.00000000  0.50000000  1
  Co  Co26  1  0.75000000  0.67163000  0.04965000  1
  Co  Co27  1  0.75000000  0.37803800  0.32829800  1
  Co  Co28  1  0.75000000  0.95032300  0.62195900  1
  Co  Co29  1  0.75000000  0.37804100  0.04967700  1
  Co  Co30  1  0.75000000  0.95035000  0.32837000  1
  Co  Co31  1  0.75000000  0.67170200  0.62196200  1
  Co  Co32  1  0.25000000  0.32837000  0.95035000  1
  Co  Co33  1  0.25000000  0.62196200  0.67170200  1
  Co  Co34  1  0.25000000  0.04967700  0.37804100  1
  Co  Co35  1  0.25000000  0.62195900  0.95032300  1
  Co  Co36  1  0.25000000  0.04965000  0.67163000  1
  Co  Co37  1  0.25000000  0.32829800  0.37803800  1
