# generated using pymatgen
data_Zn7(SbO6)2
_symmetry_space_group_name_H-M   'P 1'
_cell_length_a   6.24726500
_cell_length_b   8.72022655
_cell_length_c   10.56416625
_cell_angle_alpha   113.50044211
_cell_angle_beta   106.17788184
_cell_angle_gamma   92.01471028
_symmetry_Int_Tables_number   1
_chemical_formula_structural   Zn7(SbO6)2
_chemical_formula_sum   'Zn14 Sb4 O24'
_cell_volume   499.83851905
_cell_formula_units_Z   2
loop_
 _symmetry_equiv_pos_site_id
 _symmetry_equiv_pos_as_xyz
  1  'x, y, z'
loop_
 _atom_site_type_symbol
 _atom_site_label
 _atom_site_symmetry_multiplicity
 _atom_site_fract_x
 _atom_site_fract_y
 _atom_site_fract_z
 _atom_site_occupancy
  Zn  Zn0  1  0.88009300  0.80032400  0.81986200  1
  Zn  Zn1  1  0.55178100  0.45759900  0.16510500  1
  Zn  Zn2  1  0.22088500  0.14073200  0.49665400  1
  Zn  Zn3  1  0.44821900  0.54240100  0.83489500  1
  Zn  Zn4  1  0.11990700  0.19967600  0.18013800  1
  Zn  Zn5  1  0.77911500  0.85926800  0.50334600  1
  Zn  Zn6  1  0.66689500  0.17199300  0.33112700  1
  Zn  Zn7  1  0.33310500  0.82800700  0.66887300  1
  Zn  Zn8  1  0.82425900  0.32120700  0.65136500  1
  Zn  Zn9  1  0.50000000  0.00000000  0.00000000  1
  Zn  Zn10  1  0.17574100  0.67879300  0.34863500  1
  Zn  Zn11  1  0.65692700  0.15142600  0.82201800  1
  Zn  Zn12  1  0.34307300  0.84857400  0.17798200  1
  Zn  Zn13  1  0.00000000  0.50000000  0.50000000  1
  Sb  Sb14  1  0.00000000  0.50000000  0.00000000  1
  Sb  Sb15  1  0.16841700  0.16102000  0.82885500  1
  Sb  Sb16  1  0.83158300  0.83898000  0.17114500  1
  Sb  Sb17  1  0.50000000  0.50000000  0.50000000  1
  O  O18  1  0.47408300  0.24340800  0.98213000  1
  O  O19  1  0.14323300  0.90466000  0.31797800  1
  O  O20  1  0.80881400  0.57045400  0.65435300  1
  O  O21  1  0.32328800  0.09752900  0.67851000  1
  O  O22  1  0.98787300  0.73806200  0.00741900  1
  O  O23  1  0.65538500  0.42473800  0.34486100  1
  O  O24  1  0.63091900  0.92857200  0.83403100  1
  O  O25  1  0.29421500  0.59520200  0.16063100  1
  O  O26  1  0.96616700  0.26268800  0.49335200  1
  O  O27  1  0.16152000  0.93680400  0.83668800  1
  O  O28  1  0.84004600  0.58846500  0.15549000  1
  O  O29  1  0.50038900  0.26628400  0.49895200  1
  O  O30  1  0.85676700  0.09534000  0.68202200  1
  O  O31  1  0.52591700  0.75659200  0.01787000  1
  O  O32  1  0.19118600  0.42954600  0.34564700  1
  O  O33  1  0.01212700  0.26193800  0.99258100  1
  O  O34  1  0.67671200  0.90247100  0.32149000  1
  O  O35  1  0.34461500  0.57526200  0.65513900  1
  O  O36  1  0.70578500  0.40479800  0.83936900  1
  O  O37  1  0.36908100  0.07142800  0.16596900  1
  O  O38  1  0.03383300  0.73731200  0.50664800  1
  O  O39  1  0.15995400  0.41153500  0.84451000  1
  O  O40  1  0.83848000  0.06319600  0.16331200  1
  O  O41  1  0.49961100  0.73371600  0.50104800  1
