# generated using pymatgen
data_Yb2Ge3
_symmetry_space_group_name_H-M   'P 1'
_cell_length_a   4.32452827
_cell_length_b   4.32476608
_cell_length_c   7.73628500
_cell_angle_alpha   90.00000000
_cell_angle_beta   90.00000000
_cell_angle_gamma   60.02067340
_symmetry_Int_Tables_number   1
_chemical_formula_structural   Yb2Ge3
_chemical_formula_sum   'Yb2 Ge3'
_cell_volume   125.32995659
_cell_formula_units_Z   1
loop_
 _symmetry_equiv_pos_site_id
 _symmetry_equiv_pos_as_xyz
  1  'x, y, z'
loop_
 _atom_site_type_symbol
 _atom_site_label
 _atom_site_symmetry_multiplicity
 _atom_site_fract_x
 _atom_site_fract_y
 _atom_site_fract_z
 _atom_site_occupancy
  Yb  Yb0  1  0.99988900  0.99987300  0.01771900  1
  Yb  Yb1  1  0.99988900  0.99987300  0.48228100  1
  Ge  Ge2  1  0.66657000  0.66653800  0.75000000  1
  Ge  Ge3  1  0.33343000  0.33352100  0.25000000  1
  Ge  Ge4  1  0.33342200  0.33349600  0.75000000  1
