# generated using pymatgen
data_Zn2Mo2NO10
_symmetry_space_group_name_H-M   'P 1'
_cell_length_a   5.96907395
_cell_length_b   5.96907395
_cell_length_c   7.88829745
_cell_angle_alpha   66.99978554
_cell_angle_beta   66.99978554
_cell_angle_gamma   63.32307005
_symmetry_Int_Tables_number   1
_chemical_formula_structural   Zn2Mo2NO10
_chemical_formula_sum   'Zn2 Mo2 N1 O10'
_cell_volume   223.11483761
_cell_formula_units_Z   1
loop_
 _symmetry_equiv_pos_site_id
 _symmetry_equiv_pos_as_xyz
  1  'x, y, z'
loop_
 _atom_site_type_symbol
 _atom_site_label
 _atom_site_symmetry_multiplicity
 _atom_site_fract_x
 _atom_site_fract_y
 _atom_site_fract_z
 _atom_site_occupancy
  Zn  Zn0  1  0.00000000  0.50000000  0.00000000  1
  Zn  Zn1  1  0.50000000  0.00000000  0.00000000  1
  Mo  Mo2  1  0.08785800  0.08785800  0.72589700  1
  Mo  Mo3  1  0.91214200  0.91214200  0.27410300  1
  N  N4  1  0.50000000  0.50000000  0.50000000  1
  O  O5  1  0.20326000  0.73776600  0.81283000  1
  O  O6  1  0.22412100  0.22412100  0.82222900  1
  O  O7  1  0.73776600  0.20326000  0.81283000  1
  O  O8  1  0.79674000  0.26223400  0.18717000  1
  O  O9  1  0.77587900  0.77587900  0.17777100  1
  O  O10  1  0.26223400  0.79674000  0.18717000  1
  O  O11  1  0.29845800  0.29845800  0.11597500  1
  O  O12  1  0.70154200  0.70154200  0.88402500  1
  O  O13  1  0.17695800  0.17695800  0.47724900  1
  O  O14  1  0.82304200  0.82304200  0.52275100  1
