# generated using pymatgen
data_Yb3Ni7B2
_symmetry_space_group_name_H-M   'P 1'
_cell_length_a   5.06520423
_cell_length_b   5.06162530
_cell_length_c   7.09160300
_cell_angle_alpha   90.00000000
_cell_angle_beta   90.00000000
_cell_angle_gamma   59.87398581
_symmetry_Int_Tables_number   1
_chemical_formula_structural   Yb3Ni7B2
_chemical_formula_sum   'Yb3 Ni7 B2'
_cell_volume   157.25668983
_cell_formula_units_Z   1
loop_
 _symmetry_equiv_pos_site_id
 _symmetry_equiv_pos_as_xyz
  1  'x, y, z'
loop_
 _atom_site_type_symbol
 _atom_site_label
 _atom_site_symmetry_multiplicity
 _atom_site_fract_x
 _atom_site_fract_y
 _atom_site_fract_z
 _atom_site_occupancy
  Yb  Yb0  1  0.99995500  0.99973100  0.00000000  1
  Yb  Yb1  1  0.00001400  0.00009500  0.50000000  1
  Yb  Yb2  1  0.66675100  0.66708100  0.00000000  1
  Ni  Ni3  1  0.49612600  0.00745800  0.30626800  1
  Ni  Ni4  1  0.00742200  0.49606400  0.30624100  1
  Ni  Ni5  1  0.49629000  0.49614200  0.30630600  1
  Ni  Ni6  1  0.49612600  0.00745800  0.69373200  1
  Ni  Ni7  1  0.00742200  0.49606400  0.69375900  1
  Ni  Ni8  1  0.49629000  0.49614200  0.69369400  1
  Ni  Ni9  1  0.33338700  0.33345800  0.00000000  1
  B  B10  1  0.66663200  0.66660700  0.50000000  1
  B  B11  1  0.33338300  0.33370200  0.50000000  1
