# generated using pymatgen
data_Yb5(PrS4)3
_symmetry_space_group_name_H-M   'P 1'
_cell_length_a   4.17573400
_cell_length_b   10.95444900
_cell_length_c   11.47231831
_cell_angle_alpha   76.94398126
_cell_angle_beta   90.00000000
_cell_angle_gamma   90.00000000
_symmetry_Int_Tables_number   1
_chemical_formula_structural   Yb5(PrS4)3
_chemical_formula_sum   'Yb5 Pr3 S12'
_cell_volume   511.21105381
_cell_formula_units_Z   1
loop_
 _symmetry_equiv_pos_site_id
 _symmetry_equiv_pos_as_xyz
  1  'x, y, z'
loop_
 _atom_site_type_symbol
 _atom_site_label
 _atom_site_symmetry_multiplicity
 _atom_site_fract_x
 _atom_site_fract_y
 _atom_site_fract_z
 _atom_site_occupancy
  Yb  Yb0  1  0.00000000  0.94588300  0.65943500  1
  Yb  Yb1  1  0.50000000  0.05692400  0.34393500  1
  Yb  Yb2  1  0.00000000  0.67535300  0.41695900  1
  Yb  Yb3  1  0.50000000  0.32908800  0.57820400  1
  Yb  Yb4  1  0.50000000  0.82350000  0.03092900  1
  Pr  Pr5  1  0.00000000  0.53341100  0.81952300  1
  Pr  Pr6  1  0.50000000  0.47086400  0.17905600  1
  Pr  Pr7  1  0.00000000  0.16751800  0.96784900  1
  S  S8  1  0.00000000  0.61581900  0.04176800  1
  S  S9  1  0.50000000  0.38061400  0.95695600  1
  S  S10  1  0.00000000  0.26792000  0.26469200  1
  S  S11  1  0.50000000  0.73197400  0.73715700  1
  S  S12  1  0.00000000  0.39501900  0.37872700  1
  S  S13  1  0.50000000  0.60695900  0.62088400  1
  S  S14  1  0.00000000  0.94441500  0.89407800  1
  S  S15  1  0.50000000  0.04954100  0.10907900  1
  S  S16  1  0.00000000  0.90973400  0.43179200  1
  S  S17  1  0.50000000  0.09323200  0.57136900  1
  S  S18  1  0.00000000  0.31161900  0.72920000  1
  S  S19  1  0.50000000  0.69061200  0.26841000  1
