# generated using pymatgen
data_Yb3O7
_symmetry_space_group_name_H-M   'P 1'
_cell_length_a   4.02895100
_cell_length_b   11.64474000
_cell_length_c   11.95333391
_cell_angle_alpha   71.46145272
_cell_angle_beta   90.00000000
_cell_angle_gamma   90.00000000
_symmetry_Int_Tables_number   1
_chemical_formula_structural   Yb3O7
_chemical_formula_sum   'Yb6 O14'
_cell_volume   531.70353118
_cell_formula_units_Z   2
loop_
 _symmetry_equiv_pos_site_id
 _symmetry_equiv_pos_as_xyz
  1  'x, y, z'
loop_
 _atom_site_type_symbol
 _atom_site_label
 _atom_site_symmetry_multiplicity
 _atom_site_fract_x
 _atom_site_fract_y
 _atom_site_fract_z
 _atom_site_occupancy
  Yb  Yb0  1  0.75000000  0.08293300  0.10111600  1
  Yb  Yb1  1  0.25000000  0.91706700  0.89888400  1
  Yb  Yb2  1  0.25000000  0.06390600  0.36519600  1
  Yb  Yb3  1  0.75000000  0.63866700  0.93345400  1
  Yb  Yb4  1  0.75000000  0.93609400  0.63480400  1
  Yb  Yb5  1  0.25000000  0.36133300  0.06654600  1
  O  O6  1  0.75000000  0.00732400  0.30577000  1
  O  O7  1  0.25000000  0.70684500  0.98168700  1
  O  O8  1  0.25000000  0.99267600  0.69423000  1
  O  O9  1  0.75000000  0.29315500  0.01831300  1
  O  O10  1  0.25000000  0.27204500  0.27038800  1
  O  O11  1  0.75000000  0.72795500  0.72961200  1
  O  O12  1  0.25000000  0.15508800  0.16164700  1
  O  O13  1  0.75000000  0.84491200  0.83835300  1
  O  O14  1  0.75000000  0.08408200  0.44582400  1
  O  O15  1  0.25000000  0.55328900  0.91799600  1
  O  O16  1  0.25000000  0.91591800  0.55417600  1
  O  O17  1  0.75000000  0.44671100  0.08200400  1
  O  O18  1  0.75000000  0.01877000  0.94001600  1
  O  O19  1  0.25000000  0.98123000  0.05998400  1
