# generated using pymatgen
data_YTh
_symmetry_space_group_name_H-M   'P 1'
_cell_length_a   6.18229634
_cell_length_b   6.18229634
_cell_length_c   6.18229647
_cell_angle_alpha   33.48796480
_cell_angle_beta   33.48796480
_cell_angle_gamma   33.48796549
_symmetry_Int_Tables_number   1
_chemical_formula_structural   YTh
_chemical_formula_sum   'Y1 Th1'
_cell_volume   64.06874264
_cell_formula_units_Z   1
loop_
 _symmetry_equiv_pos_site_id
 _symmetry_equiv_pos_as_xyz
  1  'x, y, z'
loop_
 _atom_site_type_symbol
 _atom_site_label
 _atom_site_symmetry_multiplicity
 _atom_site_fract_x
 _atom_site_fract_y
 _atom_site_fract_z
 _atom_site_occupancy
  Y  Y0  1  0.50000000  0.50000000  0.50000000  1
  Th  Th1  1  0.00000000  0.00000000  0.00000000  1
