# generated using pymatgen
data_Zn2Bi6Ru8O27
_symmetry_space_group_name_H-M   'P 1'
_cell_length_a   7.27945504
_cell_length_b   10.31825898
_cell_length_c   7.27945504
_cell_angle_alpha   90.47005013
_cell_angle_beta   90.05619885
_cell_angle_gamma   89.52994987
_symmetry_Int_Tables_number   1
_chemical_formula_structural   Zn2Bi6Ru8O27
_chemical_formula_sum   'Zn2 Bi6 Ru8 O27'
_cell_volume   546.73232076
_cell_formula_units_Z   1
loop_
 _symmetry_equiv_pos_site_id
 _symmetry_equiv_pos_as_xyz
  1  'x, y, z'
loop_
 _atom_site_type_symbol
 _atom_site_label
 _atom_site_symmetry_multiplicity
 _atom_site_fract_x
 _atom_site_fract_y
 _atom_site_fract_z
 _atom_site_occupancy
  Zn  Zn0  1  0.80984400  0.24850900  0.75389100  1
  Zn  Zn1  1  0.00389100  0.00149100  0.55984400  1
  Bi  Bi2  1  0.24152700  0.76175700  0.25068200  1
  Bi  Bi3  1  0.76155300  0.24400800  0.26282200  1
  Bi  Bi4  1  0.24317700  0.75536600  0.74650100  1
  Bi  Bi5  1  0.50068200  0.48824300  0.99152700  1
  Bi  Bi6  1  0.99650100  0.49463400  0.99317700  1
  Bi  Bi7  1  0.51282200  0.00599200  0.51155300  1
  Ru  Ru8  1  0.25021600  0.24968200  0.24938900  1
  Ru  Ru9  1  0.74757600  0.74977100  0.74799800  1
  Ru  Ru10  1  0.74840500  0.75007700  0.25070500  1
  Ru  Ru11  1  0.25343300  0.25221600  0.74543000  1
  Ru  Ru12  1  0.49938900  0.00031800  0.00021600  1
  Ru  Ru13  1  0.99799800  0.50022900  0.49757600  1
  Ru  Ru14  1  0.99543000  0.99778400  0.00343300  1
  Ru  Ru15  1  0.50070500  0.49992300  0.49840500  1
  O  O16  1  0.24927800  0.91468800  0.99755000  1
  O  O17  1  0.75026800  0.41332400  0.49661000  1
  O  O18  1  0.24755000  0.33531200  0.99927800  1
  O  O19  1  0.74661000  0.83667600  0.50026800  1
  O  O20  1  0.55493000  0.62500000  0.30493000  1
  O  O21  1  0.03379100  0.12500000  0.78379100  1
  O  O22  1  0.95327300  0.62500000  0.70327300  1
  O  O23  1  0.44683500  0.12500000  0.19683500  1
  O  O24  1  0.55256100  0.62336300  0.70020400  1
  O  O25  1  0.04398900  0.13244400  0.18962600  1
  O  O26  1  0.95020400  0.62663700  0.30256100  1
  O  O27  1  0.43962600  0.11755600  0.79398900  1
  O  O28  1  0.74682900  0.06080800  0.01054800  1
  O  O29  1  0.24848500  0.57083500  0.49679000  1
  O  O30  1  0.74679000  0.67916500  0.99848500  1
  O  O31  1  0.26054800  0.18919200  0.49682900  1
  O  O32  1  0.44431500  0.38180300  0.70972800  1
  O  O33  1  0.95972800  0.86819700  0.19431600  1
  O  O34  1  0.03493600  0.37384100  0.28898800  1
  O  O35  1  0.53898800  0.87615900  0.78493600  1
  O  O36  1  0.45923300  0.37399700  0.28814700  1
  O  O37  1  0.95937200  0.87432800  0.78990300  1
  O  O38  1  0.03990300  0.37567200  0.70937200  1
  O  O39  1  0.53814700  0.87600300  0.20923300  1
  O  O40  1  0.75168500  0.34163500  0.99059500  1
  O  O41  1  0.24059500  0.90836500  0.50168500  1
  O  O42  1  0.24838100  0.62500000  0.99838100  1
