# generated using pymatgen
data_YMnAl
_symmetry_space_group_name_H-M   'P 1'
_cell_length_a   5.46269481
_cell_length_b   5.46269481
_cell_length_c   5.46269481
_cell_angle_alpha   119.56258101
_cell_angle_beta   119.04396810
_cell_angle_gamma   91.21163490
_symmetry_Int_Tables_number   1
_chemical_formula_structural   YMnAl
_chemical_formula_sum   'Y2 Mn2 Al2'
_cell_volume   116.45000957
_cell_formula_units_Z   2
loop_
 _symmetry_equiv_pos_site_id
 _symmetry_equiv_pos_as_xyz
  1  'x, y, z'
loop_
 _atom_site_type_symbol
 _atom_site_label
 _atom_site_symmetry_multiplicity
 _atom_site_fract_x
 _atom_site_fract_y
 _atom_site_fract_z
 _atom_site_occupancy
  Y  Y0  1  0.12899900  0.87899900  0.25000000  1
  Y  Y1  1  0.87100100  0.12100100  0.75000000  1
  Mn  Mn2  1  0.50000000  0.00000000  0.00000000  1
  Mn  Mn3  1  0.50000000  0.50000000  0.50000000  1
  Al  Al4  1  0.00000000  0.50000000  0.50000000  1
  Al  Al5  1  0.50000000  0.50000000  0.00000000  1
