# generated using pymatgen
data_YSc(BO3)2
_symmetry_space_group_name_H-M   'P 1'
_cell_length_a   6.07512331
_cell_length_b   6.07512331
_cell_length_c   6.07512402
_cell_angle_alpha   47.67570451
_cell_angle_beta   47.67570451
_cell_angle_gamma   47.67570248
_symmetry_Int_Tables_number   1
_chemical_formula_structural   YSc(BO3)2
_chemical_formula_sum   'Y1 Sc1 B2 O6'
_cell_volume   112.20291827
_cell_formula_units_Z   1
loop_
 _symmetry_equiv_pos_site_id
 _symmetry_equiv_pos_as_xyz
  1  'x, y, z'
loop_
 _atom_site_type_symbol
 _atom_site_label
 _atom_site_symmetry_multiplicity
 _atom_site_fract_x
 _atom_site_fract_y
 _atom_site_fract_z
 _atom_site_occupancy
  Y  Y0  1  0.50000000  0.50000000  0.50000000  1
  Sc  Sc1  1  0.00000000  0.00000000  0.00000000  1
  B  B2  1  0.74499300  0.74499300  0.74499300  1
  B  B3  1  0.25500700  0.25500700  0.25500700  1
  O  O4  1  0.01845300  0.45412000  0.76645700  1
  O  O5  1  0.45412000  0.76645700  0.01845300  1
  O  O6  1  0.76645700  0.01845300  0.45412000  1
  O  O7  1  0.54588000  0.23354300  0.98154700  1
  O  O8  1  0.23354300  0.98154700  0.54588000  1
  O  O9  1  0.98154700  0.54588000  0.23354300  1
