# generated using pymatgen
data_Yb3Y9Al20O48
_symmetry_space_group_name_H-M   'P 1'
_cell_length_a   10.49078544
_cell_length_b   10.49078544
_cell_length_c   12.10532223
_cell_angle_alpha   54.85019144
_cell_angle_beta   54.85019144
_cell_angle_gamma   70.58429682
_symmetry_Int_Tables_number   1
_chemical_formula_structural   Yb3Y9Al20O48
_chemical_formula_sum   'Yb3 Y9 Al20 O48'
_cell_volume   890.68943821
_cell_formula_units_Z   1
loop_
 _symmetry_equiv_pos_site_id
 _symmetry_equiv_pos_as_xyz
  1  'x, y, z'
loop_
 _atom_site_type_symbol
 _atom_site_label
 _atom_site_symmetry_multiplicity
 _atom_site_fract_x
 _atom_site_fract_y
 _atom_site_fract_z
 _atom_site_occupancy
  Yb  Yb0  1  0.75041400  0.74886600  0.37512700  1
  Yb  Yb1  1  0.25113400  0.24958600  0.62487300  1
  Yb  Yb2  1  0.62443000  0.37557000  0.50000000  1
  Y  Y3  1  0.87644100  0.12355900  0.00000000  1
  Y  Y4  1  0.62337900  0.12533800  0.37681700  1
  Y  Y5  1  0.87466200  0.37662100  0.62318300  1
  Y  Y6  1  0.24999400  0.25000500  0.12507000  1
  Y  Y7  1  0.74999500  0.75000600  0.87493000  1
  Y  Y8  1  0.37507600  0.62492400  0.00000000  1
  Y  Y9  1  0.12484500  0.87515500  0.50000000  1
  Y  Y10  1  0.37501900  0.87500100  0.12500500  1
  Y  Y11  1  0.12499900  0.62498100  0.87499500  1
  Al  Al12  1  0.75009800  0.74988700  0.12579900  1
  Al  Al13  1  0.25011300  0.24990200  0.87420100  1
  Al  Al14  1  0.87419800  0.12580200  0.50000000  1
  Al  Al15  1  0.62503000  0.37497000  0.00000000  1
  Al  Al16  1  0.37500700  0.87490300  0.62497400  1
  Al  Al17  1  0.12509700  0.62499300  0.37502600  1
  Al  Al18  1  0.24993500  0.25021700  0.37601700  1
  Al  Al19  1  0.74978300  0.75006500  0.62398300  1
  Al  Al20  1  0.12494500  0.87505500  0.00000000  1
  Al  Al21  1  0.37542000  0.62458000  0.50000000  1
  Al  Al22  1  0.62448800  0.12531500  0.87501900  1
  Al  Al23  1  0.87468500  0.37551200  0.12498100  1
  Al  Al24  1  0.50110100  0.49972100  0.74828400  1
  Al  Al25  1  0.99966600  0.99905300  0.24973900  1
  Al  Al26  1  0.50027900  0.49889900  0.25171600  1
  Al  Al27  1  0.00094700  0.00033400  0.75026100  1
  Al  Al28  1  0.99868600  0.50091100  0.25102800  1
  Al  Al29  1  0.49908900  0.00131400  0.74897200  1
  Al  Al30  1  0.50053900  0.99868000  0.25118000  1
  Al  Al31  1  0.00132000  0.49946100  0.74882000  1
  O  O32  1  0.80252100  0.59646100  0.26759200  1
  O  O33  1  0.70008600  0.90438200  0.16518000  1
  O  O34  1  0.40353900  0.19747900  0.73240800  1
  O  O35  1  0.09561800  0.29991400  0.83482000  1
  O  O36  1  0.68038300  0.11527600  0.54992500  1
  O  O37  1  0.88472400  0.31961700  0.45007500  1
  O  O38  1  0.61808200  0.17983700  0.15185800  1
  O  O39  1  0.82016300  0.38191800  0.84814200  1
  O  O40  1  0.51775300  0.92005300  0.42954200  1
  O  O41  1  0.42004300  0.01788100  0.63258300  1
  O  O42  1  0.98211900  0.57995700  0.36741700  1
  O  O43  1  0.07994700  0.48224700  0.57045800  1
  O  O44  1  0.19984400  0.40163100  0.23002000  1
  O  O45  1  0.30011500  0.09843400  0.33152600  1
  O  O46  1  0.59836900  0.80015600  0.76998000  1
  O  O47  1  0.90156600  0.69988500  0.66847400  1
  O  O48  1  0.32062300  0.88119000  0.94988100  1
  O  O49  1  0.11881000  0.67937700  0.05011900  1
  O  O50  1  0.38163900  0.82036000  0.34837200  1
  O  O51  1  0.17964000  0.61836100  0.65162800  1
  O  O52  1  0.48002200  0.08097600  0.07083200  1
  O  O53  1  0.58125900  0.98008700  0.86801000  1
  O  O54  1  0.01991300  0.41874100  0.13199000  1
  O  O55  1  0.91902400  0.51997800  0.92916800  1
  O  O56  1  0.47965200  0.41861800  0.94979200  1
  O  O57  1  0.58138200  0.52034800  0.05020800  1
  O  O58  1  0.01967800  0.08155400  0.34822500  1
  O  O59  1  0.91844600  0.98032200  0.65177500  1
  O  O60  1  0.19982300  0.09860200  0.07028000  1
  O  O61  1  0.29997300  0.40165900  0.86850300  1
  O  O62  1  0.59834100  0.70002700  0.13149700  1
  O  O63  1  0.90139800  0.80017700  0.92972000  1
  O  O64  1  0.32077800  0.61809700  0.23024700  1
  O  O65  1  0.11846300  0.82063900  0.33117900  1
  O  O66  1  0.38190300  0.67922200  0.76975300  1
  O  O67  1  0.17936100  0.88153700  0.66882100  1
  O  O68  1  0.51766300  0.58349100  0.55198600  1
  O  O69  1  0.41650900  0.48233700  0.44801400  1
  O  O70  1  0.98226900  0.92027000  0.15034700  1
  O  O71  1  0.07973000  0.01773100  0.84965300  1
  O  O72  1  0.79999000  0.90470100  0.43024900  1
  O  O73  1  0.69977500  0.59549400  0.63481900  1
  O  O74  1  0.40450600  0.30022500  0.36518100  1
  O  O75  1  0.09529900  0.20001000  0.56975100  1
  O  O76  1  0.67960700  0.38291900  0.26793400  1
  O  O77  1  0.88177500  0.18001400  0.16835700  1
  O  O78  1  0.61708100  0.32039300  0.73206600  1
  O  O79  1  0.81998600  0.11822500  0.83164300  1
