# generated using pymatgen
data_YThCo10
_symmetry_space_group_name_H-M   'P 1'
_cell_length_a   3.97744100
_cell_length_b   4.91351100
_cell_length_c   8.52516600
_cell_angle_alpha   90.00000000
_cell_angle_beta   90.00000000
_cell_angle_gamma   90.00000000
_symmetry_Int_Tables_number   1
_chemical_formula_structural   YThCo10
_chemical_formula_sum   'Y1 Th1 Co10'
_cell_volume   166.60902507
_cell_formula_units_Z   1
loop_
 _symmetry_equiv_pos_site_id
 _symmetry_equiv_pos_as_xyz
  1  'x, y, z'
loop_
 _atom_site_type_symbol
 _atom_site_label
 _atom_site_symmetry_multiplicity
 _atom_site_fract_x
 _atom_site_fract_y
 _atom_site_fract_z
 _atom_site_occupancy
  Y  Y0  1  0.00000000  0.50000000  0.50000000  1
  Th  Th1  1  0.00000000  0.00000000  0.00000000  1
  Co  Co2  1  0.00000000  0.00000000  0.33235900  1
  Co  Co3  1  0.00000000  0.50000000  0.83448100  1
  Co  Co4  1  0.00000000  0.50000000  0.16551900  1
  Co  Co5  1  0.00000000  0.00000000  0.66764100  1
  Co  Co6  1  0.50000000  0.00000000  0.50000000  1
  Co  Co7  1  0.50000000  0.50000000  0.00000000  1
  Co  Co8  1  0.50000000  0.25235300  0.25294900  1
  Co  Co9  1  0.50000000  0.74764700  0.74705100  1
  Co  Co10  1  0.50000000  0.74764700  0.25294900  1
  Co  Co11  1  0.50000000  0.25235300  0.74705100  1
