# generated using pymatgen
data_Yb4Mn3
_symmetry_space_group_name_H-M   'P 1'
_cell_length_a   12.39107772
_cell_length_b   12.39107772
_cell_length_c   4.16308800
_cell_angle_alpha   90.00000000
_cell_angle_beta   90.00000000
_cell_angle_gamma   119.99999848
_symmetry_Int_Tables_number   1
_chemical_formula_structural   Yb4Mn3
_chemical_formula_sum   'Yb12 Mn9'
_cell_volume   553.55960555
_cell_formula_units_Z   3
loop_
 _symmetry_equiv_pos_site_id
 _symmetry_equiv_pos_as_xyz
  1  'x, y, z'
loop_
 _atom_site_type_symbol
 _atom_site_label
 _atom_site_symmetry_multiplicity
 _atom_site_fract_x
 _atom_site_fract_y
 _atom_site_fract_z
 _atom_site_occupancy
  Yb  Yb0  1  0.51870200  0.37927500  0.25073300  1
  Yb  Yb1  1  0.86057300  0.48129800  0.25073300  1
  Yb  Yb2  1  0.62072500  0.13942700  0.25073300  1
  Yb  Yb3  1  0.48129800  0.62072500  0.74926700  1
  Yb  Yb4  1  0.13942700  0.51870200  0.74926700  1
  Yb  Yb5  1  0.37927500  0.86057300  0.74926700  1
  Yb  Yb6  1  0.98611300  0.23035200  0.24175000  1
  Yb  Yb7  1  0.24423900  0.01388700  0.24175000  1
  Yb  Yb8  1  0.76964800  0.75576100  0.24175000  1
  Yb  Yb9  1  0.01388700  0.76964800  0.75825000  1
  Yb  Yb10  1  0.75576100  0.98611300  0.75825000  1
  Yb  Yb11  1  0.23035200  0.24423900  0.75825000  1
  Mn  Mn12  1  0.33333300  0.66666700  0.24931900  1
  Mn  Mn13  1  0.66666700  0.33333300  0.75068100  1
  Mn  Mn14  1  0.16687900  0.71826400  0.25188400  1
  Mn  Mn15  1  0.55138500  0.83312100  0.25188400  1
  Mn  Mn16  1  0.28173600  0.44861500  0.25188400  1
  Mn  Mn17  1  0.83312100  0.28173600  0.74811600  1
  Mn  Mn18  1  0.44861500  0.16687900  0.74811600  1
  Mn  Mn19  1  0.71826400  0.55138500  0.74811600  1
  Mn  Mn20  1  0.00000000  0.00000000  0.50000000  1
