# generated using pymatgen
data_Yb(CuTe)3
_symmetry_space_group_name_H-M   'P 1'
_cell_length_a   8.44141110
_cell_length_b   8.44141110
_cell_length_c   8.44141145
_cell_angle_alpha   52.21638379
_cell_angle_beta   52.21638379
_cell_angle_gamma   52.21638079
_symmetry_Int_Tables_number   1
_chemical_formula_structural   Yb(CuTe)3
_chemical_formula_sum   'Yb2 Cu6 Te6'
_cell_volume   347.54753942
_cell_formula_units_Z   2
loop_
 _symmetry_equiv_pos_site_id
 _symmetry_equiv_pos_as_xyz
  1  'x, y, z'
loop_
 _atom_site_type_symbol
 _atom_site_label
 _atom_site_symmetry_multiplicity
 _atom_site_fract_x
 _atom_site_fract_y
 _atom_site_fract_z
 _atom_site_occupancy
  Yb  Yb0  1  0.66642200  0.66642200  0.66642200  1
  Yb  Yb1  1  0.33357800  0.33357800  0.33357800  1
  Cu  Cu2  1  0.87386400  0.53337300  0.21730800  1
  Cu  Cu3  1  0.53337300  0.21730800  0.87386400  1
  Cu  Cu4  1  0.21730800  0.87386400  0.53337300  1
  Cu  Cu5  1  0.78269200  0.12613600  0.46662700  1
  Cu  Cu6  1  0.46662700  0.78269200  0.12613600  1
  Cu  Cu7  1  0.12613600  0.46662700  0.78269200  1
  Te  Te8  1  0.08522700  0.76135700  0.41071100  1
  Te  Te9  1  0.41071100  0.08522700  0.76135700  1
  Te  Te10  1  0.76135700  0.41071100  0.08522700  1
  Te  Te11  1  0.23864300  0.58928900  0.91477300  1
  Te  Te12  1  0.58928900  0.91477300  0.23864300  1
  Te  Te13  1  0.91477300  0.23864300  0.58928900  1
