# generated using pymatgen
data_Zn4In2O7
_symmetry_space_group_name_H-M   'P 1'
_cell_length_a   3.43667624
_cell_length_b   3.43667624
_cell_length_c   33.59703200
_cell_angle_alpha   90.00000000
_cell_angle_beta   90.00000000
_cell_angle_gamma   120.00000466
_symmetry_Int_Tables_number   1
_chemical_formula_structural   Zn4In2O7
_chemical_formula_sum   'Zn8 In4 O14'
_cell_volume   343.64399998
_cell_formula_units_Z   2
loop_
 _symmetry_equiv_pos_site_id
 _symmetry_equiv_pos_as_xyz
  1  'x, y, z'
loop_
 _atom_site_type_symbol
 _atom_site_label
 _atom_site_symmetry_multiplicity
 _atom_site_fract_x
 _atom_site_fract_y
 _atom_site_fract_z
 _atom_site_occupancy
  Zn  Zn0  1  0.33333300  0.66666700  0.40949900  1
  Zn  Zn1  1  0.66666700  0.33333300  0.59050100  1
  Zn  Zn2  1  0.66666700  0.33333300  0.90949900  1
  Zn  Zn3  1  0.33333300  0.66666700  0.09050100  1
  Zn  Zn4  1  0.00000000  0.00000000  0.33340800  1
  Zn  Zn5  1  0.00000000  0.00000000  0.66659200  1
  Zn  Zn6  1  0.00000000  0.00000000  0.83340800  1
  Zn  Zn7  1  0.00000000  0.00000000  0.16659200  1
  In  In8  1  0.00000000  0.00000000  0.50000000  1
  In  In9  1  0.00000000  0.00000000  0.00000000  1
  In  In10  1  0.33333300  0.66666700  0.25000000  1
  In  In11  1  0.66666700  0.33333300  0.75000000  1
  O  O12  1  0.00000000  0.00000000  0.39274000  1
  O  O13  1  0.00000000  0.00000000  0.60726000  1
  O  O14  1  0.00000000  0.00000000  0.89274000  1
  O  O15  1  0.00000000  0.00000000  0.10726000  1
  O  O16  1  0.33333300  0.66666700  0.46864100  1
  O  O17  1  0.66666700  0.33333300  0.53135900  1
  O  O18  1  0.66666700  0.33333300  0.96864100  1
  O  O19  1  0.33333300  0.66666700  0.03135900  1
  O  O20  1  0.33333300  0.66666700  0.31612600  1
  O  O21  1  0.66666700  0.33333300  0.68387400  1
  O  O22  1  0.66666700  0.33333300  0.81612600  1
  O  O23  1  0.33333300  0.66666700  0.18387400  1
  O  O24  1  0.00000000  0.00000000  0.25000000  1
  O  O25  1  0.00000000  0.00000000  0.75000000  1
