# generated using pymatgen
data_Zn3Cu6Sn3(SeS2)4
_symmetry_space_group_name_H-M   'P 1'
_cell_length_a   5.55735686
_cell_length_b   5.55735686
_cell_length_c   17.16865069
_cell_angle_alpha   80.63937508
_cell_angle_beta   80.63937508
_cell_angle_gamma   89.55058728
_symmetry_Int_Tables_number   1
_chemical_formula_structural   Zn3Cu6Sn3(SeS2)4
_chemical_formula_sum   'Zn3 Cu6 Sn3 Se4 S8'
_cell_volume   516.11881192
_cell_formula_units_Z   1
loop_
 _symmetry_equiv_pos_site_id
 _symmetry_equiv_pos_as_xyz
  1  'x, y, z'
loop_
 _atom_site_type_symbol
 _atom_site_label
 _atom_site_symmetry_multiplicity
 _atom_site_fract_x
 _atom_site_fract_y
 _atom_site_fract_z
 _atom_site_occupancy
  Zn  Zn0  1  0.00827900  0.00827900  0.99813600  1
  Zn  Zn1  1  0.67083900  0.67083900  0.65938600  1
  Zn  Zn2  1  0.34320900  0.34320900  0.33008500  1
  Cu  Cu3  1  0.57898400  0.07812500  0.84182100  1
  Cu  Cu4  1  0.26158400  0.73598600  0.50247400  1
  Cu  Cu5  1  0.92792200  0.40068100  0.17041500  1
  Cu  Cu6  1  0.07812500  0.57898400  0.84182100  1
  Cu  Cu7  1  0.73598600  0.26158400  0.50247400  1
  Cu  Cu8  1  0.40068100  0.92792200  0.17041500  1
  Sn  Sn9  1  0.49511800  0.49511800  0.99991600  1
  Sn  Sn10  1  0.16865600  0.16865600  0.66185400  1
  Sn  Sn11  1  0.82807500  0.82807500  0.33152900  1
  Se  Se12  1  0.38203600  0.38203600  0.75487500  1
  Se  Se13  1  0.04764500  0.04764500  0.42184500  1
  Se  Se14  1  0.71362800  0.71362800  0.09040600  1
  Se  Se15  1  0.86128200  0.86128200  0.75527000  1
  S  S16  1  0.53123900  0.53123900  0.42036900  1
  S  S17  1  0.19736200  0.19736200  0.08766200  1
  S  S18  1  0.28659000  0.80007400  0.91200400  1
  S  S19  1  0.95718700  0.46909200  0.57418300  1
  S  S20  1  0.62177000  0.13481900  0.24343700  1
  S  S21  1  0.80007400  0.28659000  0.91200400  1
  S  S22  1  0.46909200  0.95718700  0.57418300  1
  S  S23  1  0.13481900  0.62177000  0.24343700  1
