# generated using pymatgen
data_ZnCr5GaSe10
_symmetry_space_group_name_H-M   'P 1'
_cell_length_a   7.49944516
_cell_length_b   27.02294024
_cell_length_c   7.49944516
_cell_angle_alpha   97.97614067
_cell_angle_beta   90.00000000
_cell_angle_gamma   82.02385933
_symmetry_Int_Tables_number   1
_chemical_formula_structural   ZnCr5GaSe10
_chemical_formula_sum   'Zn4 Cr20 Ga4 Se40'
_cell_volume   1490.26486867
_cell_formula_units_Z   4
loop_
 _symmetry_equiv_pos_site_id
 _symmetry_equiv_pos_as_xyz
  1  'x, y, z'
loop_
 _atom_site_type_symbol
 _atom_site_label
 _atom_site_symmetry_multiplicity
 _atom_site_fract_x
 _atom_site_fract_y
 _atom_site_fract_z
 _atom_site_occupancy
  Zn  Zn0  1  0.07500000  0.35000000  0.67500000  1
  Zn  Zn1  1  0.87493259  0.75013483  0.87506741  1
  Zn  Zn2  1  0.27506741  0.94986517  0.47493259  1
  Zn  Zn3  1  0.32500000  0.85000000  0.92500000  1
  Cr  Cr4  1  0.40079590  0.69840820  0.09431156  1
  Cr  Cr5  1  0.80023752  0.89952496  0.69938852  1
  Cr  Cr6  1  0.20071278  0.09857445  0.28736624  1
  Cr  Cr7  1  0.60103537  0.29792926  0.89374045  1
  Cr  Cr8  1  0.00068536  0.49862927  0.48750139  1
  Cr  Cr9  1  0.40079590  0.69840820  0.60409665  1
  Cr  Cr10  1  0.80023752  0.89952496  0.20013645  1
  Cr  Cr11  1  0.20071278  0.09857445  0.81120821  1
  Cr  Cr12  1  0.60103537  0.29792926  0.40418880  1
  Cr  Cr13  1  0.00068536  0.49862927  0.01112788  1
  Cr  Cr14  1  0.09938852  0.80047504  0.40023752  1
  Cr  Cr15  1  0.49431156  0.00159180  0.00079590  1
  Cr  Cr16  1  0.88750139  0.20137073  0.60068536  1
  Cr  Cr17  1  0.29374045  0.40207074  0.20103537  1
  Cr  Cr18  1  0.68736624  0.60142555  0.80071278  1
  Cr  Cr19  1  0.21120821  0.60142555  0.80071278  1
  Cr  Cr20  1  0.60013645  0.80047504  0.40023752  1
  Cr  Cr21  1  0.00409665  0.00159180  0.00079590  1
  Cr  Cr22  1  0.41112788  0.20137073  0.60068536  1
  Cr  Cr23  1  0.80418880  0.40207074  0.20103537  1
  Ga  Ga24  1  0.12555494  0.24889011  0.12444506  1
  Ga  Ga25  1  0.52444506  0.45110989  0.72555494  1
  Ga  Ga26  1  0.92558023  0.64883955  0.32441977  1
  Ga  Ga27  1  0.72441977  0.05116045  0.52558023  1
  Se  Se28  1  0.84790011  0.80419978  0.17287792  1
  Se  Se29  1  0.24806748  0.00386504  0.77246422  1
  Se  Se30  1  0.64785270  0.20429459  0.37212967  1
  Se  Se31  1  0.04803588  0.40392824  0.97232443  1
  Se  Se32  1  0.44782416  0.60435167  0.57214962  1
  Se  Se33  1  0.84790011  0.80419978  0.63132186  1
  Se  Se34  1  0.24806748  0.00386504  0.23140082  1
  Se  Se35  1  0.64785270  0.20429459  0.83216492  1
  Se  Se36  1  0.04803588  0.40392824  0.43160381  1
  Se  Se37  1  0.44782416  0.60435167  0.03220205  1
  Se  Se38  1  0.17246422  0.69613496  0.84806748  1
  Se  Se39  1  0.57287792  0.89580022  0.44790011  1
  Se  Se40  1  0.97214962  0.09564833  0.04782416  1
  Se  Se41  1  0.37232443  0.29607176  0.64803588  1
  Se  Se42  1  0.77212967  0.49570541  0.24785270  1
  Se  Se43  1  0.63140082  0.69613496  0.84806748  1
  Se  Se44  1  0.03132186  0.89580022  0.44790011  1
  Se  Se45  1  0.43220205  0.09564833  0.04782416  1
  Se  Se46  1  0.83160381  0.29607176  0.64803588  1
  Se  Se47  1  0.23216492  0.49570541  0.24785270  1
  Se  Se48  1  0.35209911  0.79580179  0.62638937  1
  Se  Se49  1  0.75198023  0.99603954  0.22769848  1
  Se  Se50  1  0.15212764  0.19574472  0.82748893  1
  Se  Se51  1  0.55198143  0.39603715  0.42729335  1
  Se  Se52  1  0.95210858  0.59578283  0.02766938  1
  Se  Se53  1  0.35209911  0.79580179  0.16941241  1
  Se  Se54  1  0.75198023  0.99603954  0.76834106  1
  Se  Se55  1  0.15212764  0.19574472  0.36825579  1
  Se  Se56  1  0.55198143  0.39603715  0.96874380  1
  Se  Se57  1  0.95210858  0.59578283  0.56811345  1
  Se  Se58  1  0.02638937  0.90419821  0.95209911  1
  Se  Se59  1  0.42766938  0.10421717  0.55210858  1
  Se  Se60  1  0.82729335  0.30396285  0.15198143  1
  Se  Se61  1  0.22748893  0.50425528  0.75212764  1
  Se  Se62  1  0.62769848  0.70396046  0.35198023  1
  Se  Se63  1  0.56941241  0.90419821  0.95209911  1
  Se  Se64  1  0.96811345  0.10421717  0.55210858  1
  Se  Se65  1  0.36874380  0.30396285  0.15198143  1
  Se  Se66  1  0.76825579  0.50425528  0.75212764  1
  Se  Se67  1  0.16834106  0.70396046  0.35198023  1
