# generated using pymatgen
data_YbEu(InCu4)2
_symmetry_space_group_name_H-M   'P 1'
_cell_length_a   5.13327845
_cell_length_b   5.13327845
_cell_length_c   8.84097335
_cell_angle_alpha   73.12337855
_cell_angle_beta   90.00000000
_cell_angle_gamma   120.00000000
_symmetry_Int_Tables_number   1
_chemical_formula_structural   YbEu(InCu4)2
_chemical_formula_sum   'Yb1 Eu1 In2 Cu8'
_cell_volume   190.07947763
_cell_formula_units_Z   1
loop_
 _symmetry_equiv_pos_site_id
 _symmetry_equiv_pos_as_xyz
  1  'x, y, z'
loop_
 _atom_site_type_symbol
 _atom_site_label
 _atom_site_symmetry_multiplicity
 _atom_site_fract_x
 _atom_site_fract_y
 _atom_site_fract_z
 _atom_site_occupancy
  Yb  Yb0  1  0.37476100  0.74952200  0.87571700  1
  Eu  Eu1  1  0.87540800  0.75081500  0.37377700  1
  In  In2  1  0.00168900  0.00337800  0.99493200  1
  In  In3  1  0.49827100  0.99654100  0.50518800  1
  Cu  Cu4  1  0.43917100  0.37911100  0.18171800  1
  Cu  Cu5  1  0.93741600  0.37012700  0.69245700  1
  Cu  Cu6  1  0.43917100  0.87834200  0.18171800  1
  Cu  Cu7  1  0.93741600  0.87483300  0.69245700  1
  Cu  Cu8  1  0.18661600  0.37323100  0.44015300  1
  Cu  Cu9  1  0.68743100  0.37486100  0.93770800  1
  Cu  Cu10  1  0.93994000  0.37911100  0.18171800  1
  Cu  Cu11  1  0.43271000  0.37012700  0.69245700  1
