# generated using pymatgen
data_Zr2Ti3(PbO3)5
_symmetry_space_group_name_H-M   'P 1'
_cell_length_a   4.01868900
_cell_length_b   4.48972100
_cell_length_c   19.87734200
_cell_angle_alpha   90.00000000
_cell_angle_beta   90.00000000
_cell_angle_gamma   90.00000000
_symmetry_Int_Tables_number   1
_chemical_formula_structural   Zr2Ti3(PbO3)5
_chemical_formula_sum   'Zr2 Ti3 Pb5 O15'
_cell_volume   358.64275509
_cell_formula_units_Z   1
loop_
 _symmetry_equiv_pos_site_id
 _symmetry_equiv_pos_as_xyz
  1  'x, y, z'
loop_
 _atom_site_type_symbol
 _atom_site_label
 _atom_site_symmetry_multiplicity
 _atom_site_fract_x
 _atom_site_fract_y
 _atom_site_fract_z
 _atom_site_occupancy
  Zr  Zr0  1  0.50000000  0.47952100  0.10523100  1
  Zr  Zr1  1  0.50000000  0.47952100  0.89476900  1
  Ti  Ti2  1  0.50000000  0.48664700  0.30659200  1
  Ti  Ti3  1  0.50000000  0.48616800  0.50000000  1
  Ti  Ti4  1  0.50000000  0.48664700  0.69340800  1
  Pb  Pb5  1  0.00000000  0.04020400  0.00000000  1
  Pb  Pb6  1  0.00000000  0.04089800  0.20937300  1
  Pb  Pb7  1  0.00000000  0.04547400  0.40349800  1
  Pb  Pb8  1  0.00000000  0.04547400  0.59650200  1
  Pb  Pb9  1  0.00000000  0.04089800  0.79062700  1
  O  O10  1  0.50000000  0.91863600  0.10494200  1
  O  O11  1  0.50000000  0.87652200  0.30575900  1
  O  O12  1  0.50000000  0.87526000  0.50000000  1
  O  O13  1  0.50000000  0.87652200  0.69424100  1
  O  O14  1  0.50000000  0.91863600  0.89505800  1
  O  O15  1  0.00000000  0.37240000  0.10581700  1
  O  O16  1  0.00000000  0.39366300  0.30716300  1
  O  O17  1  0.00000000  0.39255800  0.50000000  1
  O  O18  1  0.00000000  0.39366300  0.69283700  1
  O  O19  1  0.00000000  0.37240000  0.89418300  1
  O  O20  1  0.50000000  0.39081800  0.00000000  1
  O  O21  1  0.50000000  0.38238700  0.21112400  1
  O  O22  1  0.50000000  0.38070300  0.40376600  1
  O  O23  1  0.50000000  0.38070300  0.59623400  1
  O  O24  1  0.50000000  0.38238700  0.78887600  1
