# generated using pymatgen
data_Zn5Cr20(GaSe10)4
_symmetry_space_group_name_H-M   'P 1'
_cell_length_a   13.02293242
_cell_length_b   13.02293242
_cell_length_c   13.02293242
_cell_angle_alpha   99.59818954
_cell_angle_beta   99.59818954
_cell_angle_gamma   131.79941191
_symmetry_Int_Tables_number   1
_chemical_formula_structural   Zn5Cr20(GaSe10)4
_chemical_formula_sum   'Zn5 Cr20 Ga4 Se40'
_cell_volume   1502.98590392
_cell_formula_units_Z   1
loop_
 _symmetry_equiv_pos_site_id
 _symmetry_equiv_pos_as_xyz
  1  'x, y, z'
loop_
 _atom_site_type_symbol
 _atom_site_label
 _atom_site_symmetry_multiplicity
 _atom_site_fract_x
 _atom_site_fract_y
 _atom_site_fract_z
 _atom_site_occupancy
  Zn  Zn0  1  0.90028700  0.70016000  0.60002800  1
  Zn  Zn1  1  0.29984000  0.89986800  0.20012700  1
  Zn  Zn2  1  0.69974100  0.09971300  0.79987300  1
  Zn  Zn3  1  0.10013200  0.30025900  0.39997200  1
  Zn  Zn4  1  0.25000000  0.75000000  0.50000000  1
  Cr  Cr5  1  0.17564400  0.52300000  0.95408100  1
  Cr  Cr6  1  0.57440000  0.72458700  0.55110000  1
  Cr  Cr7  1  0.97221900  0.92113000  0.15302300  1
  Cr  Cr8  1  0.37480800  0.12447300  0.75386700  1
  Cr  Cr9  1  0.77559800  0.32499900  0.35151900  1
  Cr  Cr10  1  0.97670000  0.42560000  0.15018700  1
  Cr  Cr11  1  0.37905900  0.62519200  0.74966500  1
  Cr  Cr12  1  0.77843700  0.82435600  0.34735600  1
  Cr  Cr13  1  0.18080500  0.02778100  0.94891100  1
  Cr  Cr14  1  0.57592100  0.22440200  0.54940000  1
  Cr  Cr15  1  0.07887000  0.23189300  0.05108900  1
  Cr  Cr16  1  0.47700000  0.43108100  0.65264400  1
  Cr  Cr17  1  0.87552700  0.62939400  0.25033500  1
  Cr  Cr18  1  0.27541300  0.82651300  0.84981300  1
  Cr  Cr19  1  0.67500100  0.02652100  0.45059900  1
  Cr  Cr20  1  0.37060600  0.62094100  0.24613300  1
  Cr  Cr21  1  0.76810700  0.81919500  0.84697700  1
  Cr  Cr22  1  0.17348700  0.02330000  0.44890000  1
  Cr  Cr23  1  0.56891900  0.22156300  0.04591900  1
  Cr  Cr24  1  0.97347900  0.42407900  0.64848100  1
  Ga  Ga25  1  0.84947700  0.55041600  0.90013700  1
  Ga  Ga26  1  0.65027900  0.94934000  0.09986300  1
  Ga  Ga27  1  0.05066000  0.15052300  0.70093900  1
  Ga  Ga28  1  0.44958400  0.34972100  0.29906100  1
  Se  Se29  1  0.62289400  0.86830500  0.26272700  1
  Se  Se30  1  0.02344200  0.06901500  0.86316000  1
  Se  Se31  1  0.42294400  0.26870100  0.46252100  1
  Se  Se32  1  0.82238900  0.46832700  0.06261400  1
  Se  Se33  1  0.22260500  0.66854800  0.66293400  1
  Se  Se34  1  0.44032800  0.77739500  0.44594200  1
  Se  Se35  1  0.83971800  0.97655800  0.04557300  1
  Se  Se36  1  0.24022500  0.17761100  0.64593700  1
  Se  Se37  1  0.63983300  0.37710600  0.24541200  1
  Se  Se38  1  0.03957700  0.57705600  0.84575600  1
  Se  Se39  1  0.53167300  0.59428800  0.35406300  1
  Se  Se40  1  0.93098500  0.79414500  0.95442700  1
  Se  Se41  1  0.33145200  0.99438600  0.55405800  1
  Se  Se42  1  0.73129900  0.19382100  0.15424400  1
  Se  Se43  1  0.13169500  0.39442100  0.75458800  1
  Se  Se44  1  0.80617900  0.96042300  0.53747900  1
  Se  Se45  1  0.20585500  0.16028200  0.13684000  1
  Se  Se46  1  0.60557900  0.36016700  0.73727300  1
  Se  Se47  1  0.00561400  0.55967200  0.33706600  1
  Se  Se48  1  0.40571200  0.75977500  0.93738600  1
  Se  Se49  1  0.12697800  0.38128400  0.23782300  1
  Se  Se50  1  0.52706800  0.58121900  0.83735700  1
  Se  Se51  1  0.92751600  0.78137200  0.43796100  1
  Se  Se52  1  0.32697900  0.98085500  0.03777700  1
  Se  Se53  1  0.72696200  0.18120100  0.63760400  1
  Se  Se54  1  0.31028900  0.47293200  0.05415100  1
  Se  Se55  1  0.71079700  0.67302100  0.65387500  1
  Se  Se56  1  0.11084500  0.87302200  0.25430600  1
  Se  Se57  1  0.51044500  0.07248400  0.85385700  1
  Se  Se58  1  0.91064200  0.27303800  0.45423900  1
  Se  Se59  1  0.21862800  0.65658900  0.14614300  1
  Se  Se60  1  0.61871600  0.85654000  0.74569400  1
  Se  Se61  1  0.01914500  0.05692200  0.34612500  1
  Se  Se62  1  0.41878100  0.25613800  0.94584900  1
  Se  Se63  1  0.81879900  0.45640300  0.54576100  1
  Se  Se64  1  0.94307800  0.28920300  0.96222300  1
  Se  Se65  1  0.34341100  0.48955500  0.56203900  1
  Se  Se66  1  0.74386200  0.68971100  0.16264300  1
  Se  Se67  1  0.14346000  0.88915500  0.76217700  1
  Se  Se68  1  0.54359700  0.08935800  0.36239600  1
