# generated using pymatgen
data_Y4TiSn3O14
_symmetry_space_group_name_H-M   'P 1'
_cell_length_a   7.39578420
_cell_length_b   7.39578420
_cell_length_c   7.39578412
_cell_angle_alpha   59.66842964
_cell_angle_beta   59.66842964
_cell_angle_gamma   59.66843002
_symmetry_Int_Tables_number   1
_chemical_formula_structural   Y4TiSn3O14
_chemical_formula_sum   'Y4 Ti1 Sn3 O14'
_cell_volume   283.89238557
_cell_formula_units_Z   1
loop_
 _symmetry_equiv_pos_site_id
 _symmetry_equiv_pos_as_xyz
  1  'x, y, z'
loop_
 _atom_site_type_symbol
 _atom_site_label
 _atom_site_symmetry_multiplicity
 _atom_site_fract_x
 _atom_site_fract_y
 _atom_site_fract_z
 _atom_site_occupancy
  Y  Y0  1  0.50000000  0.50000000  0.50000000  1
  Y  Y1  1  0.50000000  0.00000000  0.50000000  1
  Y  Y2  1  0.00000000  0.50000000  0.50000000  1
  Y  Y3  1  0.50000000  0.50000000  0.00000000  1
  Ti  Ti4  1  0.00000000  0.00000000  0.00000000  1
  Sn  Sn5  1  0.00000000  0.50000000  0.00000000  1
  Sn  Sn6  1  0.50000000  0.00000000  0.00000000  1
  Sn  Sn7  1  0.00000000  0.00000000  0.50000000  1
  O  O8  1  0.91950900  0.91950900  0.32439700  1
  O  O9  1  0.32439700  0.91950900  0.91950900  1
  O  O10  1  0.91950900  0.32439700  0.91950900  1
  O  O11  1  0.34203300  0.34203300  0.91178300  1
  O  O12  1  0.91178300  0.34203300  0.34203300  1
  O  O13  1  0.34203300  0.91178300  0.34203300  1
  O  O14  1  0.08049100  0.08049100  0.67560300  1
  O  O15  1  0.67560300  0.08049100  0.08049100  1
  O  O16  1  0.08049100  0.67560300  0.08049100  1
  O  O17  1  0.65796700  0.65796700  0.08821700  1
  O  O18  1  0.08821700  0.65796700  0.65796700  1
  O  O19  1  0.65796700  0.08821700  0.65796700  1
  O  O20  1  0.62592900  0.62592900  0.62592900  1
  O  O21  1  0.37407100  0.37407100  0.37407100  1
