# generated using pymatgen
data_Yb2Ti12(CuO4)9
_symmetry_space_group_name_H-M   'P 1'
_cell_length_a   6.44411928
_cell_length_b   10.50405568
_cell_length_c   10.50405568
_cell_angle_alpha   120.00000000
_cell_angle_beta   90.00000000
_cell_angle_gamma   90.00000000
_symmetry_Int_Tables_number   1
_chemical_formula_structural   Yb2Ti12(CuO4)9
_chemical_formula_sum   'Yb2 Ti12 Cu9 O36'
_cell_volume   615.75540458
_cell_formula_units_Z   1
loop_
 _symmetry_equiv_pos_site_id
 _symmetry_equiv_pos_as_xyz
  1  'x, y, z'
loop_
 _atom_site_type_symbol
 _atom_site_label
 _atom_site_symmetry_multiplicity
 _atom_site_fract_x
 _atom_site_fract_y
 _atom_site_fract_z
 _atom_site_occupancy
  Yb  Yb0  1  0.00120200  0.00000000  0.00000000  1
  Yb  Yb1  1  0.66546500  0.66666700  0.33333300  1
  Ti  Ti2  1  0.16986100  0.65596900  0.82627900  1
  Ti  Ti3  1  0.83333300  0.33333300  0.16666700  1
  Ti  Ti4  1  0.49680600  0.01069800  0.50705400  1
  Ti  Ti5  1  0.83333300  0.33333300  0.66666700  1
  Ti  Ti6  1  0.49247900  0.00000000  0.00000000  1
  Ti  Ti7  1  0.17418800  0.66666700  0.33333300  1
  Ti  Ti8  1  0.16986100  0.17031100  0.34403100  1
  Ti  Ti9  1  0.83333300  0.83333300  0.66666700  1
  Ti  Ti10  1  0.49680600  0.49635600  0.98930200  1
  Ti  Ti11  1  0.49680600  0.49294600  0.50364400  1
  Ti  Ti12  1  0.16986100  0.17372100  0.82968900  1
  Ti  Ti13  1  0.83333300  0.83333300  0.16666700  1
  Cu  Cu14  1  0.67179400  0.67055700  0.83519300  1
  Cu  Cu15  1  0.33333300  0.33333300  0.16666700  1
  Cu  Cu16  1  0.99487300  0.99611000  0.49814000  1
  Cu  Cu17  1  0.99487300  0.50186000  0.49797000  1
  Cu  Cu18  1  0.67179400  0.16480700  0.83536300  1
  Cu  Cu19  1  0.33333300  0.83333300  0.16666700  1
  Cu  Cu20  1  0.67179400  0.16463700  0.32944300  1
  Cu  Cu21  1  0.33333300  0.83333300  0.66666700  1
  Cu  Cu22  1  0.99487300  0.50203000  0.00389000  1
  O  O23  1  0.24222000  0.06366200  0.62127600  1
  O  O24  1  0.91715500  0.74123000  0.95792200  1
  O  O25  1  0.58058500  0.40603200  0.29087400  1
  O  O26  1  0.34772600  0.52287800  0.17431500  1
  O  O27  1  0.00337100  0.18318500  0.50185800  1
  O  O28  1  0.68398400  0.85750200  0.84165900  1
  O  O29  1  0.98268300  0.80916500  0.49167400  1
  O  O30  1  0.66329500  0.48348100  0.83147600  1
  O  O31  1  0.31894100  0.14378900  0.15901800  1
  O  O32  1  0.08608100  0.26063400  0.04246000  1
  O  O33  1  0.74951200  0.92543700  0.37541100  1
  O  O34  1  0.42444700  0.60300500  0.71205700  1
  O  O35  1  0.42444700  0.28794300  0.89094700  1
  O  O36  1  0.08608100  0.95754000  0.21817500  1
  O  O37  1  0.74951200  0.62458900  0.55002600  1
  O  O38  1  0.66329500  0.16852400  0.65200600  1
  O  O39  1  0.31894100  0.84098200  0.98477200  1
  O  O40  1  0.98268300  0.50832600  0.31749000  1
  O  O41  1  0.68398400  0.15834100  0.01584300  1
  O  O42  1  0.34772600  0.82568500  0.34856100  1
  O  O43  1  0.00337100  0.49814200  0.68132800  1
  O  O44  1  0.91715500  0.04207800  0.78330700  1
  O  O45  1  0.58058500  0.70912600  0.11515900  1
  O  O46  1  0.24222000  0.37872400  0.44238600  1
  O  O47  1  0.00337100  0.31867200  0.81681500  1
  O  O48  1  0.68398400  0.98415700  0.14249800  1
  O  O49  1  0.34772600  0.65143900  0.47712200  1
  O  O50  1  0.58058500  0.88484100  0.59396800  1
  O  O51  1  0.24222000  0.55761400  0.93633800  1
  O  O52  1  0.91715500  0.21669300  0.25877000  1
  O  O53  1  0.74951200  0.44997400  0.07456300  1
  O  O54  1  0.42444700  0.10905300  0.39699500  1
  O  O55  1  0.08608100  0.78182500  0.73936600  1
  O  O56  1  0.31894100  0.01522800  0.85621100  1
  O  O57  1  0.98268300  0.68251000  0.19083500  1
  O  O58  1  0.66329500  0.34799400  0.51651900  1
