# generated using pymatgen
data_Y2MnS4
_symmetry_space_group_name_H-M   'P 1'
_cell_length_a   6.48459529
_cell_length_b   6.48459529
_cell_length_c   12.90528300
_cell_angle_alpha   90.00000000
_cell_angle_beta   90.00000000
_cell_angle_gamma   145.94459983
_symmetry_Int_Tables_number   1
_chemical_formula_structural   Y2MnS4
_chemical_formula_sum   'Y4 Mn2 S8'
_cell_volume   303.89031164
_cell_formula_units_Z   2
loop_
 _symmetry_equiv_pos_site_id
 _symmetry_equiv_pos_as_xyz
  1  'x, y, z'
loop_
 _atom_site_type_symbol
 _atom_site_label
 _atom_site_symmetry_multiplicity
 _atom_site_fract_x
 _atom_site_fract_y
 _atom_site_fract_z
 _atom_site_occupancy
  Y  Y0  1  0.38130100  0.61869900  0.78456700  1
  Y  Y1  1  0.61869900  0.38130100  0.28456700  1
  Y  Y2  1  0.13740100  0.86259900  0.58195500  1
  Y  Y3  1  0.86259900  0.13740100  0.08195500  1
  Mn  Mn4  1  0.12654800  0.87345200  0.94574400  1
  Mn  Mn5  1  0.87345200  0.12654800  0.44574400  1
  S  S6  1  0.79071500  0.20928500  0.63444700  1
  S  S7  1  0.20928500  0.79071500  0.13444700  1
  S  S8  1  0.49026900  0.50973100  0.99587400  1
  S  S9  1  0.50973100  0.49026900  0.49587400  1
  S  S10  1  0.76006900  0.23993100  0.89553200  1
  S  S11  1  0.23993100  0.76006900  0.39553200  1
  S  S12  1  0.03842500  0.96157500  0.76988000  1
  S  S13  1  0.96157500  0.03842500  0.26988000  1
