# generated using pymatgen
data_Y4MgS7
_symmetry_space_group_name_H-M   'P 1'
_cell_length_a   6.59003545
_cell_length_b   6.59003545
_cell_length_c   11.49926971
_cell_angle_alpha   75.75579041
_cell_angle_beta   75.75579041
_cell_angle_gamma   33.61253710
_symmetry_Int_Tables_number   1
_chemical_formula_structural   Y4MgS7
_chemical_formula_sum   'Y4 Mg1 S7'
_cell_volume   267.16483100
_cell_formula_units_Z   1
loop_
 _symmetry_equiv_pos_site_id
 _symmetry_equiv_pos_as_xyz
  1  'x, y, z'
loop_
 _atom_site_type_symbol
 _atom_site_label
 _atom_site_symmetry_multiplicity
 _atom_site_fract_x
 _atom_site_fract_y
 _atom_site_fract_z
 _atom_site_occupancy
  Y  Y0  1  0.69243200  0.69243200  0.20433100  1
  Y  Y1  1  0.30674700  0.30674700  0.80168900  1
  Y  Y2  1  0.99979300  0.99979300  0.00527200  1
  Y  Y3  1  0.11359700  0.11359700  0.56793800  1
  Mg  Mg4  1  0.88563900  0.88563900  0.42161000  1
  S  S5  1  0.74370200  0.74370200  0.64048300  1
  S  S6  1  0.26713600  0.26713600  0.35285700  1
  S  S7  1  0.33888000  0.33888000  0.05070300  1
  S  S8  1  0.65983900  0.65983900  0.94846400  1
  S  S9  1  0.03526400  0.03526400  0.22397300  1
  S  S10  1  0.96231900  0.96231900  0.78487400  1
  S  S11  1  0.49465000  0.49465000  0.49780600  1
