# generated using pymatgen
data_Y4Ti2Nb2O15
_symmetry_space_group_name_H-M   'P 1'
_cell_length_a   7.29192297
_cell_length_b   7.29192297
_cell_length_c   7.29192297
_cell_angle_alpha   120.51523144
_cell_angle_beta   119.51589980
_cell_angle_gamma   89.97522143
_symmetry_Int_Tables_number   1
_chemical_formula_structural   Y4Ti2Nb2O15
_chemical_formula_sum   'Y4 Ti2 Nb2 O15'
_cell_volume   274.07389631
_cell_formula_units_Z   1
loop_
 _symmetry_equiv_pos_site_id
 _symmetry_equiv_pos_as_xyz
  1  'x, y, z'
loop_
 _atom_site_type_symbol
 _atom_site_label
 _atom_site_symmetry_multiplicity
 _atom_site_fract_x
 _atom_site_fract_y
 _atom_site_fract_z
 _atom_site_occupancy
  Y  Y0  1  0.25428500  0.50165300  0.24736800  1
  Y  Y1  1  0.25428500  0.00691700  0.75263200  1
  Y  Y2  1  0.25551800  0.49921900  0.75629900  1
  Y  Y3  1  0.74292100  0.49921900  0.24370100  1
  Ti  Ti4  1  0.75831500  0.99672500  0.23841100  1
  Ti  Ti5  1  0.75831500  0.51990400  0.76158900  1
  Nb  Nb6  1  0.75833900  0.99471800  0.76362100  1
  Nb  Nb7  1  0.23109600  0.99471800  0.23637900  1
  O  O8  1  0.12418000  0.62418000  0.50000000  1
  O  O9  1  0.37702000  0.37702000  0.00000000  1
  O  O10  1  0.11037000  0.11037000  0.00000000  1
  O  O11  1  0.64871300  0.64871300  0.00000000  1
  O  O12  1  0.10198800  0.64037900  0.99967600  1
  O  O13  1  0.64070300  0.10231100  0.00032400  1
  O  O14  1  0.10198800  0.10231100  0.46160900  1
  O  O15  1  0.64070300  0.64037900  0.53839100  1
  O  O16  1  0.42315100  0.92315100  0.50000000  1
  O  O17  1  0.82125500  0.32125500  0.50000000  1
  O  O18  1  0.42472800  0.32273300  0.50142600  1
  O  O19  1  0.82130800  0.92330300  0.49857400  1
  O  O20  1  0.42472800  0.92330300  0.10199500  1
  O  O21  1  0.82130800  0.32273300  0.89800500  1
  O  O22  1  0.87978400  0.87978400  0.00000000  1
