# generated using pymatgen
data_Y4Ti3SnO14
_symmetry_space_group_name_H-M   'P 1'
_cell_length_a   7.26399044
_cell_length_b   7.26399044
_cell_length_c   7.26399010
_cell_angle_alpha   59.96005650
_cell_angle_beta   59.96005650
_cell_angle_gamma   59.96005290
_symmetry_Int_Tables_number   1
_chemical_formula_structural   Y4Ti3SnO14
_chemical_formula_sum   'Y4 Ti3 Sn1 O14'
_cell_volume   270.78037143
_cell_formula_units_Z   1
loop_
 _symmetry_equiv_pos_site_id
 _symmetry_equiv_pos_as_xyz
  1  'x, y, z'
loop_
 _atom_site_type_symbol
 _atom_site_label
 _atom_site_symmetry_multiplicity
 _atom_site_fract_x
 _atom_site_fract_y
 _atom_site_fract_z
 _atom_site_occupancy
  Y  Y0  1  0.50000000  0.50000000  0.50000000  1
  Y  Y1  1  0.50000000  0.00000000  0.50000000  1
  Y  Y2  1  0.00000000  0.50000000  0.50000000  1
  Y  Y3  1  0.50000000  0.50000000  0.00000000  1
  Ti  Ti4  1  0.00000000  0.50000000  0.00000000  1
  Ti  Ti5  1  0.50000000  0.00000000  0.00000000  1
  Ti  Ti6  1  0.00000000  0.00000000  0.50000000  1
  Sn  Sn7  1  0.00000000  0.00000000  0.00000000  1
  O  O8  1  0.62401700  0.62401700  0.62401700  1
  O  O9  1  0.37598300  0.37598300  0.37598300  1
  O  O10  1  0.91163400  0.91163400  0.34462200  1
  O  O11  1  0.34462200  0.91163400  0.91163400  1
  O  O12  1  0.91163400  0.34462200  0.91163400  1
  O  O13  1  0.32471700  0.32471700  0.91956200  1
  O  O14  1  0.91956200  0.32471700  0.32471700  1
  O  O15  1  0.32471700  0.91956200  0.32471700  1
  O  O16  1  0.08836600  0.08836600  0.65537800  1
  O  O17  1  0.65537800  0.08836600  0.08836600  1
  O  O18  1  0.08836600  0.65537800  0.08836600  1
  O  O19  1  0.67528300  0.67528300  0.08043800  1
  O  O20  1  0.08043800  0.67528300  0.67528300  1
  O  O21  1  0.67528300  0.08043800  0.67528300  1
