# generated using pymatgen
data_YFe6Bi(BO3)8
_symmetry_space_group_name_H-M   'P 1'
_cell_length_a   9.66415400
_cell_length_b   6.13398400
_cell_length_c   7.56771335
_cell_angle_alpha   67.26021019
_cell_angle_beta   90.00000000
_cell_angle_gamma   90.00000000
_symmetry_Int_Tables_number   1
_chemical_formula_structural   YFe6Bi(BO3)8
_chemical_formula_sum   'Y1 Fe6 Bi1 B8 O24'
_cell_volume   413.74158559
_cell_formula_units_Z   1
loop_
 _symmetry_equiv_pos_site_id
 _symmetry_equiv_pos_as_xyz
  1  'x, y, z'
loop_
 _atom_site_type_symbol
 _atom_site_label
 _atom_site_symmetry_multiplicity
 _atom_site_fract_x
 _atom_site_fract_y
 _atom_site_fract_z
 _atom_site_occupancy
  Y  Y0  1  0.99894600  0.00000000  0.00000000  1
  Fe  Fe1  1  0.27522800  0.55381800  0.27539800  1
  Fe  Fe2  1  0.77667800  0.54997100  0.77810000  1
  Fe  Fe3  1  0.27522800  0.44618200  0.72460200  1
  Fe  Fe4  1  0.77667800  0.45002900  0.22190000  1
  Fe  Fe5  1  0.94791500  0.00000000  0.50000000  1
  Fe  Fe6  1  0.44723300  0.00000000  0.00000000  1
  Bi  Bi7  1  0.49934700  0.00000000  0.50000000  1
  B  B8  1  0.00022400  0.50000000  0.50000000  1
  B  B9  1  0.49950500  0.50000000  0.00000000  1
  B  B10  1  0.22075500  0.94605800  0.72549000  1
  B  B11  1  0.72502700  0.94738200  0.22027600  1
  B  B12  1  0.22075500  0.05394200  0.27451000  1
  B  B13  1  0.72502700  0.05261800  0.77972400  1
  B  B14  1  0.55400700  0.50000000  0.50000000  1
  B  B15  1  0.05449900  0.50000000  0.00000000  1
  O  O16  1  0.92925700  0.35750300  0.42626700  1
  O  O17  1  0.42774500  0.35663600  0.92783700  1
  O  O18  1  0.92925700  0.64249700  0.57373300  1
  O  O19  1  0.42774500  0.64336400  0.07216300  1
  O  O20  1  0.14376700  0.50000000  0.50000000  1
  O  O21  1  0.64311600  0.50000000  0.00000000  1
  O  O22  1  0.07889500  0.97371600  0.71400600  1
  O  O23  1  0.58245400  0.96517500  0.20762100  1
  O  O24  1  0.29421400  0.21202000  0.32753200  1
  O  O25  1  0.80270300  0.20539300  0.83385400  1
  O  O26  1  0.62173600  0.37327100  0.40995600  1
  O  O27  1  0.11915000  0.36524700  0.91404000  1
  O  O28  1  0.29421400  0.78798000  0.67246800  1
  O  O29  1  0.80270300  0.79460700  0.16614600  1
  O  O30  1  0.62173600  0.62672900  0.59004400  1
  O  O31  1  0.11915000  0.63475300  0.08596000  1
  O  O32  1  0.07889500  0.02628400  0.28599400  1
  O  O33  1  0.58245400  0.03482500  0.79237900  1
  O  O34  1  0.79516500  0.09163900  0.29231100  1
  O  O35  1  0.29572000  0.08889100  0.79434000  1
  O  O36  1  0.79516500  0.90836100  0.70768900  1
  O  O37  1  0.29572000  0.91110900  0.20566000  1
  O  O38  1  0.41093000  0.50000000  0.50000000  1
  O  O39  1  0.91105900  0.50000000  0.00000000  1
