# generated using pymatgen
data_Y6Ge2O13F3
_symmetry_space_group_name_H-M   'P 1'
_cell_length_a   5.45092100
_cell_length_b   6.01683001
_cell_length_c   10.35552763
_cell_angle_alpha   89.04831717
_cell_angle_beta   89.54984667
_cell_angle_gamma   74.29997908
_symmetry_Int_Tables_number   1
_chemical_formula_structural   Y6Ge2O13F3
_chemical_formula_sum   'Y6 Ge2 O13 F3'
_cell_volume   326.91474143
_cell_formula_units_Z   1
loop_
 _symmetry_equiv_pos_site_id
 _symmetry_equiv_pos_as_xyz
  1  'x, y, z'
loop_
 _atom_site_type_symbol
 _atom_site_label
 _atom_site_symmetry_multiplicity
 _atom_site_fract_x
 _atom_site_fract_y
 _atom_site_fract_z
 _atom_site_occupancy
  Y  Y0  1  0.71262100  0.80729000  0.75191200  1
  Y  Y1  1  0.28268900  0.18911000  0.25176300  1
  Y  Y2  1  0.81184800  0.30420500  0.96020700  1
  Y  Y3  1  0.18412200  0.70132100  0.45177900  1
  Y  Y4  1  0.18041300  0.70933500  0.04415300  1
  Y  Y5  1  0.80731400  0.29918400  0.54955200  1
  Ge  Ge6  1  0.69270700  0.51723900  0.25208200  1
  Ge  Ge7  1  0.30393200  0.48145000  0.74844800  1
  O  O8  1  0.51018600  0.39538600  0.12896400  1
  O  O9  1  0.48454700  0.61066200  0.62463100  1
  O  O10  1  0.48774900  0.60209800  0.87421700  1
  O  O11  1  0.50847400  0.39224100  0.37770800  1
  O  O12  1  0.95841800  0.46370300  0.13206800  1
  O  O13  1  0.03770500  0.53587800  0.62933400  1
  O  O14  1  0.04733100  0.52974400  0.87005000  1
  O  O15  1  0.95463500  0.45875600  0.37276900  1
  O  O16  1  0.52911900  0.81809200  0.25064400  1
  O  O17  1  0.47889400  0.18414500  0.73390300  1
  O  O18  1  0.90300600  0.11452000  0.76124500  1
  O  O19  1  0.10313600  0.87389800  0.24911500  1
  O  O20  1  0.79521900  0.93837100  0.95725800  1
  F  F21  1  0.21189900  0.06635000  0.47777600  1
  F  F22  1  0.22345400  0.07291500  0.02579800  1
  F  F23  1  0.79058100  0.93410800  0.52462200  1
