# generated using pymatgen
data_ZnCu3(WO4)4
_symmetry_space_group_name_H-M   'P 1'
_cell_length_a   4.76671954
_cell_length_b   5.00496243
_cell_length_c   11.89924188
_cell_angle_alpha   87.35514151
_cell_angle_beta   83.96770089
_cell_angle_gamma   86.48324684
_symmetry_Int_Tables_number   1
_chemical_formula_structural   ZnCu3(WO4)4
_chemical_formula_sum   'Zn1 Cu3 W4 O16'
_cell_volume   281.55422063
_cell_formula_units_Z   1
loop_
 _symmetry_equiv_pos_site_id
 _symmetry_equiv_pos_as_xyz
  1  'x, y, z'
loop_
 _atom_site_type_symbol
 _atom_site_label
 _atom_site_symmetry_multiplicity
 _atom_site_fract_x
 _atom_site_fract_y
 _atom_site_fract_z
 _atom_site_occupancy
  Zn  Zn0  1  0.48349100  0.73358300  0.15859100  1
  Cu  Cu1  1  0.50225700  0.75292300  0.67013800  1
  Cu  Cu2  1  0.49418300  0.24291100  0.32961200  1
  Cu  Cu3  1  0.50033200  0.24825500  0.82739200  1
  W  W4  1  0.98794300  0.75059900  0.41582000  1
  W  W5  1  0.00255300  0.76133800  0.91525600  1
  W  W6  1  0.00772700  0.24922600  0.08519500  1
  W  W7  1  0.00425600  0.24668200  0.58421200  1
  O  O8  1  0.26210300  0.58652600  0.31296800  1
  O  O9  1  0.27580700  0.59654800  0.80998100  1
  O  O10  1  0.73364700  0.39772700  0.19210500  1
  O  O11  1  0.73018100  0.40670400  0.69184500  1
  O  O12  1  0.22296500  0.56308000  0.05003200  1
  O  O13  1  0.20942100  0.55433600  0.54714800  1
  O  O14  1  0.77973300  0.44398900  0.45631100  1
  O  O15  1  0.79669600  0.45434100  0.95590700  1
  O  O16  1  0.74336900  0.91844000  0.32291900  1
  O  O17  1  0.75912400  0.93101800  0.82365300  1
  O  O18  1  0.24782000  0.07889900  0.17730800  1
  O  O19  1  0.24861800  0.07185500  0.67522200  1
  O  O20  1  0.79004700  0.93892800  0.05735600  1
  O  O21  1  0.77979000  0.93092200  0.55939400  1
  O  O22  1  0.21065100  0.06734900  0.44073000  1
  O  O23  1  0.22728800  0.07382200  0.94090700  1
