# generated using pymatgen
data_WBrCl3O
_symmetry_space_group_name_H-M   'P 1'
_cell_length_a   3.87714696
_cell_length_b   6.79631340
_cell_length_c   6.84526933
_cell_angle_alpha   94.05029413
_cell_angle_beta   106.41095102
_cell_angle_gamma   73.34026301
_symmetry_Int_Tables_number   1
_chemical_formula_structural   WBrCl3O
_chemical_formula_sum   'W1 Br1 Cl3 O1'
_cell_volume   165.75299649
_cell_formula_units_Z   1
loop_
 _symmetry_equiv_pos_site_id
 _symmetry_equiv_pos_as_xyz
  1  'x, y, z'
loop_
 _atom_site_type_symbol
 _atom_site_label
 _atom_site_symmetry_multiplicity
 _atom_site_fract_x
 _atom_site_fract_y
 _atom_site_fract_z
 _atom_site_occupancy
  W  W0  1  0.03388500  0.00218100  0.00356900  1
  Br  Br1  1  0.01002000  0.80660700  0.68187900  1
  Cl  Cl2  1  0.31729700  0.69615700  0.18879400  1
  Cl  Cl3  1  0.82537900  0.30741100  0.81786500  1
  Cl  Cl4  1  0.13091200  0.18610700  0.30472800  1
  O  O5  1  0.56050600  0.00153700  0.00316400  1
