# generated using pymatgen
data_Y6Cr(SiS7)2
_symmetry_space_group_name_H-M   'P 1'
_cell_length_a   9.91672185
_cell_length_b   9.91672185
_cell_length_c   5.61359100
_cell_angle_alpha   90.00000000
_cell_angle_beta   90.00000000
_cell_angle_gamma   119.99999899
_symmetry_Int_Tables_number   1
_chemical_formula_structural   Y6Cr(SiS7)2
_chemical_formula_sum   'Y6 Cr1 Si2 S14'
_cell_volume   478.08780661
_cell_formula_units_Z   1
loop_
 _symmetry_equiv_pos_site_id
 _symmetry_equiv_pos_as_xyz
  1  'x, y, z'
loop_
 _atom_site_type_symbol
 _atom_site_label
 _atom_site_symmetry_multiplicity
 _atom_site_fract_x
 _atom_site_fract_y
 _atom_site_fract_z
 _atom_site_occupancy
  Y  Y0  1  0.43412700  0.45670600  0.74930100  1
  Y  Y1  1  0.02257900  0.56587300  0.74930100  1
  Y  Y2  1  0.54329400  0.97742100  0.74930100  1
  Y  Y3  1  0.89962900  0.21054700  0.25090000  1
  Y  Y4  1  0.31091800  0.10037100  0.25090000  1
  Y  Y5  1  0.78945300  0.68908200  0.25090000  1
  Cr  Cr6  1  0.66666700  0.33333300  0.51333400  1
  Si  Si7  1  0.33333300  0.66666700  0.16501900  1
  Si  Si8  1  0.00000000  0.00000000  0.66231200  1
  S  S9  1  0.33333300  0.66666700  0.53961700  1
  S  S10  1  0.00000000  0.00000000  0.03714200  1
  S  S11  1  0.50739800  0.41899100  0.27563700  1
  S  S12  1  0.91159300  0.49260200  0.27563700  1
  S  S13  1  0.58100900  0.08840700  0.27563700  1
  S  S14  1  0.82887300  0.24992700  0.75190200  1
  S  S15  1  0.42105400  0.17112700  0.75190200  1
  S  S16  1  0.75007300  0.57894600  0.75190200  1
  S  S17  1  0.55916400  0.74437300  0.01519100  1
  S  S18  1  0.18521000  0.44083600  0.01519100  1
  S  S19  1  0.25562700  0.81479000  0.01519100  1
  S  S20  1  0.77526900  0.92146000  0.51235300  1
  S  S21  1  0.14619100  0.22473100  0.51235300  1
  S  S22  1  0.07854000  0.85380900  0.51235300  1
