# generated using pymatgen
data_Y(Fe5Si)2
_symmetry_space_group_name_H-M   'P 1'
_cell_length_a   4.75159200
_cell_length_b   6.35190077
_cell_length_c   6.35190077
_cell_angle_alpha   98.38402785
_cell_angle_beta   111.96433038
_cell_angle_gamma   68.03566962
_symmetry_Int_Tables_number   1
_chemical_formula_structural   Y(Fe5Si)2
_chemical_formula_sum   'Y1 Fe10 Si2'
_cell_volume   164.88695601
_cell_formula_units_Z   1
loop_
 _symmetry_equiv_pos_site_id
 _symmetry_equiv_pos_as_xyz
  1  'x, y, z'
loop_
 _atom_site_type_symbol
 _atom_site_label
 _atom_site_symmetry_multiplicity
 _atom_site_fract_x
 _atom_site_fract_y
 _atom_site_fract_z
 _atom_site_occupancy
  Y  Y0  1  0.00000000  0.00000000  0.00000000  1
  Fe  Fe1  1  0.63843500  0.36156500  0.63843500  1
  Fe  Fe2  1  0.36156500  0.63843500  0.36156500  1
  Fe  Fe3  1  0.00000000  0.35488300  0.35488300  1
  Fe  Fe4  1  0.00000000  0.64511700  0.64511700  1
  Fe  Fe5  1  0.50000000  0.78974900  0.78974900  1
  Fe  Fe6  1  0.50000000  0.21025100  0.21025100  1
  Fe  Fe7  1  0.50000000  0.00000000  0.50000000  1
  Fe  Fe8  1  0.00000000  0.00000000  0.50000000  1
  Fe  Fe9  1  0.50000000  0.50000000  0.00000000  1
  Fe  Fe10  1  0.00000000  0.50000000  0.00000000  1
  Si  Si11  1  0.73561600  0.76438400  0.23561600  1
  Si  Si12  1  0.26438400  0.23561600  0.76438400  1
