# generated using pymatgen
data_Y4Mn3NiO12
_symmetry_space_group_name_H-M   'P 1'
_cell_length_a   5.30366500
_cell_length_b   5.69454381
_cell_length_c   7.63750858
_cell_angle_alpha   90.02452244
_cell_angle_beta   90.50738223
_cell_angle_gamma   90.73520555
_symmetry_Int_Tables_number   1
_chemical_formula_structural   Y4Mn3NiO12
_chemical_formula_sum   'Y4 Mn3 Ni1 O12'
_cell_volume   230.63960551
_cell_formula_units_Z   1
loop_
 _symmetry_equiv_pos_site_id
 _symmetry_equiv_pos_as_xyz
  1  'x, y, z'
loop_
 _atom_site_type_symbol
 _atom_site_label
 _atom_site_symmetry_multiplicity
 _atom_site_fract_x
 _atom_site_fract_y
 _atom_site_fract_z
 _atom_site_occupancy
  Y  Y0  1  0.48172000  0.42668900  0.24807200  1
  Y  Y1  1  0.02034400  0.92120900  0.24559300  1
  Y  Y2  1  0.51828000  0.57331100  0.75192800  1
  Y  Y3  1  0.97965600  0.07879100  0.75440700  1
  Mn  Mn4  1  0.50000000  0.00000000  0.50000000  1
  Mn  Mn5  1  0.00000000  0.50000000  0.50000000  1
  Mn  Mn6  1  0.50000000  0.00000000  0.00000000  1
  Ni  Ni7  1  0.00000000  0.50000000  0.00000000  1
  O  O8  1  0.20098400  0.18486500  0.05345400  1
  O  O9  1  0.30559400  0.68547700  0.44462000  1
  O  O10  1  0.79691900  0.82233800  0.55909500  1
  O  O11  1  0.67959800  0.29515200  0.94271800  1
  O  O12  1  0.79901600  0.81513500  0.94654600  1
  O  O13  1  0.69440600  0.31452300  0.55538000  1
  O  O14  1  0.20308100  0.17766200  0.44090500  1
  O  O15  1  0.32040200  0.70484800  0.05728200  1
  O  O16  1  0.61478200  0.03969300  0.24134800  1
  O  O17  1  0.89193300  0.53510100  0.25516800  1
  O  O18  1  0.38521800  0.96030700  0.75865200  1
  O  O19  1  0.10806700  0.46489900  0.74483200  1
