# generated using pymatgen
data_Zn4FeCu10(GeS4)5
_symmetry_space_group_name_H-M   'P 1'
_cell_length_a   6.52624429
_cell_length_b   6.52624429
_cell_length_c   23.86451881
_cell_angle_alpha   89.95022148
_cell_angle_beta   89.95022148
_cell_angle_gamma   48.17414274
_symmetry_Int_Tables_number   1
_chemical_formula_structural   Zn4FeCu10(GeS4)5
_chemical_formula_sum   'Zn4 Fe1 Cu10 Ge5 S20'
_cell_volume   757.42124771
_cell_formula_units_Z   1
loop_
 _symmetry_equiv_pos_site_id
 _symmetry_equiv_pos_as_xyz
  1  'x, y, z'
loop_
 _atom_site_type_symbol
 _atom_site_label
 _atom_site_symmetry_multiplicity
 _atom_site_fract_x
 _atom_site_fract_y
 _atom_site_fract_z
 _atom_site_occupancy
  Zn  Zn0  1  0.20004000  0.20005000  0.79992800  1
  Zn  Zn1  1  0.40001800  0.39999700  0.59999600  1
  Zn  Zn2  1  0.60000300  0.59998200  0.40000400  1
  Zn  Zn3  1  0.79995000  0.79996000  0.20007200  1
  Fe  Fe4  1  0.00088800  0.99911200  0.00000000  1
  Cu  Cu5  1  0.29930800  0.30146500  0.95034200  1
  Cu  Cu6  1  0.69997600  0.70000700  0.55006400  1
  Cu  Cu7  1  0.50011000  0.49983800  0.75007500  1
  Cu  Cu8  1  0.10030600  0.09916800  0.14977200  1
  Cu  Cu9  1  0.89997600  0.90001000  0.35003700  1
  Cu  Cu10  1  0.69853500  0.70069200  0.04965800  1
  Cu  Cu11  1  0.09999000  0.10002400  0.64996300  1
  Cu  Cu12  1  0.90083200  0.89969400  0.85022800  1
  Cu  Cu13  1  0.50016200  0.49989000  0.24992500  1
  Cu  Cu14  1  0.29999300  0.30002400  0.44993600  1
  Ge  Ge15  1  0.40087000  0.39952900  0.09981500  1
  Ge  Ge16  1  0.80024300  0.79982500  0.69998900  1
  Ge  Ge17  1  0.60047100  0.59913000  0.90018500  1
  Ge  Ge18  1  0.20017500  0.19975700  0.30001100  1
  Ge  Ge19  1  0.00044600  0.99955400  0.50000000  1
  S  S20  1  0.00468800  0.49354000  0.12306800  1
  S  S21  1  0.20089400  0.69917200  0.92471200  1
  S  S22  1  0.40665400  0.89208000  0.72295500  1
  S  S23  1  0.60655300  0.09218500  0.52296000  1
  S  S24  1  0.80642600  0.29232600  0.32300500  1
  S  S25  1  0.59883100  0.10018800  0.02514800  1
  S  S26  1  0.79002900  0.30307300  0.82558700  1
  S  S27  1  0.98905800  0.50360000  0.62579200  1
  S  S28  1  0.18894900  0.70367700  0.42576600  1
  S  S29  1  0.38888600  0.90341600  0.22566700  1
  S  S30  1  0.89981200  0.40116900  0.97485200  1
  S  S31  1  0.09658400  0.61111400  0.77433300  1
  S  S32  1  0.29632300  0.81105100  0.57423400  1
  S  S33  1  0.49640000  0.01094200  0.37420800  1
  S  S34  1  0.69692700  0.20997100  0.17441300  1
  S  S35  1  0.50646000  0.99531200  0.87693200  1
  S  S36  1  0.70767400  0.19357400  0.67699500  1
  S  S37  1  0.90781500  0.39344700  0.47704000  1
  S  S38  1  0.10792000  0.59334600  0.27704500  1
  S  S39  1  0.30082800  0.79910600  0.07528800  1
