# generated using pymatgen
data_Y4Fe34C3
_symmetry_space_group_name_H-M   'P 1'
_cell_length_a   6.47820357
_cell_length_b   6.44616987
_cell_length_c   12.91371728
_cell_angle_alpha   83.26842341
_cell_angle_beta   83.67295996
_cell_angle_gamma   83.77522116
_symmetry_Int_Tables_number   1
_chemical_formula_structural   Y4Fe34C3
_chemical_formula_sum   'Y4 Fe34 C3'
_cell_volume   529.79416602
_cell_formula_units_Z   1
loop_
 _symmetry_equiv_pos_site_id
 _symmetry_equiv_pos_as_xyz
  1  'x, y, z'
loop_
 _atom_site_type_symbol
 _atom_site_label
 _atom_site_symmetry_multiplicity
 _atom_site_fract_x
 _atom_site_fract_y
 _atom_site_fract_z
 _atom_site_occupancy
  Y  Y0  1  0.66318600  0.65296500  0.32702300  1
  Y  Y1  1  0.66058800  0.66025200  0.82524100  1
  Y  Y2  1  0.33681400  0.34703500  0.17297700  1
  Y  Y3  1  0.33941200  0.33974800  0.67475900  1
  Fe  Fe4  1  0.28487900  0.71534400  0.99963300  1
  Fe  Fe5  1  0.28522800  0.71604400  0.49981200  1
  Fe  Fe6  1  0.71456000  0.00101300  0.14216700  1
  Fe  Fe7  1  0.71318800  0.00117600  0.64402500  1
  Fe  Fe8  1  0.00124000  0.28613400  0.35706100  1
  Fe  Fe9  1  0.99831200  0.28793300  0.85604900  1
  Fe  Fe10  1  0.28544000  0.99898700  0.35783300  1
  Fe  Fe11  1  0.28681200  0.99882400  0.85597500  1
  Fe  Fe12  1  0.99876000  0.71386600  0.14293900  1
  Fe  Fe13  1  0.00168800  0.71206700  0.64395100  1
  Fe  Fe14  1  0.71477200  0.28395600  0.00018800  1
  Fe  Fe15  1  0.71512100  0.28465600  0.50036700  1
  Fe  Fe16  1  0.90286800  0.90374500  0.45193900  1
  Fe  Fe17  1  0.90407400  0.90417900  0.95101000  1
  Fe  Fe18  1  0.09713200  0.09625500  0.04806100  1
  Fe  Fe19  1  0.09592600  0.09582100  0.54899000  1
  Fe  Fe20  1  0.00000000  0.00000000  0.25000000  1
  Fe  Fe21  1  0.00000000  0.00000000  0.75000000  1
  Fe  Fe22  1  0.99919800  0.49995200  0.50041800  1
  Fe  Fe23  1  0.00080200  0.50004800  0.99958200  1
  Fe  Fe24  1  0.50047500  0.99813500  0.99904400  1
  Fe  Fe25  1  0.49952500  0.00186500  0.50095600  1
  Fe  Fe26  1  0.85429800  0.34500600  0.17264600  1
  Fe  Fe27  1  0.85136000  0.34439400  0.67293600  1
  Fe  Fe28  1  0.34105600  0.34400600  0.42716200  1
  Fe  Fe29  1  0.34266800  0.34208200  0.92506900  1
  Fe  Fe30  1  0.34160800  0.85258900  0.17143000  1
  Fe  Fe31  1  0.34400300  0.85205600  0.67287700  1
  Fe  Fe32  1  0.14570200  0.65499400  0.32735400  1
  Fe  Fe33  1  0.14864000  0.65560600  0.82706400  1
  Fe  Fe34  1  0.65894400  0.65599400  0.07283800  1
  Fe  Fe35  1  0.65733200  0.65791800  0.57493100  1
  Fe  Fe36  1  0.65839200  0.14741100  0.32857000  1
  Fe  Fe37  1  0.65599700  0.14794400  0.82712300  1
  C  C38  1  0.49921900  0.49949500  0.99946300  1
  C  C39  1  0.50078100  0.50050500  0.50053700  1
  C  C40  1  0.50000000  0.00000000  0.25000000  1
