# generated using pymatgen
data_Y9Lu3Al20O48
_symmetry_space_group_name_H-M   'P 1'
_cell_length_a   10.47071653
_cell_length_b   10.47140159
_cell_length_c   10.47079314
_cell_angle_alpha   70.59340367
_cell_angle_beta   70.53053305
_cell_angle_gamma   109.53501776
_symmetry_Int_Tables_number   1
_chemical_formula_structural   Y9Lu3Al20O48
_chemical_formula_sum   'Y9 Lu3 Al20 O48'
_cell_volume   883.79660733
_cell_formula_units_Z   1
loop_
 _symmetry_equiv_pos_site_id
 _symmetry_equiv_pos_as_xyz
  1  'x, y, z'
loop_
 _atom_site_type_symbol
 _atom_site_label
 _atom_site_symmetry_multiplicity
 _atom_site_fract_x
 _atom_site_fract_y
 _atom_site_fract_z
 _atom_site_occupancy
  Y  Y0  1  0.12536448  0.25001025  0.62462987  1
  Y  Y1  1  0.25016180  0.62558102  0.62505909  1
  Y  Y2  1  0.74934726  0.87441135  0.87542778  1
  Y  Y3  1  0.62489459  0.37495582  0.75003370  1
  Y  Y4  1  0.87501583  0.12503882  0.25006928  1
  Y  Y5  1  0.62488406  0.25000684  0.12512245  1
  Y  Y6  1  0.87512144  0.74999967  0.37488164  1
  Y  Y7  1  0.75007527  0.37508637  0.37488352  1
  Y  Y8  1  0.25002740  0.12491330  0.12501605  1
  Lu  Lu9  1  0.37502008  0.62524823  0.24943953  1
  Lu  Lu10  1  0.12530200  0.87486104  0.75021755  1
  Lu  Lu11  1  0.37460007  0.74998137  0.87525897  1
  Al  Al12  1  0.49912528  0.99837526  0.00030602  1
  Al  Al13  1  0.49964371  0.50019105  0.49927540  1
  Al  Al14  1  0.00131618  0.50161778  0.99925646  1
  Al  Al15  1  0.00053388  0.99980873  0.50054953  1
  Al  Al16  1  0.49925368  0.50078105  0.00056758  1
  Al  Al17  1  0.49865829  0.99922068  0.50152756  1
  Al  Al18  1  0.00114061  0.50055160  0.49914173  1
  Al  Al19  1  0.00030559  0.99944595  0.99941564  1
  Al  Al20  1  0.12648325  0.37669405  0.24926698  1
  Al  Al21  1  0.37403738  0.12330033  0.75021642  1
  Al  Al22  1  0.62393715  0.75000049  0.62606811  1
  Al  Al23  1  0.87514085  0.25000093  0.87486380  1
  Al  Al24  1  0.25000285  0.87466390  0.37541239  1
  Al  Al25  1  0.74992340  0.62533365  0.12466569  1
  Al  Al26  1  0.87613740  0.62605233  0.74999679  1
  Al  Al27  1  0.62395325  0.87394606  0.24991882  1
  Al  Al28  1  0.37462682  0.24999811  0.37537560  1
  Al  Al29  1  0.12636924  0.74999937  0.12363473  1
  Al  Al30  1  0.74927579  0.12426494  0.62550677  1
  Al  Al31  1  0.25022257  0.37572819  0.87499626  1
  O  O32  1  0.57830285  0.87800259  0.09991492  1
  O  O33  1  0.47792253  0.67844791  0.40020707  1
  O  O34  1  0.02208581  0.62199332  0.79969845  1
  O  O35  1  0.92134463  0.82155201  0.70052289  1
  O  O36  1  0.12232511  0.70255436  0.97612068  1
  O  O37  1  0.32132589  0.79744960  0.08023324  1
  O  O38  1  0.38171936  0.40362988  0.41627457  1
  O  O39  1  0.18009472  0.09637750  0.52191502  1
  O  O40  1  0.30002080  0.41807297  0.68002640  1
  O  O41  1  0.20194520  0.52194530  0.88208068  1
  O  O42  1  0.59597678  0.97805268  0.81999952  1
  O  O43  1  0.90189244  0.08192232  0.61805800  1
  O  O44  1  0.41805898  0.11773047  0.90193996  1
  O  O45  1  0.51937085  0.31960913  0.59828224  1
  O  O46  1  0.98031958  0.38226320  0.19967568  1
  O  O47  1  0.08212681  0.18038984  0.30023526  1
  O  O48  1  0.88245499  0.30098547  0.01952603  1
  O  O49  1  0.67948536  0.19901440  0.91852538  1
  O  O50  1  0.61769370  0.59837899  0.58161846  1
  O  O51  1  0.82000110  0.90161191  0.48069824  1
  O  O52  1  0.69985588  0.58179263  0.32021265  1
  O  O53  1  0.80056756  0.48029405  0.11790368  1
  O  O54  1  0.40180057  0.01970807  0.17972955  1
  O  O55  1  0.09800536  0.91821991  0.38191945  1
  O  O56  1  0.41814079  0.30028884  0.17980189  1
  O  O57  1  0.51990661  0.19970523  0.38215739  1
  O  O58  1  0.98031274  0.59828651  0.31970296  1
  O  O59  1  0.08200299  0.90171004  0.11799009  1
  O  O60  1  0.88239128  0.58197210  0.59810552  1
  O  O61  1  0.68002788  0.48086667  0.90168745  1
  O  O62  1  0.61744569  0.01913844  0.30084480  1
  O  O63  1  0.81992902  0.91802003  0.19958701  1
  O  O64  1  0.69926033  0.11789027  0.48014178  1
  O  O65  1  0.80064754  0.32020267  0.58155216  1
  O  O66  1  0.40196241  0.38208813  0.91865202  1
  O  O67  1  0.09826070  0.17980064  0.01954426  1
  O  O68  1  0.57854543  0.70039276  0.82160563  1
  O  O69  1  0.47799247  0.79959495  0.62185853  1
  O  O70  1  0.02005318  0.40223784  0.67980387  1
  O  O71  1  0.91796456  0.09776179  0.88218265  1
  O  O72  1  0.12225490  0.42170573  0.39980972  1
  O  O73  1  0.32154416  0.52393557  0.09813178  1
  O  O74  1  0.37792728  0.97604948  0.70240402  1
  O  O75  1  0.17848156  0.07829073  0.79945519  1
  O  O76  1  0.29806777  0.88172361  0.52190131  1
  O  O77  1  0.20217138  0.68026920  0.41599635  1
  O  O78  1  0.59637756  0.61827414  0.08366142  1
  O  O79  1  0.90373344  0.81972761  0.97810245  1
