# generated using pymatgen
data_Y16Se16F15
_symmetry_space_group_name_H-M   'P 1'
_cell_length_a   4.13585800
_cell_length_b   10.02284800
_cell_length_c   25.68284839
_cell_angle_alpha   82.34826488
_cell_angle_beta   90.00000000
_cell_angle_gamma   90.00000000
_symmetry_Int_Tables_number   1
_chemical_formula_structural   Y16Se16F15
_chemical_formula_sum   'Y16 Se16 F15'
_cell_volume   1055.15327258
_cell_formula_units_Z   1
loop_
 _symmetry_equiv_pos_site_id
 _symmetry_equiv_pos_as_xyz
  1  'x, y, z'
loop_
 _atom_site_type_symbol
 _atom_site_label
 _atom_site_symmetry_multiplicity
 _atom_site_fract_x
 _atom_site_fract_y
 _atom_site_fract_z
 _atom_site_occupancy
  Y  Y0  1  0.50000000  0.40010000  0.55890000  1
  Y  Y1  1  0.00000000  0.59976800  0.44132500  1
  Y  Y2  1  0.50000000  0.31653200  0.80761200  1
  Y  Y3  1  0.00000000  0.68395700  0.19207600  1
  Y  Y4  1  0.50000000  0.06264900  0.06216900  1
  Y  Y5  1  0.00000000  0.94305800  0.93947300  1
  Y  Y6  1  0.50000000  0.98433500  0.31627300  1
  Y  Y7  1  0.00000000  0.01520800  0.68402000  1
  Y  Y8  1  0.50000000  0.89849700  0.56602200  1
  Y  Y9  1  0.00000000  0.10142500  0.43420300  1
  Y  Y10  1  0.50000000  0.81945000  0.81924300  1
  Y  Y11  1  0.00000000  0.18085200  0.18161400  1
  Y  Y12  1  0.50000000  0.56779300  0.06248500  1
  Y  Y13  1  0.00000000  0.43085100  0.93782300  1
  Y  Y14  1  0.50000000  0.48242800  0.30893000  1
  Y  Y15  1  0.00000000  0.51819200  0.69111700  1
  Se  Se16  1  0.50000000  0.54015800  0.86658500  1
  Se  Se17  1  0.00000000  0.45880400  0.13398500  1
  Se  Se18  1  0.50000000  0.62611200  0.61580800  1
  Se  Se19  1  0.00000000  0.37386700  0.38407500  1
  Se  Se20  1  0.50000000  0.33243600  0.00983200  1
  Se  Se21  1  0.00000000  0.67110900  0.99091900  1
  Se  Se22  1  0.50000000  0.79691600  0.11757700  1
  Se  Se23  1  0.00000000  0.20350600  0.88185100  1
  Se  Se24  1  0.50000000  0.16189500  0.50870800  1
  Se  Se25  1  0.00000000  0.83807200  0.49120900  1
  Se  Se26  1  0.50000000  0.70934300  0.36562000  1
  Se  Se27  1  0.00000000  0.29072100  0.63428300  1
  Se  Se28  1  0.50000000  0.24601600  0.25651700  1
  Se  Se29  1  0.00000000  0.75387200  0.74334400  1
  Se  Se30  1  0.50000000  0.07864400  0.75823400  1
  Se  Se31  1  0.00000000  0.92175200  0.24169900  1
  F  F32  1  0.50000000  0.15045000  0.14546200  1
  F  F33  1  0.00000000  0.84964100  0.85407600  1
  F  F34  1  0.50000000  0.98193700  0.64801400  1
  F  F35  1  0.00000000  0.01811000  0.35189200  1
  F  F36  1  0.50000000  0.45823800  0.72665100  1
  F  F37  1  0.00000000  0.54181900  0.27329000  1
  F  F38  1  0.50000000  0.90018200  0.90025700  1
  F  F39  1  0.00000000  0.09779200  0.09866900  1
  F  F40  1  0.50000000  0.62383900  0.22742300  1
  F  F41  1  0.00000000  0.37637700  0.77248100  1
  F  F42  1  0.50000000  0.55162300  0.47968500  1
  F  F43  1  0.00000000  0.44841700  0.52020400  1
  F  F44  1  0.50000000  0.06915500  0.39780400  1
  F  F45  1  0.00000000  0.93085800  0.60208500  1
  F  F46  1  0.50000000  0.98924800  0.98347300  1
