# generated using pymatgen
data_Zn3Cu2(CO6)2
_symmetry_space_group_name_H-M   'P 1'
_cell_length_a   5.19255614
_cell_length_b   6.05560100
_cell_length_c   14.18633864
_cell_angle_alpha   90.00000000
_cell_angle_beta   77.54526121
_cell_angle_gamma   90.00000000
_symmetry_Int_Tables_number   1
_chemical_formula_structural   Zn3Cu2(CO6)2
_chemical_formula_sum   'Zn6 Cu4 C4 O24'
_cell_volume   435.57826807
_cell_formula_units_Z   2
loop_
 _symmetry_equiv_pos_site_id
 _symmetry_equiv_pos_as_xyz
  1  'x, y, z'
loop_
 _atom_site_type_symbol
 _atom_site_label
 _atom_site_symmetry_multiplicity
 _atom_site_fract_x
 _atom_site_fract_y
 _atom_site_fract_z
 _atom_site_occupancy
  Zn  Zn0  1  0.26741000  0.74829000  0.86959100  1
  Zn  Zn1  1  0.73259000  0.24829000  0.13041000  1
  Zn  Zn2  1  0.16162400  0.00419600  0.24910400  1
  Zn  Zn3  1  0.83837600  0.50419600  0.75089600  1
  Zn  Zn4  1  0.50587500  0.74980800  0.61145800  1
  Zn  Zn5  1  0.49412500  0.24980800  0.38854200  1
  Cu  Cu6  1  0.32163000  0.24421400  0.75873200  1
  Cu  Cu7  1  0.67837000  0.74421400  0.24126800  1
  Cu  Cu8  1  0.83281700  0.00048000  0.75797100  1
  Cu  Cu9  1  0.16718300  0.50048000  0.24202900  1
  C  C10  1  0.52587000  0.25635100  0.95412300  1
  C  C11  1  0.47413000  0.75635100  0.04587700  1
  C  C12  1  0.07474500  0.74934700  0.55345700  1
  C  C13  1  0.92525500  0.24934700  0.44654300  1
  O  O14  1  0.86407500  0.75558000  0.52146100  1
  O  O15  1  0.13592500  0.25558000  0.47853900  1
  O  O16  1  0.56924100  0.26518100  0.85888200  1
  O  O17  1  0.43075900  0.76518100  0.14111800  1
  O  O18  1  0.66527600  0.76374100  0.82554000  1
  O  O19  1  0.33472400  0.26374100  0.17446000  1
  O  O20  1  0.12018100  0.48324800  0.82323100  1
  O  O21  1  0.87981900  0.98324800  0.17676900  1
  O  O22  1  0.89640100  0.51165700  0.17485500  1
  O  O23  1  0.10359900  0.01165700  0.82514500  1
  O  O24  1  0.07136800  0.72974400  0.64686500  1
  O  O25  1  0.92863200  0.22974400  0.35313500  1
  O  O26  1  0.02286800  0.22724200  0.69006900  1
  O  O27  1  0.97713200  0.72724200  0.30993100  1
  O  O28  1  0.28978700  0.25030300  0.00208200  1
  O  O29  1  0.71021300  0.75030300  0.99791800  1
  O  O30  1  0.53814900  0.47222100  0.68850100  1
  O  O31  1  0.46185100  0.97222100  0.31149900  1
  O  O32  1  0.44282300  0.52118500  0.30782900  1
  O  O33  1  0.55717700  0.02118500  0.69217100  1
  O  O34  1  0.72886100  0.25352700  0.99143400  1
  O  O35  1  0.27113900  0.75352700  0.00856600  1
  O  O36  1  0.30857500  0.76368400  0.50061300  1
  O  O37  1  0.69142500  0.26368400  0.49938700  1
