# generated using pymatgen
data_W2(CO)3
_symmetry_space_group_name_H-M   'P 1'
_cell_length_a   5.53790751
_cell_length_b   5.53790751
_cell_length_c   3.64658300
_cell_angle_alpha   90.00000000
_cell_angle_beta   90.00000000
_cell_angle_gamma   90.87230075
_symmetry_Int_Tables_number   1
_chemical_formula_structural   W2(CO)3
_chemical_formula_sum   'W2 C3 O3'
_cell_volume   111.82197697
_cell_formula_units_Z   1
loop_
 _symmetry_equiv_pos_site_id
 _symmetry_equiv_pos_as_xyz
  1  'x, y, z'
loop_
 _atom_site_type_symbol
 _atom_site_label
 _atom_site_symmetry_multiplicity
 _atom_site_fract_x
 _atom_site_fract_y
 _atom_site_fract_z
 _atom_site_occupancy
  W  W0  1  0.74830000  0.25170000  0.00000000  1
  W  W1  1  0.25170000  0.74830000  0.00000000  1
  C  C2  1  0.59026900  0.40973100  0.50000000  1
  C  C3  1  0.40973100  0.59026900  0.50000000  1
  C  C4  1  0.50000000  0.50000000  0.00000000  1
  O  O5  1  0.00000000  0.00000000  0.00000000  1
  O  O6  1  0.00000000  0.50000000  0.00000000  1
  O  O7  1  0.50000000  0.00000000  0.00000000  1
