# generated using pymatgen
data_VMoAs2
_symmetry_space_group_name_H-M   'P 1'
_cell_length_a   3.38605100
_cell_length_b   5.92091800
_cell_length_c   6.36880700
_cell_angle_alpha   90.00000000
_cell_angle_beta   90.00000000
_cell_angle_gamma   90.00000000
_symmetry_Int_Tables_number   1
_chemical_formula_structural   VMoAs2
_chemical_formula_sum   'V2 Mo2 As4'
_cell_volume   127.68522021
_cell_formula_units_Z   2
loop_
 _symmetry_equiv_pos_site_id
 _symmetry_equiv_pos_as_xyz
  1  'x, y, z'
loop_
 _atom_site_type_symbol
 _atom_site_label
 _atom_site_symmetry_multiplicity
 _atom_site_fract_x
 _atom_site_fract_y
 _atom_site_fract_z
 _atom_site_occupancy
  V  V0  1  0.00000000  0.50969800  0.43352800  1
  V  V1  1  0.00000000  0.00969800  0.56647200  1
  Mo  Mo2  1  0.50000000  0.49145300  0.06554500  1
  Mo  Mo3  1  0.50000000  0.99145300  0.93445500  1
  As  As4  1  0.50000000  0.30853600  0.66983300  1
  As  As5  1  0.50000000  0.80853600  0.33016700  1
  As  As6  1  0.00000000  0.69031400  0.81216100  1
  As  As7  1  0.00000000  0.19031400  0.18783900  1
