# generated using pymatgen
data_Yb14Hg51
_symmetry_space_group_name_H-M   'P 1'
_cell_length_a   13.70806926
_cell_length_b   13.70806926
_cell_length_c   10.20507500
_cell_angle_alpha   90.00000000
_cell_angle_beta   90.00000000
_cell_angle_gamma   119.99999642
_symmetry_Int_Tables_number   1
_chemical_formula_structural   Yb14Hg51
_chemical_formula_sum   'Yb14 Hg51'
_cell_volume   1660.73151868
_cell_formula_units_Z   1
loop_
 _symmetry_equiv_pos_site_id
 _symmetry_equiv_pos_as_xyz
  1  'x, y, z'
loop_
 _atom_site_type_symbol
 _atom_site_label
 _atom_site_symmetry_multiplicity
 _atom_site_fract_x
 _atom_site_fract_y
 _atom_site_fract_z
 _atom_site_occupancy
  Yb  Yb0  1  0.79665800  0.99170600  0.50000000  1
  Yb  Yb1  1  0.19504700  0.20334200  0.50000000  1
  Yb  Yb2  1  0.00829400  0.80495300  0.50000000  1
  Yb  Yb3  1  0.86705800  0.33871900  0.50000000  1
  Yb  Yb4  1  0.47166100  0.13294200  0.50000000  1
  Yb  Yb5  1  0.66128100  0.52833900  0.50000000  1
  Yb  Yb6  1  0.44970100  0.38926300  0.00000000  1
  Yb  Yb7  1  0.93956300  0.55029900  0.00000000  1
  Yb  Yb8  1  0.61073700  0.06043700  0.00000000  1
  Yb  Yb9  1  0.21714700  0.95184800  0.00000000  1
  Yb  Yb10  1  0.73470200  0.78285300  0.00000000  1
  Yb  Yb11  1  0.04815200  0.26529800  0.00000000  1
  Yb  Yb12  1  0.33333300  0.66666700  0.68695200  1
  Yb  Yb13  1  0.33333300  0.66666700  0.31304800  1
  Hg  Hg14  1  0.82517400  0.04322400  0.85243100  1
  Hg  Hg15  1  0.21805100  0.17482600  0.85243100  1
  Hg  Hg16  1  0.95677600  0.78194900  0.85243100  1
  Hg  Hg17  1  0.83834200  0.28651800  0.85380200  1
  Hg  Hg18  1  0.44817600  0.16165800  0.85380200  1
  Hg  Hg19  1  0.71348200  0.55182400  0.85380200  1
  Hg  Hg20  1  0.83834200  0.28651800  0.14619800  1
  Hg  Hg21  1  0.44817600  0.16165800  0.14619800  1
  Hg  Hg22  1  0.71348200  0.55182400  0.14619800  1
  Hg  Hg23  1  0.82517400  0.04322400  0.14756900  1
  Hg  Hg24  1  0.21805100  0.17482600  0.14756900  1
  Hg  Hg25  1  0.95677600  0.78194900  0.14756900  1
  Hg  Hg26  1  0.43649700  0.32269200  0.65782400  1
  Hg  Hg27  1  0.88619500  0.56350300  0.65782400  1
  Hg  Hg28  1  0.67730800  0.11380500  0.65782400  1
  Hg  Hg29  1  0.22776300  0.00563200  0.65949300  1
  Hg  Hg30  1  0.77786900  0.77223700  0.65949300  1
  Hg  Hg31  1  0.99436800  0.22213100  0.65949300  1
  Hg  Hg32  1  0.22776300  0.00563200  0.34050700  1
  Hg  Hg33  1  0.77786900  0.77223700  0.34050700  1
  Hg  Hg34  1  0.99436800  0.22213100  0.34050700  1
  Hg  Hg35  1  0.43649700  0.32269200  0.34217600  1
  Hg  Hg36  1  0.88619500  0.56350300  0.34217600  1
  Hg  Hg37  1  0.67730800  0.11380500  0.34217600  1
  Hg  Hg38  1  0.38759200  0.48494400  0.50000000  1
  Hg  Hg39  1  0.09735200  0.61240800  0.50000000  1
  Hg  Hg40  1  0.51505600  0.90264800  0.50000000  1
  Hg  Hg41  1  0.27888700  0.84428400  0.50000000  1
  Hg  Hg42  1  0.56539700  0.72111300  0.50000000  1
  Hg  Hg43  1  0.15571600  0.43460300  0.50000000  1
  Hg  Hg44  1  0.00000000  0.00000000  0.00000000  1
  Hg  Hg45  1  0.66666700  0.33333300  0.00000000  1
  Hg  Hg46  1  0.52170100  0.58278400  0.77374300  1
  Hg  Hg47  1  0.06108300  0.47829900  0.77374300  1
  Hg  Hg48  1  0.41721600  0.93891700  0.77374300  1
  Hg  Hg49  1  0.14553400  0.74200200  0.78311300  1
  Hg  Hg50  1  0.59646900  0.85446600  0.78311300  1
  Hg  Hg51  1  0.25799800  0.40353100  0.78311300  1
  Hg  Hg52  1  0.14553400  0.74200200  0.21688700  1
  Hg  Hg53  1  0.59646900  0.85446600  0.21688700  1
  Hg  Hg54  1  0.25799800  0.40353100  0.21688700  1
  Hg  Hg55  1  0.52170100  0.58278400  0.22625700  1
  Hg  Hg56  1  0.06108300  0.47829900  0.22625700  1
  Hg  Hg57  1  0.41721600  0.93891700  0.22625700  1
  Hg  Hg58  1  0.00000000  0.00000000  0.66786200  1
  Hg  Hg59  1  0.66666700  0.33333300  0.67104800  1
  Hg  Hg60  1  0.66666700  0.33333300  0.32895200  1
  Hg  Hg61  1  0.00000000  0.00000000  0.33213800  1
  Hg  Hg62  1  0.46606400  0.68427100  0.00000000  1
  Hg  Hg63  1  0.21820700  0.53393600  0.00000000  1
  Hg  Hg64  1  0.31572900  0.78179300  0.00000000  1
