# generated using pymatgen
data_VFe4
_symmetry_space_group_name_H-M   'P 1'
_cell_length_a   2.47860890
_cell_length_b   2.47860890
_cell_length_c   10.16645074
_cell_angle_alpha   85.25898038
_cell_angle_beta   85.25898038
_cell_angle_gamma   108.78249622
_symmetry_Int_Tables_number   1
_chemical_formula_structural   VFe4
_chemical_formula_sum   'V1 Fe4'
_cell_volume   58.53279145
_cell_formula_units_Z   1
loop_
 _symmetry_equiv_pos_site_id
 _symmetry_equiv_pos_as_xyz
  1  'x, y, z'
loop_
 _atom_site_type_symbol
 _atom_site_label
 _atom_site_symmetry_multiplicity
 _atom_site_fract_x
 _atom_site_fract_y
 _atom_site_fract_z
 _atom_site_occupancy
  V  V0  1  0.00000000  0.00000000  0.00000000  1
  Fe  Fe1  1  0.39922800  0.39922800  0.20154400  1
  Fe  Fe2  1  0.80024200  0.80024200  0.39951600  1
  Fe  Fe3  1  0.19975800  0.19975800  0.60048400  1
  Fe  Fe4  1  0.60077200  0.60077200  0.79845600  1
