# generated using pymatgen
data_VGa(CuO2)2
_symmetry_space_group_name_H-M   'P 1'
_cell_length_a   6.08699807
_cell_length_b   6.15967173
_cell_length_c   6.72380014
_cell_angle_alpha   63.13814202
_cell_angle_beta   63.09023838
_cell_angle_gamma   60.38838577
_symmetry_Int_Tables_number   1
_chemical_formula_structural   VGa(CuO2)2
_chemical_formula_sum   'V2 Ga2 Cu4 O8'
_cell_volume   186.78393141
_cell_formula_units_Z   2
loop_
 _symmetry_equiv_pos_site_id
 _symmetry_equiv_pos_as_xyz
  1  'x, y, z'
loop_
 _atom_site_type_symbol
 _atom_site_label
 _atom_site_symmetry_multiplicity
 _atom_site_fract_x
 _atom_site_fract_y
 _atom_site_fract_z
 _atom_site_occupancy
  V  V0  1  0.00000000  0.00000000  0.50000000  1
  V  V1  1  0.50000000  0.00000000  0.50000000  1
  Ga  Ga2  1  0.00000000  0.50000000  0.50000000  1
  Ga  Ga3  1  0.50000000  0.50000000  0.50000000  1
  Cu  Cu4  1  0.50000000  0.00000000  0.00000000  1
  Cu  Cu5  1  0.00000000  0.00000000  0.00000000  1
  Cu  Cu6  1  0.00000000  0.50000000  0.00000000  1
  Cu  Cu7  1  0.50000000  0.50000000  0.00000000  1
  O  O8  1  0.61089100  0.60177900  0.67646400  1
  O  O9  1  0.11089600  0.60176000  0.67647300  1
  O  O10  1  0.88910400  0.39824000  0.32352700  1
  O  O11  1  0.38910900  0.39822100  0.32353600  1
  O  O12  1  0.10490400  0.11485200  0.67533300  1
  O  O13  1  0.60493700  0.11485300  0.67533100  1
  O  O14  1  0.39506300  0.88514700  0.32466900  1
  O  O15  1  0.89509600  0.88514800  0.32466700  1
