# generated using pymatgen
data_Y4CdMo3O16
_symmetry_space_group_name_H-M   'P 1'
_cell_length_a   10.86018900
_cell_length_b   10.86018900
_cell_length_c   10.86018900
_cell_angle_alpha   90.00000000
_cell_angle_beta   90.00000000
_cell_angle_gamma   90.00000000
_symmetry_Int_Tables_number   1
_chemical_formula_structural   Y4CdMo3O16
_chemical_formula_sum   'Y16 Cd4 Mo12 O64'
_cell_volume   1280.89092892
_cell_formula_units_Z   4
loop_
 _symmetry_equiv_pos_site_id
 _symmetry_equiv_pos_as_xyz
  1  'x, y, z'
loop_
 _atom_site_type_symbol
 _atom_site_label
 _atom_site_symmetry_multiplicity
 _atom_site_fract_x
 _atom_site_fract_y
 _atom_site_fract_z
 _atom_site_occupancy
  Y  Y0  1  0.00000000  0.76410100  0.00000000  1
  Y  Y1  1  0.00000000  0.23589900  0.00000000  1
  Y  Y2  1  0.50000000  0.26410100  0.50000000  1
  Y  Y3  1  0.50000000  0.73589900  0.50000000  1
  Y  Y4  1  0.00000000  0.00000000  0.76410100  1
  Y  Y5  1  0.00000000  0.00000000  0.23589900  1
  Y  Y6  1  0.50000000  0.50000000  0.26410100  1
  Y  Y7  1  0.50000000  0.50000000  0.73589900  1
  Y  Y8  1  0.76410100  0.00000000  0.00000000  1
  Y  Y9  1  0.23589900  0.00000000  0.00000000  1
  Y  Y10  1  0.26410100  0.50000000  0.50000000  1
  Y  Y11  1  0.73589900  0.50000000  0.50000000  1
  Y  Y12  1  0.75000000  0.25000000  0.25000000  1
  Y  Y13  1  0.25000000  0.25000000  0.75000000  1
  Y  Y14  1  0.25000000  0.75000000  0.25000000  1
  Y  Y15  1  0.75000000  0.75000000  0.75000000  1
  Cd  Cd16  1  0.25000000  0.75000000  0.75000000  1
  Cd  Cd17  1  0.75000000  0.75000000  0.25000000  1
  Cd  Cd18  1  0.75000000  0.25000000  0.75000000  1
  Cd  Cd19  1  0.25000000  0.25000000  0.25000000  1
  Mo  Mo20  1  0.50000000  0.75130000  0.00000000  1
  Mo  Mo21  1  0.50000000  0.24870000  0.00000000  1
  Mo  Mo22  1  0.00000000  0.50000000  0.75130000  1
  Mo  Mo23  1  0.00000000  0.50000000  0.24870000  1
  Mo  Mo24  1  0.75130000  0.00000000  0.50000000  1
  Mo  Mo25  1  0.24870000  0.00000000  0.50000000  1
  Mo  Mo26  1  0.00000000  0.74870000  0.50000000  1
  Mo  Mo27  1  0.00000000  0.25130000  0.50000000  1
  Mo  Mo28  1  0.50000000  0.00000000  0.74870000  1
  Mo  Mo29  1  0.50000000  0.00000000  0.25130000  1
  Mo  Mo30  1  0.74870000  0.50000000  0.00000000  1
  Mo  Mo31  1  0.25130000  0.50000000  0.00000000  1
  O  O32  1  0.16499600  0.08151100  0.62068200  1
  O  O33  1  0.83500400  0.08151100  0.37931800  1
  O  O34  1  0.83500400  0.91848900  0.62068200  1
  O  O35  1  0.16499600  0.91848900  0.37931800  1
  O  O36  1  0.88761600  0.57623300  0.34237000  1
  O  O37  1  0.11238400  0.57623300  0.65763000  1
  O  O38  1  0.11238400  0.42376700  0.34237000  1
  O  O39  1  0.88761600  0.42376700  0.65763000  1
  O  O40  1  0.62068200  0.16499600  0.08151100  1
  O  O41  1  0.37931800  0.83500400  0.08151100  1
  O  O42  1  0.62068200  0.83500400  0.91848900  1
  O  O43  1  0.37931800  0.16499600  0.91848900  1
  O  O44  1  0.34237000  0.88761600  0.57623300  1
  O  O45  1  0.65763000  0.11238400  0.57623300  1
  O  O46  1  0.34237000  0.11238400  0.42376700  1
  O  O47  1  0.65763000  0.88761600  0.42376700  1
  O  O48  1  0.08151100  0.62068200  0.16499600  1
  O  O49  1  0.08151100  0.37931800  0.83500400  1
  O  O50  1  0.91848900  0.62068200  0.83500400  1
  O  O51  1  0.91848900  0.37931800  0.16499600  1
  O  O52  1  0.57623300  0.34237000  0.88761600  1
  O  O53  1  0.57623300  0.65763000  0.11238400  1
  O  O54  1  0.42376700  0.34237000  0.11238400  1
  O  O55  1  0.42376700  0.65763000  0.88761600  1
  O  O56  1  0.33500400  0.41848900  0.87931800  1
  O  O57  1  0.66499600  0.41848900  0.12068200  1
  O  O58  1  0.66499600  0.58151100  0.87931800  1
  O  O59  1  0.33500400  0.58151100  0.12068200  1
  O  O60  1  0.61238400  0.92376700  0.15763000  1
  O  O61  1  0.38761600  0.92376700  0.84237000  1
  O  O62  1  0.38761600  0.07623300  0.15763000  1
  O  O63  1  0.61238400  0.07623300  0.84237000  1
  O  O64  1  0.87931800  0.33500400  0.41848900  1
  O  O65  1  0.12068200  0.66499600  0.41848900  1
  O  O66  1  0.87931800  0.66499600  0.58151100  1
  O  O67  1  0.12068200  0.33500400  0.58151100  1
  O  O68  1  0.15763000  0.61238400  0.92376700  1
  O  O69  1  0.84237000  0.38761600  0.92376700  1
  O  O70  1  0.15763000  0.38761600  0.07623300  1
  O  O71  1  0.84237000  0.61238400  0.07623300  1
  O  O72  1  0.41848900  0.87931800  0.33500400  1
  O  O73  1  0.41848900  0.12068200  0.66499600  1
  O  O74  1  0.58151100  0.87931800  0.66499600  1
  O  O75  1  0.58151100  0.12068200  0.33500400  1
  O  O76  1  0.92376700  0.15763000  0.61238400  1
  O  O77  1  0.92376700  0.84237000  0.38761600  1
  O  O78  1  0.07623300  0.15763000  0.38761600  1
  O  O79  1  0.07623300  0.84237000  0.61238400  1
  O  O80  1  0.13004600  0.86995400  0.86995400  1
  O  O81  1  0.86995400  0.86995400  0.13004600  1
  O  O82  1  0.86995400  0.13004600  0.86995400  1
  O  O83  1  0.13004600  0.13004600  0.13004600  1
  O  O84  1  0.62905300  0.37094700  0.37094700  1
  O  O85  1  0.37094700  0.37094700  0.62905300  1
  O  O86  1  0.37094700  0.62905300  0.37094700  1
  O  O87  1  0.62905300  0.62905300  0.62905300  1
  O  O88  1  0.36995400  0.63004600  0.63004600  1
  O  O89  1  0.63004600  0.63004600  0.36995400  1
  O  O90  1  0.63004600  0.36995400  0.63004600  1
  O  O91  1  0.36995400  0.36995400  0.36995400  1
  O  O92  1  0.87094700  0.12905300  0.12905300  1
  O  O93  1  0.12905300  0.12905300  0.87094700  1
  O  O94  1  0.12905300  0.87094700  0.12905300  1
  O  O95  1  0.87094700  0.87094700  0.87094700  1
