# generated using pymatgen
data_Zn3Fe2Cu10(SnSe4)5
_symmetry_space_group_name_H-M   'P 1'
_cell_length_a   7.04413780
_cell_length_b   7.04413780
_cell_length_c   25.80214930
_cell_angle_alpha   89.68406512
_cell_angle_beta   89.68406512
_cell_angle_gamma   48.34968647
_symmetry_Int_Tables_number   1
_chemical_formula_structural   Zn3Fe2Cu10(SnSe4)5
_chemical_formula_sum   'Zn3 Fe2 Cu10 Sn5 Se20'
_cell_volume   956.64122719
_cell_formula_units_Z   1
loop_
 _symmetry_equiv_pos_site_id
 _symmetry_equiv_pos_as_xyz
  1  'x, y, z'
loop_
 _atom_site_type_symbol
 _atom_site_label
 _atom_site_symmetry_multiplicity
 _atom_site_fract_x
 _atom_site_fract_y
 _atom_site_fract_z
 _atom_site_occupancy
  Zn  Zn0  1  0.00017700  0.59989300  0.80001300  1
  Zn  Zn1  1  0.19999400  0.80000600  0.00000000  1
  Zn  Zn2  1  0.40010700  0.99982300  0.19998700  1
  Fe  Fe3  1  0.59964300  0.20033800  0.40003400  1
  Fe  Fe4  1  0.79966200  0.40035700  0.59996600  1
  Cu  Cu5  1  0.29996700  0.90003100  0.85003200  1
  Cu  Cu6  1  0.69909700  0.30052000  0.25012500  1
  Cu  Cu7  1  0.50004100  0.10004500  0.04998700  1
  Cu  Cu8  1  0.10132600  0.69893000  0.64989900  1
  Cu  Cu9  1  0.89995400  0.49991700  0.45000300  1
  Cu  Cu10  1  0.69948000  0.30090300  0.74987500  1
  Cu  Cu11  1  0.09996900  0.70003300  0.14996800  1
  Cu  Cu12  1  0.89995500  0.49995900  0.95001300  1
  Cu  Cu13  1  0.50008300  0.10004600  0.54999700  1
  Cu  Cu14  1  0.30107000  0.89867400  0.35010100  1
  Sn  Sn15  1  0.39978900  0.99971700  0.69970400  1
  Sn  Sn16  1  0.80020300  0.39967700  0.10008200  1
  Sn  Sn17  1  0.60032300  0.19979700  0.89991800  1
  Sn  Sn18  1  0.19938000  0.80062000  0.50000000  1
  Sn  Sn19  1  0.00028300  0.60021100  0.30029600  1
  Se  Se20  1  0.50749300  0.57276700  0.67311300  1
  Se  Se21  1  0.69924100  0.77969300  0.87519600  1
  Se  Se22  1  0.89935400  0.97966100  0.07513500  1
  Se  Se23  1  0.10099600  0.17627500  0.27494000  1
  Se  Se24  1  0.30779300  0.37054800  0.47310400  1
  Se  Se25  1  0.08173200  0.20510300  0.77953600  1
  Se  Se26  1  0.28341500  0.40333700  0.97910400  1
  Se  Se27  1  0.48304500  0.60361600  0.17932800  1
  Se  Se28  1  0.67923800  0.81445600  0.38018900  1
  Se  Se29  1  0.87818000  0.01553300  0.58042800  1
  Se  Se30  1  0.39638400  0.51695500  0.82067200  1
  Se  Se31  1  0.59666300  0.71658500  0.02089600  1
  Se  Se32  1  0.79489700  0.91826800  0.22046400  1
  Se  Se33  1  0.98446700  0.12182000  0.41957200  1
  Se  Se34  1  0.18554400  0.32076200  0.61981100  1
  Se  Se35  1  0.02033900  0.10064600  0.92486500  1
  Se  Se36  1  0.22030700  0.30075900  0.12480400  1
  Se  Se37  1  0.42723300  0.49250700  0.32688700  1
  Se  Se38  1  0.62945200  0.69220700  0.52689600  1
  Se  Se39  1  0.82372500  0.89900400  0.72506000  1
