# generated using pymatgen
data_VP3(Pb3O8)2
_symmetry_space_group_name_H-M   'P 1'
_cell_length_a   5.93910600
_cell_length_b   7.60767699
_cell_length_c   9.67107905
_cell_angle_alpha   100.86811764
_cell_angle_beta   90.34060429
_cell_angle_gamma   112.67851881
_symmetry_Int_Tables_number   1
_chemical_formula_structural   VP3(Pb3O8)2
_chemical_formula_sum   'V1 P3 Pb6 O16'
_cell_volume   394.45582016
_cell_formula_units_Z   1
loop_
 _symmetry_equiv_pos_site_id
 _symmetry_equiv_pos_as_xyz
  1  'x, y, z'
loop_
 _atom_site_type_symbol
 _atom_site_label
 _atom_site_symmetry_multiplicity
 _atom_site_fract_x
 _atom_site_fract_y
 _atom_site_fract_z
 _atom_site_occupancy
  V  V0  1  0.64396600  0.79471700  0.05308200  1
  P  P1  1  0.84953700  0.20009900  0.44420700  1
  P  P2  1  0.35108000  0.20026600  0.94492100  1
  P  P3  1  0.15240600  0.80049200  0.55556400  1
  Pb  Pb4  1  0.01032400  0.37191300  0.15525400  1
  Pb  Pb5  1  0.65012900  0.64100300  0.35289900  1
  Pb  Pb6  1  0.99725700  0.64134500  0.84265600  1
  Pb  Pb7  1  0.35387100  0.35724500  0.65256000  1
  Pb  Pb8  1  0.29483800  0.00208900  0.25371800  1
  Pb  Pb9  1  0.70268900  0.00142300  0.74686200  1
  O  O10  1  0.63828200  0.70866900  0.86962700  1
  O  O11  1  0.91962400  0.27764700  0.60821300  1
  O  O12  1  0.35830000  0.27937200  0.10767700  1
  O  O13  1  0.08052500  0.72240200  0.39314000  1
  O  O14  1  0.85143600  0.72911200  0.13904700  1
  O  O15  1  0.09531100  0.26170200  0.37027400  1
  O  O16  1  0.16711000  0.26226500  0.86801200  1
  O  O17  1  0.90649100  0.73840300  0.62944200  1
  O  O18  1  0.74226300  0.04383900  0.08428200  1
  O  O19  1  0.71357800  0.97554700  0.41642600  1
  O  O20  1  0.26209200  0.97484500  0.91814300  1
  O  O21  1  0.28815500  0.02468900  0.58295500  1
  O  O22  1  0.36284600  0.70249900  0.12235700  1
  O  O23  1  0.68079500  0.28910500  0.38802900  1
  O  O24  1  0.60612400  0.28706400  0.88705500  1
  O  O25  1  0.32097000  0.71224900  0.61359900  1
