# generated using pymatgen
data_Y3(Fe8Mo)4
_symmetry_space_group_name_H-M   'P 1'
_cell_length_a   4.73252100
_cell_length_b   6.47925882
_cell_length_c   18.23054420
_cell_angle_alpha   93.11076429
_cell_angle_beta   82.54216964
_cell_angle_gamma   111.42022096
_symmetry_Int_Tables_number   1
_chemical_formula_structural   Y3(Fe8Mo)4
_chemical_formula_sum   'Y3 Fe32 Mo4'
_cell_volume   515.97855371
_cell_formula_units_Z   1
loop_
 _symmetry_equiv_pos_site_id
 _symmetry_equiv_pos_as_xyz
  1  'x, y, z'
loop_
 _atom_site_type_symbol
 _atom_site_label
 _atom_site_symmetry_multiplicity
 _atom_site_fract_x
 _atom_site_fract_y
 _atom_site_fract_z
 _atom_site_occupancy
  Y  Y0  1  0.00027200  0.00033600  0.99979100  1
  Y  Y1  1  0.32923500  0.99399700  0.33552600  1
  Y  Y2  1  0.66289300  0.99442800  0.66864200  1
  Fe  Fe3  1  0.34997900  0.77484000  0.07488200  1
  Fe  Fe4  1  0.68069200  0.77135500  0.40997000  1
  Fe  Fe5  1  0.01393200  0.77091100  0.74304600  1
  Fe  Fe6  1  0.98334400  0.22505700  0.25837000  1
  Fe  Fe7  1  0.31867000  0.22812300  0.59078200  1
  Fe  Fe8  1  0.65192700  0.22749700  0.92364200  1
  Fe  Fe9  1  0.76023500  0.78061500  0.26014600  1
  Fe  Fe10  1  0.09351200  0.77917000  0.59214700  1
  Fe  Fe11  1  0.42620200  0.77779900  0.92539400  1
  Fe  Fe12  1  0.57341400  0.22008200  0.07325500  1
  Fe  Fe13  1  0.90820300  0.22358200  0.40717700  1
  Fe  Fe14  1  0.24179200  0.22364800  0.74006400  1
  Fe  Fe15  1  0.16730000  0.00019000  0.16663000  1
  Fe  Fe16  1  0.49826200  0.99840800  0.50015100  1
  Fe  Fe17  1  0.83104300  0.99782300  0.83342700  1
  Fe  Fe18  1  0.66626100  0.00019000  0.16663000  1
  Fe  Fe19  1  0.99999500  0.99840800  0.50015100  1
  Fe  Fe20  1  0.33335300  0.99782300  0.83342700  1
  Fe  Fe21  1  0.00067000  0.49865500  0.99926800  1
  Fe  Fe22  1  0.33098000  0.50103700  0.33490800  1
  Fe  Fe23  1  0.66547100  0.49943600  0.66733600  1
  Fe  Fe24  1  0.49871700  0.49865500  0.99926800  1
  Fe  Fe25  1  0.83514800  0.50103700  0.33490800  1
  Fe  Fe26  1  0.16663100  0.49943600  0.66733600  1
  Fe  Fe27  1  0.09399500  0.64127900  0.45328900  1
  Fe  Fe28  1  0.42760500  0.64137200  0.78616300  1
  Fe  Fe29  1  0.11944800  0.35810000  0.11920400  1
  Fe  Fe30  1  0.45341500  0.35961500  0.45278400  1
  Fe  Fe31  1  0.78682800  0.35967300  0.78601800  1
  Fe  Fe32  1  0.21369900  0.64145100  0.21405200  1
  Fe  Fe33  1  0.54741400  0.64167500  0.54684900  1
  Fe  Fe34  1  0.88075400  0.64163400  0.88012700  1
  Mo  Mo35  1  0.57107100  0.35776000  0.21561700  1
  Mo  Mo36  1  0.91069400  0.36578700  0.54440100  1
  Mo  Mo37  1  0.24454500  0.36581300  0.87672200  1
  Mo  Mo38  1  0.76240200  0.64330400  0.11849900  1
