# generated using pymatgen
data_Yb4Cl2O13
_symmetry_space_group_name_H-M   'P 1'
_cell_length_a   7.99378600
_cell_length_b   6.02432100
_cell_length_c   13.08353621
_cell_angle_alpha   87.26913976
_cell_angle_beta   90.00000000
_cell_angle_gamma   90.00000000
_symmetry_Int_Tables_number   1
_chemical_formula_structural   Yb4Cl2O13
_chemical_formula_sum   'Yb8 Cl4 O26'
_cell_volume   629.35006287
_cell_formula_units_Z   2
loop_
 _symmetry_equiv_pos_site_id
 _symmetry_equiv_pos_as_xyz
  1  'x, y, z'
loop_
 _atom_site_type_symbol
 _atom_site_label
 _atom_site_symmetry_multiplicity
 _atom_site_fract_x
 _atom_site_fract_y
 _atom_site_fract_z
 _atom_site_occupancy
  Yb  Yb0  1  0.70495000  0.45356900  0.26202800  1
  Yb  Yb1  1  0.20495000  0.54643100  0.73797200  1
  Yb  Yb2  1  0.17653700  0.41492200  0.27781900  1
  Yb  Yb3  1  0.67653700  0.58507800  0.72218100  1
  Yb  Yb4  1  0.97485600  0.42866200  0.52236000  1
  Yb  Yb5  1  0.47485600  0.57133800  0.47764000  1
  Yb  Yb6  1  0.44023900  0.40893400  0.97402100  1
  Yb  Yb7  1  0.94023900  0.59106600  0.02597900  1
  Cl  Cl8  1  0.87787700  0.98706200  0.37140600  1
  Cl  Cl9  1  0.37787700  0.01293800  0.62859400  1
  Cl  Cl10  1  0.58449100  0.83289600  0.04932900  1
  Cl  Cl11  1  0.08449100  0.16710400  0.95067100  1
  O  O12  1  0.00533700  0.18447100  0.38728600  1
  O  O13  1  0.50533700  0.81552900  0.61271400  1
  O  O14  1  0.30323500  0.30374300  0.13073600  1
  O  O15  1  0.80323500  0.69625700  0.86926400  1
  O  O16  1  0.25637500  0.43257100  0.57623300  1
  O  O17  1  0.75637500  0.56742900  0.42376700  1
  O  O18  1  0.78926200  0.47358100  0.88190900  1
  O  O19  1  0.28926200  0.52641900  0.11809100  1
  O  O20  1  0.93795700  0.41063100  0.70535700  1
  O  O21  1  0.43795700  0.58936900  0.29464300  1
  O  O22  1  0.46378200  0.39681900  0.79868700  1
  O  O23  1  0.96378200  0.60318100  0.20131300  1
  O  O24  1  0.94526700  0.63881800  0.66685200  1
  O  O25  1  0.44526700  0.36118200  0.33314800  1
  O  O26  1  0.45143900  0.62671200  0.82549500  1
  O  O27  1  0.95143900  0.37328800  0.17450500  1
  O  O28  1  0.76676200  0.17439700  0.58889000  1
  O  O29  1  0.26676200  0.82560300  0.41111000  1
  O  O30  1  0.48785400  0.03946700  0.98908600  1
  O  O31  1  0.98785400  0.96053300  0.01091400  1
  O  O32  1  0.66018600  0.33761700  0.57289500  1
  O  O33  1  0.16018600  0.66238300  0.42710500  1
  O  O34  1  0.15535300  0.46208600  0.91885600  1
  O  O35  1  0.65535300  0.53791400  0.08114400  1
  O  O36  1  0.73266000  0.05983700  0.30034400  1
  O  O37  1  0.23266000  0.94016300  0.69965600  1
