# generated using pymatgen
data_Y11Mg76
_symmetry_space_group_name_H-M   'P 1'
_cell_length_a   24.51360848
_cell_length_b   24.51360848
_cell_length_c   9.68490271
_cell_angle_alpha   82.37812942
_cell_angle_beta   82.37812942
_cell_angle_gamma   153.52303514
_symmetry_Int_Tables_number   1
_chemical_formula_structural   Y11Mg76
_chemical_formula_sum   'Y11 Mg76'
_cell_volume   2115.19868342
_cell_formula_units_Z   1
loop_
 _symmetry_equiv_pos_site_id
 _symmetry_equiv_pos_as_xyz
  1  'x, y, z'
loop_
 _atom_site_type_symbol
 _atom_site_label
 _atom_site_symmetry_multiplicity
 _atom_site_fract_x
 _atom_site_fract_y
 _atom_site_fract_z
 _atom_site_occupancy
  Y  Y0  1  0.00133300  0.00133300  0.00122600  1
  Y  Y1  1  0.66700900  0.33353200  0.00108300  1
  Y  Y2  1  0.33353200  0.66700900  0.00108300  1
  Y  Y3  1  0.03988500  0.70668900  0.62744400  1
  Y  Y4  1  0.70668900  0.03988500  0.62744400  1
  Y  Y5  1  0.87643000  0.75230100  0.00056400  1
  Y  Y6  1  0.54243500  0.08461000  0.00002700  1
  Y  Y7  1  0.20889800  0.41774100  0.99966400  1
  Y  Y8  1  0.41774100  0.20889800  0.99966400  1
  Y  Y9  1  0.08461000  0.54243500  0.00002700  1
  Y  Y10  1  0.75230100  0.87643000  0.00056400  1
  Mg  Mg11  1  0.63002800  0.63002800  0.18152300  1
  Mg  Mg12  1  0.29591600  0.96244000  0.18161000  1
  Mg  Mg13  1  0.96244000  0.29591600  0.18161000  1
  Mg  Mg14  1  0.24693000  0.12297700  0.81057200  1
  Mg  Mg15  1  0.91421500  0.45708100  0.80945400  1
  Mg  Mg16  1  0.58095500  0.79040200  0.81001100  1
  Mg  Mg17  1  0.79040200  0.58095500  0.81001100  1
  Mg  Mg18  1  0.45708100  0.91421500  0.80945400  1
  Mg  Mg19  1  0.12297700  0.24693000  0.81057200  1
  Mg  Mg20  1  0.81111300  0.81111300  0.81830400  1
  Mg  Mg21  1  0.47712200  0.14379100  0.81873700  1
  Mg  Mg22  1  0.14379100  0.47712200  0.81873700  1
  Mg  Mg23  1  0.59964400  0.39019500  0.19065400  1
  Mg  Mg24  1  0.26674300  0.72374000  0.19075300  1
  Mg  Mg25  1  0.93438000  0.05800100  0.18943600  1
  Mg  Mg26  1  0.05800100  0.93438000  0.18943600  1
  Mg  Mg27  1  0.72374000  0.26674300  0.19075300  1
  Mg  Mg28  1  0.39019500  0.59964400  0.19065400  1
  Mg  Mg29  1  0.31058000  0.25006900  0.00005300  1
  Mg  Mg30  1  0.97728000  0.58388200  0.00034900  1
  Mg  Mg31  1  0.64368100  0.91680200  0.00123200  1
  Mg  Mg32  1  0.35889900  0.08869500  0.37114200  1
  Mg  Mg33  1  0.02604600  0.42244900  0.37071200  1
  Mg  Mg34  1  0.69283200  0.75619700  0.37010900  1
  Mg  Mg35  1  0.73063900  0.46067400  0.62943400  1
  Mg  Mg36  1  0.39702700  0.79392400  0.62983800  1
  Mg  Mg37  1  0.06238500  0.12589800  0.62995300  1
  Mg  Mg38  1  0.91680200  0.64368100  0.00123200  1
  Mg  Mg39  1  0.58388200  0.97728000  0.00034900  1
  Mg  Mg40  1  0.25006900  0.31058000  0.00005300  1
  Mg  Mg41  1  0.12589800  0.06238500  0.62995300  1
  Mg  Mg42  1  0.79392400  0.39702700  0.62983800  1
  Mg  Mg43  1  0.46067400  0.73063900  0.62943400  1
  Mg  Mg44  1  0.75619700  0.69283200  0.37010900  1
  Mg  Mg45  1  0.42244900  0.02604600  0.37071200  1
  Mg  Mg46  1  0.08869500  0.35889900  0.37114200  1
  Mg  Mg47  1  0.60474600  0.60474600  0.71527000  1
  Mg  Mg48  1  0.27415100  0.94062200  0.71635500  1
  Mg  Mg49  1  0.94062200  0.27415000  0.71635500  1
  Mg  Mg50  1  0.26252000  0.13158200  0.32347300  1
  Mg  Mg51  1  0.92827100  0.46422400  0.32326200  1
  Mg  Mg52  1  0.59507700  0.79740800  0.32330700  1
  Mg  Mg53  1  0.79740800  0.59507700  0.32330700  1
  Mg  Mg54  1  0.46422400  0.92827100  0.32326200  1
  Mg  Mg55  1  0.13158200  0.26252000  0.32347300  1
  Mg  Mg56  1  0.31947700  0.31947700  0.28493400  1
  Mg  Mg57  1  0.98601000  0.65281000  0.28689700  1
  Mg  Mg58  1  0.65281000  0.98601000  0.28689700  1
  Mg  Mg59  1  0.12098100  0.91832500  0.67568200  1
  Mg  Mg60  1  0.78743100  0.25152300  0.67595700  1
  Mg  Mg61  1  0.45467600  0.58615500  0.67638400  1
  Mg  Mg62  1  0.58615500  0.45467600  0.67638400  1
  Mg  Mg63  1  0.25152300  0.78743100  0.67595700  1
  Mg  Mg64  1  0.91832500  0.12098100  0.67568200  1
  Mg  Mg65  1  0.15214900  0.91349100  0.99990100  1
  Mg  Mg66  1  0.81967400  0.24799600  0.99886900  1
  Mg  Mg67  1  0.48617900  0.58111300  0.99942700  1
  Mg  Mg68  1  0.49985600  0.39326600  0.39218200  1
  Mg  Mg69  1  0.16727200  0.72584600  0.39078800  1
  Mg  Mg70  1  0.83403700  0.05931900  0.39120100  1
  Mg  Mg71  1  0.89211000  0.78575200  0.60835800  1
  Mg  Mg72  1  0.56021700  0.12042500  0.60781500  1
  Mg  Mg73  1  0.22720600  0.45377000  0.60747400  1
  Mg  Mg74  1  0.58111300  0.48617900  0.99942700  1
  Mg  Mg75  1  0.24799600  0.81967400  0.99886900  1
  Mg  Mg76  1  0.91349100  0.15214900  0.99990100  1
  Mg  Mg77  1  0.45377000  0.22720600  0.60747400  1
  Mg  Mg78  1  0.12042500  0.56021700  0.60781500  1
  Mg  Mg79  1  0.78575200  0.89211000  0.60835800  1
  Mg  Mg80  1  0.05931900  0.83403700  0.39120100  1
  Mg  Mg81  1  0.72584600  0.16727200  0.39078800  1
  Mg  Mg82  1  0.39326600  0.49985600  0.39218200  1
  Mg  Mg83  1  0.00002600  0.00002600  0.36967400  1
  Mg  Mg84  1  0.66691400  0.33360200  0.36907500  1
  Mg  Mg85  1  0.33360200  0.66691400  0.36907500  1
  Mg  Mg86  1  0.36928900  0.36928900  0.63058700  1
