# generated using pymatgen
data_VAs2H4O9
_symmetry_space_group_name_H-M   'P 1'
_cell_length_a   7.84187788
_cell_length_b   7.84187788
_cell_length_c   7.84187788
_cell_angle_alpha   105.91827963
_cell_angle_beta   105.91827963
_cell_angle_gamma   116.83790345
_symmetry_Int_Tables_number   1
_chemical_formula_structural   VAs2H4O9
_chemical_formula_sum   'V2 As4 H8 O18'
_cell_volume   366.56726835
_cell_formula_units_Z   2
loop_
 _symmetry_equiv_pos_site_id
 _symmetry_equiv_pos_as_xyz
  1  'x, y, z'
loop_
 _atom_site_type_symbol
 _atom_site_label
 _atom_site_symmetry_multiplicity
 _atom_site_fract_x
 _atom_site_fract_y
 _atom_site_fract_z
 _atom_site_occupancy
  V  V0  1  0.54214300  0.54214300  0.00000000  1
  V  V1  1  0.04214300  0.04214300  0.00000000  1
  As  As2  1  0.29950100  0.20376600  0.50000000  1
  As  As3  1  0.70376600  0.79950100  0.50000000  1
  As  As4  1  0.20376600  0.70376600  0.90426500  1
  As  As5  1  0.79950100  0.29950100  0.09573500  1
  H  H6  1  0.90401200  0.13216100  0.50000000  1
  H  H7  1  0.63216100  0.40401200  0.50000000  1
  H  H8  1  0.13216100  0.63216100  0.22814900  1
  H  H9  1  0.40401200  0.90401200  0.77185100  1
  H  H10  1  0.09636400  0.87160100  0.50000000  1
  H  H11  1  0.37160100  0.59636400  0.50000000  1
  H  H12  1  0.87160100  0.37160100  0.77523700  1
  H  H13  1  0.59636400  0.09636400  0.22476300  1
  O  O14  1  0.32328800  0.38239600  0.70294700  1
  O  O15  1  0.67944900  0.62034100  0.29705300  1
  O  O16  1  0.17944900  0.88239600  0.05910800  1
  O  O17  1  0.82328800  0.12034100  0.94089200  1
  O  O18  1  0.38239600  0.67944900  0.05910800  1
  O  O19  1  0.62034100  0.32328800  0.94089200  1
  O  O20  1  0.88239600  0.82328800  0.70294700  1
  O  O21  1  0.12034100  0.17944900  0.29705300  1
  O  O22  1  0.54269500  0.26693400  0.50000000  1
  O  O23  1  0.76693400  0.04269500  0.50000000  1
  O  O24  1  0.26693400  0.76693400  0.72423900  1
  O  O25  1  0.04269500  0.54269500  0.27576100  1
  O  O26  1  0.46005100  0.73380000  0.50000000  1
  O  O27  1  0.23380000  0.96005100  0.50000000  1
  O  O28  1  0.73380000  0.23380000  0.27374900  1
  O  O29  1  0.96005100  0.46005100  0.72625100  1
  O  O30  1  0.74359900  0.74359900  0.00000000  1
  O  O31  1  0.24359900  0.24359900  0.00000000  1
