# generated using pymatgen
data_Yb5S9
_symmetry_space_group_name_H-M   'P 1'
_cell_length_a   10.71903216
_cell_length_b   10.71903216
_cell_length_c   12.11269542
_cell_angle_alpha   77.40165826
_cell_angle_beta   77.40165826
_cell_angle_gamma   30.20361853
_symmetry_Int_Tables_number   1
_chemical_formula_structural   Yb5S9
_chemical_formula_sum   'Yb10 S18'
_cell_volume   682.03797176
_cell_formula_units_Z   2
loop_
 _symmetry_equiv_pos_site_id
 _symmetry_equiv_pos_as_xyz
  1  'x, y, z'
loop_
 _atom_site_type_symbol
 _atom_site_label
 _atom_site_symmetry_multiplicity
 _atom_site_fract_x
 _atom_site_fract_y
 _atom_site_fract_z
 _atom_site_occupancy
  Yb  Yb0  1  0.57687500  0.61937700  0.96633000  1
  Yb  Yb1  1  0.17601700  0.22306700  0.76371400  1
  Yb  Yb2  1  0.97964300  0.02011100  0.16595900  1
  Yb  Yb3  1  0.77162100  0.82806700  0.56583400  1
  Yb  Yb4  1  0.37620600  0.42038200  0.36599700  1
  Yb  Yb5  1  0.97988900  0.02035700  0.83404100  1
  Yb  Yb6  1  0.57961800  0.62379400  0.63400300  1
  Yb  Yb7  1  0.38062300  0.42312500  0.03367000  1
  Yb  Yb8  1  0.17193300  0.22837900  0.43416600  1
  Yb  Yb9  1  0.77693300  0.82398300  0.23628600  1
  S  S10  1  0.65837300  0.34162700  0.50000000  1
  S  S11  1  0.23636100  0.97247800  0.29157000  1
  S  S12  1  0.02752200  0.76363900  0.70843000  1
  S  S13  1  0.69516600  0.69126900  0.11368000  1
  S  S14  1  0.30873100  0.30483400  0.88632000  1
  S  S15  1  0.98363000  0.66784600  0.84897500  1
  S  S16  1  0.31064900  0.68935100  0.50000000  1
  S  S17  1  0.33215400  0.01637000  0.15102500  1
  S  S18  1  0.87942900  0.92149600  0.03441900  1
  S  S19  1  0.08001000  0.12368800  0.63728300  1
  S  S20  1  0.27736300  0.32291300  0.23274400  1
  S  S21  1  0.48538400  0.52260300  0.83689000  1
  S  S22  1  0.67654700  0.72997600  0.43793300  1
  S  S23  1  0.47739700  0.51461600  0.16311000  1
  S  S24  1  0.67708700  0.72263700  0.76725600  1
  S  S25  1  0.87631200  0.91999000  0.36271700  1
  S  S26  1  0.07850400  0.12057100  0.96558100  1
  S  S27  1  0.27002400  0.32345300  0.56206700  1
