# generated using pymatgen
data_V3B100
_symmetry_space_group_name_H-M   'P 1'
_cell_length_a   4.98834100
_cell_length_b   8.86165400
_cell_length_c   17.73195300
_cell_angle_alpha   90.00000000
_cell_angle_beta   90.00000000
_cell_angle_gamma   90.00000000
_symmetry_Int_Tables_number   1
_chemical_formula_structural   V3B100
_chemical_formula_sum   'V3 B100'
_cell_volume   783.84013081
_cell_formula_units_Z   1
loop_
 _symmetry_equiv_pos_site_id
 _symmetry_equiv_pos_as_xyz
  1  'x, y, z'
loop_
 _atom_site_type_symbol
 _atom_site_label
 _atom_site_symmetry_multiplicity
 _atom_site_fract_x
 _atom_site_fract_y
 _atom_site_fract_z
 _atom_site_occupancy
  V  V0  1  0.50000000  0.50000000  0.25040500  1
  V  V1  1  0.50000000  0.50000000  0.74959500  1
  V  V2  1  0.00000000  0.00000000  0.00000000  1
  B  B3  1  0.41278400  0.41487800  0.13209300  1
  B  B4  1  0.41542700  0.41522700  0.63333300  1
  B  B5  1  0.41542700  0.58477300  0.36666700  1
  B  B6  1  0.41278400  0.58512200  0.86790700  1
  B  B7  1  0.08906700  0.91973900  0.38505700  1
  B  B8  1  0.08655500  0.91458900  0.88236300  1
  B  B9  1  0.08655500  0.08541100  0.11763700  1
  B  B10  1  0.08906700  0.08026100  0.61494300  1
  B  B11  1  0.58721600  0.58512200  0.13209300  1
  B  B12  1  0.58457300  0.58477300  0.63333300  1
  B  B13  1  0.58457300  0.41522700  0.36666700  1
  B  B14  1  0.58721600  0.41487800  0.86790700  1
  B  B15  1  0.91093300  0.08026100  0.38505700  1
  B  B16  1  0.91344500  0.08541100  0.88236300  1
  B  B17  1  0.91344500  0.91458900  0.11763700  1
  B  B18  1  0.91093300  0.91973900  0.61494300  1
  B  B19  1  0.58843200  0.73518900  0.20708900  1
  B  B20  1  0.58317400  0.73399300  0.70797300  1
  B  B21  1  0.58317400  0.26600700  0.29202700  1
  B  B22  1  0.58843200  0.26481100  0.79291100  1
  B  B23  1  0.91046900  0.22982100  0.45980100  1
  B  B24  1  0.91338100  0.23517600  0.95733700  1
  B  B25  1  0.91338100  0.76482400  0.04266300  1
  B  B26  1  0.91046900  0.77017900  0.54019900  1
  B  B27  1  0.41156800  0.26481100  0.20708900  1
  B  B28  1  0.41682600  0.26600700  0.70797300  1
  B  B29  1  0.41682600  0.73399300  0.29202700  1
  B  B30  1  0.41156800  0.73518900  0.79291100  1
  B  B31  1  0.08953100  0.77017900  0.45980100  1
  B  B32  1  0.08661900  0.76482400  0.95733700  1
  B  B33  1  0.08661900  0.23517600  0.04266300  1
  B  B34  1  0.08953100  0.22982100  0.54019900  1
  B  B35  1  0.12437300  0.37373900  0.18657400  1
  B  B36  1  0.12792700  0.37307200  0.68674400  1
  B  B37  1  0.12792700  0.62692800  0.31325600  1
  B  B38  1  0.12437300  0.62626100  0.81342600  1
  B  B39  1  0.39090200  0.87052200  0.43495700  1
  B  B40  1  0.37465800  0.87354900  0.93680800  1
  B  B41  1  0.37465800  0.12645100  0.06319200  1
  B  B42  1  0.39090200  0.12947800  0.56504300  1
  B  B43  1  0.87562700  0.62626100  0.18657400  1
  B  B44  1  0.87207300  0.62692800  0.68674400  1
  B  B45  1  0.87207300  0.37307200  0.31325600  1
  B  B46  1  0.87562700  0.37373900  0.81342600  1
  B  B47  1  0.60909800  0.12947800  0.43495700  1
  B  B48  1  0.62534200  0.12645100  0.93680800  1
  B  B49  1  0.62534200  0.87354900  0.06319200  1
  B  B50  1  0.60909800  0.87052200  0.56504300  1
  B  B51  1  0.00000000  0.50000000  0.25026200  1
  B  B52  1  0.00000000  0.50000000  0.74973800  1
  B  B53  1  0.50000000  0.00000000  0.00000000  1
  B  B54  1  0.50000000  0.00000000  0.50000000  1
  B  B55  1  0.09442600  0.41587700  0.08663200  1
  B  B56  1  0.09729600  0.41393800  0.58666500  1
  B  B57  1  0.09729600  0.58606200  0.41333500  1
  B  B58  1  0.09442600  0.58412300  0.91336800  1
  B  B59  1  0.40608300  0.91484500  0.33581700  1
  B  B60  1  0.40503300  0.91589700  0.83688500  1
  B  B61  1  0.40503300  0.08410300  0.16311500  1
  B  B62  1  0.40608300  0.08515500  0.66418300  1
  B  B63  1  0.90557400  0.58412300  0.08663200  1
  B  B64  1  0.90270400  0.58606200  0.58666500  1
  B  B65  1  0.90270400  0.41393800  0.41333500  1
  B  B66  1  0.90557400  0.41587700  0.91336800  1
  B  B67  1  0.59391700  0.08515500  0.33581700  1
  B  B68  1  0.59496700  0.08410300  0.83688500  1
  B  B69  1  0.59496700  0.91589700  0.16311500  1
  B  B70  1  0.59391700  0.91484500  0.66418300  1
  B  B71  1  0.90808200  0.82573000  0.20821000  1
  B  B72  1  0.90072400  0.82747700  0.70690300  1
  B  B73  1  0.90072400  0.17252300  0.29309700  1
  B  B74  1  0.90808200  0.17427000  0.79179000  1
  B  B75  1  0.59450100  0.32838800  0.45724500  1
  B  B76  1  0.59461800  0.32620800  0.95803900  1
  B  B77  1  0.59461800  0.67379200  0.04196100  1
  B  B78  1  0.59450100  0.67161200  0.54275500  1
  B  B79  1  0.09191800  0.17427000  0.20821000  1
  B  B80  1  0.09927600  0.17252300  0.70690300  1
  B  B81  1  0.09927600  0.82747700  0.29309700  1
  B  B82  1  0.09191800  0.82573000  0.79179000  1
  B  B83  1  0.40549900  0.67161200  0.45724500  1
  B  B84  1  0.40538200  0.67379200  0.95803900  1
  B  B85  1  0.40538200  0.32620800  0.04196100  1
  B  B86  1  0.40549900  0.32838800  0.54275500  1
  B  B87  1  0.91738700  0.25718900  0.12844000  1
  B  B88  1  0.92639300  0.25436700  0.62724200  1
  B  B89  1  0.92639300  0.74563300  0.37275800  1
  B  B90  1  0.91738700  0.74281100  0.87156000  1
  B  B91  1  0.58499700  0.75741600  0.37869600  1
  B  B92  1  0.58186600  0.75703000  0.87856800  1
  B  B93  1  0.58186600  0.24297000  0.12143200  1
  B  B94  1  0.58499700  0.24258400  0.62130400  1
  B  B95  1  0.08261300  0.74281100  0.12844000  1
  B  B96  1  0.07360700  0.74563300  0.62724200  1
  B  B97  1  0.07360700  0.25436700  0.37275800  1
  B  B98  1  0.08261300  0.25718900  0.87156000  1
  B  B99  1  0.41500300  0.24258400  0.37869600  1
  B  B100  1  0.41813400  0.24297000  0.87856800  1
  B  B101  1  0.41813400  0.75703000  0.12143200  1
  B  B102  1  0.41500300  0.75741600  0.62130400  1
