# generated using pymatgen
data_V2Zn3H2O11
_symmetry_space_group_name_H-M   'P 1'
_cell_length_a   6.13041345
_cell_length_b   6.13041345
_cell_length_c   7.20898851
_cell_angle_alpha   89.93853862
_cell_angle_beta   89.93853862
_cell_angle_gamma   59.72295236
_symmetry_Int_Tables_number   1
_chemical_formula_structural   V2Zn3H2O11
_chemical_formula_sum   'V2 Zn3 H2 O11'
_cell_volume   233.97257509
_cell_formula_units_Z   1
loop_
 _symmetry_equiv_pos_site_id
 _symmetry_equiv_pos_as_xyz
  1  'x, y, z'
loop_
 _atom_site_type_symbol
 _atom_site_label
 _atom_site_symmetry_multiplicity
 _atom_site_fract_x
 _atom_site_fract_y
 _atom_site_fract_z
 _atom_site_occupancy
  V  V0  1  0.99975600  0.00016000  0.25003300  1
  V  V1  1  0.99984000  0.00024400  0.74996700  1
  Zn  Zn2  1  0.49920000  0.50080000  0.50000000  1
  Zn  Zn3  1  0.99881100  0.50083500  0.49944000  1
  Zn  Zn4  1  0.49916500  0.00118900  0.50056000  1
  H  H5  1  0.66375100  0.66843500  0.76594700  1
  H  H6  1  0.33156500  0.33624900  0.23405300  1
  O  O7  1  0.15206100  0.15540100  0.66768000  1
  O  O8  1  0.69142800  0.15585900  0.66866700  1
  O  O9  1  0.15459800  0.69067000  0.66984500  1
  O  O10  1  0.84459900  0.84793900  0.33232000  1
  O  O11  1  0.30933000  0.84540200  0.33015500  1
  O  O12  1  0.84414100  0.30857200  0.33133300  1
  O  O13  1  0.66505100  0.66765000  0.62755700  1
  O  O14  1  0.33235000  0.33494900  0.37244300  1
  O  O15  1  0.99898700  0.00101300  0.00000000  1
  O  O16  1  0.74708100  0.62770300  0.00162400  1
  O  O17  1  0.37229700  0.25291900  0.99837600  1
