# generated using pymatgen
data_Tm2Ge3
_symmetry_space_group_name_H-M   'P 1'
_cell_length_a   4.38017831
_cell_length_b   4.37851832
_cell_length_c   6.93020400
_cell_angle_alpha   90.00000000
_cell_angle_beta   90.00000000
_cell_angle_gamma   59.87144914
_symmetry_Int_Tables_number   1
_chemical_formula_structural   Tm2Ge3
_chemical_formula_sum   'Tm2 Ge3'
_cell_volume   114.95598397
_cell_formula_units_Z   1
loop_
 _symmetry_equiv_pos_site_id
 _symmetry_equiv_pos_as_xyz
  1  'x, y, z'
loop_
 _atom_site_type_symbol
 _atom_site_label
 _atom_site_symmetry_multiplicity
 _atom_site_fract_x
 _atom_site_fract_y
 _atom_site_fract_z
 _atom_site_occupancy
  Tm  Tm0  1  0.00012800  0.00024800  0.02017800  1
  Tm  Tm1  1  0.00012800  0.00024800  0.47982200  1
  Ge  Ge2  1  0.66636200  0.66610100  0.75000000  1
  Ge  Ge3  1  0.33280300  0.33262900  0.25000000  1
  Ge  Ge4  1  0.33377900  0.33407300  0.75000000  1
