# generated using pymatgen
data_TlIn3Se4
_symmetry_space_group_name_H-M   'P 1'
_cell_length_a   6.79453612
_cell_length_b   6.79453612
_cell_length_c   6.79453612
_cell_angle_alpha   105.15948987
_cell_angle_beta   105.15948987
_cell_angle_gamma   118.48876168
_symmetry_Int_Tables_number   1
_chemical_formula_structural   TlIn3Se4
_chemical_formula_sum   'Tl1 In3 Se4'
_cell_volume   236.91765665
_cell_formula_units_Z   1
loop_
 _symmetry_equiv_pos_site_id
 _symmetry_equiv_pos_as_xyz
  1  'x, y, z'
loop_
 _atom_site_type_symbol
 _atom_site_label
 _atom_site_symmetry_multiplicity
 _atom_site_fract_x
 _atom_site_fract_y
 _atom_site_fract_z
 _atom_site_occupancy
  Tl  Tl0  1  0.00000000  0.00000000  0.00000000  1
  In  In1  1  0.50000000  0.00000000  0.50000000  1
  In  In2  1  0.00000000  0.50000000  0.50000000  1
  In  In3  1  0.50000000  0.50000000  0.00000000  1
  Se  Se4  1  0.92126600  0.42126600  0.84253200  1
  Se  Se5  1  0.57873400  0.07873400  0.15746800  1
  Se  Se6  1  0.07873400  0.92126600  0.50000000  1
  Se  Se7  1  0.42126600  0.57873400  0.50000000  1
