# generated using pymatgen
data_TlIn2GaTe4
_symmetry_space_group_name_H-M   'P 1'
_cell_length_a   7.05413743
_cell_length_b   7.05413743
_cell_length_c   7.05413743
_cell_angle_alpha   119.83127301
_cell_angle_beta   104.59133128
_cell_angle_gamma   104.51476756
_symmetry_Int_Tables_number   1
_chemical_formula_structural   TlIn2GaTe4
_chemical_formula_sum   'Tl1 In2 Ga1 Te4'
_cell_volume   263.48682853
_cell_formula_units_Z   1
loop_
 _symmetry_equiv_pos_site_id
 _symmetry_equiv_pos_as_xyz
  1  'x, y, z'
loop_
 _atom_site_type_symbol
 _atom_site_label
 _atom_site_symmetry_multiplicity
 _atom_site_fract_x
 _atom_site_fract_y
 _atom_site_fract_z
 _atom_site_occupancy
  Tl  Tl0  1  0.00000000  0.50000000  0.50000000  1
  In  In1  1  0.50000000  0.50000000  0.00000000  1
  In  In2  1  0.00000000  0.00000000  0.00000000  1
  Ga  Ga3  1  0.50000000  0.00000000  0.50000000  1
  Te  Te4  1  0.84960400  0.40641200  0.90652100  1
  Te  Te5  1  0.15039600  0.05691700  0.55680800  1
  Te  Te6  1  0.49989100  0.94308300  0.09347900  1
  Te  Te7  1  0.50010900  0.59358800  0.44319200  1
