# generated using pymatgen
data_TmGePd
_symmetry_space_group_name_H-M   'P 1'
_cell_length_a   5.62284935
_cell_length_b   5.62284935
_cell_length_c   6.92053709
_cell_angle_alpha   52.13753861
_cell_angle_beta   52.13753861
_cell_angle_gamma   45.62752981
_symmetry_Int_Tables_number   1
_chemical_formula_structural   TmGePd
_chemical_formula_sum   'Tm2 Ge2 Pd2'
_cell_volume   116.68822101
_cell_formula_units_Z   2
loop_
 _symmetry_equiv_pos_site_id
 _symmetry_equiv_pos_as_xyz
  1  'x, y, z'
loop_
 _atom_site_type_symbol
 _atom_site_label
 _atom_site_symmetry_multiplicity
 _atom_site_fract_x
 _atom_site_fract_y
 _atom_site_fract_z
 _atom_site_occupancy
  Tm  Tm0  1  0.54304900  0.54304900  0.21737500  1
  Tm  Tm1  1  0.45695100  0.45695100  0.78262500  1
  Ge  Ge2  1  0.84036700  0.84036700  0.21141800  1
  Ge  Ge3  1  0.15963300  0.15963300  0.78858200  1
  Pd  Pd4  1  0.17751100  0.17751100  0.37118400  1
  Pd  Pd5  1  0.82248900  0.82248900  0.62881600  1
