# generated using pymatgen
data_Tl2FeCu3Te4
_symmetry_space_group_name_H-M   'P 1'
_cell_length_a   8.09388896
_cell_length_b   8.09388896
_cell_length_c   5.85789000
_cell_angle_alpha   90.00000000
_cell_angle_beta   90.00000000
_cell_angle_gamma   137.65146089
_symmetry_Int_Tables_number   1
_chemical_formula_structural   Tl2FeCu3Te4
_chemical_formula_sum   'Tl2 Fe1 Cu3 Te4'
_cell_volume   258.51326379
_cell_formula_units_Z   1
loop_
 _symmetry_equiv_pos_site_id
 _symmetry_equiv_pos_as_xyz
  1  'x, y, z'
loop_
 _atom_site_type_symbol
 _atom_site_label
 _atom_site_symmetry_multiplicity
 _atom_site_fract_x
 _atom_site_fract_y
 _atom_site_fract_z
 _atom_site_occupancy
  Tl  Tl0  1  0.50000000  0.00000000  0.24861600  1
  Tl  Tl1  1  0.00000000  0.50000000  0.75138400  1
  Fe  Fe2  1  0.00000000  0.00000000  0.00000000  1
  Cu  Cu3  1  0.50000000  0.50000000  0.50000000  1
  Cu  Cu4  1  0.50000000  0.50000000  0.00000000  1
  Cu  Cu5  1  0.00000000  0.00000000  0.50000000  1
  Te  Te6  1  0.35686000  0.13698700  0.75318400  1
  Te  Te7  1  0.86301300  0.64314000  0.24681600  1
  Te  Te8  1  0.13698700  0.35686000  0.24681600  1
  Te  Te9  1  0.64314000  0.86301300  0.75318400  1
