# generated using pymatgen
data_U2PS
_symmetry_space_group_name_H-M   'P 1'
_cell_length_a   6.75203606
_cell_length_b   6.75203606
_cell_length_c   6.75203594
_cell_angle_alpha   33.66029417
_cell_angle_beta   33.66029417
_cell_angle_gamma   33.66029587
_symmetry_Int_Tables_number   1
_chemical_formula_structural   U2PS
_chemical_formula_sum   'U2 P1 S1'
_cell_volume   84.24809174
_cell_formula_units_Z   1
loop_
 _symmetry_equiv_pos_site_id
 _symmetry_equiv_pos_as_xyz
  1  'x, y, z'
loop_
 _atom_site_type_symbol
 _atom_site_label
 _atom_site_symmetry_multiplicity
 _atom_site_fract_x
 _atom_site_fract_y
 _atom_site_fract_z
 _atom_site_occupancy
  U  U0  1  0.24952500  0.24952500  0.24952500  1
  U  U1  1  0.75047500  0.75047500  0.75047500  1
  P  P2  1  0.00000000  0.00000000  0.00000000  1
  S  S3  1  0.50000000  0.50000000  0.50000000  1
