# generated using pymatgen
data_V2Cr2GaSe8
_symmetry_space_group_name_H-M   'P 1'
_cell_length_a   7.35180972
_cell_length_b   7.35180972
_cell_length_c   7.35180972
_cell_angle_alpha   120.33171448
_cell_angle_beta   119.55611568
_cell_angle_gamma   90.09847957
_symmetry_Int_Tables_number   1
_chemical_formula_structural   V2Cr2GaSe8
_chemical_formula_sum   'V2 Cr2 Ga1 Se8'
_cell_volume   281.19673168
_cell_formula_units_Z   1
loop_
 _symmetry_equiv_pos_site_id
 _symmetry_equiv_pos_as_xyz
  1  'x, y, z'
loop_
 _atom_site_type_symbol
 _atom_site_label
 _atom_site_symmetry_multiplicity
 _atom_site_fract_x
 _atom_site_fract_y
 _atom_site_fract_z
 _atom_site_occupancy
  V  V0  1  0.61046800  0.39320600  0.78273800  1
  V  V1  1  0.61046800  0.82772900  0.21726200  1
  Cr  Cr2  1  0.61507400  0.38400900  0.23106500  1
  Cr  Cr3  1  0.15294400  0.38400900  0.76893500  1
  Ga  Ga4  1  0.00272200  0.00272200  0.00000000  1
  Se  Se5  1  0.37647900  0.62197300  0.24549400  1
  Se  Se6  1  0.37647900  0.13098500  0.75450600  1
  Se  Se7  1  0.37451100  0.62523200  0.74927900  1
  Se  Se8  1  0.87595200  0.62523200  0.25072100  1
  Se  Se9  1  0.86476200  0.13657400  0.27181300  1
  Se  Se10  1  0.86476200  0.59294900  0.72818700  1
  Se  Se11  1  0.86258300  0.13769100  0.72489300  1
  Se  Se12  1  0.41279800  0.13769100  0.27510700  1
