# generated using pymatgen
data_TiNF
_symmetry_space_group_name_H-M   'P 1'
_cell_length_a   5.71457686
_cell_length_b   5.71457686
_cell_length_c   5.71457686
_cell_angle_alpha   140.05721424
_cell_angle_beta   140.05721424
_cell_angle_gamma   57.76643727
_symmetry_Int_Tables_number   1
_chemical_formula_structural   TiNF
_chemical_formula_sum   'Ti2 N2 F2'
_cell_volume   76.24860451
_cell_formula_units_Z   2
loop_
 _symmetry_equiv_pos_site_id
 _symmetry_equiv_pos_as_xyz
  1  'x, y, z'
loop_
 _atom_site_type_symbol
 _atom_site_label
 _atom_site_symmetry_multiplicity
 _atom_site_fract_x
 _atom_site_fract_y
 _atom_site_fract_z
 _atom_site_occupancy
  Ti  Ti0  1  0.59764700  0.09764700  0.50000000  1
  Ti  Ti1  1  0.84764700  0.84764700  0.00000000  1
  N  N2  1  0.66702200  0.66702200  0.00000000  1
  N  N3  1  0.41702200  0.91702200  0.50000000  1
  F  F4  1  0.86033100  0.36033100  0.50000000  1
  F  F5  1  0.11033100  0.11033100  0.00000000  1
