# generated using pymatgen
data_TlP(HO2)2
_symmetry_space_group_name_H-M   'P 1'
_cell_length_a   4.55746000
_cell_length_b   6.63027100
_cell_length_c   14.51954883
_cell_angle_alpha   88.36700367
_cell_angle_beta   90.00000000
_cell_angle_gamma   90.00000000
_symmetry_Int_Tables_number   1
_chemical_formula_structural   TlP(HO2)2
_chemical_formula_sum   'Tl4 P4 H8 O16'
_cell_volume   438.56185078
_cell_formula_units_Z   4
loop_
 _symmetry_equiv_pos_site_id
 _symmetry_equiv_pos_as_xyz
  1  'x, y, z'
loop_
 _atom_site_type_symbol
 _atom_site_label
 _atom_site_symmetry_multiplicity
 _atom_site_fract_x
 _atom_site_fract_y
 _atom_site_fract_z
 _atom_site_occupancy
  Tl  Tl0  1  0.74847700  0.74478500  0.63020200  1
  Tl  Tl1  1  0.26025200  0.26511800  0.86876800  1
  Tl  Tl2  1  0.73974800  0.26511800  0.36876800  1
  Tl  Tl3  1  0.25152300  0.74478500  0.13020200  1
  P  P4  1  0.23249800  0.23493800  0.62465600  1
  P  P5  1  0.72745800  0.75097400  0.87651800  1
  P  P6  1  0.27254200  0.75097400  0.37651800  1
  P  P7  1  0.76750200  0.23493800  0.12465600  1
  H  H8  1  0.76170100  0.24491200  0.68326300  1
  H  H9  1  0.26325500  0.76076400  0.81606300  1
  H  H10  1  0.73674500  0.76076400  0.31606300  1
  H  H11  1  0.23829900  0.24491200  0.18326300  1
  H  H12  1  0.23966300  0.98846200  0.48865200  1
  H  H13  1  0.76033700  0.98846200  0.98865200  1
  H  H14  1  0.23058600  0.48057900  0.50979100  1
  H  H15  1  0.76941400  0.48057900  0.00979100  1
  O  O16  1  0.34248800  0.04782900  0.57551900  1
  O  O17  1  0.84968900  0.94575000  0.92415000  1
  O  O18  1  0.15031100  0.94575000  0.42415000  1
  O  O19  1  0.65751200  0.04782900  0.07551900  1
  O  O20  1  0.96995800  0.17307000  0.69119100  1
  O  O21  1  0.47218300  0.82819200  0.80972400  1
  O  O22  1  0.52781700  0.82819200  0.30972400  1
  O  O23  1  0.03004200  0.17307000  0.19119100  1
  O  O24  1  0.08994700  0.39241500  0.55375200  1
  O  O25  1  0.59863800  0.60052200  0.94803200  1
  O  O26  1  0.40136200  0.60052200  0.44803200  1
  O  O27  1  0.91005300  0.39241500  0.05375200  1
  O  O28  1  0.47576800  0.33375500  0.68129900  1
  O  O29  1  0.97435100  0.66823500  0.81681900  1
  O  O30  1  0.02564900  0.66823500  0.31681900  1
  O  O31  1  0.52423200  0.33375500  0.18129900  1
