# generated using pymatgen
data_TlBiF4
_symmetry_space_group_name_H-M   'P 1'
_cell_length_a   3.85757300
_cell_length_b   6.64916000
_cell_length_c   8.22262700
_cell_angle_alpha   90.00000000
_cell_angle_beta   90.00000000
_cell_angle_gamma   90.00000000
_symmetry_Int_Tables_number   1
_chemical_formula_structural   TlBiF4
_chemical_formula_sum   'Tl2 Bi2 F8'
_cell_volume   210.90725868
_cell_formula_units_Z   2
loop_
 _symmetry_equiv_pos_site_id
 _symmetry_equiv_pos_as_xyz
  1  'x, y, z'
loop_
 _atom_site_type_symbol
 _atom_site_label
 _atom_site_symmetry_multiplicity
 _atom_site_fract_x
 _atom_site_fract_y
 _atom_site_fract_z
 _atom_site_occupancy
  Tl  Tl0  1  0.00000000  0.25289800  0.36554600  1
  Tl  Tl1  1  0.00000000  0.75289800  0.63445400  1
  Bi  Bi2  1  0.50000000  0.76719000  0.13677300  1
  Bi  Bi3  1  0.50000000  0.26719000  0.86322700  1
  F  F4  1  0.00000000  0.48827400  0.90458100  1
  F  F5  1  0.00000000  0.98827400  0.09541900  1
  F  F6  1  0.50000000  0.44135600  0.63906700  1
  F  F7  1  0.50000000  0.94135600  0.36093300  1
  F  F8  1  0.00000000  0.65370300  0.26769400  1
  F  F9  1  0.00000000  0.15370300  0.73230600  1
  F  F10  1  0.50000000  0.39657900  0.13604400  1
  F  F11  1  0.50000000  0.89657900  0.86395600  1
