# generated using pymatgen
data_Tl2FeCu3Te4
_symmetry_space_group_name_H-M   'P 1'
_cell_length_a   3.98421400
_cell_length_b   3.98421400
_cell_length_c   15.86646900
_cell_angle_alpha   90.00000000
_cell_angle_beta   90.00000000
_cell_angle_gamma   90.00000000
_symmetry_Int_Tables_number   1
_chemical_formula_structural   Tl2FeCu3Te4
_chemical_formula_sum   'Tl2 Fe1 Cu3 Te4'
_cell_volume   251.86371325
_cell_formula_units_Z   1
loop_
 _symmetry_equiv_pos_site_id
 _symmetry_equiv_pos_as_xyz
  1  'x, y, z'
loop_
 _atom_site_type_symbol
 _atom_site_label
 _atom_site_symmetry_multiplicity
 _atom_site_fract_x
 _atom_site_fract_y
 _atom_site_fract_z
 _atom_site_occupancy
  Tl  Tl0  1  0.00000000  0.00000000  0.99723900  1
  Tl  Tl1  1  0.50000000  0.50000000  0.50276100  1
  Fe  Fe2  1  0.00000000  0.50000000  0.25000000  1
  Cu  Cu3  1  0.50000000  0.00000000  0.75000000  1
  Cu  Cu4  1  0.50000000  0.00000000  0.25000000  1
  Cu  Cu5  1  0.00000000  0.50000000  0.75000000  1
  Te  Te6  1  0.50000000  0.50000000  0.14314500  1
  Te  Te7  1  0.00000000  0.00000000  0.64202200  1
  Te  Te8  1  0.00000000  0.00000000  0.35685500  1
  Te  Te9  1  0.50000000  0.50000000  0.85797800  1
