# generated using pymatgen
data_UCuNiGe2
_symmetry_space_group_name_H-M   'P 1'
_cell_length_a   5.77270119
_cell_length_b   5.77270119
_cell_length_c   5.77270119
_cell_angle_alpha   138.95516499
_cell_angle_beta   138.95516499
_cell_angle_gamma   59.44322296
_symmetry_Int_Tables_number   1
_chemical_formula_structural   UCuNiGe2
_chemical_formula_sum   'U1 Cu1 Ni1 Ge2'
_cell_volume   82.12933949
_cell_formula_units_Z   1
loop_
 _symmetry_equiv_pos_site_id
 _symmetry_equiv_pos_as_xyz
  1  'x, y, z'
loop_
 _atom_site_type_symbol
 _atom_site_label
 _atom_site_symmetry_multiplicity
 _atom_site_fract_x
 _atom_site_fract_y
 _atom_site_fract_z
 _atom_site_occupancy
  U  U0  1  0.00000000  0.00000000  0.00000000  1
  Cu  Cu1  1  0.25000000  0.75000000  0.50000000  1
  Ni  Ni2  1  0.75000000  0.25000000  0.50000000  1
  Ge  Ge3  1  0.62274000  0.62274000  0.00000000  1
  Ge  Ge4  1  0.37726000  0.37726000  0.00000000  1
