# generated using pymatgen
data_U2Be25Ga
_symmetry_space_group_name_H-M   'P 1'
_cell_length_a   7.26368653
_cell_length_b   7.26368653
_cell_length_c   7.26368653
_cell_angle_alpha   60.00000000
_cell_angle_beta   60.00000000
_cell_angle_gamma   60.00000000
_symmetry_Int_Tables_number   1
_chemical_formula_structural   U2Be25Ga
_chemical_formula_sum   'U2 Be25 Ga1'
_cell_volume   270.99188291
_cell_formula_units_Z   1
loop_
 _symmetry_equiv_pos_site_id
 _symmetry_equiv_pos_as_xyz
  1  'x, y, z'
loop_
 _atom_site_type_symbol
 _atom_site_label
 _atom_site_symmetry_multiplicity
 _atom_site_fract_x
 _atom_site_fract_y
 _atom_site_fract_z
 _atom_site_occupancy
  U  U0  1  0.25000000  0.25000000  0.25000000  1
  U  U1  1  0.75000000  0.75000000  0.75000000  1
  Be  Be2  1  0.78700600  0.56210700  0.21299400  1
  Be  Be3  1  0.21299400  0.43789300  0.78700600  1
  Be  Be4  1  0.56210700  0.78700600  0.43789300  1
  Be  Be5  1  0.43789300  0.21299400  0.56210700  1
  Be  Be6  1  0.30585000  0.94177500  0.69415000  1
  Be  Be7  1  0.69415000  0.05822500  0.30585000  1
  Be  Be8  1  0.94177500  0.30585000  0.05822500  1
  Be  Be9  1  0.05822500  0.69415000  0.94177500  1
  Be  Be10  1  0.21299400  0.78700600  0.56210700  1
  Be  Be11  1  0.78700600  0.21299400  0.43789300  1
  Be  Be12  1  0.43789300  0.56210700  0.78700600  1
  Be  Be13  1  0.56210700  0.43789300  0.21299400  1
  Be  Be14  1  0.69415000  0.30585000  0.94177500  1
  Be  Be15  1  0.30585000  0.69415000  0.05822500  1
  Be  Be16  1  0.05822500  0.94177500  0.30585000  1
  Be  Be17  1  0.94177500  0.05822500  0.69415000  1
  Be  Be18  1  0.56210700  0.21299400  0.78700600  1
  Be  Be19  1  0.43789300  0.78700600  0.21299400  1
  Be  Be20  1  0.78700600  0.43789300  0.56210700  1
  Be  Be21  1  0.21299400  0.56210700  0.43789300  1
  Be  Be22  1  0.94177500  0.69415000  0.30585000  1
  Be  Be23  1  0.05822500  0.30585000  0.69415000  1
  Be  Be24  1  0.30585000  0.05822500  0.94177500  1
  Be  Be25  1  0.69415000  0.94177500  0.05822500  1
  Be  Be26  1  0.50000000  0.50000000  0.50000000  1
  Ga  Ga27  1  0.00000000  0.00000000  0.00000000  1
