# generated using pymatgen
data_TiNbFeO6
_symmetry_space_group_name_H-M   'P 1'
_cell_length_a   4.72178600
_cell_length_b   4.72178500
_cell_length_c   18.21606800
_cell_angle_alpha   90.00001843
_cell_angle_beta   90.00004314
_cell_angle_gamma   90.00019415
_symmetry_Int_Tables_number   1
_chemical_formula_structural   TiNbFeO6
_chemical_formula_sum   'Ti4 Nb4 Fe4 O24'
_cell_volume   406.13194142
_cell_formula_units_Z   4
loop_
 _symmetry_equiv_pos_site_id
 _symmetry_equiv_pos_as_xyz
  1  'x, y, z'
loop_
 _atom_site_type_symbol
 _atom_site_label
 _atom_site_symmetry_multiplicity
 _atom_site_fract_x
 _atom_site_fract_y
 _atom_site_fract_z
 _atom_site_occupancy
  Ti  Ti0  1  0.50000200  0.50000100  0.24987400  1
  Ti  Ti1  1  0.50000000  0.50000000  0.74986500  1
  Ti  Ti2  1  0.99999900  0.99999900  0.49984500  1
  Ti  Ti3  1  0.00000300  0.00000000  0.99985900  1
  Nb  Nb4  1  0.50000000  0.50000100  0.41712600  1
  Nb  Nb5  1  0.49999700  0.49999800  0.91711300  1
  Nb  Nb6  1  0.00000100  0.00000200  0.16710000  1
  Nb  Nb7  1  0.00000200  0.00000000  0.66710100  1
  Fe  Fe8  1  0.49999400  0.49999000  0.58412500  1
  Fe  Fe9  1  0.99997600  0.99998600  0.83409600  1
  Fe  Fe10  1  0.50000000  0.50000600  0.08412000  1
  Fe  Fe11  1  0.00000200  0.00000300  0.33406700  1
  O  O12  1  0.19305500  0.80694600  0.08205200  1
  O  O13  1  0.19305200  0.80695100  0.58204800  1
  O  O14  1  0.80694800  0.19305500  0.08205200  1
  O  O15  1  0.80695100  0.19305100  0.58204800  1
  O  O16  1  0.30694200  0.30694300  0.33205800  1
  O  O17  1  0.30694800  0.30694900  0.83206300  1
  O  O18  1  0.69306000  0.69305700  0.33205800  1
  O  O19  1  0.69305300  0.69305300  0.83206300  1
  O  O20  1  0.20067500  0.79932800  0.24852300  1
  O  O21  1  0.20067900  0.79932300  0.74852500  1
  O  O22  1  0.79932700  0.20067400  0.24852300  1
  O  O23  1  0.79932200  0.20067800  0.74852500  1
  O  O24  1  0.29936000  0.29936000  0.99854300  1
  O  O25  1  0.29936100  0.29936000  0.49853600  1
  O  O26  1  0.70064400  0.70064300  0.99854300  1
  O  O27  1  0.70064000  0.70064000  0.49853600  1
  O  O28  1  0.19537000  0.80463200  0.41886100  1
  O  O29  1  0.19537200  0.80463000  0.91886900  1
  O  O30  1  0.80463200  0.19536900  0.41886100  1
  O  O31  1  0.80463000  0.19537200  0.91886900  1
  O  O32  1  0.30460500  0.30460600  0.16888600  1
  O  O33  1  0.30460400  0.30460500  0.66888600  1
  O  O34  1  0.69539700  0.69539500  0.16888600  1
  O  O35  1  0.69539600  0.69539500  0.66888600  1
