# generated using pymatgen
data_V2MoO8
_symmetry_space_group_name_H-M   'P 1'
_cell_length_a   9.71979122
_cell_length_b   9.71979122
_cell_length_c   4.31341713
_cell_angle_alpha   89.74851074
_cell_angle_beta   89.74851074
_cell_angle_gamma   22.08388981
_symmetry_Int_Tables_number   1
_chemical_formula_structural   V2MoO8
_chemical_formula_sum   'V2 Mo1 O8'
_cell_volume   153.20641140
_cell_formula_units_Z   1
loop_
 _symmetry_equiv_pos_site_id
 _symmetry_equiv_pos_as_xyz
  1  'x, y, z'
loop_
 _atom_site_type_symbol
 _atom_site_label
 _atom_site_symmetry_multiplicity
 _atom_site_fract_x
 _atom_site_fract_y
 _atom_site_fract_z
 _atom_site_occupancy
  V  V0  1  0.83625700  0.83625700  0.89451000  1
  V  V1  1  0.21572500  0.21572500  0.10415300  1
  Mo  Mo2  1  0.02656900  0.02656900  0.89734200  1
  O  O3  1  0.31713300  0.31713300  0.99089400  1
  O  O4  1  0.73445700  0.73445700  0.00884000  1
  O  O5  1  0.83797700  0.83797700  0.51922200  1
  O  O6  1  0.21357400  0.21357400  0.47935700  1
  O  O7  1  0.92774300  0.92774300  0.99448100  1
  O  O8  1  0.12456800  0.12456800  0.99502000  1
  O  O9  1  0.02682700  0.02682700  0.49782400  1
  O  O10  1  0.52597000  0.52597000  0.98345700  1
