# generated using pymatgen
data_V12Ga(GeS12)2
_symmetry_space_group_name_H-M   'P 1'
_cell_length_a   11.89055278
_cell_length_b   11.89055278
_cell_length_c   11.89055278
_cell_angle_alpha   146.40768934
_cell_angle_beta   131.82598993
_cell_angle_gamma   60.00886116
_symmetry_Int_Tables_number   1
_chemical_formula_structural   V12Ga(GeS12)2
_chemical_formula_sum   'V12 Ga1 Ge2 S24'
_cell_volume   686.78051656
_cell_formula_units_Z   1
loop_
 _symmetry_equiv_pos_site_id
 _symmetry_equiv_pos_as_xyz
  1  'x, y, z'
loop_
 _atom_site_type_symbol
 _atom_site_label
 _atom_site_symmetry_multiplicity
 _atom_site_fract_x
 _atom_site_fract_y
 _atom_site_fract_z
 _atom_site_occupancy
  V  V0  1  0.72963400  0.12509400  0.18779800  1
  V  V1  1  0.39494700  0.79252700  0.18747300  1
  V  V2  1  0.06270400  0.45816400  0.18779800  1
  V  V3  1  0.86770300  0.26406600  0.60363700  1
  V  V4  1  0.53560400  0.93070900  0.60489500  1
  V  V5  1  0.20089600  0.59665800  0.60423800  1
  V  V6  1  0.00758000  0.40334200  0.60423800  1
  V  V7  1  0.67418700  0.06929100  0.60489500  1
  V  V8  1  0.33957100  0.73593400  0.60363700  1
  V  V9  1  0.72963400  0.54183600  0.60454000  1
  V  V10  1  0.39494700  0.20747300  0.60242000  1
  V  V11  1  0.06270400  0.87490600  0.60454000  1
  Ga  Ga12  1  0.00044300  0.00000000  0.00044300  1
  Ge  Ge13  1  0.66643100  0.66662400  0.99980700  1
  Ge  Ge14  1  0.33318400  0.33337600  0.99980700  1
  S  S15  1  0.46953300  0.60555600  0.40866300  1
  S  S16  1  0.13760900  0.27449500  0.41210400  1
  S  S17  1  0.80310700  0.93913000  0.40866300  1
  S  S18  1  0.62100600  0.75748000  0.86352500  1
  S  S19  1  0.28837800  0.42411700  0.86426100  1
  S  S20  1  0.95396200  0.09174400  0.86221700  1
  S  S21  1  0.77047300  0.90825600  0.86221700  1
  S  S22  1  0.44014300  0.57588300  0.86426100  1
  S  S23  1  0.10604500  0.24252000  0.86352500  1
  S  S24  1  0.46953300  0.06087000  0.86397700  1
  S  S25  1  0.13760900  0.72550500  0.86311400  1
  S  S26  1  0.80310700  0.39444400  0.86397700  1
  S  S27  1  0.62835600  0.25883000  0.88718600  1
  S  S28  1  0.29548000  0.92479100  0.88732100  1
  S  S29  1  0.96253000  0.59184100  0.88732100  1
  S  S30  1  0.45787700  0.08636300  0.37151400  1
  S  S31  1  0.12343500  0.75270300  0.37073200  1
  S  S32  1  0.79060500  0.41955400  0.37105000  1
  S  S33  1  0.28515200  0.91363700  0.37151400  1
  S  S34  1  0.95149600  0.58044600  0.37105000  1
  S  S35  1  0.61802900  0.24729700  0.37073200  1
  S  S36  1  0.62835600  0.74117000  0.36952600  1
  S  S37  1  0.29548000  0.40815900  0.37068900  1
  S  S38  1  0.96253000  0.07520900  0.37068900  1
