# generated using pymatgen
data_U2CuSi3
_symmetry_space_group_name_H-M   'P 1'
_cell_length_a   7.47205542
_cell_length_b   7.47205542
_cell_length_c   7.47205542
_cell_angle_alpha   149.30689872
_cell_angle_beta   148.97805219
_cell_angle_gamma   44.20221265
_symmetry_Int_Tables_number   1
_chemical_formula_structural   U2CuSi3
_chemical_formula_sum   'U2 Cu1 Si3'
_cell_volume   109.42514057
_cell_formula_units_Z   1
loop_
 _symmetry_equiv_pos_site_id
 _symmetry_equiv_pos_as_xyz
  1  'x, y, z'
loop_
 _atom_site_type_symbol
 _atom_site_label
 _atom_site_symmetry_multiplicity
 _atom_site_fract_x
 _atom_site_fract_y
 _atom_site_fract_z
 _atom_site_occupancy
  U  U0  1  0.12999800  0.12999800  0.00000000  1
  U  U1  1  0.36747800  0.86747800  0.50000000  1
  Cu  Cu2  1  0.96028300  0.46028300  0.50000000  1
  Si  Si3  1  0.70763200  0.70763200  0.00000000  1
  Si  Si4  1  0.53845200  0.53845200  0.00000000  1
  Si  Si5  1  0.79615600  0.29615600  0.50000000  1
