# generated using pymatgen
data_U3P2S
_symmetry_space_group_name_H-M   'P 1'
_cell_length_a   3.92105814
_cell_length_b   3.92105814
_cell_length_c   9.55576600
_cell_angle_alpha   90.00000000
_cell_angle_beta   90.00000000
_cell_angle_gamma   120.00000237
_symmetry_Int_Tables_number   1
_chemical_formula_structural   U3P2S
_chemical_formula_sum   'U3 P2 S1'
_cell_volume   127.23385666
_cell_formula_units_Z   1
loop_
 _symmetry_equiv_pos_site_id
 _symmetry_equiv_pos_as_xyz
  1  'x, y, z'
loop_
 _atom_site_type_symbol
 _atom_site_label
 _atom_site_symmetry_multiplicity
 _atom_site_fract_x
 _atom_site_fract_y
 _atom_site_fract_z
 _atom_site_occupancy
  U  U0  1  0.00000000  0.00000000  0.50000000  1
  U  U1  1  0.33333300  0.66666700  0.16560900  1
  U  U2  1  0.66666700  0.33333300  0.83439100  1
  P  P3  1  0.33333300  0.66666700  0.66769500  1
  P  P4  1  0.66666700  0.33333300  0.33230500  1
  S  S5  1  0.00000000  0.00000000  0.00000000  1
