# generated using pymatgen
data_TiMn2VAs4
_symmetry_space_group_name_H-M   'P 1'
_cell_length_a   3.60697700
_cell_length_b   5.80905600
_cell_length_c   6.39980867
_cell_angle_alpha   89.78354925
_cell_angle_beta   90.00000000
_cell_angle_gamma   90.00000000
_symmetry_Int_Tables_number   1
_chemical_formula_structural   TiMn2VAs4
_chemical_formula_sum   'Ti1 Mn2 V1 As4'
_cell_volume   134.09507496
_cell_formula_units_Z   1
loop_
 _symmetry_equiv_pos_site_id
 _symmetry_equiv_pos_as_xyz
  1  'x, y, z'
loop_
 _atom_site_type_symbol
 _atom_site_label
 _atom_site_symmetry_multiplicity
 _atom_site_fract_x
 _atom_site_fract_y
 _atom_site_fract_z
 _atom_site_occupancy
  Ti  Ti0  1  0.00000000  0.50000000  0.00000000  1
  Mn  Mn1  1  0.50000000  0.50000000  0.50000000  1
  Mn  Mn2  1  0.00000000  0.00000000  0.00000000  1
  V  V3  1  0.50000000  0.00000000  0.50000000  1
  As  As4  1  0.50000000  0.75869800  0.82661200  1
  As  As5  1  0.00000000  0.75187500  0.33338500  1
  As  As6  1  0.00000000  0.24812500  0.66661500  1
  As  As7  1  0.50000000  0.24130200  0.17338800  1
