# generated using pymatgen
data_TiCrSbO6
_symmetry_space_group_name_H-M   'P 1'
_cell_length_a   6.61258472
_cell_length_b   6.61252533
_cell_length_c   9.18279800
_cell_angle_alpha   89.99984701
_cell_angle_beta   90.00015299
_cell_angle_gamma   89.99996324
_symmetry_Int_Tables_number   1
_chemical_formula_structural   TiCrSbO6
_chemical_formula_sum   'Ti4 Cr4 Sb4 O24'
_cell_volume   401.52595990
_cell_formula_units_Z   4
loop_
 _symmetry_equiv_pos_site_id
 _symmetry_equiv_pos_as_xyz
  1  'x, y, z'
loop_
 _atom_site_type_symbol
 _atom_site_label
 _atom_site_symmetry_multiplicity
 _atom_site_fract_x
 _atom_site_fract_y
 _atom_site_fract_z
 _atom_site_occupancy
  Ti  Ti0  1  0.50000000  0.99999100  0.49564600  1
  Ti  Ti1  1  0.99994600  0.49998700  0.49568900  1
  Ti  Ti2  1  0.99997500  0.00002700  0.99567700  1
  Ti  Ti3  1  0.50005800  0.50000700  0.99563400  1
  Cr  Cr4  1  0.99995300  0.49998900  0.16700000  1
  Cr  Cr5  1  0.49998400  0.49999600  0.66700300  1
  Cr  Cr6  1  0.49998400  0.99997800  0.16701200  1
  Cr  Cr7  1  0.00001900  0.99999900  0.66696900  1
  Sb  Sb8  1  0.49999600  0.99999800  0.83322600  1
  Sb  Sb9  1  0.99998800  0.49999600  0.83325700  1
  Sb  Sb10  1  0.99999200  0.00001200  0.33325100  1
  Sb  Sb11  1  0.50002500  0.50000300  0.33322200  1
  O  O12  1  0.49999800  0.30747900  0.16491800  1
  O  O13  1  0.00001400  0.80748200  0.16492600  1
  O  O14  1  0.50000000  0.69252900  0.16491500  1
  O  O15  1  0.00001400  0.19253200  0.16492300  1
  O  O16  1  0.30745200  0.99999600  0.66490700  1
  O  O17  1  0.80746100  0.50000000  0.66490100  1
  O  O18  1  0.69253500  0.99999800  0.66490400  1
  O  O19  1  0.19253300  0.50000400  0.66490600  1
  O  O20  1  0.49999900  0.30340100  0.49906900  1
  O  O21  1  0.00000100  0.80339600  0.49908500  1
  O  O22  1  0.50000200  0.69659700  0.49907200  1
  O  O23  1  0.00000100  0.19660000  0.49909200  1
  O  O24  1  0.30338200  0.00000200  0.99905100  1
  O  O25  1  0.80342500  0.50000500  0.99908600  1
  O  O26  1  0.69659600  0.00000300  0.99906100  1
  O  O27  1  0.19662100  0.50000200  0.99906600  1
  O  O28  1  0.50000300  0.30604000  0.83805000  1
  O  O29  1  0.00000500  0.80603500  0.83807100  1
  O  O30  1  0.50000200  0.69395500  0.83804700  1
  O  O31  1  0.00000200  0.19395500  0.83806700  1
  O  O32  1  0.30601700  0.99999900  0.33806900  1
  O  O33  1  0.80604200  0.50000200  0.33808100  1
  O  O34  1  0.69396300  0.00000100  0.33806600  1
  O  O35  1  0.19401500  0.50000400  0.33808900  1
