# generated using pymatgen
data_V32N3
_symmetry_space_group_name_H-M   'P 1'
_cell_length_a   2.98826500
_cell_length_b   8.65989526
_cell_length_c   17.37400922
_cell_angle_alpha   90.66189272
_cell_angle_beta   90.00000000
_cell_angle_gamma   90.00000000
_symmetry_Int_Tables_number   1
_chemical_formula_structural   V32N3
_chemical_formula_sum   'V32 N3'
_cell_volume   449.57568605
_cell_formula_units_Z   1
loop_
 _symmetry_equiv_pos_site_id
 _symmetry_equiv_pos_as_xyz
  1  'x, y, z'
loop_
 _atom_site_type_symbol
 _atom_site_label
 _atom_site_symmetry_multiplicity
 _atom_site_fract_x
 _atom_site_fract_y
 _atom_site_fract_z
 _atom_site_occupancy
  V  V0  1  0.50000000  0.88831700  0.05654700  1
  V  V1  1  0.50000000  0.88522600  0.55759100  1
  V  V2  1  0.50000000  0.11477400  0.44240900  1
  V  V3  1  0.50000000  0.11168300  0.94345300  1
  V  V4  1  0.00000000  0.61552100  0.30881300  1
  V  V5  1  0.00000000  0.61327200  0.80551600  1
  V  V6  1  0.00000000  0.38672800  0.19448400  1
  V  V7  1  0.00000000  0.38447900  0.69118700  1
  V  V8  1  0.50000000  0.38476900  0.06318000  1
  V  V9  1  0.50000000  0.37609300  0.56129800  1
  V  V10  1  0.50000000  0.62390700  0.43870200  1
  V  V11  1  0.50000000  0.61523100  0.93682000  1
  V  V12  1  0.00000000  0.11120900  0.31660200  1
  V  V13  1  0.00000000  0.11349600  0.81164500  1
  V  V14  1  0.00000000  0.88650400  0.18835500  1
  V  V15  1  0.00000000  0.88879100  0.68339800  1
  V  V16  1  0.50000000  0.12414400  0.19395400  1
  V  V17  1  0.50000000  0.12458900  0.68601900  1
  V  V18  1  0.50000000  0.87541100  0.31398100  1
  V  V19  1  0.50000000  0.87585600  0.80604600  1
  V  V20  1  0.00000000  0.62678000  0.05764700  1
  V  V21  1  0.00000000  0.63092900  0.55481800  1
  V  V22  1  0.00000000  0.36907100  0.44518200  1
  V  V23  1  0.00000000  0.37322000  0.94235300  1
  V  V24  1  0.50000000  0.34535900  0.32959900  1
  V  V25  1  0.50000000  0.34042300  0.82722600  1
  V  V26  1  0.50000000  0.65957700  0.17277400  1
  V  V27  1  0.50000000  0.65464100  0.67040100  1
  V  V28  1  0.00000000  0.15867100  0.07947200  1
  V  V29  1  0.00000000  0.12994400  0.56480000  1
  V  V30  1  0.00000000  0.87005600  0.43520000  1
  V  V31  1  0.00000000  0.84132900  0.92052800  1
  N  N32  1  0.50000000  0.50150100  0.25088200  1
  N  N33  1  0.50000000  0.49849900  0.74911800  1
  N  N34  1  0.00000000  0.00000000  0.00000000  1
