# generated using pymatgen
data_TiCrCuSe4
_symmetry_space_group_name_H-M   'P 1'
_cell_length_a   7.42159409
_cell_length_b   7.42159409
_cell_length_c   7.42159409
_cell_angle_alpha   120.81077938
_cell_angle_beta   119.05672099
_cell_angle_gamma   90.12148520
_symmetry_Int_Tables_number   1
_chemical_formula_structural   TiCrCuSe4
_chemical_formula_sum   'Ti2 Cr2 Cu2 Se8'
_cell_volume   289.25662682
_cell_formula_units_Z   2
loop_
 _symmetry_equiv_pos_site_id
 _symmetry_equiv_pos_as_xyz
  1  'x, y, z'
loop_
 _atom_site_type_symbol
 _atom_site_label
 _atom_site_symmetry_multiplicity
 _atom_site_fract_x
 _atom_site_fract_y
 _atom_site_fract_z
 _atom_site_occupancy
  Ti  Ti0  1  0.00000000  0.50000000  0.00000000  1
  Ti  Ti1  1  0.00000000  0.00000000  0.50000000  1
  Cr  Cr2  1  0.50000000  0.50000000  0.00000000  1
  Cr  Cr3  1  0.00000000  0.50000000  0.50000000  1
  Cu  Cu4  1  0.62461900  0.87461900  0.75000000  1
  Cu  Cu5  1  0.37538100  0.12538100  0.25000000  1
  Se  Se6  1  0.23341900  0.74323800  0.49018100  1
  Se  Se7  1  0.75305700  0.74323800  0.00981900  1
  Se  Se8  1  0.75589200  0.73993200  0.48404000  1
  Se  Se9  1  0.75589200  0.27185200  0.01596000  1
  Se  Se10  1  0.76658100  0.25676200  0.50981900  1
  Se  Se11  1  0.24694300  0.25676200  0.99018100  1
  Se  Se12  1  0.24410800  0.26006800  0.51596000  1
  Se  Se13  1  0.24410800  0.72814800  0.98404000  1
