# generated using pymatgen
data_U5P4S
_symmetry_space_group_name_H-M   'P 1'
_cell_length_a   15.98405484
_cell_length_b   15.98405484
_cell_length_c   15.98405541
_cell_angle_alpha   14.11314231
_cell_angle_beta   14.11314231
_cell_angle_gamma   14.11314532
_symmetry_Int_Tables_number   1
_chemical_formula_structural   U5P4S
_chemical_formula_sum   'U5 P4 S1'
_cell_volume   211.34046809
_cell_formula_units_Z   1
loop_
 _symmetry_equiv_pos_site_id
 _symmetry_equiv_pos_as_xyz
  1  'x, y, z'
loop_
 _atom_site_type_symbol
 _atom_site_label
 _atom_site_symmetry_multiplicity
 _atom_site_fract_x
 _atom_site_fract_y
 _atom_site_fract_z
 _atom_site_occupancy
  U  U0  1  0.59964800  0.59964800  0.59964800  1
  U  U1  1  0.40035200  0.40035200  0.40035200  1
  U  U2  1  0.00000000  0.00000000  0.00000000  1
  U  U3  1  0.19969500  0.19969500  0.19969500  1
  U  U4  1  0.80030500  0.80030500  0.80030500  1
  P  P5  1  0.10036300  0.10036300  0.10036300  1
  P  P6  1  0.70006000  0.70006000  0.70006000  1
  P  P7  1  0.29994000  0.29994000  0.29994000  1
  P  P8  1  0.89963700  0.89963700  0.89963700  1
  S  S9  1  0.50000000  0.50000000  0.50000000  1
