# generated using pymatgen
data_TlGeSbO5
_symmetry_space_group_name_H-M   'P 1'
_cell_length_a   6.77440600
_cell_length_b   10.95134100
_cell_length_c   13.60540600
_cell_angle_alpha   90.00000000
_cell_angle_beta   90.00000000
_cell_angle_gamma   90.00000000
_symmetry_Int_Tables_number   1
_chemical_formula_structural   TlGeSbO5
_chemical_formula_sum   'Tl8 Ge8 Sb8 O40'
_cell_volume   1009.36915524
_cell_formula_units_Z   8
loop_
 _symmetry_equiv_pos_site_id
 _symmetry_equiv_pos_as_xyz
  1  'x, y, z'
loop_
 _atom_site_type_symbol
 _atom_site_label
 _atom_site_symmetry_multiplicity
 _atom_site_fract_x
 _atom_site_fract_y
 _atom_site_fract_z
 _atom_site_occupancy
  Tl  Tl0  1  0.79476500  0.90391600  0.60801500  1
  Tl  Tl1  1  0.20523500  0.40391600  0.39198500  1
  Tl  Tl2  1  0.29476500  0.40391600  0.89198500  1
  Tl  Tl3  1  0.70523500  0.90391600  0.10801500  1
  Tl  Tl4  1  0.71532800  0.64577300  0.88803500  1
  Tl  Tl5  1  0.28467200  0.14577300  0.11196500  1
  Tl  Tl6  1  0.21532800  0.14577300  0.61196500  1
  Tl  Tl7  1  0.78467200  0.64577300  0.38803500  1
  Ge  Ge8  1  0.99233000  0.50101100  0.68149500  1
  Ge  Ge9  1  0.00767000  0.00101100  0.31850500  1
  Ge  Ge10  1  0.49233000  0.00101100  0.81850500  1
  Ge  Ge11  1  0.50767000  0.50101100  0.18149500  1
  Ge  Ge12  1  0.18331500  0.75071400  0.99676500  1
  Ge  Ge13  1  0.81668500  0.25071400  0.00323500  1
  Ge  Ge14  1  0.68331500  0.25071400  0.50323500  1
  Ge  Ge15  1  0.31668500  0.75071400  0.49676500  1
  Sb  Sb16  1  0.99463200  0.99981000  0.88067500  1
  Sb  Sb17  1  0.00536800  0.49981000  0.11932500  1
  Sb  Sb18  1  0.49463200  0.49981000  0.61932500  1
  Sb  Sb19  1  0.50536800  0.99981000  0.38067500  1
  Sb  Sb20  1  0.24656300  0.75504500  0.74505400  1
  Sb  Sb21  1  0.75343700  0.25504500  0.25494600  1
  Sb  Sb22  1  0.74656300  0.25504500  0.75494600  1
  Sb  Sb23  1  0.25343700  0.75504500  0.24505400  1
  O  O24  1  0.04024800  0.63164100  0.21889500  1
  O  O25  1  0.95975200  0.13164100  0.78110500  1
  O  O26  1  0.54024800  0.13164100  0.28110500  1
  O  O27  1  0.45975200  0.63164100  0.71889500  1
  O  O28  1  0.71068300  0.53161300  0.10292700  1
  O  O29  1  0.28931700  0.03161300  0.89707300  1
  O  O30  1  0.21068300  0.03161300  0.39707300  1
  O  O31  1  0.78931700  0.53161300  0.60292700  1
  O  O32  1  0.83544600  0.27097500  0.39854600  1
  O  O33  1  0.16455400  0.77097500  0.60145400  1
  O  O34  1  0.33544600  0.77097500  0.10145400  1
  O  O35  1  0.66455400  0.27097500  0.89854600  1
  O  O36  1  0.46084400  0.62724000  0.26132900  1
  O  O37  1  0.53915600  0.12724000  0.73867100  1
  O  O38  1  0.96084400  0.12724000  0.23867100  1
  O  O39  1  0.03915600  0.62724000  0.76132900  1
  O  O40  1  0.94812200  0.38625900  0.77255400  1
  O  O41  1  0.05187800  0.88625900  0.22744600  1
  O  O42  1  0.44812200  0.88625900  0.72744600  1
  O  O43  1  0.55187800  0.38625900  0.27255400  1
  O  O44  1  0.53462700  0.37754100  0.72585400  1
  O  O45  1  0.46537300  0.87754100  0.27414600  1
  O  O46  1  0.03462700  0.87754100  0.77414600  1
  O  O47  1  0.96537300  0.37754100  0.22585400  1
  O  O48  1  0.54212000  0.11460200  0.49411100  1
  O  O49  1  0.45788000  0.61460200  0.50588900  1
  O  O50  1  0.04212000  0.61460200  0.00588900  1
  O  O51  1  0.95788000  0.11460200  0.99411100  1
  O  O52  1  0.33064500  0.74030600  0.88902100  1
  O  O53  1  0.66935500  0.24030600  0.11097900  1
  O  O54  1  0.83064500  0.24030600  0.61097900  1
  O  O55  1  0.16935500  0.74030600  0.38902100  1
  O  O56  1  0.01003400  0.87062300  0.98562900  1
  O  O57  1  0.98996600  0.37062300  0.01437100  1
  O  O58  1  0.51003400  0.37062300  0.51437100  1
  O  O59  1  0.48996600  0.87062300  0.48562900  1
  O  O60  1  0.20158000  0.45923100  0.61178900  1
  O  O61  1  0.79842000  0.95923100  0.38821100  1
  O  O62  1  0.70158000  0.95923100  0.88821100  1
  O  O63  1  0.29842000  0.45923100  0.11178900  1
