# generated using pymatgen
data_TiFe2Bi2PbO9
_symmetry_space_group_name_H-M   'P 1'
_cell_length_a   4.76547100
_cell_length_b   5.40211337
_cell_length_c   8.51321242
_cell_angle_alpha   108.49839637
_cell_angle_beta   90.00000000
_cell_angle_gamma   90.00000000
_symmetry_Int_Tables_number   1
_chemical_formula_structural   TiFe2Bi2PbO9
_chemical_formula_sum   'Ti1 Fe2 Bi2 Pb1 O9'
_cell_volume   207.83737381
_cell_formula_units_Z   1
loop_
 _symmetry_equiv_pos_site_id
 _symmetry_equiv_pos_as_xyz
  1  'x, y, z'
loop_
 _atom_site_type_symbol
 _atom_site_label
 _atom_site_symmetry_multiplicity
 _atom_site_fract_x
 _atom_site_fract_y
 _atom_site_fract_z
 _atom_site_occupancy
  Ti  Ti0  1  0.52144700  0.16666700  0.33333300  1
  Fe  Fe1  1  0.50639900  0.50291300  0.00582700  1
  Fe  Fe2  1  0.50639900  0.83042000  0.66084000  1
  Bi  Bi3  1  0.93413800  0.99241900  0.98483800  1
  Bi  Bi4  1  0.93413800  0.34091400  0.68182900  1
  Pb  Pb5  1  0.96817100  0.66666700  0.33333300  1
  O  O6  1  0.64700500  0.66666700  0.83333300  1
  O  O7  1  0.64199000  0.32622400  0.16534900  1
  O  O8  1  0.64199000  0.00710900  0.50131800  1
  O  O9  1  0.64199000  0.49421000  0.50131800  1
  O  O10  1  0.64700500  0.16666700  0.83333300  1
  O  O11  1  0.64199000  0.83912300  0.16534900  1
  O  O12  1  0.11913400  0.84561700  0.69123400  1
  O  O13  1  0.11913400  0.48771600  0.97543300  1
  O  O14  1  0.15299000  0.16666700  0.33333300  1
