# generated using pymatgen
data_Tl4SbAs3Se8
_symmetry_space_group_name_H-M   'P 1'
_cell_length_a   5.76219700
_cell_length_b   3.81463000
_cell_length_c   20.30159600
_cell_angle_alpha   90.00000000
_cell_angle_beta   90.00000000
_cell_angle_gamma   90.00000000
_symmetry_Int_Tables_number   1
_chemical_formula_structural   Tl4SbAs3Se8
_chemical_formula_sum   'Tl4 Sb1 As3 Se8'
_cell_volume   446.24226682
_cell_formula_units_Z   1
loop_
 _symmetry_equiv_pos_site_id
 _symmetry_equiv_pos_as_xyz
  1  'x, y, z'
loop_
 _atom_site_type_symbol
 _atom_site_label
 _atom_site_symmetry_multiplicity
 _atom_site_fract_x
 _atom_site_fract_y
 _atom_site_fract_z
 _atom_site_occupancy
  Tl  Tl0  1  0.50000000  0.50000000  0.00000000  1
  Tl  Tl1  1  0.00000000  0.50000000  0.25433800  1
  Tl  Tl2  1  0.50000000  0.50000000  0.50000000  1
  Tl  Tl3  1  0.00000000  0.50000000  0.74566200  1
  Sb  Sb4  1  0.00000000  0.00000000  0.00000000  1
  As  As5  1  0.50000000  0.00000000  0.25154800  1
  As  As6  1  0.00000000  0.00000000  0.50000000  1
  As  As7  1  0.50000000  0.00000000  0.74845200  1
  Se  Se8  1  0.50000000  0.50000000  0.15444200  1
  Se  Se9  1  0.00000000  0.50000000  0.40560000  1
  Se  Se10  1  0.50000000  0.50000000  0.65410300  1
  Se  Se11  1  0.00000000  0.50000000  0.89523200  1
  Se  Se12  1  0.00000000  0.50000000  0.10476800  1
  Se  Se13  1  0.50000000  0.50000000  0.34589700  1
  Se  Se14  1  0.00000000  0.50000000  0.59440000  1
  Se  Se15  1  0.50000000  0.50000000  0.84555800  1
