# generated using pymatgen
data_V9InS12
_symmetry_space_group_name_H-M   'P 1'
_cell_length_a   9.73331249
_cell_length_b   9.73331249
_cell_length_c   9.73331333
_cell_angle_alpha   109.61420103
_cell_angle_beta   109.61420103
_cell_angle_gamma   109.61420331
_symmetry_Int_Tables_number   1
_chemical_formula_structural   V9InS12
_chemical_formula_sum   'V18 In2 S24'
_cell_volume   706.05677498
_cell_formula_units_Z   2
loop_
 _symmetry_equiv_pos_site_id
 _symmetry_equiv_pos_as_xyz
  1  'x, y, z'
loop_
 _atom_site_type_symbol
 _atom_site_label
 _atom_site_symmetry_multiplicity
 _atom_site_fract_x
 _atom_site_fract_y
 _atom_site_fract_z
 _atom_site_occupancy
  V  V0  1  0.66473100  0.54941600  0.03864000  1
  V  V1  1  0.99556300  0.88068800  0.37125800  1
  V  V2  1  0.32986400  0.21479200  0.70427600  1
  V  V3  1  0.70427600  0.32986400  0.21479200  1
  V  V4  1  0.03864000  0.66473100  0.54941600  1
  V  V5  1  0.37125800  0.99556300  0.88068800  1
  V  V6  1  0.88068800  0.37125800  0.99556300  1
  V  V7  1  0.21479200  0.70427600  0.32986400  1
  V  V8  1  0.54941600  0.03864000  0.66473100  1
  V  V9  1  0.00443700  0.11931200  0.62874200  1
  V  V10  1  0.33526900  0.45058400  0.96136000  1
  V  V11  1  0.67013600  0.78520800  0.29572400  1
  V  V12  1  0.96136000  0.33526900  0.45058400  1
  V  V13  1  0.29572400  0.67013600  0.78520800  1
  V  V14  1  0.62874200  0.00443700  0.11931200  1
  V  V15  1  0.78520800  0.29572400  0.67013600  1
  V  V16  1  0.11931200  0.62874200  0.00443700  1
  V  V17  1  0.45058400  0.96136000  0.33526900  1
  In  In18  1  0.50000000  0.50000000  0.50000000  1
  In  In19  1  0.00000000  0.00000000  0.00000000  1
  S  S20  1  0.58359200  0.25041300  0.91688100  1
  S  S21  1  0.91688100  0.58359200  0.25041300  1
  S  S22  1  0.25041300  0.91688100  0.58359200  1
  S  S23  1  0.41640800  0.74958700  0.08311900  1
  S  S24  1  0.74958700  0.08311900  0.41640800  1
  S  S25  1  0.08311900  0.41640800  0.74958700  1
  S  S26  1  0.49630100  0.20235200  0.54907100  1
  S  S27  1  0.83087100  0.53804100  0.88280400  1
  S  S28  1  0.16373600  0.87043400  0.21648000  1
  S  S29  1  0.21648000  0.16373600  0.87043400  1
  S  S30  1  0.54907100  0.49630100  0.20235200  1
  S  S31  1  0.88280400  0.83087100  0.53804100  1
  S  S32  1  0.53804100  0.88280400  0.83087100  1
  S  S33  1  0.87043400  0.21648000  0.16373600  1
  S  S34  1  0.20235200  0.54907100  0.49630100  1
  S  S35  1  0.50369900  0.79764800  0.45092900  1
  S  S36  1  0.83626400  0.12956600  0.78352000  1
  S  S37  1  0.16912900  0.46195900  0.11719600  1
  S  S38  1  0.78352000  0.83626400  0.12956600  1
  S  S39  1  0.11719600  0.16912900  0.46195900  1
  S  S40  1  0.45092900  0.50369900  0.79764800  1
  S  S41  1  0.46195900  0.11719600  0.16912900  1
  S  S42  1  0.79764800  0.45092900  0.50369900  1
  S  S43  1  0.12956600  0.78352000  0.83626400  1
