# generated using pymatgen
data_Tm7Mg3Ge8
_symmetry_space_group_name_H-M   'P 1'
_cell_length_a   7.08888600
_cell_length_b   7.70261100
_cell_length_c   14.32700303
_cell_angle_alpha   89.99647275
_cell_angle_beta   90.00000000
_cell_angle_gamma   90.00000000
_symmetry_Int_Tables_number   1
_chemical_formula_structural   Tm7Mg3Ge8
_chemical_formula_sum   'Tm14 Mg6 Ge16'
_cell_volume   782.29636028
_cell_formula_units_Z   2
loop_
 _symmetry_equiv_pos_site_id
 _symmetry_equiv_pos_as_xyz
  1  'x, y, z'
loop_
 _atom_site_type_symbol
 _atom_site_label
 _atom_site_symmetry_multiplicity
 _atom_site_fract_x
 _atom_site_fract_y
 _atom_site_fract_z
 _atom_site_occupancy
  Tm  Tm0  1  0.50729400  0.93362300  0.84443700  1
  Tm  Tm1  1  0.00729400  0.06637700  0.15556300  1
  Tm  Tm2  1  0.49101300  0.56746100  0.34414700  1
  Tm  Tm3  1  0.99101300  0.43253900  0.65585300  1
  Tm  Tm4  1  0.49253700  0.56667700  0.65639000  1
  Tm  Tm5  1  0.99253700  0.43332300  0.34361000  1
  Tm  Tm6  1  0.50805600  0.93351100  0.15514400  1
  Tm  Tm7  1  0.00805600  0.06648900  0.84485600  1
  Tm  Tm8  1  0.33048700  0.07346300  0.37595100  1
  Tm  Tm9  1  0.83048700  0.92653700  0.62404900  1
  Tm  Tm10  1  0.33180400  0.07435300  0.62381100  1
  Tm  Tm11  1  0.83180400  0.92564700  0.37618900  1
  Tm  Tm12  1  0.66871800  0.42866500  0.12203800  1
  Tm  Tm13  1  0.16871800  0.57133500  0.87796200  1
  Mg  Mg14  1  0.83986200  0.76390900  0.00029900  1
  Mg  Mg15  1  0.33986200  0.23609100  0.99970100  1
  Mg  Mg16  1  0.16168000  0.73496500  0.49988400  1
  Mg  Mg17  1  0.66168000  0.26503500  0.50011600  1
  Mg  Mg18  1  0.66975900  0.42650800  0.87502000  1
  Mg  Mg19  1  0.16975900  0.57349200  0.12498000  1
  Ge  Ge20  1  0.71146800  0.11044400  0.00026200  1
  Ge  Ge21  1  0.21146800  0.88955600  0.99973800  1
  Ge  Ge22  1  0.28980800  0.38952400  0.50013500  1
  Ge  Ge23  1  0.78980800  0.61047600  0.49986500  1
  Ge  Ge24  1  0.67110800  0.21728100  0.71419000  1
  Ge  Ge25  1  0.17110800  0.78271900  0.28581000  1
  Ge  Ge26  1  0.32729400  0.28588900  0.21210700  1
  Ge  Ge27  1  0.82729400  0.71411100  0.78789300  1
  Ge  Ge28  1  0.32940400  0.28507300  0.78671500  1
  Ge  Ge29  1  0.82940400  0.71492700  0.21328500  1
  Ge  Ge30  1  0.67248400  0.21568900  0.28621000  1
  Ge  Ge31  1  0.17248400  0.78431100  0.71379000  1
  Ge  Ge32  1  0.47247300  0.65553200  0.00028400  1
  Ge  Ge33  1  0.97247300  0.34446800  0.99971600  1
  Ge  Ge34  1  0.52475200  0.84272800  0.50037300  1
  Ge  Ge35  1  0.02475200  0.15727200  0.49962700  1
