# generated using pymatgen
data_Tm2Ti12(CuO4)9
_symmetry_space_group_name_H-M   'P 1'
_cell_length_a   6.44198712
_cell_length_b   10.49992900
_cell_length_c   10.49992900
_cell_angle_alpha   60.00000000
_cell_angle_beta   90.00000000
_cell_angle_gamma   90.00000000
_symmetry_Int_Tables_number   1
_chemical_formula_structural   Tm2Ti12(CuO4)9
_chemical_formula_sum   'Tm2 Ti12 Cu9 O36'
_cell_volume   615.06810833
_cell_formula_units_Z   1
loop_
 _symmetry_equiv_pos_site_id
 _symmetry_equiv_pos_as_xyz
  1  'x, y, z'
loop_
 _atom_site_type_symbol
 _atom_site_label
 _atom_site_symmetry_multiplicity
 _atom_site_fract_x
 _atom_site_fract_y
 _atom_site_fract_z
 _atom_site_occupancy
  Tm  Tm0  1  0.00493200  0.00000000  0.00000000  1
  Tm  Tm1  1  0.66173500  0.33333300  0.33333300  1
  Ti  Ti2  1  0.83333300  0.16666700  0.16666700  1
  Ti  Ti3  1  0.49683000  0.50572400  0.50796200  1
  Ti  Ti4  1  0.16983700  0.82760900  0.82537100  1
  Ti  Ti5  1  0.17368800  0.33333300  0.33333300  1
  Ti  Ti6  1  0.83333300  0.66666700  0.66666700  1
  Ti  Ti7  1  0.49297900  0.00000000  0.00000000  1
  Ti  Ti8  1  0.83333300  0.16666700  0.66666700  1
  Ti  Ti9  1  0.49683000  0.50796200  0.98631400  1
  Ti  Ti10  1  0.16983700  0.82537100  0.34701900  1
  Ti  Ti11  1  0.16983700  0.34701900  0.82760900  1
  Ti  Ti12  1  0.83333300  0.66666700  0.16666700  1
  Ti  Ti13  1  0.49683000  0.98631400  0.50572400  1
  Cu  Cu14  1  0.33333300  0.16666700  0.16666700  1
  Cu  Cu15  1  0.99564200  0.49870300  0.49896100  1
  Cu  Cu16  1  0.67102500  0.83463000  0.83437200  1
  Cu  Cu17  1  0.67102500  0.33099600  0.83463000  1
  Cu  Cu18  1  0.33333300  0.66666700  0.16666700  1
  Cu  Cu19  1  0.99564200  0.00233700  0.49870300  1
  Cu  Cu20  1  0.99564200  0.49896100  0.00233700  1
  Cu  Cu21  1  0.67102500  0.83437200  0.33099600  1
  Cu  Cu22  1  0.33333300  0.16666700  0.66666700  1
  O  O23  1  0.24539800  0.44207700  0.62266000  1
  O  O24  1  0.91883000  0.78524700  0.95947600  1
  O  O25  1  0.58410600  0.11863400  0.29198600  1
  O  O26  1  0.35208700  0.34973500  0.17671500  1
  O  O27  1  0.00440900  0.68374200  0.50244800  1
  O  O28  1  0.68701100  0.01660600  0.84333800  1
  O  O29  1  0.97965600  0.31672700  0.48999500  1
  O  O30  1  0.66225700  0.64959200  0.83088600  1
  O  O31  1  0.31458000  0.98359900  0.15661800  1
  O  O32  1  0.08256000  0.21469900  0.04134700  1
  O  O33  1  0.74783700  0.54808600  0.37385700  1
  O  O34  1  0.42126800  0.89125700  0.71067400  1
  O  O35  1  0.42126800  0.39807000  0.89125700  1
  O  O36  1  0.08256000  0.74395400  0.21469900  1
  O  O37  1  0.74783700  0.07805500  0.54808600  1
  O  O38  1  0.66225700  0.51952300  0.64959200  1
  O  O39  1  0.31458000  0.85978400  0.98359900  1
  O  O40  1  0.97965600  0.19327700  0.31672700  1
  O  O41  1  0.68701100  0.14005600  0.01660600  1
  O  O42  1  0.35208700  0.47354900  0.34973500  1
  O  O43  1  0.00440900  0.81381100  0.68374200  1
  O  O44  1  0.91883000  0.25527800  0.78524700  1
  O  O45  1  0.58410600  0.58937900  0.11863400  1
  O  O46  1  0.24539800  0.93526400  0.44207700  1
  O  O47  1  0.00440900  0.50244800  0.81381100  1
  O  O48  1  0.68701100  0.84333800  0.14005600  1
  O  O49  1  0.35208700  0.17671500  0.47354900  1
  O  O50  1  0.58410600  0.29198600  0.58937900  1
  O  O51  1  0.24539800  0.62266000  0.93526400  1
  O  O52  1  0.91883000  0.95947600  0.25527800  1
  O  O53  1  0.74783700  0.37385700  0.07805500  1
  O  O54  1  0.42126800  0.71067400  0.39807000  1
  O  O55  1  0.08256000  0.04134700  0.74395400  1
  O  O56  1  0.31458000  0.15661800  0.85978400  1
  O  O57  1  0.97965600  0.48999500  0.19327700  1
  O  O58  1  0.66225700  0.83088600  0.51952300  1
