# generated using pymatgen
data_Cu(BrN)2
_symmetry_space_group_name_H-M   'P 1'
_cell_length_a   5.46214987
_cell_length_b   5.46214987
_cell_length_c   4.03066397
_cell_angle_alpha   82.60894128
_cell_angle_beta   82.60894128
_cell_angle_gamma   90.74312654
_symmetry_Int_Tables_number   1
_chemical_formula_structural   Cu(BrN)2
_chemical_formula_sum   'Cu1 Br2 N2'
_cell_volume   118.21186420
_cell_formula_units_Z   1
loop_
 _symmetry_equiv_pos_site_id
 _symmetry_equiv_pos_as_xyz
  1  'x, y, z'
loop_
 _atom_site_type_symbol
 _atom_site_label
 _atom_site_symmetry_multiplicity
 _atom_site_fract_x
 _atom_site_fract_y
 _atom_site_fract_z
 _atom_site_occupancy
  Cu  Cu0  1  0.00000000  0.00000000  0.00000000  1
  Br  Br1  1  0.24727200  0.24727200  0.57772600  1
  Br  Br2  1  0.75272800  0.75272800  0.42227400  1
  N  N3  1  0.75891300  0.24108700  0.00000000  1
  N  N4  1  0.24108700  0.75891300  0.00000000  1
