# generated using pymatgen
data_U2TeSeS2
_symmetry_space_group_name_H-M   'P 1'
_cell_length_a   3.80534200
_cell_length_b   6.77791300
_cell_length_c   11.09880400
_cell_angle_alpha   90.00000000
_cell_angle_beta   90.00000000
_cell_angle_gamma   90.00000000
_symmetry_Int_Tables_number   1
_chemical_formula_structural   U2TeSeS2
_chemical_formula_sum   'U4 Te2 Se2 S4'
_cell_volume   286.26342726
_cell_formula_units_Z   2
loop_
 _symmetry_equiv_pos_site_id
 _symmetry_equiv_pos_as_xyz
  1  'x, y, z'
loop_
 _atom_site_type_symbol
 _atom_site_label
 _atom_site_symmetry_multiplicity
 _atom_site_fract_x
 _atom_site_fract_y
 _atom_site_fract_z
 _atom_site_occupancy
  U  U0  1  0.75000000  0.18350300  0.66963000  1
  U  U1  1  0.75000000  0.68350300  0.83037000  1
  U  U2  1  0.25000000  0.79446800  0.34512400  1
  U  U3  1  0.25000000  0.29446800  0.15487600  1
  Te  Te4  1  0.25000000  0.24642700  0.45888600  1
  Te  Te5  1  0.25000000  0.74642700  0.04111400  1
  Se  Se6  1  0.75000000  0.78656100  0.53855700  1
  Se  Se7  1  0.75000000  0.28656100  0.96144300  1
  S  S8  1  0.75000000  0.02859300  0.23893200  1
  S  S9  1  0.75000000  0.52859300  0.26106800  1
  S  S10  1  0.25000000  0.96044800  0.76901800  1
  S  S11  1  0.25000000  0.46044800  0.73098200  1
