# generated using pymatgen
data_Ti3S2
_symmetry_space_group_name_H-M   'P 1'
_cell_length_a   4.50519936
_cell_length_b   4.50519936
_cell_length_c   4.50519983
_cell_angle_alpha   74.05788390
_cell_angle_beta   74.05788390
_cell_angle_gamma   74.05789084
_symmetry_Int_Tables_number   1
_chemical_formula_structural   Ti3S2
_chemical_formula_sum   'Ti3 S2'
_cell_volume   82.55670514
_cell_formula_units_Z   1
loop_
 _symmetry_equiv_pos_site_id
 _symmetry_equiv_pos_as_xyz
  1  'x, y, z'
loop_
 _atom_site_type_symbol
 _atom_site_label
 _atom_site_symmetry_multiplicity
 _atom_site_fract_x
 _atom_site_fract_y
 _atom_site_fract_z
 _atom_site_occupancy
  Ti  Ti0  1  0.00000000  0.33565500  0.66434500  1
  Ti  Ti1  1  0.33565500  0.66434500  0.00000000  1
  Ti  Ti2  1  0.66434500  0.00000000  0.33565500  1
  S  S3  1  0.83216100  0.83216100  0.83216100  1
  S  S4  1  0.16783900  0.16783900  0.16783900  1
