# generated using pymatgen
data_TiNb2O7
_symmetry_space_group_name_H-M   'P 1'
_cell_length_a   10.59724863
_cell_length_b   10.59724863
_cell_length_c   12.07845611
_cell_angle_alpha   59.76611833
_cell_angle_beta   59.76611833
_cell_angle_gamma   20.97605704
_symmetry_Int_Tables_number   1
_chemical_formula_structural   TiNb2O7
_chemical_formula_sum   'Ti3 Nb6 O21'
_cell_volume   417.07439089
_cell_formula_units_Z   3
loop_
 _symmetry_equiv_pos_site_id
 _symmetry_equiv_pos_as_xyz
  1  'x, y, z'
loop_
 _atom_site_type_symbol
 _atom_site_label
 _atom_site_symmetry_multiplicity
 _atom_site_fract_x
 _atom_site_fract_y
 _atom_site_fract_z
 _atom_site_occupancy
  Ti  Ti0  1  0.70673900  0.70673900  0.36128100  1
  Ti  Ti1  1  0.30016400  0.30016400  0.63370600  1
  Ti  Ti2  1  0.92283700  0.92283700  0.63198800  1
  Nb  Nb3  1  0.81803300  0.81803300  0.99565500  1
  Nb  Nb4  1  0.18520000  0.18520000  0.99384200  1
  Nb  Nb5  1  0.11811700  0.11811700  0.62660300  1
  Nb  Nb6  1  0.88376800  0.88376800  0.37273000  1
  Nb  Nb7  1  0.99988800  0.99988800  0.99833700  1
  Nb  Nb8  1  0.07608300  0.07608300  0.36974400  1
  O  O9  1  0.95062900  0.95062900  0.19775700  1
  O  O10  1  0.05011100  0.05011100  0.80402300  1
  O  O11  1  0.62693300  0.62693300  0.57871900  1
  O  O12  1  0.37258000  0.37258000  0.42151300  1
  O  O13  1  0.28977700  0.28977700  0.00488300  1
  O  O14  1  0.70874800  0.70874800  0.99858000  1
  O  O15  1  0.09898400  0.09898400  0.98716900  1
  O  O16  1  0.89991600  0.89991600  0.01742200  1
  O  O17  1  0.75069900  0.75069900  0.19408800  1
  O  O18  1  0.24837300  0.24837300  0.80613400  1
  O  O19  1  0.82575800  0.82575800  0.59540400  1
  O  O20  1  0.17336900  0.17336900  0.40359400  1
  O  O21  1  0.97422800  0.97422800  0.41894400  1
  O  O22  1  0.02160500  0.02160500  0.58303100  1
  O  O23  1  0.12476800  0.12476800  0.18990600  1
  O  O24  1  0.87379100  0.87379100  0.81122000  1
  O  O25  1  0.39956800  0.39956800  0.62694900  1
  O  O26  1  0.59834600  0.59834600  0.37674000  1
  O  O27  1  0.50010100  0.50010100  0.00139600  1
  O  O28  1  0.20974300  0.20974300  0.61994300  1
  O  O29  1  0.79114400  0.79114400  0.37869700  1
