# generated using pymatgen
data_TiMn(Ni2Sn)2
_symmetry_space_group_name_H-M   'P 1'
_cell_length_a   7.42571642
_cell_length_b   7.42571642
_cell_length_c   7.42571662
_cell_angle_alpha   33.73206438
_cell_angle_beta   33.73206438
_cell_angle_gamma   33.73205701
_symmetry_Int_Tables_number   1
_chemical_formula_structural   TiMn(Ni2Sn)2
_chemical_formula_sum   'Ti1 Mn1 Ni4 Sn2'
_cell_volume   112.50036810
_cell_formula_units_Z   1
loop_
 _symmetry_equiv_pos_site_id
 _symmetry_equiv_pos_as_xyz
  1  'x, y, z'
loop_
 _atom_site_type_symbol
 _atom_site_label
 _atom_site_symmetry_multiplicity
 _atom_site_fract_x
 _atom_site_fract_y
 _atom_site_fract_z
 _atom_site_occupancy
  Ti  Ti0  1  0.50000000  0.50000000  0.50000000  1
  Mn  Mn1  1  0.00000000  0.00000000  0.00000000  1
  Ni  Ni2  1  0.62296500  0.62296500  0.62296500  1
  Ni  Ni3  1  0.12700000  0.12700000  0.12700000  1
  Ni  Ni4  1  0.87300000  0.87300000  0.87300000  1
  Ni  Ni5  1  0.37703500  0.37703500  0.37703500  1
  Sn  Sn6  1  0.25170200  0.25170200  0.25170200  1
  Sn  Sn7  1  0.74829800  0.74829800  0.74829800  1
