# generated using pymatgen
data_Ti4Ru
_symmetry_space_group_name_H-M   'P 1'
_cell_length_a   11.30571698
_cell_length_b   11.16302039
_cell_length_c   2.83783417
_cell_angle_alpha   85.61237408
_cell_angle_beta   79.89394995
_cell_angle_gamma   14.49367597
_symmetry_Int_Tables_number   1
_chemical_formula_structural   Ti4Ru
_chemical_formula_sum   'Ti4 Ru1'
_cell_volume   81.66149296
_cell_formula_units_Z   1
loop_
 _symmetry_equiv_pos_site_id
 _symmetry_equiv_pos_as_xyz
  1  'x, y, z'
loop_
 _atom_site_type_symbol
 _atom_site_label
 _atom_site_symmetry_multiplicity
 _atom_site_fract_x
 _atom_site_fract_y
 _atom_site_fract_z
 _atom_site_occupancy
  Ti  Ti0  1  0.40961600  0.40961600  0.59038400  1
  Ti  Ti1  1  0.80307400  0.80307400  0.19692600  1
  Ti  Ti2  1  0.19692600  0.19692600  0.80307400  1
  Ti  Ti3  1  0.59038400  0.59038400  0.40961600  1
  Ru  Ru4  1  0.00000000  0.00000000  0.00000000  1
