# generated using pymatgen
data_Ti3S4
_symmetry_space_group_name_H-M   'P 1'
_cell_length_a   3.40642784
_cell_length_b   3.40642784
_cell_length_c   12.08577000
_cell_angle_alpha   90.00000000
_cell_angle_beta   90.00000000
_cell_angle_gamma   119.99999690
_symmetry_Int_Tables_number   1
_chemical_formula_structural   Ti3S4
_chemical_formula_sum   'Ti3 S4'
_cell_volume   121.45163270
_cell_formula_units_Z   1
loop_
 _symmetry_equiv_pos_site_id
 _symmetry_equiv_pos_as_xyz
  1  'x, y, z'
loop_
 _atom_site_type_symbol
 _atom_site_label
 _atom_site_symmetry_multiplicity
 _atom_site_fract_x
 _atom_site_fract_y
 _atom_site_fract_z
 _atom_site_occupancy
  Ti  Ti0  1  0.33333300  0.66666700  0.24448300  1
  Ti  Ti1  1  0.66666700  0.33333300  0.75551700  1
  Ti  Ti2  1  0.00000000  0.00000000  0.50000000  1
  S  S3  1  0.33333300  0.66666700  0.87255600  1
  S  S4  1  0.66666700  0.33333300  0.12744400  1
  S  S5  1  0.66666700  0.33333300  0.37634500  1
  S  S6  1  0.33333300  0.66666700  0.62365500  1
