# generated using pymatgen
data_Ti5CN4
_symmetry_space_group_name_H-M   'P 1'
_cell_length_a   12.43768967
_cell_length_b   12.43768967
_cell_length_c   12.43769031
_cell_angle_alpha   13.95562757
_cell_angle_beta   13.95562757
_cell_angle_gamma   13.95563030
_symmetry_Int_Tables_number   1
_chemical_formula_structural   Ti5CN4
_chemical_formula_sum   'Ti5 C1 N4'
_cell_volume   97.39563583
_cell_formula_units_Z   1
loop_
 _symmetry_equiv_pos_site_id
 _symmetry_equiv_pos_as_xyz
  1  'x, y, z'
loop_
 _atom_site_type_symbol
 _atom_site_label
 _atom_site_symmetry_multiplicity
 _atom_site_fract_x
 _atom_site_fract_y
 _atom_site_fract_z
 _atom_site_occupancy
  Ti  Ti0  1  0.60028000  0.60028000  0.60028000  1
  Ti  Ti1  1  0.00000000  0.00000000  0.00000000  1
  Ti  Ti2  1  0.39972000  0.39972000  0.39972000  1
  Ti  Ti3  1  0.19976600  0.19976600  0.19976600  1
  Ti  Ti4  1  0.80023400  0.80023400  0.80023400  1
  C  C5  1  0.50000000  0.50000000  0.50000000  1
  N  N6  1  0.09927900  0.09927900  0.09927900  1
  N  N7  1  0.70002500  0.70002500  0.70002500  1
  N  N8  1  0.29997500  0.29997500  0.29997500  1
  N  N9  1  0.90072100  0.90072100  0.90072100  1
