# generated using pymatgen
data_Ti2VSe4
_symmetry_space_group_name_H-M   'P 1'
_cell_length_a   6.99041628
_cell_length_b   6.99041628
_cell_length_c   6.39815332
_cell_angle_alpha   63.78462800
_cell_angle_beta   63.78462800
_cell_angle_gamma   29.06481268
_symmetry_Int_Tables_number   1
_chemical_formula_structural   Ti2VSe4
_chemical_formula_sum   'Ti2 V1 Se4'
_cell_volume   135.14823443
_cell_formula_units_Z   1
loop_
 _symmetry_equiv_pos_site_id
 _symmetry_equiv_pos_as_xyz
  1  'x, y, z'
loop_
 _atom_site_type_symbol
 _atom_site_label
 _atom_site_symmetry_multiplicity
 _atom_site_fract_x
 _atom_site_fract_y
 _atom_site_fract_z
 _atom_site_occupancy
  Ti  Ti0  1  0.00010200  0.00010200  0.99918500  1
  Ti  Ti1  1  0.25273000  0.25273000  0.69942500  1
  V  V2  1  0.74730100  0.74730100  0.30043400  1
  Se  Se3  1  0.11130900  0.11130900  0.54714100  1
  Se  Se4  1  0.89005100  0.89005100  0.44628000  1
  Se  Se5  1  0.36229800  0.36229800  0.97466500  1
  Se  Se6  1  0.63620900  0.63620900  0.03287100  1
