# generated using pymatgen
data_Ti2O
_symmetry_space_group_name_H-M   'P 1'
_cell_length_a   2.95158800
_cell_length_b   4.66248200
_cell_length_c   8.25180606
_cell_angle_alpha   87.90985776
_cell_angle_beta   90.00000000
_cell_angle_gamma   90.00000000
_symmetry_Int_Tables_number   1
_chemical_formula_structural   Ti2O
_chemical_formula_sum   'Ti6 O3'
_cell_volume   113.48354065
_cell_formula_units_Z   3
loop_
 _symmetry_equiv_pos_site_id
 _symmetry_equiv_pos_as_xyz
  1  'x, y, z'
loop_
 _atom_site_type_symbol
 _atom_site_label
 _atom_site_symmetry_multiplicity
 _atom_site_fract_x
 _atom_site_fract_y
 _atom_site_fract_z
 _atom_site_occupancy
  Ti  Ti0  1  0.50000000  0.26463000  0.08559700  1
  Ti  Ti1  1  0.50000000  0.74578200  0.57164000  1
  Ti  Ti2  1  0.50000000  0.73537000  0.91440300  1
  Ti  Ti3  1  0.50000000  0.25421800  0.42836000  1
  Ti  Ti4  1  0.00000000  0.25067100  0.75707400  1
  Ti  Ti5  1  0.00000000  0.74932900  0.24292600  1
  O  O6  1  0.00000000  0.29297000  0.25857500  1
  O  O7  1  0.00000000  0.70703000  0.74142500  1
  O  O8  1  0.00000000  0.00000000  0.00000000  1
