# generated using pymatgen
data_Ti3O4
_symmetry_space_group_name_H-M   'P 1'
_cell_length_a   5.04240086
_cell_length_b   5.04240086
_cell_length_c   5.04240086
_cell_angle_alpha   131.31339574
_cell_angle_beta   131.31339574
_cell_angle_gamma   71.31562963
_symmetry_Int_Tables_number   1
_chemical_formula_structural   Ti3O4
_chemical_formula_sum   'Ti3 O4'
_cell_volume   70.79861857
_cell_formula_units_Z   1
loop_
 _symmetry_equiv_pos_site_id
 _symmetry_equiv_pos_as_xyz
  1  'x, y, z'
loop_
 _atom_site_type_symbol
 _atom_site_label
 _atom_site_symmetry_multiplicity
 _atom_site_fract_x
 _atom_site_fract_y
 _atom_site_fract_z
 _atom_site_occupancy
  Ti  Ti0  1  0.25000000  0.75000000  0.50000000  1
  Ti  Ti1  1  0.50000000  0.50000000  0.00000000  1
  Ti  Ti2  1  0.75000000  0.25000000  0.50000000  1
  O  O3  1  0.00000000  0.50000000  0.50000000  1
  O  O4  1  0.24123200  0.24123200  0.00000000  1
  O  O5  1  0.50000000  0.00000000  0.50000000  1
  O  O6  1  0.75876800  0.75876800  0.00000000  1
