# generated using pymatgen
data_TiFe3Bi3PbO12
_symmetry_space_group_name_H-M   'P 1'
_cell_length_a   5.45139400
_cell_length_b   6.00198362
_cell_length_c   9.69780998
_cell_angle_alpha   84.28633053
_cell_angle_beta   105.52190151
_cell_angle_gamma   114.75664477
_symmetry_Int_Tables_number   1
_chemical_formula_structural   TiFe3Bi3PbO12
_chemical_formula_sum   'Ti1 Fe3 Bi3 Pb1 O12'
_cell_volume   277.60495735
_cell_formula_units_Z   1
loop_
 _symmetry_equiv_pos_site_id
 _symmetry_equiv_pos_as_xyz
  1  'x, y, z'
loop_
 _atom_site_type_symbol
 _atom_site_label
 _atom_site_symmetry_multiplicity
 _atom_site_fract_x
 _atom_site_fract_y
 _atom_site_fract_z
 _atom_site_occupancy
  Ti  Ti0  1  0.70907500  0.48787700  0.98844600  1
  Fe  Fe1  1  0.23090900  0.74310500  0.75798400  1
  Fe  Fe2  1  0.21364900  0.23157500  0.24982300  1
  Fe  Fe3  1  0.71662900  0.99690300  0.48871300  1
  Bi  Bi4  1  0.55488700  0.44051300  0.62480300  1
  Bi  Bi5  1  0.53365800  0.94246200  0.12645100  1
  Bi  Bi6  1  0.04550800  0.66291800  0.39927300  1
  Pb  Pb7  1  0.01495800  0.14678600  0.87900800  1
  O  O8  1  0.90920100  0.52777900  0.84331800  1
  O  O9  1  0.89603400  0.00004900  0.33496600  1
  O  O10  1  0.40960400  0.51801100  0.84019400  1
  O  O11  1  0.39034500  0.99691700  0.33123700  1
  O  O12  1  0.90886500  0.78489700  0.59842300  1
  O  O13  1  0.90289000  0.27959900  0.10070800  1
  O  O14  1  0.40524900  0.78838500  0.59116200  1
  O  O15  1  0.41447700  0.27796200  0.09637400  1
  O  O16  1  0.87192200  0.31386100  0.56966800  1
  O  O17  1  0.87590300  0.77504300  0.07809900  1
  O  O18  1  0.42438300  0.02630300  0.87218800  1
  O  O19  1  0.37985700  0.50305600  0.37716100  1
