# generated using pymatgen
data_Ti3Fe
_symmetry_space_group_name_H-M   'P 1'
_cell_length_a   2.99856514
_cell_length_b   2.99856514
_cell_length_c   8.04155700
_cell_angle_alpha   90.00000000
_cell_angle_beta   90.00000000
_cell_angle_gamma   119.98184376
_symmetry_Int_Tables_number   1
_chemical_formula_structural   Ti3Fe
_chemical_formula_sum   'Ti3 Fe1'
_cell_volume   62.62924525
_cell_formula_units_Z   1
loop_
 _symmetry_equiv_pos_site_id
 _symmetry_equiv_pos_as_xyz
  1  'x, y, z'
loop_
 _atom_site_type_symbol
 _atom_site_label
 _atom_site_symmetry_multiplicity
 _atom_site_fract_x
 _atom_site_fract_y
 _atom_site_fract_z
 _atom_site_occupancy
  Ti  Ti0  1  0.66681600  0.33318400  0.87500000  1
  Ti  Ti1  1  0.33324600  0.66675400  0.15988500  1
  Ti  Ti2  1  0.33324600  0.66675400  0.59011500  1
  Fe  Fe3  1  0.66669200  0.33330800  0.37500000  1
