# generated using pymatgen
data_Tl5Re6Se8Cl7
_symmetry_space_group_name_H-M   'P 1'
_cell_length_a   18.45486650
_cell_length_b   18.45486650
_cell_length_c   18.45486590
_cell_angle_alpha   30.11406217
_cell_angle_beta   30.11406217
_cell_angle_gamma   30.11406066
_symmetry_Int_Tables_number   1
_chemical_formula_structural   Tl5Re6Se8Cl7
_chemical_formula_sum   'Tl10 Re12 Se16 Cl14'
_cell_volume   1401.71982134
_cell_formula_units_Z   2
loop_
 _symmetry_equiv_pos_site_id
 _symmetry_equiv_pos_as_xyz
  1  'x, y, z'
loop_
 _atom_site_type_symbol
 _atom_site_label
 _atom_site_symmetry_multiplicity
 _atom_site_fract_x
 _atom_site_fract_y
 _atom_site_fract_z
 _atom_site_occupancy
  Tl  Tl0  1  0.05197000  0.44788100  0.74994500  1
  Tl  Tl1  1  0.44788100  0.74994500  0.05197000  1
  Tl  Tl2  1  0.74994500  0.05197000  0.44788100  1
  Tl  Tl3  1  0.55197000  0.24994500  0.94788100  1
  Tl  Tl4  1  0.24994500  0.94788100  0.55197000  1
  Tl  Tl5  1  0.94788100  0.55197000  0.24994500  1
  Tl  Tl6  1  0.15319700  0.15319700  0.15319700  1
  Tl  Tl7  1  0.65319700  0.65319700  0.65319700  1
  Tl  Tl8  1  0.84709300  0.84709300  0.84709300  1
  Tl  Tl9  1  0.34709300  0.34709300  0.34709300  1
  Re  Re10  1  0.34774500  0.55193500  0.66203900  1
  Re  Re11  1  0.55193500  0.66203900  0.34774500  1
  Re  Re12  1  0.66203900  0.34774500  0.55193500  1
  Re  Re13  1  0.84774500  0.16203900  0.05193500  1
  Re  Re14  1  0.16203900  0.05193500  0.84774500  1
  Re  Re15  1  0.05193500  0.84774500  0.16203900  1
  Re  Re16  1  0.65219900  0.44824300  0.33787200  1
  Re  Re17  1  0.44824300  0.33787200  0.65219900  1
  Re  Re18  1  0.33787200  0.65219900  0.44824300  1
  Re  Re19  1  0.15219900  0.83787200  0.94824300  1
  Re  Re20  1  0.83787200  0.94824300  0.15219900  1
  Re  Re21  1  0.94824300  0.15219900  0.83787200  1
  Se  Se22  1  0.24758600  0.85376100  0.45792500  1
  Se  Se23  1  0.85376100  0.45792500  0.24758600  1
  Se  Se24  1  0.45792500  0.24758600  0.85376100  1
  Se  Se25  1  0.74758600  0.95792500  0.35376100  1
  Se  Se26  1  0.95792500  0.35376100  0.74758600  1
  Se  Se27  1  0.35376100  0.74758600  0.95792500  1
  Se  Se28  1  0.75271100  0.14626600  0.54175600  1
  Se  Se29  1  0.14626600  0.54175600  0.75271100  1
  Se  Se30  1  0.54175600  0.75271100  0.14626600  1
  Se  Se31  1  0.25271100  0.04175600  0.64626600  1
  Se  Se32  1  0.04175600  0.64626600  0.25271100  1
  Se  Se33  1  0.64626600  0.25271100  0.04175600  1
  Se  Se34  1  0.55931700  0.55931700  0.55931700  1
  Se  Se35  1  0.05931700  0.05931700  0.05931700  1
  Se  Se36  1  0.44070000  0.44070000  0.44070000  1
  Se  Se37  1  0.94070000  0.94070000  0.94070000  1
  Cl  Cl38  1  0.14901200  0.62619300  0.86995200  1
  Cl  Cl39  1  0.62619300  0.86995200  0.14901200  1
  Cl  Cl40  1  0.86995200  0.14901200  0.62619300  1
  Cl  Cl41  1  0.64901200  0.36995200  0.12619300  1
  Cl  Cl42  1  0.36995200  0.12619300  0.64901200  1
  Cl  Cl43  1  0.12619300  0.64901200  0.36995200  1
  Cl  Cl44  1  0.85065100  0.37552200  0.12864200  1
  Cl  Cl45  1  0.37552200  0.12864200  0.85065100  1
  Cl  Cl46  1  0.12864200  0.85065100  0.37552200  1
  Cl  Cl47  1  0.35065100  0.62864200  0.87552200  1
  Cl  Cl48  1  0.62864200  0.87552200  0.35065100  1
  Cl  Cl49  1  0.87552200  0.35065100  0.62864200  1
  Cl  Cl50  1  0.24192700  0.24192700  0.24192700  1
  Cl  Cl51  1  0.74192700  0.74192700  0.74192700  1
