# generated using pymatgen
data_Ti2AgBiO6
_symmetry_space_group_name_H-M   'P 1'
_cell_length_a   5.53797709
_cell_length_b   5.53797709
_cell_length_c   5.53797709
_cell_angle_alpha   120.79228324
_cell_angle_beta   120.79228324
_cell_angle_gamma   88.63311699
_symmetry_Int_Tables_number   1
_chemical_formula_structural   Ti2AgBiO6
_chemical_formula_sum   'Ti2 Ag1 Bi1 O6'
_cell_volume   118.62389518
_cell_formula_units_Z   1
loop_
 _symmetry_equiv_pos_site_id
 _symmetry_equiv_pos_as_xyz
  1  'x, y, z'
loop_
 _atom_site_type_symbol
 _atom_site_label
 _atom_site_symmetry_multiplicity
 _atom_site_fract_x
 _atom_site_fract_y
 _atom_site_fract_z
 _atom_site_occupancy
  Ti  Ti0  1  0.25000000  0.75000000  0.50000000  1
  Ti  Ti1  1  0.75000000  0.25000000  0.50000000  1
  Ag  Ag2  1  0.50000000  0.50000000  0.00000000  1
  Bi  Bi3  1  0.00000000  0.00000000  0.00000000  1
  O  O4  1  0.95562400  0.56734200  0.00000000  1
  O  O5  1  0.56734200  0.95562400  0.00000000  1
  O  O6  1  0.43265800  0.43265800  0.38828200  1
  O  O7  1  0.04437600  0.04437600  0.61171800  1
  O  O8  1  0.50000000  0.00000000  0.50000000  1
  O  O9  1  0.00000000  0.50000000  0.50000000  1
