# generated using pymatgen
data_Ti2Te3
_symmetry_space_group_name_H-M   'P 1'
_cell_length_a   7.51505000
_cell_length_b   7.89739496
_cell_length_c   9.23829411
_cell_angle_alpha   90.93564945
_cell_angle_beta   104.74306294
_cell_angle_gamma   106.25440388
_symmetry_Int_Tables_number   1
_chemical_formula_structural   Ti2Te3
_chemical_formula_sum   'Ti8 Te12'
_cell_volume   506.77180067
_cell_formula_units_Z   4
loop_
 _symmetry_equiv_pos_site_id
 _symmetry_equiv_pos_as_xyz
  1  'x, y, z'
loop_
 _atom_site_type_symbol
 _atom_site_label
 _atom_site_symmetry_multiplicity
 _atom_site_fract_x
 _atom_site_fract_y
 _atom_site_fract_z
 _atom_site_occupancy
  Ti  Ti0  1  0.50463900  0.23381200  0.01543100  1
  Ti  Ti1  1  0.84767600  0.56131600  0.34823600  1
  Ti  Ti2  1  0.16389300  0.88936700  0.67123400  1
  Ti  Ti3  1  0.49536100  0.76618800  0.98456900  1
  Ti  Ti4  1  0.83610700  0.11063300  0.32876600  1
  Ti  Ti5  1  0.15232400  0.43868400  0.65176400  1
  Ti  Ti6  1  0.83347600  0.83584400  0.83661000  1
  Ti  Ti7  1  0.16652400  0.16415600  0.16339000  1
  Te  Te8  1  0.43322100  0.97480800  0.20630100  1
  Te  Te9  1  0.75866200  0.31399900  0.53637400  1
  Te  Te10  1  0.09725200  0.64261500  0.87445700  1
  Te  Te11  1  0.56677900  0.02519200  0.79369900  1
  Te  Te12  1  0.90274800  0.35738500  0.12554300  1
  Te  Te13  1  0.24133800  0.68600100  0.46362600  1
  Te  Te14  1  0.54932800  0.50800100  0.80266300  1
  Te  Te15  1  0.88849900  0.83775500  0.14788500  1
  Te  Te16  1  0.22665600  0.18158400  0.47778500  1
  Te  Te17  1  0.45067200  0.49199900  0.19733700  1
  Te  Te18  1  0.77334400  0.81841600  0.52221500  1
  Te  Te19  1  0.11150100  0.16224500  0.85211500  1
