# generated using pymatgen
data_Y19Mg97
_symmetry_space_group_name_H-M   'P 1'
_cell_length_a   9.70428157
_cell_length_b   9.70428157
_cell_length_c   32.11357627
_cell_angle_alpha   90.00000000
_cell_angle_beta   90.00000000
_cell_angle_gamma   109.12562674
_symmetry_Int_Tables_number   1
_chemical_formula_structural   Y19Mg97
_chemical_formula_sum   'Y19 Mg97'
_cell_volume   2857.30412052
_cell_formula_units_Z   1
loop_
 _symmetry_equiv_pos_site_id
 _symmetry_equiv_pos_as_xyz
  1  'x, y, z'
loop_
 _atom_site_type_symbol
 _atom_site_label
 _atom_site_symmetry_multiplicity
 _atom_site_fract_x
 _atom_site_fract_y
 _atom_site_fract_z
 _atom_site_occupancy
  Y  Y0  1  0.12214708  0.50112869  0.24996003  1
  Y  Y1  1  0.62210746  0.00161939  0.50000000  1
  Y  Y2  1  0.12214708  0.50112869  0.75003997  1
  Y  Y3  1  0.62457932  0.00113861  -0.00000000  1
  Y  Y4  1  0.50112869  0.12214708  0.24996003  1
  Y  Y5  1  0.00161939  0.62210746  0.50000000  1
  Y  Y6  1  0.50112869  0.12214708  0.75003997  1
  Y  Y7  1  0.00113861  0.62457932  0.00000000  1
  Y  Y8  1  0.68884359  0.68884359  0.15574126  1
  Y  Y9  1  0.18914856  0.18914856  0.40563941  1
  Y  Y10  1  0.68972063  0.68972063  0.65576423  1
  Y  Y11  1  0.18742981  0.18742981  0.90620892  1
  Y  Y12  1  0.18742981  0.18742981  0.09379108  1
  Y  Y13  1  0.68972063  0.68972063  0.34423577  1
  Y  Y14  1  0.18914856  0.18914856  0.59436059  1
  Y  Y15  1  0.68884359  0.68884359  0.84425874  1
  Y  Y16  1  0.50043305  0.50043305  0.24994629  1
  Y  Y17  1  0.00053457  0.00053457  0.50000000  1
  Y  Y18  1  0.50043305  0.50043305  0.75005371  1
  Mg  Mg19  1  0.38986118  0.67451346  -0.00000000  1
  Mg  Mg20  1  0.88946634  0.17273884  0.25001020  1
  Mg  Mg21  1  0.38919933  0.67267513  0.50000000  1
  Mg  Mg22  1  0.88946634  0.17273884  0.74998980  1
  Mg  Mg23  1  0.55102317  0.16358500  0.08173920  1
  Mg  Mg24  1  0.05178212  0.66391966  0.33190002  1
  Mg  Mg25  1  0.55138947  0.16398360  0.58192641  1
  Mg  Mg26  1  0.05186251  0.66323250  0.83167579  1
  Mg  Mg27  1  0.05186251  0.66323250  0.16832421  1
  Mg  Mg28  1  0.55138947  0.16398360  0.41807359  1
  Mg  Mg29  1  0.05178212  0.66391966  0.66809998  1
  Mg  Mg30  1  0.55102317  0.16358500  0.91826080  1
  Mg  Mg31  1  0.67451346  0.38986118  0.00000000  1
  Mg  Mg32  1  0.17273884  0.88946634  0.25001020  1
  Mg  Mg33  1  0.67267513  0.38919933  0.50000000  1
  Mg  Mg34  1  0.17273884  0.88946634  0.74998980  1
  Mg  Mg35  1  0.66323250  0.05186251  0.16832421  1
  Mg  Mg36  1  0.16398360  0.55138947  0.41807359  1
  Mg  Mg37  1  0.66391966  0.05178212  0.66809998  1
  Mg  Mg38  1  0.16358500  0.55102317  0.91826080  1
  Mg  Mg39  1  0.16358500  0.55102317  0.08173920  1
  Mg  Mg40  1  0.66391966  0.05178212  0.33190002  1
  Mg  Mg41  1  0.16398360  0.55138947  0.58192641  1
  Mg  Mg42  1  0.66323250  0.05186251  0.83167579  1
  Mg  Mg43  1  0.97049585  0.97049585  0.17844630  1
  Mg  Mg44  1  0.47013831  0.47013831  0.42858520  1
  Mg  Mg45  1  0.97029659  0.97029659  0.67874641  1
  Mg  Mg46  1  0.46833255  0.46833255  0.92844967  1
  Mg  Mg47  1  0.80519411  0.47910288  0.09704749  1
  Mg  Mg48  1  0.30562935  0.97837892  0.34694296  1
  Mg  Mg49  1  0.80539236  0.47831300  0.59696297  1
  Mg  Mg50  1  0.30544010  0.97910579  0.84694653  1
  Mg  Mg51  1  0.47910288  0.80519411  0.09704749  1
  Mg  Mg52  1  0.97837892  0.30562935  0.34694296  1
  Mg  Mg53  1  0.47831300  0.80539236  0.59696297  1
  Mg  Mg54  1  0.97910579  0.30544010  0.84694653  1
  Mg  Mg55  1  0.46833255  0.46833255  0.07155033  1
  Mg  Mg56  1  0.97029659  0.97029659  0.32125359  1
  Mg  Mg57  1  0.47013831  0.47013831  0.57141480  1
  Mg  Mg58  1  0.97049585  0.97049585  0.82155370  1
  Mg  Mg59  1  0.97910579  0.30544010  0.15305347  1
  Mg  Mg60  1  0.47831300  0.80539236  0.40303703  1
  Mg  Mg61  1  0.97837892  0.30562935  0.65305704  1
  Mg  Mg62  1  0.47910288  0.80519411  0.90295251  1
  Mg  Mg63  1  0.30544010  0.97910579  0.15305347  1
  Mg  Mg64  1  0.80539236  0.47831300  0.40303703  1
  Mg  Mg65  1  0.30562935  0.97837892  0.65305704  1
  Mg  Mg66  1  0.80519411  0.47910288  0.90295251  1
  Mg  Mg67  1  0.99963480  0.99963480  0.00000000  1
  Mg  Mg68  1  0.36942470  0.18925952  0.00000000  1
  Mg  Mg69  1  0.86793483  0.68897554  0.24995176  1
  Mg  Mg70  1  0.36845533  0.18917391  0.50000000  1
  Mg  Mg71  1  0.86793483  0.68897554  0.75004824  1
  Mg  Mg72  1  0.77378552  0.40520838  0.20259523  1
  Mg  Mg73  1  0.27344286  0.90493082  0.45260537  1
  Mg  Mg74  1  0.77338275  0.40506204  0.70269509  1
  Mg  Mg75  1  0.27430455  0.90468240  0.95258842  1
  Mg  Mg76  1  0.27430455  0.90468240  0.04741158  1
  Mg  Mg77  1  0.77338275  0.40506204  0.29730491  1
  Mg  Mg78  1  0.27344286  0.90493082  0.54739463  1
  Mg  Mg79  1  0.77378552  0.40520838  0.79740477  1
  Mg  Mg80  1  0.18925952  0.36942470  -0.00000000  1
  Mg  Mg81  1  0.68897554  0.86793483  0.24995176  1
  Mg  Mg82  1  0.18917391  0.36845533  0.50000000  1
  Mg  Mg83  1  0.68897554  0.86793483  0.75004824  1
  Mg  Mg84  1  0.90468240  0.27430455  0.04741158  1
  Mg  Mg85  1  0.40506204  0.77338275  0.29730491  1
  Mg  Mg86  1  0.90493082  0.27344286  0.54739463  1
  Mg  Mg87  1  0.40520838  0.77378552  0.79740477  1
  Mg  Mg88  1  0.40520838  0.77378552  0.20259523  1
  Mg  Mg89  1  0.90493082  0.27344286  0.45260537  1
  Mg  Mg90  1  0.40506204  0.77338275  0.70269509  1
  Mg  Mg91  1  0.90468240  0.27430455  0.95258842  1
  Mg  Mg92  1  0.71921747  0.71921747  0.04445063  1
  Mg  Mg93  1  0.22038341  0.22038341  0.29425652  1
  Mg  Mg94  1  0.71975429  0.71975429  0.54442277  1
  Mg  Mg95  1  0.21991098  0.21991098  0.79445719  1
  Mg  Mg96  1  0.81472651  0.00590389  0.09260093  1
  Mg  Mg97  1  0.31537162  0.50593670  0.34220468  1
  Mg  Mg98  1  0.81554841  0.00608735  0.59228619  1
  Mg  Mg99  1  0.31556840  0.50613849  0.84237307  1
  Mg  Mg100  1  0.00590389  0.81472651  0.09260093  1
  Mg  Mg101  1  0.50593670  0.31537162  0.34220468  1
  Mg  Mg102  1  0.00608735  0.81554841  0.59228619  1
  Mg  Mg103  1  0.50613849  0.31556840  0.84237307  1
  Mg  Mg104  1  0.21991098  0.21991098  0.20554281  1
  Mg  Mg105  1  0.71975429  0.71975429  0.45557723  1
  Mg  Mg106  1  0.22038341  0.22038341  0.70574348  1
  Mg  Mg107  1  0.71921747  0.71921747  0.95554937  1
  Mg  Mg108  1  0.50613849  0.31556840  0.15762693  1
  Mg  Mg109  1  0.00608735  0.81554841  0.40771381  1
  Mg  Mg110  1  0.50593670  0.31537162  0.65779532  1
  Mg  Mg111  1  0.00590389  0.81472651  0.90739907  1
  Mg  Mg112  1  0.31556840  0.50613849  0.15762693  1
  Mg  Mg113  1  0.81554841  0.00608735  0.40771381  1
  Mg  Mg114  1  0.31537162  0.50593670  0.65779532  1
  Mg  Mg115  1  0.81472651  0.00590389  0.90739907  1
