# generated using pymatgen
data_Ti13Sb3
_symmetry_space_group_name_H-M   'P 1'
_cell_length_a   4.74834900
_cell_length_b   5.82888300
_cell_length_c   10.16479400
_cell_angle_alpha   90.00000000
_cell_angle_beta   90.00000000
_cell_angle_gamma   90.00000000
_symmetry_Int_Tables_number   1
_chemical_formula_structural   Ti13Sb3
_chemical_formula_sum   'Ti13 Sb3'
_cell_volume   281.33680524
_cell_formula_units_Z   1
loop_
 _symmetry_equiv_pos_site_id
 _symmetry_equiv_pos_as_xyz
  1  'x, y, z'
loop_
 _atom_site_type_symbol
 _atom_site_label
 _atom_site_symmetry_multiplicity
 _atom_site_fract_x
 _atom_site_fract_y
 _atom_site_fract_z
 _atom_site_occupancy
  Ti  Ti0  1  0.50000000  0.00000000  0.16523100  1
  Ti  Ti1  1  0.50000000  0.50000000  0.66477300  1
  Ti  Ti2  1  0.50000000  0.74049200  0.41166800  1
  Ti  Ti3  1  0.50000000  0.24992600  0.92714600  1
  Ti  Ti4  1  0.50000000  0.25950800  0.41166800  1
  Ti  Ti5  1  0.50000000  0.75007400  0.92714600  1
  Ti  Ti6  1  0.00000000  0.50000000  0.33232500  1
  Ti  Ti7  1  0.00000000  0.00000000  0.83414400  1
  Ti  Ti8  1  0.00000000  0.74970400  0.08153200  1
  Ti  Ti9  1  0.00000000  0.25618100  0.58112600  1
  Ti  Ti10  1  0.00000000  0.25029600  0.08153200  1
  Ti  Ti11  1  0.00000000  0.74381900  0.58112600  1
  Ti  Ti12  1  0.50000000  0.50000000  0.16776600  1
  Sb  Sb13  1  0.50000000  0.00000000  0.66646800  1
  Sb  Sb14  1  0.00000000  0.00000000  0.33453000  1
  Sb  Sb15  1  0.00000000  0.50000000  0.83177300  1
