# generated using pymatgen
data_Th4AgPd
_symmetry_space_group_name_H-M   'P 1'
_cell_length_a   6.05564820
_cell_length_b   6.05564820
_cell_length_c   6.05564820
_cell_angle_alpha   104.02205031
_cell_angle_beta   104.02205031
_cell_angle_gamma   121.02482426
_symmetry_Int_Tables_number   1
_chemical_formula_structural   Th4AgPd
_chemical_formula_sum   'Th4 Ag1 Pd1'
_cell_volume   165.64730796
_cell_formula_units_Z   1
loop_
 _symmetry_equiv_pos_site_id
 _symmetry_equiv_pos_as_xyz
  1  'x, y, z'
loop_
 _atom_site_type_symbol
 _atom_site_label
 _atom_site_symmetry_multiplicity
 _atom_site_fract_x
 _atom_site_fract_y
 _atom_site_fract_z
 _atom_site_occupancy
  Th  Th0  1  0.40938000  0.90938000  0.81876100  1
  Th  Th1  1  0.09062000  0.59062000  0.18123900  1
  Th  Th2  1  0.59062000  0.40938000  0.50000000  1
  Th  Th3  1  0.90938000  0.09062000  0.50000000  1
  Ag  Ag4  1  0.50000000  0.50000000  0.00000000  1
  Pd  Pd5  1  0.00000000  0.00000000  0.00000000  1
