# generated using pymatgen
data_TePb2Se
_symmetry_space_group_name_H-M   'P 1'
_cell_length_a   7.83074055
_cell_length_b   7.83074055
_cell_length_c   7.83073980
_cell_angle_alpha   33.57273882
_cell_angle_beta   33.57273882
_cell_angle_gamma   33.57273063
_symmetry_Int_Tables_number   1
_chemical_formula_structural   TePb2Se
_chemical_formula_sum   'Te1 Pb2 Se1'
_cell_volume   130.79918913
_cell_formula_units_Z   1
loop_
 _symmetry_equiv_pos_site_id
 _symmetry_equiv_pos_as_xyz
  1  'x, y, z'
loop_
 _atom_site_type_symbol
 _atom_site_label
 _atom_site_symmetry_multiplicity
 _atom_site_fract_x
 _atom_site_fract_y
 _atom_site_fract_z
 _atom_site_occupancy
  Te  Te0  1  0.50000000  0.50000000  0.50000000  1
  Pb  Pb1  1  0.25504000  0.25504000  0.25504000  1
  Pb  Pb2  1  0.74496000  0.74496000  0.74496000  1
  Se  Se3  1  0.00000000  0.00000000  0.00000000  1
