# generated using pymatgen
data_Th2FeSi3
_symmetry_space_group_name_H-M   'P 1'
_cell_length_a   7.63727403
_cell_length_b   7.63727403
_cell_length_c   7.63727403
_cell_angle_alpha   149.13654219
_cell_angle_beta   148.57710018
_cell_angle_gamma   44.62376465
_symmetry_Int_Tables_number   1
_chemical_formula_structural   Th2FeSi3
_chemical_formula_sum   'Th2 Fe1 Si3'
_cell_volume   118.78018579
_cell_formula_units_Z   1
loop_
 _symmetry_equiv_pos_site_id
 _symmetry_equiv_pos_as_xyz
  1  'x, y, z'
loop_
 _atom_site_type_symbol
 _atom_site_label
 _atom_site_symmetry_multiplicity
 _atom_site_fract_x
 _atom_site_fract_y
 _atom_site_fract_z
 _atom_site_occupancy
  Th  Th0  1  0.74775700  0.24775700  0.50000000  1
  Th  Th1  1  0.00433100  0.00433100  0.00000000  1
  Fe  Fe2  1  0.16544300  0.66544300  0.50000000  1
  Si  Si3  1  0.58819800  0.58819800  0.00000000  1
  Si  Si4  1  0.32635900  0.82635900  0.50000000  1
  Si  Si5  1  0.41791200  0.41791200  0.00000000  1
