# generated using pymatgen
data_TeW2Se3
_symmetry_space_group_name_H-M   'P 1'
_cell_length_a   3.37769690
_cell_length_b   3.37769690
_cell_length_c   14.75865700
_cell_angle_alpha   90.00000000
_cell_angle_beta   90.00000000
_cell_angle_gamma   119.99997838
_symmetry_Int_Tables_number   1
_chemical_formula_structural   TeW2Se3
_chemical_formula_sum   'Te1 W2 Se3'
_cell_volume   145.82061163
_cell_formula_units_Z   1
loop_
 _symmetry_equiv_pos_site_id
 _symmetry_equiv_pos_as_xyz
  1  'x, y, z'
loop_
 _atom_site_type_symbol
 _atom_site_label
 _atom_site_symmetry_multiplicity
 _atom_site_fract_x
 _atom_site_fract_y
 _atom_site_fract_z
 _atom_site_occupancy
  Te  Te0  1  0.33333300  0.66666700  0.37161300  1
  W  W1  1  0.00000000  0.00000000  0.24300300  1
  W  W2  1  0.33333300  0.66666700  0.75135100  1
  Se  Se3  1  0.00000000  0.00000000  0.63855800  1
  Se  Se4  1  0.00000000  0.00000000  0.86404500  1
  Se  Se5  1  0.33333300  0.66666700  0.13143100  1
