# generated using pymatgen
data_ThIrOs
_symmetry_space_group_name_H-M   'P 1'
_cell_length_a   5.51065975
_cell_length_b   5.51065975
_cell_length_c   5.51065975
_cell_angle_alpha   123.34214884
_cell_angle_beta   119.68738546
_cell_angle_gamma   87.42627138
_symmetry_Int_Tables_number   1
_chemical_formula_structural   ThIrOs
_chemical_formula_sum   'Th2 Ir2 Os2'
_cell_volume   115.33893883
_cell_formula_units_Z   2
loop_
 _symmetry_equiv_pos_site_id
 _symmetry_equiv_pos_as_xyz
  1  'x, y, z'
loop_
 _atom_site_type_symbol
 _atom_site_label
 _atom_site_symmetry_multiplicity
 _atom_site_fract_x
 _atom_site_fract_y
 _atom_site_fract_z
 _atom_site_occupancy
  Th  Th0  1  0.12765100  0.87765100  0.25000000  1
  Th  Th1  1  0.87234900  0.12234900  0.75000000  1
  Ir  Ir2  1  0.00000000  0.50000000  0.50000000  1
  Ir  Ir3  1  0.50000000  0.50000000  0.00000000  1
  Os  Os4  1  0.50000000  0.00000000  0.00000000  1
  Os  Os5  1  0.50000000  0.50000000  0.50000000  1
