# generated using pymatgen
data_ThMn3Al2
_symmetry_space_group_name_H-M   'P 1'
_cell_length_a   5.14216110
_cell_length_b   5.14216110
_cell_length_c   4.19511600
_cell_angle_alpha   90.00000000
_cell_angle_beta   90.00000000
_cell_angle_gamma   115.86883354
_symmetry_Int_Tables_number   1
_chemical_formula_structural   ThMn3Al2
_chemical_formula_sum   'Th1 Mn3 Al2'
_cell_volume   99.81114231
_cell_formula_units_Z   1
loop_
 _symmetry_equiv_pos_site_id
 _symmetry_equiv_pos_as_xyz
  1  'x, y, z'
loop_
 _atom_site_type_symbol
 _atom_site_label
 _atom_site_symmetry_multiplicity
 _atom_site_fract_x
 _atom_site_fract_y
 _atom_site_fract_z
 _atom_site_occupancy
  Th  Th0  1  0.50000000  0.50000000  0.00000000  1
  Mn  Mn1  1  0.15340800  0.84659200  0.00000000  1
  Mn  Mn2  1  0.84659200  0.15340800  0.00000000  1
  Mn  Mn3  1  0.00000000  0.00000000  0.50000000  1
  Al  Al4  1  0.00000000  0.50000000  0.50000000  1
  Al  Al5  1  0.50000000  0.00000000  0.50000000  1
