# generated using pymatgen
data_Te8Pd5Se2
_symmetry_space_group_name_H-M   'P 1'
_cell_length_a   17.73699979
_cell_length_b   17.73699979
_cell_length_c   5.12553131
_cell_angle_alpha   89.91809027
_cell_angle_beta   89.91809027
_cell_angle_gamma   13.15786206
_symmetry_Int_Tables_number   1
_chemical_formula_structural   Te8Pd5Se2
_chemical_formula_sum   'Te8 Pd5 Se2'
_cell_volume   367.06029322
_cell_formula_units_Z   1
loop_
 _symmetry_equiv_pos_site_id
 _symmetry_equiv_pos_as_xyz
  1  'x, y, z'
loop_
 _atom_site_type_symbol
 _atom_site_label
 _atom_site_symmetry_multiplicity
 _atom_site_fract_x
 _atom_site_fract_y
 _atom_site_fract_z
 _atom_site_occupancy
  Te  Te0  1  0.67086500  0.67086500  0.72720800  1
  Te  Te1  1  0.27228800  0.27228800  0.73202200  1
  Te  Te2  1  0.87420300  0.87420300  0.73026200  1
  Te  Te3  1  0.53754800  0.53754800  0.26897200  1
  Te  Te4  1  0.13688100  0.13688100  0.25840700  1
  Te  Te5  1  0.73882000  0.73882000  0.26624300  1
  Te  Te6  1  0.34077700  0.34077700  0.26460800  1
  Te  Te7  1  0.94069700  0.94069700  0.27255200  1
  Pd  Pd8  1  0.00605000  0.00605000  0.99290700  1
  Pd  Pd9  1  0.60312100  0.60312100  0.99162200  1
  Pd  Pd10  1  0.20472400  0.20472400  0.99826500  1
  Pd  Pd11  1  0.80641700  0.80641700  0.99880000  1
  Pd  Pd12  1  0.40833900  0.40833900  0.99900100  1
  Se  Se13  1  0.07118900  0.07118900  0.74848800  1
  Se  Se14  1  0.47380300  0.47380300  0.75064300  1
