# generated using pymatgen
data_UH14C6(NO2)6
_symmetry_space_group_name_H-M   'P 1'
_cell_length_a   7.34957041
_cell_length_b   10.99595629
_cell_length_c   11.42167800
_cell_angle_alpha   90.00000000
_cell_angle_beta   90.00000000
_cell_angle_gamma   102.38588845
_symmetry_Int_Tables_number   1
_chemical_formula_structural   UH14C6(NO2)6
_chemical_formula_sum   'U2 H28 C12 N12 O24'
_cell_volume   901.56540106
_cell_formula_units_Z   2
loop_
 _symmetry_equiv_pos_site_id
 _symmetry_equiv_pos_as_xyz
  1  'x, y, z'
loop_
 _atom_site_type_symbol
 _atom_site_label
 _atom_site_symmetry_multiplicity
 _atom_site_fract_x
 _atom_site_fract_y
 _atom_site_fract_z
 _atom_site_occupancy
  U  U0  1  0.24876500  0.24903100  0.19455900  1
  U  U1  1  0.74876500  0.74903100  0.80544100  1
  H  H2  1  0.71619000  0.42689500  0.43636000  1
  H  H3  1  0.28566400  0.57296900  0.56490600  1
  H  H4  1  0.78566400  0.07296900  0.43509400  1
  H  H5  1  0.21619000  0.92689500  0.56364000  1
  H  H6  1  0.82871200  0.63350100  0.49158800  1
  H  H7  1  0.17017600  0.36666600  0.50783100  1
  H  H8  1  0.67017600  0.86666600  0.49216900  1
  H  H9  1  0.32871200  0.13350100  0.50841200  1
  H  H10  1  0.02820000  0.67236800  0.20976200  1
  H  H11  1  0.97018700  0.32776200  0.78760400  1
  H  H12  1  0.47018700  0.82776200  0.21239600  1
  H  H13  1  0.52820000  0.17236800  0.79023800  1
  H  H14  1  0.96492500  0.51538200  0.17158800  1
  H  H15  1  0.05486500  0.48040500  0.83203300  1
  H  H16  1  0.55486500  0.98040500  0.16796700  1
  H  H17  1  0.46492500  0.01538200  0.82841200  1
  H  H18  1  0.35432100  0.29294900  0.93150200  1
  H  H19  1  0.64656100  0.70779300  0.06848700  1
  H  H20  1  0.14656100  0.20779300  0.93151300  1
  H  H21  1  0.85432100  0.79294900  0.06849800  1
  H  H22  1  0.98018000  0.73638400  0.39860500  1
  H  H23  1  0.01969600  0.26367600  0.60100600  1
  H  H24  1  0.51969600  0.76367600  0.39899400  1
  H  H25  1  0.48018000  0.23638400  0.60139500  1
  H  H26  1  0.76946600  0.37792300  0.29501800  1
  H  H27  1  0.22973300  0.62118600  0.70590800  1
  H  H28  1  0.72973300  0.12118600  0.29409200  1
  H  H29  1  0.26946600  0.87792300  0.70498200  1
  C  C30  1  0.88707200  0.55861200  0.33526700  1
  C  C31  1  0.11138000  0.44126200  0.66426000  1
  C  C32  1  0.61138000  0.94126200  0.33574000  1
  C  C33  1  0.38707200  0.05861200  0.66473300  1
  C  C34  1  0.36316100  0.51465300  0.33926800  1
  C  C35  1  0.63763800  0.48477000  0.65982300  1
  C  C36  1  0.13763800  0.98477000  0.34017700  1
  C  C37  1  0.86316100  0.01465300  0.66073200  1
  C  C38  1  0.41350100  0.55166500  0.20880200  1
  C  C39  1  0.58552900  0.44886500  0.78950500  1
  C  C40  1  0.08552900  0.94886500  0.21049500  1
  C  C41  1  0.91350100  0.05166500  0.79119800  1
  N  N42  1  0.78035600  0.44610800  0.35605600  1
  N  N43  1  0.21969500  0.55357200  0.64434100  1
  N  N44  1  0.71969500  0.05357200  0.35565900  1
  N  N45  1  0.28035600  0.94610800  0.64394400  1
  N  N46  1  0.90174600  0.64888500  0.41481200  1
  N  N47  1  0.09557300  0.35163300  0.58397300  1
  N  N48  1  0.59557300  0.85163300  0.41602700  1
  N  N49  1  0.40174600  0.14888500  0.58518800  1
  N  N50  1  0.98422700  0.58146600  0.23471000  1
  N  N51  1  0.01394200  0.41927300  0.76480000  1
  N  N52  1  0.51394200  0.91927300  0.23520000  1
  N  N53  1  0.48422700  0.08146600  0.76529000  1
  O  O54  1  0.38282500  0.59661700  0.41638100  1
  O  O55  1  0.61822400  0.40291300  0.58238600  1
  O  O56  1  0.11822400  0.90291300  0.41761400  1
  O  O57  1  0.88282500  0.09661700  0.58361900  1
  O  O58  1  0.30175700  0.39685100  0.35467700  1
  O  O59  1  0.69936800  0.60275600  0.64422400  1
  O  O60  1  0.19936800  0.10275600  0.35577600  1
  O  O61  1  0.80175700  0.89685100  0.64532300  1
  O  O62  1  0.36431500  0.46089400  0.13715400  1
  O  O63  1  0.62791400  0.54088400  0.86030600  1
  O  O64  1  0.12791400  0.04088400  0.13969400  1
  O  O65  1  0.86431500  0.96089400  0.86284600  1
  O  O66  1  0.00937400  0.27016900  0.19734100  1
  O  O67  1  0.98963300  0.73068300  0.80375900  1
  O  O68  1  0.48963300  0.23068300  0.19624100  1
  O  O69  1  0.50937400  0.77016900  0.80265900  1
  O  O70  1  0.49364500  0.66020000  0.18385300  1
  O  O71  1  0.50829000  0.33968000  0.81594300  1
  O  O72  1  0.00829000  0.83968000  0.18405700  1
  O  O73  1  0.99364500  0.16020000  0.81614700  1
  O  O74  1  0.25052300  0.25022800  0.98310500  1
  O  O75  1  0.75052300  0.75022800  0.01689500  1
  O  O76  1  0.18067400  0.58846700  0.96522000  1
  O  O77  1  0.68067400  0.08846700  0.03478000  1
