# generated using pymatgen
data_Ti12Cu9(BiO18)2
_symmetry_space_group_name_H-M   'P 1'
_cell_length_a   6.47891964
_cell_length_b   10.54851714
_cell_length_c   10.54851714
_cell_angle_alpha   60.00000000
_cell_angle_beta   90.00000000
_cell_angle_gamma   90.00000000
_symmetry_Int_Tables_number   1
_chemical_formula_structural   Ti12Cu9(BiO18)2
_chemical_formula_sum   'Ti12 Cu9 Bi2 O36'
_cell_volume   624.33265505
_cell_formula_units_Z   1
loop_
 _symmetry_equiv_pos_site_id
 _symmetry_equiv_pos_as_xyz
  1  'x, y, z'
loop_
 _atom_site_type_symbol
 _atom_site_label
 _atom_site_symmetry_multiplicity
 _atom_site_fract_x
 _atom_site_fract_y
 _atom_site_fract_z
 _atom_site_occupancy
  Ti  Ti0  1  0.83333300  0.16666700  0.16666700  1
  Ti  Ti1  1  0.49667400  0.50675600  0.50944500  1
  Ti  Ti2  1  0.16999300  0.82657700  0.82388800  1
  Ti  Ti3  1  0.83333300  0.66666700  0.66666700  1
  Ti  Ti4  1  0.49462200  0.00000000  0.00000000  1
  Ti  Ti5  1  0.17204500  0.33333300  0.33333300  1
  Ti  Ti6  1  0.49667400  0.50944500  0.98379900  1
  Ti  Ti7  1  0.16999300  0.82388800  0.34953400  1
  Ti  Ti8  1  0.83333300  0.16666700  0.66666700  1
  Ti  Ti9  1  0.16999300  0.34953400  0.82657700  1
  Ti  Ti10  1  0.83333300  0.66666700  0.16666700  1
  Ti  Ti11  1  0.49667400  0.98379900  0.50675600  1
  Cu  Cu12  1  0.99594400  0.49866900  0.49876400  1
  Cu  Cu13  1  0.67072300  0.83466400  0.83456900  1
  Cu  Cu14  1  0.33333300  0.16666700  0.16666700  1
  Cu  Cu15  1  0.67072300  0.33076500  0.83466400  1
  Cu  Cu16  1  0.33333300  0.66666700  0.16666700  1
  Cu  Cu17  1  0.99594400  0.00256800  0.49866900  1
  Cu  Cu18  1  0.99594400  0.49876400  0.00256800  1
  Cu  Cu19  1  0.67072300  0.83456900  0.33076500  1
  Cu  Cu20  1  0.33333300  0.16666700  0.66666700  1
  Bi  Bi21  1  0.00919300  0.00000000  0.00000000  1
  Bi  Bi22  1  0.65747400  0.33333300  0.33333300  1
  O  O23  1  0.24531200  0.44259900  0.62251000  1
  O  O24  1  0.91852200  0.78072500  0.95873200  1
  O  O25  1  0.58275300  0.11392100  0.29188300  1
  O  O26  1  0.34631100  0.35051100  0.17371000  1
  O  O27  1  0.00325900  0.68333500  0.50262400  1
  O  O28  1  0.68125200  0.01755400  0.84028800  1
  O  O29  1  0.98541500  0.31577900  0.49304500  1
  O  O30  1  0.66340700  0.64999900  0.83071000  1
  O  O31  1  0.32035600  0.98282200  0.15962300  1
  O  O32  1  0.08391400  0.21941200  0.04145000  1
  O  O33  1  0.74814400  0.55260900  0.37460200  1
  O  O34  1  0.42135500  0.89073400  0.71082300  1
  O  O35  1  0.42135500  0.39844300  0.89073400  1
  O  O36  1  0.08391400  0.73913700  0.21941200  1
  O  O37  1  0.74814400  0.07279000  0.55260900  1
  O  O38  1  0.66340700  0.51929200  0.64999900  1
  O  O39  1  0.32035600  0.85755500  0.98282200  1
  O  O40  1  0.98541500  0.19117600  0.31577900  1
  O  O41  1  0.68125200  0.14215700  0.01755400  1
  O  O42  1  0.34631100  0.47577800  0.35051100  1
  O  O43  1  0.00325900  0.81404200  0.68333500  1
  O  O44  1  0.91852200  0.26054400  0.78072500  1
  O  O45  1  0.58275300  0.59419600  0.11392100  1
  O  O46  1  0.24531200  0.93489000  0.44259900  1
  O  O47  1  0.00325900  0.50262400  0.81404200  1
  O  O48  1  0.68125200  0.84028800  0.14215700  1
  O  O49  1  0.34631100  0.17371000  0.47577800  1
  O  O50  1  0.58275300  0.29188300  0.59419600  1
  O  O51  1  0.24531200  0.62251000  0.93489000  1
  O  O52  1  0.91852200  0.95873200  0.26054400  1
  O  O53  1  0.74814400  0.37460200  0.07279000  1
  O  O54  1  0.42135500  0.71082300  0.39844300  1
  O  O55  1  0.08391400  0.04145000  0.73913700  1
  O  O56  1  0.32035600  0.15962300  0.85755500  1
  O  O57  1  0.98541500  0.49304500  0.19117600  1
  O  O58  1  0.66340700  0.83071000  0.51929200  1
