# generated using pymatgen
data_ThU2S5
_symmetry_space_group_name_H-M   'P 1'
_cell_length_a   7.41675200
_cell_length_b   7.95535300
_cell_length_c   11.82276300
_cell_angle_alpha   90.00000000
_cell_angle_beta   90.00000000
_cell_angle_gamma   90.00000000
_symmetry_Int_Tables_number   1
_chemical_formula_structural   ThU2S5
_chemical_formula_sum   'Th4 U8 S20'
_cell_volume   697.57706979
_cell_formula_units_Z   4
loop_
 _symmetry_equiv_pos_site_id
 _symmetry_equiv_pos_as_xyz
  1  'x, y, z'
loop_
 _atom_site_type_symbol
 _atom_site_label
 _atom_site_symmetry_multiplicity
 _atom_site_fract_x
 _atom_site_fract_y
 _atom_site_fract_z
 _atom_site_occupancy
  Th  Th0  1  0.02287500  0.49884200  0.82195000  1
  Th  Th1  1  0.97712500  0.99884200  0.17805000  1
  Th  Th2  1  0.52287500  0.99884200  0.67805000  1
  Th  Th3  1  0.47712500  0.49884200  0.32195000  1
  U  U4  1  0.57448100  0.25139500  0.99242400  1
  U  U5  1  0.92551900  0.25139500  0.49242400  1
  U  U6  1  0.42551900  0.75139500  0.00757600  1
  U  U7  1  0.07448100  0.75139500  0.50757600  1
  U  U8  1  0.47790900  0.00034900  0.31992900  1
  U  U9  1  0.52209100  0.50034900  0.68007100  1
  U  U10  1  0.97790900  0.50034900  0.18007100  1
  U  U11  1  0.02209100  0.00034900  0.81992900  1
  S  S12  1  0.33634800  0.04407400  0.09931400  1
  S  S13  1  0.16808300  0.45545800  0.59742100  1
  S  S14  1  0.66365200  0.54407400  0.90068600  1
  S  S15  1  0.83191700  0.95545800  0.40257900  1
  S  S16  1  0.66808300  0.95545800  0.90257900  1
  S  S17  1  0.83634800  0.54407400  0.40068600  1
  S  S18  1  0.33191700  0.45545800  0.09742100  1
  S  S19  1  0.16365200  0.04407400  0.59931400  1
  S  S20  1  0.70008800  0.24971800  0.21640600  1
  S  S21  1  0.79991200  0.24971800  0.71640600  1
  S  S22  1  0.29991200  0.74971800  0.78359400  1
  S  S23  1  0.20008800  0.74971800  0.28359400  1
  S  S24  1  0.32909900  0.24996900  0.81243000  1
  S  S25  1  0.17090100  0.24996900  0.31243000  1
  S  S26  1  0.67090100  0.74996900  0.18757000  1
  S  S27  1  0.82909900  0.74996900  0.68757000  1
  S  S28  1  0.96217300  0.25019400  0.99904100  1
  S  S29  1  0.53782700  0.25019400  0.49904100  1
  S  S30  1  0.03782700  0.75019400  0.00095900  1
  S  S31  1  0.46217300  0.75019400  0.50095900  1
