# generated using pymatgen
data_Th4UTe5
_symmetry_space_group_name_H-M   'P 1'
_cell_length_a   3.82600300
_cell_length_b   3.82600300
_cell_length_c   19.23001500
_cell_angle_alpha   90.00000000
_cell_angle_beta   90.00000000
_cell_angle_gamma   90.00000000
_symmetry_Int_Tables_number   1
_chemical_formula_structural   Th4UTe5
_chemical_formula_sum   'Th4 U1 Te5'
_cell_volume   281.49470850
_cell_formula_units_Z   1
loop_
 _symmetry_equiv_pos_site_id
 _symmetry_equiv_pos_as_xyz
  1  'x, y, z'
loop_
 _atom_site_type_symbol
 _atom_site_label
 _atom_site_symmetry_multiplicity
 _atom_site_fract_x
 _atom_site_fract_y
 _atom_site_fract_z
 _atom_site_occupancy
  Th  Th0  1  0.00000000  0.00000000  0.19963000  1
  Th  Th1  1  0.00000000  0.00000000  0.39996500  1
  Th  Th2  1  0.00000000  0.00000000  0.60003500  1
  Th  Th3  1  0.00000000  0.00000000  0.80037000  1
  U  U4  1  0.00000000  0.00000000  0.00000000  1
  Te  Te5  1  0.50000000  0.50000000  0.09901000  1
  Te  Te6  1  0.50000000  0.50000000  0.30001200  1
  Te  Te7  1  0.50000000  0.50000000  0.50000000  1
  Te  Te8  1  0.50000000  0.50000000  0.69998800  1
  Te  Te9  1  0.50000000  0.50000000  0.90099000  1
