# generated using pymatgen
data_TeMo5O16
_symmetry_space_group_name_H-M   'P 1'
_cell_length_a   4.13768584
_cell_length_b   7.38798200
_cell_length_c   20.55010803
_cell_angle_alpha   90.00000000
_cell_angle_beta   89.84392635
_cell_angle_gamma   90.00000000
_symmetry_Int_Tables_number   1
_chemical_formula_structural   TeMo5O16
_chemical_formula_sum   'Te2 Mo10 O32'
_cell_volume   628.19697415
_cell_formula_units_Z   2
loop_
 _symmetry_equiv_pos_site_id
 _symmetry_equiv_pos_as_xyz
  1  'x, y, z'
loop_
 _atom_site_type_symbol
 _atom_site_label
 _atom_site_symmetry_multiplicity
 _atom_site_fract_x
 _atom_site_fract_y
 _atom_site_fract_z
 _atom_site_occupancy
  Te  Te0  1  0.02432500  0.58147300  0.74645700  1
  Te  Te1  1  0.02432500  0.41852700  0.24645700  1
  Mo  Mo2  1  0.91245700  0.75082600  0.58575700  1
  Mo  Mo3  1  0.91478000  0.25122500  0.41361500  1
  Mo  Mo4  1  0.91478000  0.74877500  0.91361500  1
  Mo  Mo5  1  0.91245700  0.24917400  0.08575700  1
  Mo  Mo6  1  0.08151700  0.25583000  0.59276400  1
  Mo  Mo7  1  0.08297700  0.74498900  0.40722600  1
  Mo  Mo8  1  0.08297700  0.25501100  0.90722600  1
  Mo  Mo9  1  0.08151700  0.74417000  0.09276400  1
  Mo  Mo10  1  0.90120400  0.02086700  0.75019800  1
  Mo  Mo11  1  0.90120400  0.97913300  0.25019800  1
  O  O12  1  0.98532300  0.68601900  0.50083200  1
  O  O13  1  0.98412800  0.31339800  0.49910000  1
  O  O14  1  0.98412800  0.68660200  0.99910000  1
  O  O15  1  0.98532300  0.31398100  0.00083200  1
  O  O16  1  0.50081800  0.25790500  0.59099300  1
  O  O17  1  0.50227300  0.74290700  0.40883100  1
  O  O18  1  0.50227300  0.25709300  0.90883100  1
  O  O19  1  0.50081800  0.74209500  0.09099300  1
  O  O20  1  0.98597500  0.18338600  0.68387400  1
  O  O21  1  0.98568900  0.81719900  0.31616800  1
  O  O22  1  0.98568900  0.18280100  0.81616800  1
  O  O23  1  0.98597500  0.81661500  0.18387400  1
  O  O24  1  0.99393700  0.99603700  0.57416600  1
  O  O25  1  0.99546600  0.00513600  0.42493800  1
  O  O26  1  0.99546600  0.99486400  0.92493800  1
  O  O27  1  0.99393700  0.00396300  0.07416600  1
  O  O28  1  0.48196500  0.01403300  0.75025900  1
  O  O29  1  0.48196500  0.98596700  0.25025900  1
  O  O30  1  0.99921100  0.51143300  0.62299000  1
  O  O31  1  0.00188900  0.48988000  0.37878300  1
  O  O32  1  0.00188900  0.51012000  0.87878300  1
  O  O33  1  0.99921100  0.48856700  0.12299000  1
  O  O34  1  0.49220500  0.75198400  0.58992600  1
  O  O35  1  0.49433700  0.24886700  0.40916600  1
  O  O36  1  0.49433700  0.75113300  0.90916600  1
  O  O37  1  0.49220500  0.24801500  0.08992600  1
  O  O38  1  0.98260900  0.80591700  0.68840500  1
  O  O39  1  0.98502700  0.19768900  0.30915900  1
  O  O40  1  0.98502700  0.80231100  0.80915900  1
  O  O41  1  0.98260900  0.19408300  0.18840500  1
  O  O42  1  0.47448900  0.57636500  0.74239300  1
  O  O43  1  0.47448900  0.42363500  0.24239300  1
