# generated using pymatgen
data_TbMnAl
_symmetry_space_group_name_H-M   'P 1'
_cell_length_a   5.45723806
_cell_length_b   5.45723806
_cell_length_c   5.45723806
_cell_angle_alpha   88.26739434
_cell_angle_beta   61.53713707
_cell_angle_gamma   119.54953841
_symmetry_Int_Tables_number   1
_chemical_formula_structural   TbMnAl
_chemical_formula_sum   'Tb2 Mn2 Al2'
_cell_volume   116.57809936
_cell_formula_units_Z   2
loop_
 _symmetry_equiv_pos_site_id
 _symmetry_equiv_pos_as_xyz
  1  'x, y, z'
loop_
 _atom_site_type_symbol
 _atom_site_label
 _atom_site_symmetry_multiplicity
 _atom_site_fract_x
 _atom_site_fract_y
 _atom_site_fract_z
 _atom_site_occupancy
  Tb  Tb0  1  0.50000000  0.75632700  0.74367300  1
  Tb  Tb1  1  0.00000000  0.99367300  0.00632700  1
  Mn  Mn2  1  0.25000000  0.87500000  0.37500000  1
  Mn  Mn3  1  0.75000000  0.37500000  0.37500000  1
  Al  Al4  1  0.75000000  0.37500000  0.87500000  1
  Al  Al5  1  0.25000000  0.37500000  0.37500000  1
