# generated using pymatgen
data_Tl4P4N4O9
_symmetry_space_group_name_H-M   'P 1'
_cell_length_a   9.39079000
_cell_length_b   9.94246097
_cell_length_c   10.56878089
_cell_angle_alpha   79.21744047
_cell_angle_beta   82.25487446
_cell_angle_gamma   65.54571163
_symmetry_Int_Tables_number   1
_chemical_formula_structural   Tl4P4N4O9
_chemical_formula_sum   'Tl8 P8 N8 O18'
_cell_volume   880.58478009
_cell_formula_units_Z   2
loop_
 _symmetry_equiv_pos_site_id
 _symmetry_equiv_pos_as_xyz
  1  'x, y, z'
loop_
 _atom_site_type_symbol
 _atom_site_label
 _atom_site_symmetry_multiplicity
 _atom_site_fract_x
 _atom_site_fract_y
 _atom_site_fract_z
 _atom_site_occupancy
  Tl  Tl0  1  0.55425300  0.12397800  0.56879200  1
  Tl  Tl1  1  0.42318800  0.86761200  0.43445000  1
  Tl  Tl2  1  0.49745900  0.00259800  0.00016700  1
  Tl  Tl3  1  0.07010600  0.34164600  0.87928300  1
  Tl  Tl4  1  0.93101800  0.65970000  0.11710100  1
  Tl  Tl5  1  0.39915100  0.37249900  0.09701500  1
  Tl  Tl6  1  0.59755400  0.63452600  0.91509600  1
  Tl  Tl7  1  0.65598900  0.47267400  0.51667900  1
  P  P8  1  0.75341500  0.02775200  0.23252300  1
  P  P9  1  0.24564100  0.97360000  0.76468500  1
  P  P10  1  0.79372700  0.32925200  0.19588800  1
  P  P11  1  0.21137300  0.66949900  0.80371800  1
  P  P12  1  0.14477000  0.15816400  0.23996600  1
  P  P13  1  0.85824900  0.84104900  0.75665600  1
  P  P14  1  0.89490200  0.14242000  0.71363900  1
  P  P15  1  0.10563700  0.85538000  0.28639400  1
  N  N16  1  0.75477400  0.19085700  0.16905800  1
  N  N17  1  0.24600500  0.81028800  0.83100900  1
  N  N18  1  0.96184700  0.26856300  0.25866200  1
  N  N19  1  0.04225900  0.72883400  0.74074200  1
  N  N20  1  0.15955300  0.99196800  0.22134900  1
  N  N21  1  0.83956700  0.00690700  0.77861900  1
  N  N22  1  0.91478700  0.92284000  0.30447000  1
  N  N23  1  0.08518000  0.07301000  0.69019300  1
  O  O24  1  0.24988800  0.05580800  0.87136300  1
  O  O25  1  0.74818300  0.94789600  0.12457600  1
  O  O26  1  0.81726900  0.20055900  0.58441400  1
  O  O27  1  0.17732900  0.80415300  0.41672100  1
  O  O28  1  0.85278600  0.25921000  0.80177000  1
  O  O29  1  0.15030300  0.73957200  0.19727400  1
  O  O30  1  0.21424500  0.21934800  0.11422200  1
  O  O31  1  0.78991400  0.77453400  0.88011300  1
  O  O32  1  0.80784300  0.42244800  0.06518500  1
  O  O33  1  0.19079100  0.57882200  0.93409100  1
  O  O34  1  0.23022600  0.13612600  0.35924200  1
  O  O35  1  0.77543100  0.86439400  0.63560200  1
  O  O36  1  0.61294200  0.05960200  0.32993600  1
  O  O37  1  0.38775900  0.94145200  0.66816100  1
  O  O38  1  0.48324400  0.20686600  0.93400100  1
  O  O39  1  0.51571800  0.79734100  0.06866900  1
  O  O40  1  0.66154700  0.40970300  0.28961000  1
  O  O41  1  0.34663700  0.58986900  0.71341800  1
