# generated using pymatgen
data_Sn(NF)2
_symmetry_space_group_name_H-M   'P 1'
_cell_length_a   5.13231232
_cell_length_b   5.13231232
_cell_length_c   3.73740080
_cell_angle_alpha   73.30856633
_cell_angle_beta   73.30856633
_cell_angle_gamma   62.09579572
_symmetry_Int_Tables_number   1
_chemical_formula_structural   Sn(NF)2
_chemical_formula_sum   'Sn1 N2 F2'
_cell_volume   81.96476794
_cell_formula_units_Z   1
loop_
 _symmetry_equiv_pos_site_id
 _symmetry_equiv_pos_as_xyz
  1  'x, y, z'
loop_
 _atom_site_type_symbol
 _atom_site_label
 _atom_site_symmetry_multiplicity
 _atom_site_fract_x
 _atom_site_fract_y
 _atom_site_fract_z
 _atom_site_occupancy
  Sn  Sn0  1  0.00000000  0.00000000  0.00000000  1
  N  N1  1  0.46199400  0.46199400  0.90606900  1
  N  N2  1  0.53800600  0.53800600  0.09393100  1
  F  F3  1  0.17235600  0.17235600  0.36347100  1
  F  F4  1  0.82764400  0.82764400  0.63652900  1
