# generated using pymatgen
data_V17Fe7(PbO11)4
_symmetry_space_group_name_H-M   'P 1'
_cell_length_a   5.92131000
_cell_length_b   10.22788054
_cell_length_c   14.88704686
_cell_angle_alpha   109.73876850
_cell_angle_beta   101.23408913
_cell_angle_gamma   90.17833745
_symmetry_Int_Tables_number   1
_chemical_formula_structural   V17Fe7(PbO11)4
_chemical_formula_sum   'V17 Fe7 Pb4 O44'
_cell_volume   830.03835047
_cell_formula_units_Z   1
loop_
 _symmetry_equiv_pos_site_id
 _symmetry_equiv_pos_as_xyz
  1  'x, y, z'
loop_
 _atom_site_type_symbol
 _atom_site_label
 _atom_site_symmetry_multiplicity
 _atom_site_fract_x
 _atom_site_fract_y
 _atom_site_fract_z
 _atom_site_occupancy
  V  V0  1  0.49689100  0.50406900  0.50155700  1
  V  V1  1  0.99365600  0.00147000  0.50288000  1
  V  V2  1  0.00266700  0.50007000  0.49976200  1
  V  V3  1  0.50308600  0.00160900  0.50003200  1
  V  V4  1  0.24411900  0.74231800  0.49989500  1
  V  V5  1  0.74959900  0.24886400  0.50259000  1
  V  V6  1  0.25219000  0.24688500  0.00084800  1
  V  V7  1  0.75678200  0.74808600  0.99879200  1
  V  V8  1  0.74493900  0.24618400  0.00065300  1
  V  V9  1  0.24429300  0.75151300  0.00146100  1
  V  V10  1  0.49864200  0.00477800  0.99774900  1
  V  V11  1  0.99795200  0.50486300  0.00267600  1
  V  V12  1  0.67495900  0.67481100  0.35174900  1
  V  V13  1  0.92100600  0.92151300  0.84406800  1
  V  V14  1  0.07671400  0.07670000  0.15089700  1
  V  V15  1  0.57176500  0.57130500  0.14822100  1
  V  V16  1  0.32125000  0.32595400  0.64856800  1
  Fe  Fe17  1  0.11606200  0.45035800  0.23428200  1
  Fe  Fe18  1  0.61444100  0.94819900  0.22983400  1
  Fe  Fe19  1  0.86435600  0.53057900  0.73130900  1
  Fe  Fe20  1  0.36343600  0.03233400  0.73030900  1
  Fe  Fe21  1  0.17560200  0.17947900  0.35610000  1
  Fe  Fe22  1  0.42483200  0.42726700  0.85337600  1
  Fe  Fe23  1  0.82134500  0.82232500  0.64582600  1
  Pb  Pb24  1  0.63672000  0.30544500  0.27666500  1
  Pb  Pb25  1  0.13871000  0.80563300  0.27831500  1
  Pb  Pb26  1  0.38129900  0.71540800  0.77336600  1
  Pb  Pb27  1  0.88371400  0.22163100  0.77459300  1
  O  O28  1  0.93637400  0.29334200  0.41914200  1
  O  O29  1  0.44259200  0.79683700  0.42280200  1
  O  O30  1  0.47177000  0.30113800  0.42044800  1
  O  O31  1  0.97515500  0.79881800  0.42066100  1
  O  O32  1  0.70981300  0.53200700  0.41878200  1
  O  O33  1  0.20274100  0.03418100  0.42015700  1
  O  O34  1  0.22136000  0.87341400  0.91748700  1
  O  O35  1  0.72245300  0.36769200  0.91987100  1
  O  O36  1  0.71096100  0.87769400  0.91748100  1
  O  O37  1  0.19162100  0.37028100  0.92184000  1
  O  O38  1  0.45624700  0.63805400  0.91925600  1
  O  O39  1  0.95850000  0.13187500  0.91905400  1
  O  O40  1  0.03806900  0.37203300  0.08017900  1
  O  O41  1  0.53724400  0.87433600  0.08005300  1
  O  O42  1  0.78394900  0.45699400  0.58278600  1
  O  O43  1  0.28454200  0.95357200  0.58272100  1
  O  O44  1  0.14934400  0.45132500  0.75118800  1
  O  O45  1  0.64636100  0.95448400  0.75414700  1
  O  O46  1  0.59830200  0.44949400  0.75088900  1
  O  O47  1  0.10441800  0.95594300  0.75999000  1
  O  O48  1  0.87909900  0.72373200  0.75501400  1
  O  O49  1  0.37239200  0.22432400  0.74763800  1
  O  O50  1  0.84988800  0.54914000  0.25001100  1
  O  O51  1  0.34952400  0.05022900  0.24887700  1
  O  O52  1  0.39742600  0.55016800  0.24922300  1
  O  O53  1  0.89972000  0.04750300  0.24663300  1
  O  O54  1  0.12593200  0.27701900  0.25212100  1
  O  O55  1  0.62386700  0.77356700  0.24866100  1
  O  O56  1  0.78738400  0.13078500  0.07670800  1
  O  O57  1  0.27947600  0.62091500  0.07243600  1
  O  O58  1  0.28830500  0.13051700  0.07588400  1
  O  O59  1  0.80100900  0.61534300  0.07466600  1
  O  O60  1  0.53511100  0.36434200  0.07402600  1
  O  O61  1  0.05235700  0.86453000  0.07433100  1
  O  O62  1  0.06251500  0.70560000  0.57702500  1
  O  O63  1  0.55345300  0.20787300  0.57519300  1
  O  O64  1  0.52735100  0.69104600  0.57404800  1
  O  O65  1  0.03197500  0.20305300  0.57473600  1
  O  O66  1  0.28953900  0.45584400  0.57434900  1
  O  O67  1  0.80184000  0.96701000  0.57698200  1
  O  O68  1  0.22052600  0.54318300  0.41905400  1
  O  O69  1  0.72379400  0.04959200  0.42192100  1
  O  O70  1  0.97430300  0.62142300  0.92120900  1
  O  O71  1  0.45856600  0.13829500  0.92034800  1
