# generated using pymatgen
data_YbCd6
_symmetry_space_group_name_H-M   'P 1'
_cell_length_a   13.76089899
_cell_length_b   13.76089899
_cell_length_c   13.76089899
_cell_angle_alpha   109.98360588
_cell_angle_beta   109.59422051
_cell_angle_gamma   108.83792364
_symmetry_Int_Tables_number   1
_chemical_formula_structural   YbCd6
_chemical_formula_sum   'Yb12 Cd72'
_cell_volume   2005.73574219
_cell_formula_units_Z   12
loop_
 _symmetry_equiv_pos_site_id
 _symmetry_equiv_pos_as_xyz
  1  'x, y, z'
loop_
 _atom_site_type_symbol
 _atom_site_label
 _atom_site_symmetry_multiplicity
 _atom_site_fract_x
 _atom_site_fract_y
 _atom_site_fract_z
 _atom_site_occupancy
  Yb  Yb0  1  0.81177800  0.51732600  0.70554800  1
  Yb  Yb1  1  0.18822200  0.48267400  0.29445200  1
  Yb  Yb2  1  0.18822200  0.89377100  0.70554800  1
  Yb  Yb3  1  0.81177800  0.10622900  0.29445200  1
  Yb  Yb4  1  0.11303100  0.30358100  0.80945000  1
  Yb  Yb5  1  0.88696900  0.69641900  0.19055000  1
  Yb  Yb6  1  0.49413100  0.30358100  0.19055000  1
  Yb  Yb7  1  0.50586900  0.69641900  0.80945000  1
  Yb  Yb8  1  0.30000000  0.18920500  0.48920500  1
  Yb  Yb9  1  0.70000000  0.81079500  0.51079500  1
  Yb  Yb10  1  0.30000000  0.81079500  0.11079500  1
  Yb  Yb11  1  0.70000000  0.18920500  0.88920500  1
  Cd  Cd12  1  0.50000000  0.31399800  0.81399800  1
  Cd  Cd13  1  0.50000000  0.68600200  0.18600200  1
  Cd  Cd14  1  0.69047200  0.19047200  0.50000000  1
  Cd  Cd15  1  0.30952800  0.80952800  0.50000000  1
  Cd  Cd16  1  0.18498200  0.50000000  0.68498200  1
  Cd  Cd17  1  0.81501800  0.50000000  0.31501800  1
  Cd  Cd18  1  0.73744700  0.64067200  0.90322500  1
  Cd  Cd19  1  0.26255300  0.35932800  0.09677500  1
  Cd  Cd20  1  0.26255300  0.16577800  0.90322500  1
  Cd  Cd21  1  0.73744700  0.83422200  0.09677500  1
  Cd  Cd22  1  0.86069000  0.09312300  0.76756600  1
  Cd  Cd23  1  0.13931000  0.90687700  0.23243400  1
  Cd  Cd24  1  0.32555700  0.09312300  0.23243400  1
  Cd  Cd25  1  0.67444300  0.90687700  0.76756600  1
  Cd  Cd26  1  0.09783500  0.24086400  0.33869900  1
  Cd  Cd27  1  0.90216500  0.75913600  0.66130100  1
  Cd  Cd28  1  0.09783500  0.75913600  0.85697100  1
  Cd  Cd29  1  0.90216500  0.24086400  0.14302900  1
  Cd  Cd30  1  0.77758000  0.45208700  0.91929200  1
  Cd  Cd31  1  0.46720600  0.54791300  0.32549300  1
  Cd  Cd32  1  0.22242000  0.14171300  0.67450700  1
  Cd  Cd33  1  0.53279400  0.85828700  0.08070800  1
  Cd  Cd34  1  0.85792200  0.08330300  0.54105800  1
  Cd  Cd35  1  0.14207800  0.68313700  0.22538200  1
  Cd  Cd36  1  0.54224500  0.31686300  0.45894200  1
  Cd  Cd37  1  0.45775500  0.91669700  0.77461800  1
  Cd  Cd38  1  0.31605800  0.45990300  0.54239300  1
  Cd  Cd39  1  0.91751000  0.77366600  0.45760700  1
  Cd  Cd40  1  0.08249000  0.54009700  0.85615500  1
  Cd  Cd41  1  0.68394200  0.22633400  0.14384500  1
  Cd  Cd42  1  0.22242000  0.54791300  0.08070800  1
  Cd  Cd43  1  0.53279400  0.45208700  0.67450700  1
  Cd  Cd44  1  0.77758000  0.85828700  0.32549300  1
  Cd  Cd45  1  0.46720600  0.14171300  0.91929200  1
  Cd  Cd46  1  0.14207800  0.91669700  0.45894200  1
  Cd  Cd47  1  0.85792200  0.31686300  0.77461800  1
  Cd  Cd48  1  0.45775500  0.68313700  0.54105800  1
  Cd  Cd49  1  0.54224500  0.08330300  0.22538200  1
  Cd  Cd50  1  0.68394200  0.54009700  0.45760700  1
  Cd  Cd51  1  0.08249000  0.22633400  0.54239300  1
  Cd  Cd52  1  0.91751000  0.45990300  0.14384500  1
  Cd  Cd53  1  0.31605800  0.77366600  0.85615500  1
  Cd  Cd54  1  0.59474200  0.25000300  0.65526100  1
  Cd  Cd55  1  0.40525800  0.74999700  0.34473900  1
  Cd  Cd56  1  0.40525800  0.06051900  0.65526100  1
  Cd  Cd57  1  0.59474200  0.93948100  0.34473900  1
  Cd  Cd58  1  0.94096800  0.34505400  0.59591400  1
  Cd  Cd59  1  0.05903200  0.65494600  0.40408600  1
  Cd  Cd60  1  0.74914000  0.34505400  0.40408600  1
  Cd  Cd61  1  0.25086000  0.65494600  0.59591400  1
  Cd  Cd62  1  0.34219900  0.40300700  0.74520600  1
  Cd  Cd63  1  0.65780100  0.59699300  0.25479400  1
  Cd  Cd64  1  0.34219900  0.59699300  0.93919200  1
  Cd  Cd65  1  0.65780100  0.40300700  0.06080800  1
  Cd  Cd66  1  0.99737100  0.67346000  0.00113100  1
  Cd  Cd67  1  0.32767100  0.32654000  0.32391100  1
  Cd  Cd68  1  0.00262900  0.00376000  0.67608900  1
  Cd  Cd69  1  0.67232900  0.99624000  0.99886900  1
  Cd  Cd70  1  0.00262900  0.32654000  0.99886900  1
  Cd  Cd71  1  0.67232900  0.67346000  0.67608900  1
  Cd  Cd72  1  0.99737100  0.99624000  0.32391100  1
  Cd  Cd73  1  0.32767100  0.00376000  0.00113100  1
  Cd  Cd74  1  0.58812400  0.58812400  0.00000000  1
  Cd  Cd75  1  0.41187600  0.41187600  0.00000000  1
  Cd  Cd76  1  0.59782900  0.00000000  0.59782900  1
  Cd  Cd77  1  0.40217100  0.00000000  0.40217100  1
  Cd  Cd78  1  0.00000000  0.40295600  0.40295600  1
  Cd  Cd79  1  0.00000000  0.59704400  0.59704400  1
  Cd  Cd80  1  0.91256100  0.82106000  0.90849900  1
  Cd  Cd81  1  0.08743900  0.17894000  0.09150100  1
  Cd  Cd82  1  0.08743900  0.99593800  0.90849900  1
  Cd  Cd83  1  0.91256100  0.00406200  0.09150100  1
