# generated using pymatgen
data_Tb3SOF5
_symmetry_space_group_name_H-M   'P 1'
_cell_length_a   3.70226400
_cell_length_b   9.44405500
_cell_length_c   9.50322449
_cell_angle_alpha   60.43516626
_cell_angle_beta   90.00000000
_cell_angle_gamma   90.00000000
_symmetry_Int_Tables_number   1
_chemical_formula_structural   Tb3SOF5
_chemical_formula_sum   'Tb6 S2 O2 F10'
_cell_volume   289.01158419
_cell_formula_units_Z   2
loop_
 _symmetry_equiv_pos_site_id
 _symmetry_equiv_pos_as_xyz
  1  'x, y, z'
loop_
 _atom_site_type_symbol
 _atom_site_label
 _atom_site_symmetry_multiplicity
 _atom_site_fract_x
 _atom_site_fract_y
 _atom_site_fract_z
 _atom_site_occupancy
  Tb  Tb0  1  0.00000000  0.41779100  0.86580500  1
  Tb  Tb1  1  0.00000000  0.86766400  0.72897700  1
  Tb  Tb2  1  0.00000000  0.70072800  0.41488700  1
  Tb  Tb3  1  0.50000000  0.59520400  0.10321700  1
  Tb  Tb4  1  0.50000000  0.12281700  0.28591600  1
  Tb  Tb5  1  0.50000000  0.29615500  0.59695400  1
  S  S6  1  0.00000000  0.32871600  0.33283800  1
  S  S7  1  0.50000000  0.67292600  0.66183100  1
  O  O8  1  0.00000000  0.43660700  0.61242400  1
  O  O9  1  0.00000000  0.61670600  0.94761500  1
  F  F10  1  0.00000000  0.15918400  0.12024200  1
  F  F11  1  0.00000000  0.11210500  0.72634100  1
  F  F12  1  0.00000000  0.72443700  0.16255300  1
  F  F13  1  0.50000000  0.85453500  0.88219500  1
  F  F14  1  0.50000000  0.87861300  0.28552500  1
  F  F15  1  0.50000000  0.27241100  0.85044000  1
  F  F16  1  0.00000000  0.95276700  0.43345600  1
  F  F17  1  0.50000000  0.56872800  0.37444200  1
  F  F18  1  0.50000000  0.37791500  0.04702900  1
  F  F19  1  0.50000000  0.04399300  0.56731300  1
