# generated using pymatgen
data_Tb6Ga19Pt3
_symmetry_space_group_name_H-M   'P 1'
_cell_length_a   4.24154100
_cell_length_b   8.26748677
_cell_length_c   16.55220246
_cell_angle_alpha   108.83084757
_cell_angle_beta   82.63867334
_cell_angle_gamma   104.86363723
_symmetry_Int_Tables_number   1
_chemical_formula_structural   Tb6Ga19Pt3
_chemical_formula_sum   'Tb6 Ga19 Pt3'
_cell_volume   530.33224182
_cell_formula_units_Z   1
loop_
 _symmetry_equiv_pos_site_id
 _symmetry_equiv_pos_as_xyz
  1  'x, y, z'
loop_
 _atom_site_type_symbol
 _atom_site_label
 _atom_site_symmetry_multiplicity
 _atom_site_fract_x
 _atom_site_fract_y
 _atom_site_fract_z
 _atom_site_occupancy
  Tb  Tb0  1  0.25058800  0.74935500  0.24818000  1
  Tb  Tb1  1  0.75123300  0.25150100  0.74903600  1
  Tb  Tb2  1  0.40796200  0.22913100  0.41320600  1
  Tb  Tb3  1  0.91283900  0.73519500  0.90951700  1
  Tb  Tb4  1  0.08647700  0.26322800  0.09027300  1
  Tb  Tb5  1  0.58999900  0.76952500  0.58952600  1
  Ga  Ga6  1  0.17387700  0.80343500  0.45568100  1
  Ga  Ga7  1  0.68217300  0.31691200  0.95256600  1
  Ga  Ga8  1  0.31577200  0.67207700  0.04053300  1
  Ga  Ga9  1  0.82380900  0.19509100  0.54747300  1
  Ga  Ga10  1  0.45612300  0.09702400  0.18477800  1
  Ga  Ga11  1  0.95695700  0.58988600  0.67597200  1
  Ga  Ga12  1  0.04288400  0.41266400  0.32689500  1
  Ga  Ga13  1  0.54823000  0.91455700  0.81809800  1
  Ga  Ga14  1  0.72476000  0.55521700  0.10569700  1
  Ga  Ga15  1  0.23045200  0.06460700  0.60370300  1
  Ga  Ga16  1  0.76725000  0.93354300  0.39904400  1
  Ga  Ga17  1  0.27167300  0.43280400  0.88945700  1
  Ga  Ga18  1  0.60467800  0.44115300  0.23179700  1
  Ga  Ga19  1  0.10740700  0.94381900  0.72900500  1
  Ga  Ga20  1  0.89187300  0.05817000  0.27442400  1
  Ga  Ga21  1  0.39783300  0.56544500  0.76977800  1
  Ga  Ga22  1  0.50797200  0.00847100  0.99252700  1
  Ga  Ga23  1  0.99869100  0.49856100  0.50118000  1
  Ga  Ga24  1  0.88943600  0.88767500  0.10880300  1
  Pt  Pt25  1  0.39090300  0.39245300  0.61064800  1
  Pt  Pt26  1  0.60863700  0.60719500  0.38992200  1
  Pt  Pt27  1  0.10951200  0.11130600  0.89228200  1
