# generated using pymatgen
data_Tb6Ge3Se14
_symmetry_space_group_name_H-M   'P 1'
_cell_length_a   10.45289062
_cell_length_b   10.45289062
_cell_length_c   6.03488100
_cell_angle_alpha   90.00000000
_cell_angle_beta   90.00000000
_cell_angle_gamma   120.00000393
_symmetry_Int_Tables_number   1
_chemical_formula_structural   Tb6Ge3Se14
_chemical_formula_sum   'Tb6 Ge3 Se14'
_cell_volume   571.04737200
_cell_formula_units_Z   1
loop_
 _symmetry_equiv_pos_site_id
 _symmetry_equiv_pos_as_xyz
  1  'x, y, z'
loop_
 _atom_site_type_symbol
 _atom_site_label
 _atom_site_symmetry_multiplicity
 _atom_site_fract_x
 _atom_site_fract_y
 _atom_site_fract_z
 _atom_site_occupancy
  Tb  Tb0  1  0.30942000  0.10676500  0.75183700  1
  Tb  Tb1  1  0.79734500  0.69058000  0.75183700  1
  Tb  Tb2  1  0.89323500  0.20265500  0.75183700  1
  Tb  Tb3  1  0.02465900  0.56050500  0.25089300  1
  Tb  Tb4  1  0.53584600  0.97534100  0.25089300  1
  Tb  Tb5  1  0.43949500  0.46415400  0.25089300  1
  Ge  Ge6  1  0.00000000  0.00000000  0.17135400  1
  Ge  Ge7  1  0.33333300  0.66666700  0.66974200  1
  Ge  Ge8  1  0.66666700  0.33333300  0.51907600  1
  Se  Se9  1  0.00000000  0.00000000  0.56050300  1
  Se  Se10  1  0.33333300  0.66666700  0.05907500  1
  Se  Se11  1  0.15186300  0.23819000  0.00453700  1
  Se  Se12  1  0.08632700  0.84813700  0.00453700  1
  Se  Se13  1  0.76181000  0.91367300  0.00453700  1
  Se  Se14  1  0.18143200  0.42901700  0.50268900  1
  Se  Se15  1  0.24758500  0.81856800  0.50268900  1
  Se  Se16  1  0.57098300  0.75241500  0.50268900  1
  Se  Se17  1  0.40832100  0.17221300  0.27728400  1
  Se  Se18  1  0.76389200  0.59167900  0.27728400  1
  Se  Se19  1  0.82778700  0.23610800  0.27728400  1
  Se  Se20  1  0.92535600  0.49702800  0.77352900  1
  Se  Se21  1  0.57167200  0.07464400  0.77352900  1
  Se  Se22  1  0.50297200  0.42832800  0.77352900  1
