# generated using pymatgen
data_Hf2Pt3
_symmetry_space_group_name_H-M   'P 1'
_cell_length_a   7.77899273
_cell_length_b   7.77899273
_cell_length_c   7.77899273
_cell_angle_alpha   154.11992897
_cell_angle_beta   154.11992897
_cell_angle_gamma   36.92531362
_symmetry_Int_Tables_number   1
_chemical_formula_structural   Hf2Pt3
_chemical_formula_sum   'Hf2 Pt3'
_cell_volume   89.55924119
_cell_formula_units_Z   1
loop_
 _symmetry_equiv_pos_site_id
 _symmetry_equiv_pos_as_xyz
  1  'x, y, z'
loop_
 _atom_site_type_symbol
 _atom_site_label
 _atom_site_symmetry_multiplicity
 _atom_site_fract_x
 _atom_site_fract_y
 _atom_site_fract_z
 _atom_site_occupancy
  Hf  Hf0  1  0.88915000  0.88915000  0.00000000  1
  Hf  Hf1  1  0.11085000  0.11085000  0.00000000  1
  Pt  Pt2  1  0.50000000  0.50000000  0.00000000  1
  Pt  Pt3  1  0.30534500  0.30534500  0.00000000  1
  Pt  Pt4  1  0.69465500  0.69465500  0.00000000  1
