# generated using pymatgen
data_Tb2CrGe4
_symmetry_space_group_name_H-M   'P 1'
_cell_length_a   4.30795100
_cell_length_b   4.34148200
_cell_length_c   8.04611962
_cell_angle_alpha   74.34838881
_cell_angle_beta   90.00000000
_cell_angle_gamma   90.00000000
_symmetry_Int_Tables_number   1
_chemical_formula_structural   Tb2CrGe4
_chemical_formula_sum   'Tb2 Cr1 Ge4'
_cell_volume   144.90568470
_cell_formula_units_Z   1
loop_
 _symmetry_equiv_pos_site_id
 _symmetry_equiv_pos_as_xyz
  1  'x, y, z'
loop_
 _atom_site_type_symbol
 _atom_site_label
 _atom_site_symmetry_multiplicity
 _atom_site_fract_x
 _atom_site_fract_y
 _atom_site_fract_z
 _atom_site_occupancy
  Tb  Tb0  1  0.25000000  0.59903600  0.80192900  1
  Tb  Tb1  1  0.75000000  0.39681800  0.20636300  1
  Cr  Cr2  1  0.25000000  0.79331600  0.41336800  1
  Ge  Ge3  1  0.25000000  0.94717600  0.10564800  1
  Ge  Ge4  1  0.75000000  0.05709900  0.88580200  1
  Ge  Ge5  1  0.25000000  0.24360800  0.51278300  1
  Ge  Ge6  1  0.75000000  0.74794700  0.50410700  1
