# generated using pymatgen
data_Te(I3O4)2
_symmetry_space_group_name_H-M   'P 1'
_cell_length_a   14.09891500
_cell_length_b   7.73370900
_cell_length_c   10.34938296
_cell_angle_alpha   54.01013855
_cell_angle_beta   90.00000000
_cell_angle_gamma   90.00000000
_symmetry_Int_Tables_number   1
_chemical_formula_structural   Te(I3O4)2
_chemical_formula_sum   'Te2 I12 O16'
_cell_volume   913.06447280
_cell_formula_units_Z   2
loop_
 _symmetry_equiv_pos_site_id
 _symmetry_equiv_pos_as_xyz
  1  'x, y, z'
loop_
 _atom_site_type_symbol
 _atom_site_label
 _atom_site_symmetry_multiplicity
 _atom_site_fract_x
 _atom_site_fract_y
 _atom_site_fract_z
 _atom_site_occupancy
  Te  Te0  1  0.00000000  0.00000000  0.50000000  1
  Te  Te1  1  0.50000000  0.00000000  0.00000000  1
  I  I2  1  0.12615700  0.71459300  0.46896000  1
  I  I3  1  0.87384300  0.28540700  0.53104000  1
  I  I4  1  0.62615700  0.28540700  0.03104000  1
  I  I5  1  0.37384300  0.71459300  0.96896000  1
  I  I6  1  0.13937500  0.41291800  0.31281100  1
  I  I7  1  0.91891300  0.17154900  0.18904700  1
  I  I8  1  0.63937500  0.58708200  0.18718900  1
  I  I9  1  0.41891300  0.82845100  0.31095300  1
  I  I10  1  0.86062500  0.58708200  0.68718900  1
  I  I11  1  0.08108700  0.82845100  0.81095300  1
  I  I12  1  0.36062500  0.41291800  0.81281100  1
  I  I13  1  0.58108700  0.17154900  0.68904700  1
  O  O14  1  0.12638200  0.20504300  0.94772300  1
  O  O15  1  0.87361800  0.79495700  0.05227700  1
  O  O16  1  0.62638200  0.79495700  0.55227700  1
  O  O17  1  0.37361800  0.20504300  0.44772300  1
  O  O18  1  0.37269500  0.24824800  0.55148900  1
  O  O19  1  0.62730500  0.75175200  0.44851100  1
  O  O20  1  0.87269500  0.75175200  0.94851100  1
  O  O21  1  0.12730500  0.24824800  0.05148900  1
  O  O22  1  0.19313100  0.46982600  0.45851200  1
  O  O23  1  0.80686900  0.53017400  0.54148800  1
  O  O24  1  0.69313100  0.53017400  0.04148800  1
  O  O25  1  0.30686900  0.46982600  0.95851200  1
  O  O26  1  0.42788900  0.32366200  0.32310700  1
  O  O27  1  0.92788900  0.67633800  0.17689300  1
  O  O28  1  0.57211100  0.67633800  0.67689300  1
  O  O29  1  0.07211100  0.32366200  0.82310700  1
