# generated using pymatgen
data_Tb2Ce
_symmetry_space_group_name_H-M   'P 1'
_cell_length_a   8.73281791
_cell_length_b   8.73281791
_cell_length_c   8.73281739
_cell_angle_alpha   23.42822940
_cell_angle_beta   23.42822940
_cell_angle_gamma   23.42822826
_symmetry_Int_Tables_number   1
_chemical_formula_structural   Tb2Ce
_chemical_formula_sum   'Tb2 Ce1'
_cell_volume   92.44699697
_cell_formula_units_Z   1
loop_
 _symmetry_equiv_pos_site_id
 _symmetry_equiv_pos_as_xyz
  1  'x, y, z'
loop_
 _atom_site_type_symbol
 _atom_site_label
 _atom_site_symmetry_multiplicity
 _atom_site_fract_x
 _atom_site_fract_y
 _atom_site_fract_z
 _atom_site_occupancy
  Tb  Tb0  1  0.77702000  0.77702000  0.77702000  1
  Tb  Tb1  1  0.22298000  0.22298000  0.22298000  1
  Ce  Ce2  1  0.00000000  0.00000000  0.00000000  1
