# generated using pymatgen
data_Tb2Ga3Fe
_symmetry_space_group_name_H-M   'P 1'
_cell_length_a   4.29963642
_cell_length_b   4.29963642
_cell_length_c   7.55552700
_cell_angle_alpha   90.00000000
_cell_angle_beta   90.00000000
_cell_angle_gamma   120.02013195
_symmetry_Int_Tables_number   1
_chemical_formula_structural   Tb2Ga3Fe
_chemical_formula_sum   'Tb2 Ga3 Fe1'
_cell_volume   120.94021092
_cell_formula_units_Z   1
loop_
 _symmetry_equiv_pos_site_id
 _symmetry_equiv_pos_as_xyz
  1  'x, y, z'
loop_
 _atom_site_type_symbol
 _atom_site_label
 _atom_site_symmetry_multiplicity
 _atom_site_fract_x
 _atom_site_fract_y
 _atom_site_fract_z
 _atom_site_occupancy
  Tb  Tb0  1  0.99999800  0.00000200  0.48271100  1
  Tb  Tb1  1  0.99999800  0.00000200  0.01728900  1
  Ga  Ga2  1  0.66664600  0.33335400  0.75000000  1
  Ga  Ga3  1  0.33334500  0.66665500  0.25000000  1
  Ga  Ga4  1  0.33336300  0.66663700  0.75000000  1
  Fe  Fe5  1  0.66665000  0.33335000  0.25000000  1
