# generated using pymatgen
data_Tb2Mn3Sb3O14
_symmetry_space_group_name_H-M   'P 1'
_cell_length_a   7.19646180
_cell_length_b   7.19646180
_cell_length_c   7.29650282
_cell_angle_alpha   61.25747593
_cell_angle_beta   61.25747593
_cell_angle_gamma   61.59885216
_symmetry_Int_Tables_number   1
_chemical_formula_structural   Tb2Mn3Sb3O14
_chemical_formula_sum   'Tb2 Mn3 Sb3 O14'
_cell_volume   275.42677993
_cell_formula_units_Z   1
loop_
 _symmetry_equiv_pos_site_id
 _symmetry_equiv_pos_as_xyz
  1  'x, y, z'
loop_
 _atom_site_type_symbol
 _atom_site_label
 _atom_site_symmetry_multiplicity
 _atom_site_fract_x
 _atom_site_fract_y
 _atom_site_fract_z
 _atom_site_occupancy
  Tb  Tb0  1  0.50000000  0.00000000  0.00000000  1
  Tb  Tb1  1  0.00000000  0.50000000  0.00000000  1
  Mn  Mn2  1  0.50000000  0.50000000  0.50000000  1
  Mn  Mn3  1  0.00000000  0.00000000  0.00000000  1
  Mn  Mn4  1  0.00000000  0.00000000  0.50000000  1
  Sb  Sb5  1  0.50000000  0.50000000  0.00000000  1
  Sb  Sb6  1  0.00000000  0.50000000  0.50000000  1
  Sb  Sb7  1  0.50000000  0.00000000  0.50000000  1
  O  O8  1  0.88333700  0.88333700  0.86980200  1
  O  O9  1  0.11666300  0.11666300  0.13019800  1
  O  O10  1  0.59122700  0.59122700  0.14797800  1
  O  O11  1  0.17163200  0.17163200  0.57199700  1
  O  O12  1  0.17314800  0.57186200  0.58700100  1
  O  O13  1  0.57957200  0.17082000  0.17444100  1
  O  O14  1  0.17082000  0.57957200  0.17444100  1
  O  O15  1  0.57186200  0.17314800  0.58700100  1
  O  O16  1  0.40877300  0.40877300  0.85202200  1
  O  O17  1  0.82836800  0.82836800  0.42800300  1
  O  O18  1  0.82685200  0.42813800  0.41299900  1
  O  O19  1  0.42042800  0.82918000  0.82555900  1
  O  O20  1  0.82918000  0.42042800  0.82555900  1
  O  O21  1  0.42813800  0.82685200  0.41299900  1
