# generated using pymatgen
data_Tb2Fe4Si9
_symmetry_space_group_name_H-M   'P 1'
_cell_length_a   3.94878824
_cell_length_b   3.94878824
_cell_length_c   16.08384200
_cell_angle_alpha   90.00000000
_cell_angle_beta   90.00000000
_cell_angle_gamma   120.00000403
_symmetry_Int_Tables_number   1
_chemical_formula_structural   Tb2Fe4Si9
_chemical_formula_sum   'Tb2 Fe4 Si9'
_cell_volume   217.19413900
_cell_formula_units_Z   1
loop_
 _symmetry_equiv_pos_site_id
 _symmetry_equiv_pos_as_xyz
  1  'x, y, z'
loop_
 _atom_site_type_symbol
 _atom_site_label
 _atom_site_symmetry_multiplicity
 _atom_site_fract_x
 _atom_site_fract_y
 _atom_site_fract_z
 _atom_site_occupancy
  Tb  Tb0  1  0.33333300  0.66666700  0.24158300  1
  Tb  Tb1  1  0.66666700  0.33333300  0.75841700  1
  Fe  Fe2  1  0.33333300  0.66666700  0.58839400  1
  Fe  Fe3  1  0.66666700  0.33333300  0.41160600  1
  Fe  Fe4  1  0.66666700  0.33333300  0.10160300  1
  Fe  Fe5  1  0.33333300  0.66666700  0.89839700  1
  Si  Si6  1  0.33333300  0.66666700  0.43475600  1
  Si  Si7  1  0.66666700  0.33333300  0.56524400  1
  Si  Si8  1  0.66666700  0.33333300  0.95687100  1
  Si  Si9  1  0.33333300  0.66666700  0.04312900  1
  Si  Si10  1  0.00000000  0.00000000  0.64887700  1
  Si  Si11  1  0.00000000  0.00000000  0.35112300  1
  Si  Si12  1  0.00000000  0.00000000  0.12653800  1
  Si  Si13  1  0.00000000  0.00000000  0.87346200  1
  Si  Si14  1  0.00000000  0.00000000  0.50000000  1
