# generated using pymatgen
data_Tb3CuSe6
_symmetry_space_group_name_H-M   'P 1'
_cell_length_a   7.77984800
_cell_length_b   7.11467100
_cell_length_c   17.11074477
_cell_angle_alpha   89.60492434
_cell_angle_beta   90.00000000
_cell_angle_gamma   90.00000000
_symmetry_Int_Tables_number   1
_chemical_formula_structural   Tb3CuSe6
_chemical_formula_sum   'Tb12 Cu4 Se24'
_cell_volume   947.07532729
_cell_formula_units_Z   4
loop_
 _symmetry_equiv_pos_site_id
 _symmetry_equiv_pos_as_xyz
  1  'x, y, z'
loop_
 _atom_site_type_symbol
 _atom_site_label
 _atom_site_symmetry_multiplicity
 _atom_site_fract_x
 _atom_site_fract_y
 _atom_site_fract_z
 _atom_site_occupancy
  Tb  Tb0  1  0.93957000  0.26565500  0.75039000  1
  Tb  Tb1  1  0.06043000  0.73434500  0.24961000  1
  Tb  Tb2  1  0.56043000  0.26565500  0.25039000  1
  Tb  Tb3  1  0.43957000  0.73434500  0.74961000  1
  Tb  Tb4  1  0.55802300  0.23883400  0.58802000  1
  Tb  Tb5  1  0.44179600  0.76818000  0.09111500  1
  Tb  Tb6  1  0.94179600  0.23182000  0.40888500  1
  Tb  Tb7  1  0.05802300  0.76116600  0.91198000  1
  Tb  Tb8  1  0.44197700  0.76116600  0.41198000  1
  Tb  Tb9  1  0.55820400  0.23182000  0.90888500  1
  Tb  Tb10  1  0.05820400  0.76818000  0.59111500  1
  Tb  Tb11  1  0.94197700  0.23883400  0.08802000  1
  Cu  Cu12  1  0.21097800  0.39372500  0.52688600  1
  Cu  Cu13  1  0.71097800  0.60627500  0.97311400  1
  Cu  Cu14  1  0.78902200  0.60627500  0.47311400  1
  Cu  Cu15  1  0.28902200  0.39372500  0.02688600  1
  Se  Se16  1  0.90889300  0.39043100  0.58163500  1
  Se  Se17  1  0.09213100  0.61752700  0.08121300  1
  Se  Se18  1  0.59213100  0.38247300  0.41878700  1
  Se  Se19  1  0.40889300  0.60956900  0.91836500  1
  Se  Se20  1  0.09110700  0.60956900  0.41836500  1
  Se  Se21  1  0.90786900  0.38247300  0.91878700  1
  Se  Se22  1  0.40786900  0.61752700  0.58121300  1
  Se  Se23  1  0.59110700  0.39043100  0.08163500  1
  Se  Se24  1  0.59674800  0.38117500  0.74892500  1
  Se  Se25  1  0.40325200  0.61882500  0.25107500  1
  Se  Se26  1  0.90325200  0.38117500  0.24892500  1
  Se  Se27  1  0.09674800  0.61882500  0.75107500  1
  Se  Se28  1  0.25000400  0.07823100  0.67905700  1
  Se  Se29  1  0.75059600  0.92506700  0.17736600  1
  Se  Se30  1  0.25059600  0.07493300  0.32263400  1
  Se  Se31  1  0.75000400  0.92176900  0.82094300  1
  Se  Se32  1  0.74999600  0.92176900  0.32094300  1
  Se  Se33  1  0.24940400  0.07493300  0.82263400  1
  Se  Se34  1  0.74940400  0.92506700  0.67736600  1
  Se  Se35  1  0.24999600  0.07823100  0.17905700  1
  Se  Se36  1  0.25074500  0.06389000  0.49926900  1
  Se  Se37  1  0.75074500  0.93611000  0.00073100  1
  Se  Se38  1  0.74925500  0.93611000  0.50073100  1
  Se  Se39  1  0.24925500  0.06389000  0.99926900  1
