# generated using pymatgen
data_SrSmCoO4
_symmetry_space_group_name_H-M   'P 1'
_cell_length_a   6.78402571
_cell_length_b   6.78402571
_cell_length_c   6.78402571
_cell_angle_alpha   147.40788716
_cell_angle_beta   147.40788716
_cell_angle_gamma   46.76021598
_symmetry_Int_Tables_number   1
_chemical_formula_structural   SrSmCoO4
_chemical_formula_sum   'Sr1 Sm1 Co1 O4'
_cell_volume   90.25922088
_cell_formula_units_Z   1
loop_
 _symmetry_equiv_pos_site_id
 _symmetry_equiv_pos_as_xyz
  1  'x, y, z'
loop_
 _atom_site_type_symbol
 _atom_site_label
 _atom_site_symmetry_multiplicity
 _atom_site_fract_x
 _atom_site_fract_y
 _atom_site_fract_z
 _atom_site_occupancy
  Sr  Sr0  1  0.64404000  0.64404000  0.00000000  1
  Sm  Sm1  1  0.36097400  0.36097400  0.00000000  1
  Co  Co2  1  0.00139400  0.00139400  0.00000000  1
  O  O3  1  0.83732200  0.83732200  0.00000000  1
  O  O4  1  0.17647500  0.17647500  0.00000000  1
  O  O5  1  0.98989800  0.48989800  0.50000000  1
  O  O6  1  0.48989800  0.98989800  0.50000000  1
