# generated using pymatgen
data_Tb4FeSn8
_symmetry_space_group_name_H-M   'P 1'
_cell_length_a   4.43016000
_cell_length_b   4.46804200
_cell_length_c   16.71724100
_cell_angle_alpha   90.00000000
_cell_angle_beta   90.00000000
_cell_angle_gamma   90.00000000
_symmetry_Int_Tables_number   1
_chemical_formula_structural   Tb4FeSn8
_chemical_formula_sum   'Tb4 Fe1 Sn8'
_cell_volume   330.90342459
_cell_formula_units_Z   1
loop_
 _symmetry_equiv_pos_site_id
 _symmetry_equiv_pos_as_xyz
  1  'x, y, z'
loop_
 _atom_site_type_symbol
 _atom_site_label
 _atom_site_symmetry_multiplicity
 _atom_site_fract_x
 _atom_site_fract_y
 _atom_site_fract_z
 _atom_site_occupancy
  Tb  Tb0  1  0.00000000  0.00000000  0.09601500  1
  Tb  Tb1  1  0.00000000  0.50000000  0.60319700  1
  Tb  Tb2  1  0.50000000  0.50000000  0.39462500  1
  Tb  Tb3  1  0.50000000  0.00000000  0.90037900  1
  Fe  Fe4  1  0.00000000  0.00000000  0.30635400  1
  Sn  Sn5  1  0.00000000  0.00000000  0.45551000  1
  Sn  Sn6  1  0.00000000  0.50000000  0.93558300  1
  Sn  Sn7  1  0.50000000  0.50000000  0.06139400  1
  Sn  Sn8  1  0.50000000  0.00000000  0.57429300  1
  Sn  Sn9  1  0.00000000  0.50000000  0.23603800  1
  Sn  Sn10  1  0.00000000  0.00000000  0.75037200  1
  Sn  Sn11  1  0.50000000  0.00000000  0.23633700  1
  Sn  Sn12  1  0.50000000  0.50000000  0.75290400  1
