# generated using pymatgen
data_SrSmNiO4
_symmetry_space_group_name_H-M   'P 1'
_cell_length_a   6.74325750
_cell_length_b   6.74325750
_cell_length_c   5.39752500
_cell_angle_alpha   90.00000000
_cell_angle_beta   90.00000000
_cell_angle_gamma   133.04885365
_symmetry_Int_Tables_number   1
_chemical_formula_structural   SrSmNiO4
_chemical_formula_sum   'Sr2 Sm2 Ni2 O8'
_cell_volume   179.35603913
_cell_formula_units_Z   2
loop_
 _symmetry_equiv_pos_site_id
 _symmetry_equiv_pos_as_xyz
  1  'x, y, z'
loop_
 _atom_site_type_symbol
 _atom_site_label
 _atom_site_symmetry_multiplicity
 _atom_site_fract_x
 _atom_site_fract_y
 _atom_site_fract_z
 _atom_site_occupancy
  Sr  Sr0  1  0.60503700  0.39496300  0.25000000  1
  Sr  Sr1  1  0.39496300  0.60503700  0.75000000  1
  Sm  Sm2  1  0.11521000  0.88479000  0.75000000  1
  Sm  Sm3  1  0.88479000  0.11521000  0.25000000  1
  Ni  Ni4  1  0.24970900  0.75029100  0.25000000  1
  Ni  Ni5  1  0.75029100  0.24970900  0.75000000  1
  O  O6  1  0.92800700  0.07199300  0.75000000  1
  O  O7  1  0.41071300  0.58928700  0.25000000  1
  O  O8  1  0.07199300  0.92800700  0.25000000  1
  O  O9  1  0.58928700  0.41071300  0.75000000  1
  O  O10  1  0.50000000  0.00000000  0.00000000  1
  O  O11  1  0.00000000  0.50000000  0.50000000  1
  O  O12  1  0.50000000  0.00000000  0.50000000  1
  O  O13  1  0.00000000  0.50000000  0.00000000  1
