# generated using pymatgen
data_SrSmMn2O6
_symmetry_space_group_name_H-M   'P 1'
_cell_length_a   5.53953300
_cell_length_b   5.54036200
_cell_length_c   7.72537300
_cell_angle_alpha   90.00000000
_cell_angle_beta   90.00000000
_cell_angle_gamma   90.00000000
_symmetry_Int_Tables_number   1
_chemical_formula_structural   SrSmMn2O6
_chemical_formula_sum   'Sr2 Sm2 Mn4 O12'
_cell_volume   237.09956281
_cell_formula_units_Z   2
loop_
 _symmetry_equiv_pos_site_id
 _symmetry_equiv_pos_as_xyz
  1  'x, y, z'
loop_
 _atom_site_type_symbol
 _atom_site_label
 _atom_site_symmetry_multiplicity
 _atom_site_fract_x
 _atom_site_fract_y
 _atom_site_fract_z
 _atom_site_occupancy
  Sr  Sr0  1  0.50165100  0.26615400  0.50000000  1
  Sr  Sr1  1  0.00165100  0.73384600  0.00000000  1
  Sm  Sm2  1  0.98600200  0.78663600  0.50000000  1
  Sm  Sm3  1  0.48600200  0.21336400  0.00000000  1
  Mn  Mn4  1  0.99939200  0.25446800  0.75061800  1
  Mn  Mn5  1  0.49939200  0.74553200  0.25061800  1
  Mn  Mn6  1  0.99939200  0.25446800  0.24938200  1
  Mn  Mn7  1  0.49939200  0.74553200  0.74938200  1
  O  O8  1  0.05660100  0.22979600  0.50000000  1
  O  O9  1  0.41324100  0.74394000  0.50000000  1
  O  O10  1  0.91324100  0.25606000  0.00000000  1
  O  O11  1  0.55660100  0.77020400  0.00000000  1
  O  O12  1  0.23827200  0.98809200  0.78601000  1
  O  O13  1  0.28358800  0.46710700  0.20813300  1
  O  O14  1  0.78358800  0.53289300  0.29186700  1
  O  O15  1  0.73827200  0.01190800  0.71399000  1
  O  O16  1  0.78358800  0.53289300  0.70813300  1
  O  O17  1  0.73827200  0.01190800  0.28601000  1
  O  O18  1  0.23827200  0.98809200  0.21399000  1
  O  O19  1  0.28358800  0.46710700  0.79186700  1
