# generated using pymatgen
data_Tb2GdGa5O12
_symmetry_space_group_name_H-M   'P 1'
_cell_length_a   10.79531960
_cell_length_b   10.79531960
_cell_length_c   10.79531960
_cell_angle_alpha   109.46801825
_cell_angle_beta   109.46801825
_cell_angle_gamma   109.47762559
_symmetry_Int_Tables_number   1
_chemical_formula_structural   Tb2GdGa5O12
_chemical_formula_sum   'Tb8 Gd4 Ga20 O48'
_cell_volume   968.46653413
_cell_formula_units_Z   4
loop_
 _symmetry_equiv_pos_site_id
 _symmetry_equiv_pos_as_xyz
  1  'x, y, z'
loop_
 _atom_site_type_symbol
 _atom_site_label
 _atom_site_symmetry_multiplicity
 _atom_site_fract_x
 _atom_site_fract_y
 _atom_site_fract_z
 _atom_site_occupancy
  Tb  Tb0  1  0.00000000  0.00000000  0.00000000  1
  Tb  Tb1  1  0.25000000  0.75000000  0.50000000  1
  Tb  Tb2  1  0.75004400  0.87500000  0.37504400  1
  Tb  Tb3  1  0.49995600  0.37500000  0.62495600  1
  Tb  Tb4  1  0.62500000  0.50004400  0.37504400  1
  Tb  Tb5  1  0.12500000  0.24995600  0.62495600  1
  Tb  Tb6  1  0.75000000  0.25000000  0.50000000  1
  Tb  Tb7  1  0.50000000  0.50000000  0.00000000  1
  Gd  Gd8  1  0.00012700  0.37500000  0.12512700  1
  Gd  Gd9  1  0.24987300  0.87500000  0.87487300  1
  Gd  Gd10  1  0.12500000  0.75012700  0.12512700  1
  Gd  Gd11  1  0.62500000  0.99987300  0.87487300  1
  Ga  Ga12  1  0.74956400  0.37500000  0.87456400  1
  Ga  Ga13  1  0.50043600  0.87500000  0.12543600  1
  Ga  Ga14  1  0.12500000  0.00022400  0.37522400  1
  Ga  Ga15  1  0.62500000  0.74977600  0.62477600  1
  Ga  Ga16  1  0.25018900  0.25018900  0.00000000  1
  Ga  Ga17  1  0.99981100  0.49981100  0.50000000  1
  Ga  Ga18  1  0.99977600  0.87500000  0.62477600  1
  Ga  Ga19  1  0.25022400  0.37500000  0.37522400  1
  Ga  Ga20  1  0.62500000  0.25043600  0.12543600  1
  Ga  Ga21  1  0.12500000  0.49956400  0.87456400  1
  Ga  Ga22  1  0.50018900  0.00018900  0.50000000  1
  Ga  Ga23  1  0.74981100  0.74981100  0.00000000  1
  Ga  Ga24  1  0.37551800  0.62514500  0.25025200  1
  Ga  Ga25  1  0.87510700  0.12485500  0.25037200  1
  Ga  Ga26  1  0.87448200  0.62473500  0.74962800  1
  Ga  Ga27  1  0.37489300  0.12526600  0.74974800  1
  Ga  Ga28  1  0.87473500  0.62510700  0.25025200  1
  Ga  Ga29  1  0.37526500  0.12551800  0.25037200  1
  Ga  Ga30  1  0.87514500  0.12489300  0.74962800  1
  Ga  Ga31  1  0.37485500  0.62448200  0.74974800  1
  O  O32  1  0.25351400  0.53095200  0.33407800  1
  O  O33  1  0.05312600  0.21904800  0.22256200  1
  O  O34  1  0.99648600  0.83056400  0.77743800  1
  O  O35  1  0.19687400  0.91943600  0.66592200  1
  O  O36  1  0.07955100  0.65143400  0.87133500  1
  O  O37  1  0.17044900  0.54178400  0.07188300  1
  O  O38  1  0.78009900  0.20821600  0.12866500  1
  O  O39  1  0.46990100  0.09856600  0.92811700  1
  O  O40  1  0.79333200  0.94741100  0.04531400  1
  O  O41  1  0.90209700  0.74801800  0.95468600  1
  O  O42  1  0.34790300  0.80258900  0.34592000  1
  O  O43  1  0.45666800  0.00198200  0.65408000  1
  O  O44  1  0.49810400  0.71992500  0.16737700  1
  O  O45  1  0.69745200  0.03007500  0.27817900  1
  O  O46  1  0.75189600  0.41927300  0.72182100  1
  O  O47  1  0.55254800  0.33072700  0.83262300  1
  O  O48  1  0.66913100  0.59676400  0.62683200  1
  O  O49  1  0.58086900  0.70770100  0.42763300  1
  O  O50  1  0.96993200  0.04229900  0.37316800  1
  O  O51  1  0.28006800  0.15323600  0.57236700  1
  O  O52  1  0.95768600  0.30262200  0.45577000  1
  O  O53  1  0.84685100  0.50191600  0.54423000  1
  O  O54  1  0.40314900  0.44737900  0.15506500  1
  O  O55  1  0.29231400  0.24808400  0.84493500  1
  O  O56  1  0.66927300  0.44745200  0.16737700  1
  O  O57  1  0.58072700  0.24810400  0.27817900  1
  O  O58  1  0.96992500  0.30254800  0.72182100  1
  O  O59  1  0.28007500  0.50189600  0.83262300  1
  O  O60  1  0.95770100  0.03006800  0.62683200  1
  O  O61  1  0.84676400  0.71993200  0.42763300  1
  O  O62  1  0.40323600  0.33086900  0.37316800  1
  O  O63  1  0.29229900  0.41913100  0.57236700  1
  O  O64  1  0.49808400  0.15314900  0.45577000  1
  O  O65  1  0.69737900  0.04231400  0.54423000  1
  O  O66  1  0.75191600  0.70768600  0.15506500  1
  O  O67  1  0.55262200  0.59685100  0.84493500  1
  O  O68  1  0.08056400  0.80312600  0.33407800  1
  O  O69  1  0.16943600  0.00351400  0.22256200  1
  O  O70  1  0.78095200  0.94687400  0.77743800  1
  O  O71  1  0.46904800  0.74648600  0.66592200  1
  O  O72  1  0.79178400  0.21990100  0.87133500  1
  O  O73  1  0.90143400  0.53009900  0.07188300  1
  O  O74  1  0.34856600  0.92044900  0.12866500  1
  O  O75  1  0.45821600  0.82955100  0.92811700  1
  O  O76  1  0.25198200  0.09790300  0.04531400  1
  O  O77  1  0.05258900  0.20666800  0.95468600  1
  O  O78  1  0.99801800  0.54333200  0.34592000  1
  O  O79  1  0.19741100  0.65209700  0.65408000  1
