# generated using pymatgen
data_TaV(Cu3Se4)2
_symmetry_space_group_name_H-M   'P 1'
_cell_length_a   7.99832100
_cell_length_b   7.99832100
_cell_length_c   5.65562800
_cell_angle_alpha   90.00000000
_cell_angle_beta   90.00000000
_cell_angle_gamma   90.00000000
_symmetry_Int_Tables_number   1
_chemical_formula_structural   TaV(Cu3Se4)2
_chemical_formula_sum   'Ta1 V1 Cu6 Se8'
_cell_volume   361.80827515
_cell_formula_units_Z   1
loop_
 _symmetry_equiv_pos_site_id
 _symmetry_equiv_pos_as_xyz
  1  'x, y, z'
loop_
 _atom_site_type_symbol
 _atom_site_label
 _atom_site_symmetry_multiplicity
 _atom_site_fract_x
 _atom_site_fract_y
 _atom_site_fract_z
 _atom_site_occupancy
  Ta  Ta0  1  0.00000000  0.00000000  0.00000000  1
  V  V1  1  0.50000000  0.50000000  0.00000000  1
  Cu  Cu2  1  0.25206200  0.74793800  0.00000000  1
  Cu  Cu3  1  0.74793800  0.25206200  0.00000000  1
  Cu  Cu4  1  0.25206200  0.25206200  0.00000000  1
  Cu  Cu5  1  0.74793800  0.74793800  0.00000000  1
  Cu  Cu6  1  0.00000000  0.00000000  0.50000000  1
  Cu  Cu7  1  0.50000000  0.50000000  0.50000000  1
  Se  Se8  1  0.50000000  0.25864800  0.75827200  1
  Se  Se9  1  0.00000000  0.74839400  0.74880700  1
  Se  Se10  1  0.50000000  0.74135200  0.75827200  1
  Se  Se11  1  0.00000000  0.25160600  0.74880700  1
  Se  Se12  1  0.74839400  0.00000000  0.25119300  1
  Se  Se13  1  0.25864800  0.50000000  0.24172800  1
  Se  Se14  1  0.25160600  0.00000000  0.25119300  1
  Se  Se15  1  0.74135200  0.50000000  0.24172800  1
