# generated using pymatgen
data_SrV4O10
_symmetry_space_group_name_H-M   'P 1'
_cell_length_a   6.18396855
_cell_length_b   6.18060995
_cell_length_c   9.14637908
_cell_angle_alpha   86.87683310
_cell_angle_beta   86.89376029
_cell_angle_gamma   35.64969183
_symmetry_Int_Tables_number   1
_chemical_formula_structural   SrV4O10
_chemical_formula_sum   'Sr1 V4 O10'
_cell_volume   203.41341943
_cell_formula_units_Z   1
loop_
 _symmetry_equiv_pos_site_id
 _symmetry_equiv_pos_as_xyz
  1  'x, y, z'
loop_
 _atom_site_type_symbol
 _atom_site_label
 _atom_site_symmetry_multiplicity
 _atom_site_fract_x
 _atom_site_fract_y
 _atom_site_fract_z
 _atom_site_occupancy
  Sr  Sr0  1  0.58594800  0.58631600  0.02138600  1
  V  V1  1  0.23053400  0.23249000  0.33014400  1
  V  V2  1  0.76879200  0.76619500  0.66772200  1
  V  V3  1  0.93106200  0.93502300  0.34200300  1
  V  V4  1  0.06915800  0.06744900  0.65942600  1
  O  O5  1  0.08879100  0.09077900  0.40989600  1
  O  O6  1  0.91142700  0.91172400  0.59282300  1
  O  O7  1  0.97038100  0.97510000  0.16062800  1
  O  O8  1  0.04995000  0.04738000  0.84574400  1
  O  O9  1  0.21047800  0.21211100  0.15144000  1
  O  O10  1  0.77199600  0.76732300  0.84696800  1
  O  O11  1  0.39295700  0.39645600  0.36252000  1
  O  O12  1  0.60511800  0.60386500  0.63163200  1
  O  O13  1  0.75969400  0.76209100  0.36248000  1
  O  O14  1  0.24023500  0.23882000  0.62639900  1
