# generated using pymatgen
data_TaMoS4
_symmetry_space_group_name_H-M   'P 1'
_cell_length_a   6.61076281
_cell_length_b   6.61076281
_cell_length_c   5.69075440
_cell_angle_alpha   81.73429464
_cell_angle_beta   81.73429464
_cell_angle_gamma   28.75420817
_symmetry_Int_Tables_number   1
_chemical_formula_structural   TaMoS4
_chemical_formula_sum   'Ta1 Mo1 S4'
_cell_volume   118.31224829
_cell_formula_units_Z   1
loop_
 _symmetry_equiv_pos_site_id
 _symmetry_equiv_pos_as_xyz
  1  'x, y, z'
loop_
 _atom_site_type_symbol
 _atom_site_label
 _atom_site_symmetry_multiplicity
 _atom_site_fract_x
 _atom_site_fract_y
 _atom_site_fract_z
 _atom_site_occupancy
  Ta  Ta0  1  0.75005500  0.75005500  0.08632800  1
  Mo  Mo1  1  0.25000200  0.25000200  0.58183300  1
  S  S2  1  0.37353100  0.37353100  0.21208300  1
  S  S3  1  0.87154000  0.87154000  0.70537100  1
  S  S4  1  0.62837700  0.62837700  0.78653800  1
  S  S5  1  0.12639600  0.12639600  0.29454700  1
