# generated using pymatgen
data_Ta2H
_symmetry_space_group_name_H-M   'P 1'
_cell_length_a   2.93249733
_cell_length_b   2.93249733
_cell_length_c   4.90777850
_cell_angle_alpha   84.23992704
_cell_angle_beta   84.23992704
_cell_angle_gamma   67.67707093
_symmetry_Int_Tables_number   1
_chemical_formula_structural   Ta2H
_chemical_formula_sum   'Ta2 H1'
_cell_volume   38.75567903
_cell_formula_units_Z   1
loop_
 _symmetry_equiv_pos_site_id
 _symmetry_equiv_pos_as_xyz
  1  'x, y, z'
loop_
 _atom_site_type_symbol
 _atom_site_label
 _atom_site_symmetry_multiplicity
 _atom_site_fract_x
 _atom_site_fract_y
 _atom_site_fract_z
 _atom_site_occupancy
  Ta  Ta0  1  0.23464800  0.23464800  0.73696400  1
  Ta  Ta1  1  0.76535200  0.76535200  0.26303600  1
  H  H2  1  0.50000000  0.50000000  0.00000000  1
