# generated using pymatgen
data_TaCr4Si
_symmetry_space_group_name_H-M   'P 1'
_cell_length_a   4.86830988
_cell_length_b   4.86830988
_cell_length_c   7.64068300
_cell_angle_alpha   90.00000000
_cell_angle_beta   90.00000000
_cell_angle_gamma   119.99999843
_symmetry_Int_Tables_number   1
_chemical_formula_structural   TaCr4Si
_chemical_formula_sum   'Ta2 Cr8 Si2'
_cell_volume   156.82642771
_cell_formula_units_Z   2
loop_
 _symmetry_equiv_pos_site_id
 _symmetry_equiv_pos_as_xyz
  1  'x, y, z'
loop_
 _atom_site_type_symbol
 _atom_site_label
 _atom_site_symmetry_multiplicity
 _atom_site_fract_x
 _atom_site_fract_y
 _atom_site_fract_z
 _atom_site_occupancy
  Ta  Ta0  1  0.66666700  0.33333300  0.93375900  1
  Ta  Ta1  1  0.33333300  0.66666700  0.06624100  1
  Cr  Cr2  1  0.00000000  0.00000000  0.50000000  1
  Cr  Cr3  1  0.00000000  0.00000000  0.00000000  1
  Cr  Cr4  1  0.82820900  0.17179100  0.26174900  1
  Cr  Cr5  1  0.82820900  0.65641700  0.26174900  1
  Cr  Cr6  1  0.34358300  0.17179100  0.26174900  1
  Cr  Cr7  1  0.17179100  0.82820900  0.73825100  1
  Cr  Cr8  1  0.17179100  0.34358300  0.73825100  1
  Cr  Cr9  1  0.65641700  0.82820900  0.73825100  1
  Si  Si10  1  0.33333300  0.66666700  0.43164300  1
  Si  Si11  1  0.66666700  0.33333300  0.56835700  1
