# generated using pymatgen
data_TaCu3TeSe2S
_symmetry_space_group_name_H-M   'P 1'
_cell_length_a   5.76318136
_cell_length_b   5.76645139
_cell_length_c   5.76318136
_cell_angle_alpha   91.15296760
_cell_angle_beta   90.11682750
_cell_angle_gamma   91.15296760
_symmetry_Int_Tables_number   1
_chemical_formula_structural   TaCu3TeSe2S
_chemical_formula_sum   'Ta1 Cu3 Te1 Se2 S1'
_cell_volume   191.45029343
_cell_formula_units_Z   1
loop_
 _symmetry_equiv_pos_site_id
 _symmetry_equiv_pos_as_xyz
  1  'x, y, z'
loop_
 _atom_site_type_symbol
 _atom_site_label
 _atom_site_symmetry_multiplicity
 _atom_site_fract_x
 _atom_site_fract_y
 _atom_site_fract_z
 _atom_site_occupancy
  Ta  Ta0  1  0.99716800  0.99934900  0.99716800  1
  Cu  Cu1  1  0.98789700  0.49850400  0.98789700  1
  Cu  Cu2  1  0.50496900  0.99950500  0.98793400  1
  Cu  Cu3  1  0.98793400  0.99950500  0.50496900  1
  Te  Te4  1  0.26708900  0.27124700  0.26708900  1
  Se  Se5  1  0.24098100  0.75233400  0.74830300  1
  Se  Se6  1  0.74830300  0.75233400  0.24098100  1
  S  S7  1  0.76565800  0.22722000  0.76565800  1
