# generated using pymatgen
data_Ta2Ni3Ge
_symmetry_space_group_name_H-M   'P 1'
_cell_length_a   4.89334965
_cell_length_b   4.89334965
_cell_length_c   7.74251700
_cell_angle_alpha   90.00000000
_cell_angle_beta   90.00000000
_cell_angle_gamma   119.99999520
_symmetry_Int_Tables_number   1
_chemical_formula_structural   Ta2Ni3Ge
_chemical_formula_sum   'Ta4 Ni6 Ge2'
_cell_volume   160.55554808
_cell_formula_units_Z   2
loop_
 _symmetry_equiv_pos_site_id
 _symmetry_equiv_pos_as_xyz
  1  'x, y, z'
loop_
 _atom_site_type_symbol
 _atom_site_label
 _atom_site_symmetry_multiplicity
 _atom_site_fract_x
 _atom_site_fract_y
 _atom_site_fract_z
 _atom_site_occupancy
  Ta  Ta0  1  0.33333300  0.66666700  0.44156700  1
  Ta  Ta1  1  0.66666700  0.33333300  0.55843300  1
  Ta  Ta2  1  0.66666700  0.33333300  0.94156700  1
  Ta  Ta3  1  0.33333300  0.66666700  0.05843300  1
  Ni  Ni4  1  0.82855000  0.17145000  0.25000000  1
  Ni  Ni5  1  0.82855000  0.65709900  0.25000000  1
  Ni  Ni6  1  0.34290100  0.17145000  0.25000000  1
  Ni  Ni7  1  0.17145000  0.82855000  0.75000000  1
  Ni  Ni8  1  0.17145000  0.34290100  0.75000000  1
  Ni  Ni9  1  0.65709900  0.82855000  0.75000000  1
  Ge  Ge10  1  0.00000000  0.00000000  0.50000000  1
  Ge  Ge11  1  0.00000000  0.00000000  0.00000000  1
