# generated using pymatgen
data_SrPb3S4
_symmetry_space_group_name_H-M   'P 1'
_cell_length_a   14.10817209
_cell_length_b   14.10817209
_cell_length_c   14.10817227
_cell_angle_alpha   17.43062834
_cell_angle_beta   17.43062834
_cell_angle_gamma   17.43062761
_symmetry_Int_Tables_number   1
_chemical_formula_structural   SrPb3S4
_chemical_formula_sum   'Sr1 Pb3 S4'
_cell_volume   219.89742590
_cell_formula_units_Z   1
loop_
 _symmetry_equiv_pos_site_id
 _symmetry_equiv_pos_as_xyz
  1  'x, y, z'
loop_
 _atom_site_type_symbol
 _atom_site_label
 _atom_site_symmetry_multiplicity
 _atom_site_fract_x
 _atom_site_fract_y
 _atom_site_fract_z
 _atom_site_occupancy
  Sr  Sr0  1  0.00000000  0.00000000  0.00000000  1
  Pb  Pb1  1  0.24980800  0.24980800  0.24980800  1
  Pb  Pb2  1  0.50000000  0.50000000  0.50000000  1
  Pb  Pb3  1  0.75019200  0.75019200  0.75019200  1
  S  S4  1  0.12509000  0.12509000  0.12509000  1
  S  S5  1  0.37480000  0.37480000  0.37480000  1
  S  S6  1  0.62520000  0.62520000  0.62520000  1
  S  S7  1  0.87491000  0.87491000  0.87491000  1
