# generated using pymatgen
data_Ta3Re3B4
_symmetry_space_group_name_H-M   'P 1'
_cell_length_a   3.06764300
_cell_length_b   6.25866537
_cell_length_c   6.25866537
_cell_angle_alpha   86.87819554
_cell_angle_beta   90.00000000
_cell_angle_gamma   90.00000000
_symmetry_Int_Tables_number   1
_chemical_formula_structural   Ta3Re3B4
_chemical_formula_sum   'Ta3 Re3 B4'
_cell_volume   119.98399449
_cell_formula_units_Z   1
loop_
 _symmetry_equiv_pos_site_id
 _symmetry_equiv_pos_as_xyz
  1  'x, y, z'
loop_
 _atom_site_type_symbol
 _atom_site_label
 _atom_site_symmetry_multiplicity
 _atom_site_fract_x
 _atom_site_fract_y
 _atom_site_fract_z
 _atom_site_occupancy
  Ta  Ta0  1  0.00000000  0.50959400  0.48455900  1
  Ta  Ta1  1  0.00000000  0.98455900  0.00959400  1
  Ta  Ta2  1  0.50000000  0.17000400  0.67000400  1
  Re  Re3  1  0.50000000  0.86520700  0.36520700  1
  Re  Re4  1  0.50000000  0.32688000  0.15106500  1
  Re  Re5  1  0.50000000  0.65106500  0.82688000  1
  B  B6  1  0.00000000  0.37581900  0.87581900  1
  B  B7  1  0.00000000  0.60949500  0.10949500  1
  B  B8  1  0.00000000  0.13564200  0.37173500  1
  B  B9  1  0.00000000  0.87173500  0.63564200  1
