# generated using pymatgen
data_TaAlCu
_symmetry_space_group_name_H-M   'P 1'
_cell_length_a   5.06533219
_cell_length_b   5.06092481
_cell_length_c   7.92023000
_cell_angle_alpha   90.00000000
_cell_angle_beta   90.00000000
_cell_angle_gamma   120.02951991
_symmetry_Int_Tables_number   1
_chemical_formula_structural   TaAlCu
_chemical_formula_sum   'Ta4 Al4 Cu4'
_cell_volume   175.78304354
_cell_formula_units_Z   4
loop_
 _symmetry_equiv_pos_site_id
 _symmetry_equiv_pos_as_xyz
  1  'x, y, z'
loop_
 _atom_site_type_symbol
 _atom_site_label
 _atom_site_symmetry_multiplicity
 _atom_site_fract_x
 _atom_site_fract_y
 _atom_site_fract_z
 _atom_site_occupancy
  Ta  Ta0  1  0.66566300  0.33133700  0.56398700  1
  Ta  Ta1  1  0.33246100  0.66489600  0.43185900  1
  Ta  Ta2  1  0.33246100  0.66489600  0.06814100  1
  Ta  Ta3  1  0.66566300  0.33133700  0.93601300  1
  Al  Al4  1  0.17000500  0.33999300  0.75000000  1
  Al  Al5  1  0.16918000  0.82904000  0.75000000  1
  Al  Al6  1  0.65986600  0.82902800  0.75000000  1
  Al  Al7  1  0.83068700  0.66142000  0.25000000  1
  Cu  Cu8  1  0.83013300  0.17247500  0.25000000  1
  Cu  Cu9  1  0.34232200  0.17245500  0.25000000  1
  Cu  Cu10  1  0.00078000  0.00156200  0.50004800  1
  Cu  Cu11  1  0.00078000  0.00156200  0.99995200  1
