# generated using pymatgen
data_Ta2Fe(ReSe4)2
_symmetry_space_group_name_H-M   'P 1'
_cell_length_a   3.45589400
_cell_length_b   3.45589400
_cell_length_c   26.31822300
_cell_angle_alpha   90.00000000
_cell_angle_beta   90.00000000
_cell_angle_gamma   120.00000005
_symmetry_Int_Tables_number   1
_chemical_formula_structural   Ta2Fe(ReSe4)2
_chemical_formula_sum   'Ta2 Fe1 Re2 Se8'
_cell_volume   272.21247302
_cell_formula_units_Z   1
loop_
 _symmetry_equiv_pos_site_id
 _symmetry_equiv_pos_as_xyz
  1  'x, y, z'
loop_
 _atom_site_type_symbol
 _atom_site_label
 _atom_site_symmetry_multiplicity
 _atom_site_fract_x
 _atom_site_fract_y
 _atom_site_fract_z
 _atom_site_occupancy
  Ta  Ta0  1  0.66666700  0.33333300  0.87547700  1
  Ta  Ta1  1  0.66666700  0.33333300  0.37491700  1
  Fe  Fe2  1  0.66666700  0.33333300  0.74894500  1
  Re  Re3  1  0.66666700  0.33333300  0.62260300  1
  Re  Re4  1  0.66666700  0.33333300  0.12503600  1
  Se  Se5  1  0.00000000  0.00000000  0.68884100  1
  Se  Se6  1  0.00000000  0.00000000  0.18448400  1
  Se  Se7  1  0.33333300  0.66666700  0.81048700  1
  Se  Se8  1  0.33333300  0.66666700  0.31104200  1
  Se  Se9  1  0.33333300  0.66666700  0.93915600  1
  Se  Se10  1  0.33333300  0.66666700  0.43874900  1
  Se  Se11  1  0.00000000  0.00000000  0.56465200  1
  Se  Se12  1  0.00000000  0.00000000  0.06561200  1
