# generated using pymatgen
data_SrNdGaCuO5
_symmetry_space_group_name_H-M   'P 1'
_cell_length_a   9.10864522
_cell_length_b   9.10864522
_cell_length_c   5.32285252
_cell_angle_alpha   73.01251600
_cell_angle_beta   73.01251600
_cell_angle_gamma   129.71806335
_symmetry_Int_Tables_number   1
_chemical_formula_structural   SrNdGaCuO5
_chemical_formula_sum   'Sr2 Nd2 Ga2 Cu2 O10'
_cell_volume   246.62078029
_cell_formula_units_Z   2
loop_
 _symmetry_equiv_pos_site_id
 _symmetry_equiv_pos_as_xyz
  1  'x, y, z'
loop_
 _atom_site_type_symbol
 _atom_site_label
 _atom_site_symmetry_multiplicity
 _atom_site_fract_x
 _atom_site_fract_y
 _atom_site_fract_z
 _atom_site_occupancy
  Sr  Sr0  1  0.37580100  0.09898900  0.51210800  1
  Sr  Sr1  1  0.09898900  0.37580100  0.51210800  1
  Nd  Nd2  1  0.63061800  0.92935200  0.46788300  1
  Nd  Nd3  1  0.92935200  0.63061800  0.46788300  1
  Ga  Ga4  1  0.31394900  0.31394900  0.89463200  1
  Ga  Ga5  1  0.68421800  0.68421800  0.02957400  1
  Cu  Cu6  1  0.50531500  0.00476900  0.99510300  1
  Cu  Cu7  1  0.00476900  0.50531500  0.99510300  1
  O  O8  1  0.63120700  0.63120700  0.71805800  1
  O  O9  1  0.37249900  0.37249900  0.48337800  1
  O  O10  1  0.26641800  0.07170700  0.10947800  1
  O  O11  1  0.69745100  0.90104900  0.98608300  1
  O  O12  1  0.07170700  0.26641800  0.10947800  1
  O  O13  1  0.90104900  0.69745100  0.98608300  1
  O  O14  1  0.25782700  0.74644900  0.49597500  1
  O  O15  1  0.74913500  0.26324700  0.99254900  1
  O  O16  1  0.74644900  0.25782700  0.49597500  1
  O  O17  1  0.26324700  0.74913500  0.99254900  1
