# generated using pymatgen
data_SrLaTiMnO6
_symmetry_space_group_name_H-M   'P 1'
_cell_length_a   5.57666765
_cell_length_b   5.57666765
_cell_length_c   5.57666744
_cell_angle_alpha   60.43048454
_cell_angle_beta   60.43048454
_cell_angle_gamma   60.43048074
_symmetry_Int_Tables_number   1
_chemical_formula_structural   SrLaTiMnO6
_chemical_formula_sum   'Sr1 La1 Ti1 Mn1 O6'
_cell_volume   123.82716977
_cell_formula_units_Z   1
loop_
 _symmetry_equiv_pos_site_id
 _symmetry_equiv_pos_as_xyz
  1  'x, y, z'
loop_
 _atom_site_type_symbol
 _atom_site_label
 _atom_site_symmetry_multiplicity
 _atom_site_fract_x
 _atom_site_fract_y
 _atom_site_fract_z
 _atom_site_occupancy
  Sr  Sr0  1  0.75017300  0.75017300  0.75017300  1
  La  La1  1  0.25062100  0.25062100  0.25062100  1
  Ti  Ti2  1  0.00109100  0.00109100  0.00109100  1
  Mn  Mn3  1  0.50035800  0.50035800  0.50035800  1
  O  O4  1  0.20237000  0.75392100  0.28954700  1
  O  O5  1  0.75392100  0.28954700  0.20237000  1
  O  O6  1  0.28954700  0.20237000  0.75392100  1
  O  O7  1  0.24478500  0.69190400  0.81523200  1
  O  O8  1  0.69190400  0.81523200  0.24478500  1
  O  O9  1  0.81523200  0.24478500  0.69190400  1
