# generated using pymatgen
data_SrNd2(CuO3)2
_symmetry_space_group_name_H-M   'P 1'
_cell_length_a   10.24304913
_cell_length_b   10.24304913
_cell_length_c   10.24304913
_cell_angle_alpha   158.28571221
_cell_angle_beta   158.28571221
_cell_angle_gamma   30.89824018
_symmetry_Int_Tables_number   1
_chemical_formula_structural   SrNd2(CuO3)2
_chemical_formula_sum   'Sr1 Nd2 Cu2 O6'
_cell_volume   147.00989911
_cell_formula_units_Z   1
loop_
 _symmetry_equiv_pos_site_id
 _symmetry_equiv_pos_as_xyz
  1  'x, y, z'
loop_
 _atom_site_type_symbol
 _atom_site_label
 _atom_site_symmetry_multiplicity
 _atom_site_fract_x
 _atom_site_fract_y
 _atom_site_fract_z
 _atom_site_occupancy
  Sr  Sr0  1  0.81993600  0.81993600  0.00000000  1
  Nd  Nd1  1  0.99938500  0.99938500  0.00000000  1
  Nd  Nd2  1  0.18028100  0.18028100  0.00000000  1
  Cu  Cu3  1  0.40893100  0.40893100  0.00000000  1
  Cu  Cu4  1  0.58810200  0.58810200  0.00000000  1
  O  O5  1  0.92356700  0.42356700  0.50000000  1
  O  O6  1  0.42356700  0.92356700  0.50000000  1
  O  O7  1  0.08279700  0.58279700  0.50000000  1
  O  O8  1  0.58279700  0.08279700  0.50000000  1
  O  O9  1  0.29273600  0.29273600  0.00000000  1
  O  O10  1  0.69790000  0.69790000  0.00000000  1
