# generated using pymatgen
data_SrLaMnO4
_symmetry_space_group_name_H-M   'P 1'
_cell_length_a   5.50052213
_cell_length_b   5.52247214
_cell_length_c   6.97338742
_cell_angle_alpha   90.00019325
_cell_angle_beta   66.77250922
_cell_angle_gamma   90.00004410
_symmetry_Int_Tables_number   1
_chemical_formula_structural   SrLaMnO4
_chemical_formula_sum   'Sr2 La2 Mn2 O8'
_cell_volume   194.65758862
_cell_formula_units_Z   2
loop_
 _symmetry_equiv_pos_site_id
 _symmetry_equiv_pos_as_xyz
  1  'x, y, z'
loop_
 _atom_site_type_symbol
 _atom_site_label
 _atom_site_symmetry_multiplicity
 _atom_site_fract_x
 _atom_site_fract_y
 _atom_site_fract_z
 _atom_site_occupancy
  Sr  Sr0  1  0.85535900  0.50000000  0.28929100  1
  Sr  Sr1  1  0.64464000  0.00000100  0.71071100  1
  La  La2  1  0.35964500  0.00000100  0.28071600  1
  La  La3  1  0.14035800  0.49999700  0.71928500  1
  Mn  Mn4  1  0.50290300  0.49999800  0.99420700  1
  Mn  Mn5  1  0.99710600  0.99999700  0.00577400  1
  O  O6  1  0.17799900  0.99999900  0.64397300  1
  O  O7  1  0.66538400  0.50000100  0.66924300  1
  O  O8  1  0.32201900  0.50000100  0.35598900  1
  O  O9  1  0.83458600  0.00000100  0.33081800  1
  O  O10  1  0.25003800  0.25003900  0.99999900  1
  O  O11  1  0.74996300  0.74996300  0.99999800  1
  O  O12  1  0.74996200  0.25004100  0.99999800  1
  O  O13  1  0.25003800  0.74996000  0.99999800  1
