# generated using pymatgen
data_SrLaCoO4
_symmetry_space_group_name_H-M   'P 1'
_cell_length_a   3.85762600
_cell_length_b   3.85763900
_cell_length_c   6.86610905
_cell_angle_alpha   73.68174101
_cell_angle_beta   73.68145755
_cell_angle_gamma   89.99943555
_symmetry_Int_Tables_number   1
_chemical_formula_structural   SrLaCoO4
_chemical_formula_sum   'Sr1 La1 Co1 O4'
_cell_volume   93.76402150
_cell_formula_units_Z   1
loop_
 _symmetry_equiv_pos_site_id
 _symmetry_equiv_pos_as_xyz
  1  'x, y, z'
loop_
 _atom_site_type_symbol
 _atom_site_label
 _atom_site_symmetry_multiplicity
 _atom_site_fract_x
 _atom_site_fract_y
 _atom_site_fract_z
 _atom_site_occupancy
  Sr  Sr0  1  0.35859100  0.35859000  0.28283000  1
  La  La1  1  0.64145900  0.64146100  0.71707800  1
  Co  Co2  1  0.99712600  0.99712700  0.00574000  1
  O  O3  1  0.50570300  0.00570600  0.98856200  1
  O  O4  1  0.00570700  0.50570300  0.98856300  1
  O  O5  1  0.16354000  0.16354000  0.67293700  1
  O  O6  1  0.82787400  0.82787400  0.34429100  1
