# generated using pymatgen
data_SrLaVO4
_symmetry_space_group_name_H-M   'P 1'
_cell_length_a   5.52055540
_cell_length_b   5.55477169
_cell_length_c   12.78064523
_cell_angle_alpha   89.96117826
_cell_angle_beta   89.96752128
_cell_angle_gamma   90.00269408
_symmetry_Int_Tables_number   1
_chemical_formula_structural   SrLaVO4
_chemical_formula_sum   'Sr4 La4 V4 O16'
_cell_volume   391.92376249
_cell_formula_units_Z   4
loop_
 _symmetry_equiv_pos_site_id
 _symmetry_equiv_pos_as_xyz
  1  'x, y, z'
loop_
 _atom_site_type_symbol
 _atom_site_label
 _atom_site_symmetry_multiplicity
 _atom_site_fract_x
 _atom_site_fract_y
 _atom_site_fract_z
 _atom_site_occupancy
  Sr  Sr0  1  0.00014300  0.50035900  0.14621100  1
  Sr  Sr1  1  0.50001600  0.49997700  0.64610600  1
  Sr  Sr2  1  0.99985400  0.99983000  0.35390200  1
  Sr  Sr3  1  0.49996700  0.00009600  0.85375800  1
  La  La4  1  0.50005400  0.99967700  0.14207400  1
  La  La5  1  0.00029500  0.00034800  0.64192300  1
  La  La6  1  0.49997700  0.50012400  0.35813800  1
  La  La7  1  0.99972200  0.49928500  0.85791000  1
  V  V8  1  0.49999800  0.50035800  0.99911900  1
  V  V9  1  0.49998100  0.99984500  0.50081800  1
  V  V10  1  0.99991100  0.49987800  0.49918900  1
  V  V11  1  0.00008800  0.00024800  0.00092300  1
  O  O12  1  0.49999800  0.00002000  0.32362900  1
  O  O13  1  0.99999300  0.99991200  0.82352900  1
  O  O14  1  0.50000200  0.49998800  0.17651200  1
  O  O15  1  0.00000500  0.50003900  0.67635100  1
  O  O16  1  0.99999000  0.49996800  0.33509200  1
  O  O17  1  0.49993400  0.49998100  0.83499000  1
  O  O18  1  0.00001900  0.00010200  0.16494800  1
  O  O19  1  0.50007000  0.00001000  0.66490900  1
  O  O20  1  0.24970400  0.75000200  0.99986100  1
  O  O21  1  0.75006500  0.75008800  0.50007700  1
  O  O22  1  0.74985500  0.24988000  0.00011000  1
  O  O23  1  0.25012300  0.25002000  0.49993500  1
  O  O24  1  0.25019100  0.24997500  0.00007900  1
  O  O25  1  0.74984100  0.24993900  0.49997800  1
  O  O26  1  0.75029500  0.75001200  0.99990300  1
  O  O27  1  0.24991100  0.75003900  0.50002800  1
