# generated using pymatgen
data_SrMg3GeN4
_symmetry_space_group_name_H-M   'P 1'
_cell_length_a   3.37990700
_cell_length_b   6.24345082
_cell_length_c   6.21395657
_cell_angle_alpha   94.03667112
_cell_angle_beta   105.78099265
_cell_angle_gamma   74.29548699
_symmetry_Int_Tables_number   1
_chemical_formula_structural   SrMg3GeN4
_chemical_formula_sum   'Sr1 Mg3 Ge1 N4'
_cell_volume   121.47499410
_cell_formula_units_Z   1
loop_
 _symmetry_equiv_pos_site_id
 _symmetry_equiv_pos_as_xyz
  1  'x, y, z'
loop_
 _atom_site_type_symbol
 _atom_site_label
 _atom_site_symmetry_multiplicity
 _atom_site_fract_x
 _atom_site_fract_y
 _atom_site_fract_z
 _atom_site_occupancy
  Sr  Sr0  1  0.98938200  0.00270800  0.98147200  1
  Mg  Mg1  1  0.17658900  0.45130900  0.80448700  1
  Mg  Mg2  1  0.64173200  0.17968400  0.46314800  1
  Mg  Mg3  1  0.36795600  0.81267500  0.54858600  1
  Ge  Ge4  1  0.79961600  0.56461300  0.16384500  1
  N  N5  1  0.60406500  0.64992000  0.85805000  1
  N  N6  1  0.39716600  0.38182200  0.17615300  1
  N  N7  1  0.76678500  0.81078300  0.34435300  1
  N  N8  1  0.25671000  0.14648700  0.65990600  1
