# generated using pymatgen
data_SrMnFeBiO6
_symmetry_space_group_name_H-M   'P 1'
_cell_length_a   5.42697926
_cell_length_b   5.42697926
_cell_length_c   5.42697885
_cell_angle_alpha   60.83849366
_cell_angle_beta   60.83849366
_cell_angle_gamma   60.83849418
_symmetry_Int_Tables_number   1
_chemical_formula_structural   SrMnFeBiO6
_chemical_formula_sum   'Sr1 Mn1 Fe1 Bi1 O6'
_cell_volume   115.15802753
_cell_formula_units_Z   1
loop_
 _symmetry_equiv_pos_site_id
 _symmetry_equiv_pos_as_xyz
  1  'x, y, z'
loop_
 _atom_site_type_symbol
 _atom_site_label
 _atom_site_symmetry_multiplicity
 _atom_site_fract_x
 _atom_site_fract_y
 _atom_site_fract_z
 _atom_site_occupancy
  Sr  Sr0  1  0.24945500  0.24945500  0.24945500  1
  Mn  Mn1  1  0.99923700  0.99923700  0.99923700  1
  Fe  Fe2  1  0.49987600  0.49987600  0.49987600  1
  Bi  Bi3  1  0.75123100  0.75123100  0.75123100  1
  O  O4  1  0.80168100  0.70482200  0.24534600  1
  O  O5  1  0.24534600  0.80168100  0.70482200  1
  O  O6  1  0.70482200  0.24534600  0.80168100  1
  O  O7  1  0.75463500  0.18045300  0.31326400  1
  O  O8  1  0.31326400  0.75463500  0.18045300  1
  O  O9  1  0.18045300  0.31326400  0.75463500  1
