# generated using pymatgen
data_SrNd(CoO3)2
_symmetry_space_group_name_H-M   'P 1'
_cell_length_a   5.43257814
_cell_length_b   5.43257814
_cell_length_c   5.43257814
_cell_angle_alpha   120.03760472
_cell_angle_beta   119.28484216
_cell_angle_gamma   90.58901027
_symmetry_Int_Tables_number   1
_chemical_formula_structural   SrNd(CoO3)2
_chemical_formula_sum   'Sr1 Nd1 Co2 O6'
_cell_volume   113.93919408
_cell_formula_units_Z   1
loop_
 _symmetry_equiv_pos_site_id
 _symmetry_equiv_pos_as_xyz
  1  'x, y, z'
loop_
 _atom_site_type_symbol
 _atom_site_label
 _atom_site_symmetry_multiplicity
 _atom_site_fract_x
 _atom_site_fract_y
 _atom_site_fract_z
 _atom_site_occupancy
  Sr  Sr0  1  0.99919200  0.00000000  0.99919200  1
  Nd  Nd1  1  0.50934200  0.50000000  0.00934200  1
  Co  Co2  1  0.75172200  0.25056100  0.50116100  1
  Co  Co3  1  0.25060000  0.74943900  0.50116100  1
  O  O4  1  0.45216200  0.00000000  0.45216200  1
  O  O5  1  0.06929300  0.50000000  0.56929300  1
  O  O6  1  0.52337400  0.52326300  0.48373300  1
  O  O7  1  0.96047100  0.47673700  0.00011100  1
  O  O8  1  0.52337400  0.03964000  0.00011100  1
  O  O9  1  0.96047100  0.96036000  0.48373300  1
