# generated using pymatgen
data_SrLaCoO4
_symmetry_space_group_name_H-M   'P 1'
_cell_length_a   6.86259051
_cell_length_b   6.86259051
_cell_length_c   5.45027400
_cell_angle_alpha   90.00000000
_cell_angle_beta   90.00000000
_cell_angle_gamma   133.35905050
_symmetry_Int_Tables_number   1
_chemical_formula_structural   SrLaCoO4
_chemical_formula_sum   'Sr2 La2 Co2 O8'
_cell_volume   186.62424931
_cell_formula_units_Z   2
loop_
 _symmetry_equiv_pos_site_id
 _symmetry_equiv_pos_as_xyz
  1  'x, y, z'
loop_
 _atom_site_type_symbol
 _atom_site_label
 _atom_site_symmetry_multiplicity
 _atom_site_fract_x
 _atom_site_fract_y
 _atom_site_fract_z
 _atom_site_occupancy
  Sr  Sr0  1  0.60597700  0.39402300  0.25000000  1
  Sr  Sr1  1  0.39402300  0.60597700  0.75000000  1
  La  La2  1  0.11187300  0.88812700  0.75000000  1
  La  La3  1  0.88812700  0.11187300  0.25000000  1
  Co  Co4  1  0.25102100  0.74897900  0.25000000  1
  Co  Co5  1  0.74897900  0.25102100  0.75000000  1
  O  O6  1  0.92488800  0.07511200  0.75000000  1
  O  O7  1  0.41189900  0.58810100  0.25000000  1
  O  O8  1  0.07511200  0.92488800  0.25000000  1
  O  O9  1  0.58810100  0.41189900  0.75000000  1
  O  O10  1  0.00000000  0.50000000  0.50000000  1
  O  O11  1  0.50000000  0.00000000  0.00000000  1
  O  O12  1  0.00000000  0.50000000  0.00000000  1
  O  O13  1  0.50000000  0.00000000  0.50000000  1
