# generated using pymatgen
data_SrLaGaCuO5
_symmetry_space_group_name_H-M   'P 1'
_cell_length_a   9.19227902
_cell_length_b   9.19227902
_cell_length_c   5.35338285
_cell_angle_alpha   73.09100553
_cell_angle_beta   73.09100553
_cell_angle_gamma   130.17322148
_symmetry_Int_Tables_number   1
_chemical_formula_structural   SrLaGaCuO5
_chemical_formula_sum   'Sr2 La2 Ga2 Cu2 O10'
_cell_volume   250.02737659
_cell_formula_units_Z   2
loop_
 _symmetry_equiv_pos_site_id
 _symmetry_equiv_pos_as_xyz
  1  'x, y, z'
loop_
 _atom_site_type_symbol
 _atom_site_label
 _atom_site_symmetry_multiplicity
 _atom_site_fract_x
 _atom_site_fract_y
 _atom_site_fract_z
 _atom_site_occupancy
  Sr  Sr0  1  0.40150700  0.12287900  0.48996400  1
  Sr  Sr1  1  0.12287900  0.40150700  0.48996400  1
  La  La2  1  0.57423100  0.86926300  0.53081200  1
  La  La3  1  0.86926300  0.57423100  0.53081200  1
  Ga  Ga4  1  0.18435400  0.18435400  0.11112000  1
  Ga  Ga5  1  0.81787800  0.81787800  0.97153100  1
  Cu  Cu6  1  0.49729200  0.99636000  0.00323700  1
  Cu  Cu7  1  0.99636000  0.49729200  0.00323700  1
  O  O8  1  0.86910900  0.86910900  0.28244500  1
  O  O9  1  0.12901200  0.12901200  0.51757100  1
  O  O10  1  0.42050500  0.22566600  0.90307700  1
  O  O11  1  0.60045200  0.80176500  0.02103400  1
  O  O12  1  0.22566600  0.42050500  0.90307700  1
  O  O13  1  0.80176500  0.60045200  0.02103400  1
  O  O14  1  0.75356300  0.24485900  0.50283400  1
  O  O15  1  0.24047900  0.75082700  0.00570900  1
  O  O16  1  0.24485900  0.75356300  0.50283400  1
  O  O17  1  0.75082700  0.24047900  0.00570900  1
