# generated using pymatgen
data_SrLa3MgAlO8
_symmetry_space_group_name_H-M   'P 1'
_cell_length_a   6.88233845
_cell_length_b   6.88233845
_cell_length_c   5.43734600
_cell_angle_alpha   90.00000000
_cell_angle_beta   90.00000000
_cell_angle_gamma   133.23565061
_symmetry_Int_Tables_number   1
_chemical_formula_structural   SrLa3MgAlO8
_chemical_formula_sum   'Sr1 La3 Mg1 Al1 O8'
_cell_volume   187.63503870
_cell_formula_units_Z   1
loop_
 _symmetry_equiv_pos_site_id
 _symmetry_equiv_pos_as_xyz
  1  'x, y, z'
loop_
 _atom_site_type_symbol
 _atom_site_label
 _atom_site_symmetry_multiplicity
 _atom_site_fract_x
 _atom_site_fract_y
 _atom_site_fract_z
 _atom_site_occupancy
  Sr  Sr0  1  0.14235100  0.85764900  0.50000000  1
  La  La1  1  0.63801900  0.36198100  0.00000000  1
  La  La2  1  0.35940800  0.64059200  0.00000000  1
  La  La3  1  0.86168800  0.13831200  0.50000000  1
  Mg  Mg4  1  0.00395700  0.99604300  0.00000000  1
  Al  Al5  1  0.49734400  0.50265600  0.50000000  1
  O  O6  1  0.82382900  0.17617100  0.00000000  1
  O  O7  1  0.33776800  0.66223200  0.50000000  1
  O  O8  1  0.67033500  0.32966500  0.50000000  1
  O  O9  1  0.17502300  0.82497700  0.00000000  1
  O  O10  1  0.73675300  0.74161500  0.74361900  1
  O  O11  1  0.25838500  0.26324700  0.25638100  1
  O  O12  1  0.25838500  0.26324700  0.74361900  1
  O  O13  1  0.73675300  0.74161500  0.25638100  1
