# generated using pymatgen
data_SrLa3(NiO4)2
_symmetry_space_group_name_H-M   'P 1'
_cell_length_a   5.44067400
_cell_length_b   5.45597602
_cell_length_c   6.91384047
_cell_angle_alpha   89.99163847
_cell_angle_beta   66.82837169
_cell_angle_gamma   90.00054679
_symmetry_Int_Tables_number   1
_chemical_formula_structural   SrLa3(NiO4)2
_chemical_formula_sum   'Sr1 La3 Ni2 O8'
_cell_volume   188.67574728
_cell_formula_units_Z   1
loop_
 _symmetry_equiv_pos_site_id
 _symmetry_equiv_pos_as_xyz
  1  'x, y, z'
loop_
 _atom_site_type_symbol
 _atom_site_label
 _atom_site_symmetry_multiplicity
 _atom_site_fract_x
 _atom_site_fract_y
 _atom_site_fract_z
 _atom_site_occupancy
  Sr  Sr0  1  0.64168000  0.99999600  0.71663400  1
  La  La1  1  0.13762100  0.50000900  0.72488000  1
  La  La2  1  0.85923300  0.49998600  0.28161500  1
  La  La3  1  0.36230700  0.99999900  0.27538400  1
  Ni  Ni4  1  0.50454500  0.49995300  0.99082200  1
  Ni  Ni5  1  0.00282600  0.00003800  0.99429700  1
  O  O6  1  0.31991400  0.49995000  0.36014000  1
  O  O7  1  0.83526200  0.99998300  0.32944500  1
  O  O8  1  0.17485600  0.00003700  0.65033800  1
  O  O9  1  0.67572400  0.50008400  0.64859800  1
  O  O10  1  0.74434100  0.25798300  0.00695300  1
  O  O11  1  0.24868600  0.74201400  0.00697600  1
  O  O12  1  0.24865700  0.25800300  0.00693100  1
  O  O13  1  0.74435000  0.74196400  0.00698600  1
