# generated using pymatgen
data_Ta4Cr7Si8
_symmetry_space_group_name_H-M   'P 1'
_cell_length_a   4.83923000
_cell_length_b   13.19110400
_cell_length_c   15.84298400
_cell_angle_alpha   90.00000000
_cell_angle_beta   90.00000000
_cell_angle_gamma   90.00000000
_symmetry_Int_Tables_number   1
_chemical_formula_structural   Ta4Cr7Si8
_chemical_formula_sum   'Ta16 Cr28 Si32'
_cell_volume   1011.33349657
_cell_formula_units_Z   4
loop_
 _symmetry_equiv_pos_site_id
 _symmetry_equiv_pos_as_xyz
  1  'x, y, z'
loop_
 _atom_site_type_symbol
 _atom_site_label
 _atom_site_symmetry_multiplicity
 _atom_site_fract_x
 _atom_site_fract_y
 _atom_site_fract_z
 _atom_site_occupancy
  Ta  Ta0  1  0.75000000  0.43295300  0.69851800  1
  Ta  Ta1  1  0.75000000  0.93295300  0.80148200  1
  Ta  Ta2  1  0.25000000  0.56704700  0.30148200  1
  Ta  Ta3  1  0.25000000  0.06704700  0.19851800  1
  Ta  Ta4  1  0.75000000  0.13331900  0.54205100  1
  Ta  Ta5  1  0.75000000  0.63331900  0.95794900  1
  Ta  Ta6  1  0.25000000  0.86668100  0.45794900  1
  Ta  Ta7  1  0.25000000  0.36668100  0.04205100  1
  Ta  Ta8  1  0.75000000  0.24882000  0.97321200  1
  Ta  Ta9  1  0.75000000  0.74882000  0.52678800  1
  Ta  Ta10  1  0.25000000  0.75118000  0.02678800  1
  Ta  Ta11  1  0.25000000  0.25118000  0.47321200  1
  Ta  Ta12  1  0.75000000  0.04187900  0.09293500  1
  Ta  Ta13  1  0.75000000  0.54187900  0.40706500  1
  Ta  Ta14  1  0.25000000  0.95812100  0.90706500  1
  Ta  Ta15  1  0.25000000  0.45812100  0.59293500  1
  Cr  Cr16  1  0.75000000  0.18756700  0.24958700  1
  Cr  Cr17  1  0.75000000  0.68756700  0.25041300  1
  Cr  Cr18  1  0.25000000  0.81243300  0.75041300  1
  Cr  Cr19  1  0.25000000  0.31243300  0.74958700  1
  Cr  Cr20  1  0.00907300  0.13591900  0.82405100  1
  Cr  Cr21  1  0.49092700  0.63591900  0.67594900  1
  Cr  Cr22  1  0.50907300  0.86408100  0.17594900  1
  Cr  Cr23  1  0.99092700  0.36408100  0.32405100  1
  Cr  Cr24  1  0.99092700  0.86408100  0.17594900  1
  Cr  Cr25  1  0.50907300  0.36408100  0.32405100  1
  Cr  Cr26  1  0.49092700  0.13591900  0.82405100  1
  Cr  Cr27  1  0.00907300  0.63591900  0.67594900  1
  Cr  Cr28  1  0.75000000  0.36415000  0.15449300  1
  Cr  Cr29  1  0.75000000  0.86415000  0.34550700  1
  Cr  Cr30  1  0.25000000  0.63585000  0.84550700  1
  Cr  Cr31  1  0.25000000  0.13585000  0.65449300  1
  Cr  Cr32  1  0.99041900  0.43859000  0.87919800  1
  Cr  Cr33  1  0.50958100  0.93859000  0.62080200  1
  Cr  Cr34  1  0.49041900  0.56141000  0.12080200  1
  Cr  Cr35  1  0.00958100  0.06141000  0.37919800  1
  Cr  Cr36  1  0.00958100  0.56141000  0.12080200  1
  Cr  Cr37  1  0.49041900  0.06141000  0.37919800  1
  Cr  Cr38  1  0.50958100  0.43859000  0.87919800  1
  Cr  Cr39  1  0.99041900  0.93859000  0.62080200  1
  Cr  Cr40  1  0.75000000  0.37360000  0.49724700  1
  Cr  Cr41  1  0.75000000  0.87360000  0.00275300  1
  Cr  Cr42  1  0.25000000  0.62640000  0.50275300  1
  Cr  Cr43  1  0.25000000  0.12640000  0.99724700  1
  Si  Si44  1  0.75000000  0.44974100  0.01838100  1
  Si  Si45  1  0.75000000  0.94974100  0.48161900  1
  Si  Si46  1  0.25000000  0.55025900  0.98161900  1
  Si  Si47  1  0.25000000  0.05025900  0.51838100  1
  Si  Si48  1  0.99748400  0.28409000  0.61980600  1
  Si  Si49  1  0.50251600  0.78409000  0.88019400  1
  Si  Si50  1  0.49748400  0.71591000  0.38019400  1
  Si  Si51  1  0.00251600  0.21591000  0.11980600  1
  Si  Si52  1  0.00251600  0.71591000  0.38019400  1
  Si  Si53  1  0.49748400  0.21591000  0.11980600  1
  Si  Si54  1  0.50251600  0.28409000  0.61980600  1
  Si  Si55  1  0.99748400  0.78409000  0.88019400  1
  Si  Si56  1  0.75000000  0.08809400  0.69812800  1
  Si  Si57  1  0.75000000  0.58809400  0.80187200  1
  Si  Si58  1  0.25000000  0.91190600  0.30187200  1
  Si  Si59  1  0.25000000  0.41190600  0.19812800  1
  Si  Si60  1  0.75000000  0.22656800  0.39684200  1
  Si  Si61  1  0.75000000  0.72656800  0.10315800  1
  Si  Si62  1  0.25000000  0.77343200  0.60315800  1
  Si  Si63  1  0.25000000  0.27343200  0.89684200  1
  Si  Si64  1  0.75000000  0.05032900  0.93411100  1
  Si  Si65  1  0.75000000  0.55032900  0.56588900  1
  Si  Si66  1  0.25000000  0.94967100  0.06588900  1
  Si  Si67  1  0.25000000  0.44967100  0.43411100  1
  Si  Si68  1  0.75000000  0.00265900  0.25311900  1
  Si  Si69  1  0.75000000  0.50265900  0.24688100  1
  Si  Si70  1  0.25000000  0.99734100  0.74688100  1
  Si  Si71  1  0.25000000  0.49734100  0.75311900  1
  Si  Si72  1  0.75000000  0.29037100  0.80674800  1
  Si  Si73  1  0.75000000  0.79037100  0.69325200  1
  Si  Si74  1  0.25000000  0.70962900  0.19325200  1
  Si  Si75  1  0.25000000  0.20962900  0.30674800  1
