# generated using pymatgen
data_SrDy2Fe2O7
_symmetry_space_group_name_H-M   'P 1'
_cell_length_a   10.43824883
_cell_length_b   10.43824883
_cell_length_c   10.43824883
_cell_angle_alpha   159.03139251
_cell_angle_beta   159.03139251
_cell_angle_gamma   29.82445287
_symmetry_Int_Tables_number   1
_chemical_formula_structural   SrDy2Fe2O7
_chemical_formula_sum   'Sr1 Dy2 Fe2 O7'
_cell_volume   145.56121241
_cell_formula_units_Z   1
loop_
 _symmetry_equiv_pos_site_id
 _symmetry_equiv_pos_as_xyz
  1  'x, y, z'
loop_
 _atom_site_type_symbol
 _atom_site_label
 _atom_site_symmetry_multiplicity
 _atom_site_fract_x
 _atom_site_fract_y
 _atom_site_fract_z
 _atom_site_occupancy
  Sr  Sr0  1  0.68820500  0.68820500  0.00000000  1
  Dy  Dy1  1  0.32167800  0.32167800  0.00000000  1
  Dy  Dy2  1  0.50936400  0.50936400  0.00000000  1
  Fe  Fe3  1  0.90127700  0.90127700  0.00000000  1
  Fe  Fe4  1  0.10072300  0.10072300  0.00000000  1
  O  O5  1  0.80344300  0.80344300  0.00000000  1
  O  O6  1  0.20698700  0.20698700  0.00000000  1
  O  O7  1  0.89699200  0.39699200  0.50000000  1
  O  O8  1  0.39699200  0.89699200  0.50000000  1
  O  O9  1  0.08867700  0.58867700  0.50000000  1
  O  O10  1  0.58867700  0.08867700  0.50000000  1
  O  O11  1  0.99698500  0.99698500  0.00000000  1
