# generated using pymatgen
data_SrMn2(SiO5)2
_symmetry_space_group_name_H-M   'P 1'
_cell_length_a   13.52970600
_cell_length_b   5.34080900
_cell_length_c   5.60567496
_cell_angle_alpha   68.55938331
_cell_angle_beta   90.00000000
_cell_angle_gamma   90.00000000
_symmetry_Int_Tables_number   1
_chemical_formula_structural   SrMn2(SiO5)2
_chemical_formula_sum   'Sr2 Mn4 Si4 O20'
_cell_volume   377.03203914
_cell_formula_units_Z   2
loop_
 _symmetry_equiv_pos_site_id
 _symmetry_equiv_pos_as_xyz
  1  'x, y, z'
loop_
 _atom_site_type_symbol
 _atom_site_label
 _atom_site_symmetry_multiplicity
 _atom_site_fract_x
 _atom_site_fract_y
 _atom_site_fract_z
 _atom_site_occupancy
  Sr  Sr0  1  0.75000000  0.33708200  0.31231600  1
  Sr  Sr1  1  0.25000000  0.66291800  0.68768400  1
  Mn  Mn2  1  0.50000000  0.00000000  0.50000000  1
  Mn  Mn3  1  0.50000000  0.50000000  0.00000000  1
  Mn  Mn4  1  0.00000000  0.00000000  0.50000000  1
  Mn  Mn5  1  0.00000000  0.50000000  0.00000000  1
  Si  Si6  1  0.63343000  0.98772100  0.95692400  1
  Si  Si7  1  0.36657000  0.01227900  0.04307600  1
  Si  Si8  1  0.86657000  0.98772100  0.95692400  1
  Si  Si9  1  0.13343000  0.01227900  0.04307600  1
  O  O10  1  0.62098000  0.09837400  0.64724900  1
  O  O11  1  0.38775900  0.33559900  0.90481700  1
  O  O12  1  0.87902000  0.09837400  0.64724900  1
  O  O13  1  0.11224100  0.33559900  0.90481700  1
  O  O14  1  0.37902000  0.90162600  0.35275100  1
  O  O15  1  0.61224100  0.66440100  0.09518300  1
  O  O16  1  0.12098000  0.90162600  0.35275100  1
  O  O17  1  0.88775900  0.66440100  0.09518300  1
  O  O18  1  0.57272300  0.15925700  0.10324300  1
  O  O19  1  0.42727700  0.84074300  0.89675700  1
  O  O20  1  0.92727700  0.15925700  0.10324300  1
  O  O21  1  0.07272300  0.84074300  0.89675700  1
  O  O22  1  0.04351700  0.36439400  0.34841800  1
  O  O23  1  0.95648300  0.63560600  0.65158200  1
  O  O24  1  0.45648300  0.36439400  0.34841800  1
  O  O25  1  0.54351700  0.63560600  0.65158200  1
  O  O26  1  0.75000000  0.02515300  0.03635600  1
  O  O27  1  0.25000000  0.97484700  0.96364400  1
  O  O28  1  0.75000000  0.56927900  0.66322100  1
  O  O29  1  0.25000000  0.43072100  0.33677900  1
