# generated using pymatgen
data_SrCrO2
_symmetry_space_group_name_H-M   'P 1'
_cell_length_a   5.33961410
_cell_length_b   5.33939474
_cell_length_c   5.33939821
_cell_angle_alpha   98.95094153
_cell_angle_beta   114.97261033
_cell_angle_gamma   114.97288353
_symmetry_Int_Tables_number   1
_chemical_formula_structural   SrCrO2
_chemical_formula_sum   'Sr2 Cr2 O4'
_cell_volume   114.30716122
_cell_formula_units_Z   2
loop_
 _symmetry_equiv_pos_site_id
 _symmetry_equiv_pos_as_xyz
  1  'x, y, z'
loop_
 _atom_site_type_symbol
 _atom_site_label
 _atom_site_symmetry_multiplicity
 _atom_site_fract_x
 _atom_site_fract_y
 _atom_site_fract_z
 _atom_site_occupancy
  Sr  Sr0  1  0.49999800  0.25000100  0.74999800  1
  Sr  Sr1  1  0.49999800  0.75000000  0.24999600  1
  Cr  Cr2  1  0.99999100  0.49999700  0.49999500  1
  Cr  Cr3  1  0.99999300  0.99999200  0.99999900  1
  O  O4  1  0.00000800  0.25000200  0.75000700  1
  O  O5  1  0.99998900  0.75000400  0.24999400  1
  O  O6  1  0.50001800  0.75000700  0.75001000  1
  O  O7  1  0.50000400  0.24999700  0.25000200  1
