# generated using pymatgen
data_SrCaU2O8
_symmetry_space_group_name_H-M   'P 1'
_cell_length_a   12.44045997
_cell_length_b   12.44045997
_cell_length_c   12.44046012
_cell_angle_alpha   18.09322201
_cell_angle_beta   18.09322201
_cell_angle_gamma   18.09322236
_symmetry_Int_Tables_number   1
_chemical_formula_structural   SrCaU2O8
_chemical_formula_sum   'Sr1 Ca1 U2 O8'
_cell_volume   162.15695592
_cell_formula_units_Z   1
loop_
 _symmetry_equiv_pos_site_id
 _symmetry_equiv_pos_as_xyz
  1  'x, y, z'
loop_
 _atom_site_type_symbol
 _atom_site_label
 _atom_site_symmetry_multiplicity
 _atom_site_fract_x
 _atom_site_fract_y
 _atom_site_fract_z
 _atom_site_occupancy
  Sr  Sr0  1  0.00000000  0.00000000  0.00000000  1
  Ca  Ca1  1  0.50000000  0.50000000  0.50000000  1
  U  U2  1  0.75198900  0.75198900  0.75198900  1
  U  U3  1  0.24801100  0.24801100  0.24801100  1
  O  O4  1  0.07150200  0.07150200  0.07150200  1
  O  O5  1  0.56724900  0.56724900  0.56724900  1
  O  O6  1  0.92849800  0.92849800  0.92849800  1
  O  O7  1  0.43275100  0.43275100  0.43275100  1
  O  O8  1  0.69779600  0.69779600  0.69779600  1
  O  O9  1  0.19376800  0.19376800  0.19376800  1
  O  O10  1  0.30220400  0.30220400  0.30220400  1
  O  O11  1  0.80623200  0.80623200  0.80623200  1
