# generated using pymatgen
data_SrCaTi2O6
_symmetry_space_group_name_H-M   'P 1'
_cell_length_a   5.52465300
_cell_length_b   5.52903200
_cell_length_c   7.81389500
_cell_angle_alpha   90.00000000
_cell_angle_beta   90.00000000
_cell_angle_gamma   90.00000000
_symmetry_Int_Tables_number   1
_chemical_formula_structural   SrCaTi2O6
_chemical_formula_sum   'Sr2 Ca2 Ti4 O12'
_cell_volume   238.68310560
_cell_formula_units_Z   2
loop_
 _symmetry_equiv_pos_site_id
 _symmetry_equiv_pos_as_xyz
  1  'x, y, z'
loop_
 _atom_site_type_symbol
 _atom_site_label
 _atom_site_symmetry_multiplicity
 _atom_site_fract_x
 _atom_site_fract_y
 _atom_site_fract_z
 _atom_site_occupancy
  Sr  Sr0  1  0.25435900  0.98527800  0.50000000  1
  Sr  Sr1  1  0.74564100  0.48527800  0.50000000  1
  Ca  Ca2  1  0.24840800  0.01740200  0.00000000  1
  Ca  Ca3  1  0.75159200  0.51740200  0.00000000  1
  Ti  Ti4  1  0.25137000  0.49869200  0.75486200  1
  Ti  Ti5  1  0.74863000  0.99869200  0.24513800  1
  Ti  Ti6  1  0.25137000  0.49869200  0.24513800  1
  Ti  Ti7  1  0.74863000  0.99869200  0.75486200  1
  O  O8  1  0.02515000  0.77639200  0.78580200  1
  O  O9  1  0.97485000  0.27639200  0.21419800  1
  O  O10  1  0.47654600  0.22690500  0.27008200  1
  O  O11  1  0.52345400  0.72690500  0.72991800  1
  O  O12  1  0.47654600  0.22690500  0.72991800  1
  O  O13  1  0.52345400  0.72690500  0.27008200  1
  O  O14  1  0.02515000  0.77639200  0.21419800  1
  O  O15  1  0.97485000  0.27639200  0.78580200  1
  O  O16  1  0.31398700  0.49010100  0.00000000  1
  O  O17  1  0.68601300  0.99010100  0.00000000  1
  O  O18  1  0.20684200  0.50324000  0.50000000  1
  O  O19  1  0.79315800  0.00324000  0.50000000  1
