# generated using pymatgen
data_SrCaCuO3
_symmetry_space_group_name_H-M   'P 1'
_cell_length_a   6.74170546
_cell_length_b   6.74170546
_cell_length_c   6.74170546
_cell_angle_alpha   150.55781177
_cell_angle_beta   146.19222908
_cell_angle_gamma   45.43152950
_symmetry_Int_Tables_number   1
_chemical_formula_structural   SrCaCuO3
_chemical_formula_sum   'Sr1 Ca1 Cu1 O3'
_cell_volume   83.53673694
_cell_formula_units_Z   1
loop_
 _symmetry_equiv_pos_site_id
 _symmetry_equiv_pos_as_xyz
  1  'x, y, z'
loop_
 _atom_site_type_symbol
 _atom_site_label
 _atom_site_symmetry_multiplicity
 _atom_site_fract_x
 _atom_site_fract_y
 _atom_site_fract_z
 _atom_site_occupancy
  Sr  Sr0  1  0.14872800  0.64872800  0.50000000  1
  Ca  Ca1  1  0.85308900  0.35308900  0.50000000  1
  Cu  Cu2  1  0.49987000  0.99987000  0.50000000  1
  O  O3  1  0.34468100  0.84468100  0.50000000  1
  O  O4  1  0.66017700  0.16017700  0.50000000  1
  O  O5  1  0.99345500  0.99345500  0.00000000  1
