# generated using pymatgen
data_SrCaTi2O6
_symmetry_space_group_name_H-M   'P 1'
_cell_length_a   5.54473021
_cell_length_b   5.54473021
_cell_length_c   7.78643400
_cell_angle_alpha   90.00000000
_cell_angle_beta   90.00000000
_cell_angle_gamma   90.72437174
_symmetry_Int_Tables_number   1
_chemical_formula_structural   SrCaTi2O6
_chemical_formula_sum   'Sr2 Ca2 Ti4 O12'
_cell_volume   239.36725383
_cell_formula_units_Z   2
loop_
 _symmetry_equiv_pos_site_id
 _symmetry_equiv_pos_as_xyz
  1  'x, y, z'
loop_
 _atom_site_type_symbol
 _atom_site_label
 _atom_site_symmetry_multiplicity
 _atom_site_fract_x
 _atom_site_fract_y
 _atom_site_fract_z
 _atom_site_occupancy
  Sr  Sr0  1  0.99828900  0.00171100  0.75000000  1
  Sr  Sr1  1  0.00171100  0.99828900  0.25000000  1
  Ca  Ca2  1  0.49842800  0.50157200  0.75000000  1
  Ca  Ca3  1  0.50157200  0.49842800  0.25000000  1
  Ti  Ti4  1  0.50000000  0.00000000  0.50000000  1
  Ti  Ti5  1  0.00000000  0.50000000  0.50000000  1
  Ti  Ti6  1  0.50000000  0.00000000  0.00000000  1
  Ti  Ti7  1  0.00000000  0.50000000  0.00000000  1
  O  O8  1  0.75012800  0.75012800  0.50000000  1
  O  O9  1  0.75012800  0.75012800  0.00000000  1
  O  O10  1  0.24987200  0.24987200  0.50000000  1
  O  O11  1  0.24987200  0.24987200  0.00000000  1
  O  O12  1  0.74473100  0.25526900  0.54166700  1
  O  O13  1  0.25526900  0.74473100  0.45833300  1
  O  O14  1  0.74473100  0.25526900  0.95833300  1
  O  O15  1  0.25526900  0.74473100  0.04166700  1
  O  O16  1  0.46362000  0.95310200  0.75000000  1
  O  O17  1  0.95310200  0.46362000  0.25000000  1
  O  O18  1  0.53638000  0.04689800  0.25000000  1
  O  O19  1  0.04689800  0.53638000  0.75000000  1
