# generated using pymatgen
data_Sr4BrN2Cl
_symmetry_space_group_name_H-M   'P 1'
_cell_length_a   14.71444903
_cell_length_b   14.71444903
_cell_length_c   14.71444879
_cell_angle_alpha   15.37037125
_cell_angle_beta   15.37037125
_cell_angle_gamma   15.37037460
_symmetry_Int_Tables_number   1
_chemical_formula_structural   Sr4BrN2Cl
_chemical_formula_sum   'Sr4 Br1 N2 Cl1'
_cell_volume   195.00218661
_cell_formula_units_Z   1
loop_
 _symmetry_equiv_pos_site_id
 _symmetry_equiv_pos_as_xyz
  1  'x, y, z'
loop_
 _atom_site_type_symbol
 _atom_site_label
 _atom_site_symmetry_multiplicity
 _atom_site_fract_x
 _atom_site_fract_y
 _atom_site_fract_z
 _atom_site_occupancy
  Sr  Sr0  1  0.38406000  0.38406000  0.38406000  1
  Sr  Sr1  1  0.88750100  0.88750100  0.88750100  1
  Sr  Sr2  1  0.11249900  0.11249900  0.11249900  1
  Sr  Sr3  1  0.61594000  0.61594000  0.61594000  1
  Br  Br4  1  0.50000000  0.50000000  0.50000000  1
  N  N5  1  0.74830700  0.74830700  0.74830700  1
  N  N6  1  0.25169300  0.25169300  0.25169300  1
  Cl  Cl7  1  0.00000000  0.00000000  0.00000000  1
