# generated using pymatgen
data_SrCa3(CuO3)2
_symmetry_space_group_name_H-M   'P 1'
_cell_length_a   6.66636303
_cell_length_b   6.66636303
_cell_length_c   6.70503061
_cell_angle_alpha   75.43937299
_cell_angle_beta   75.43937299
_cell_angle_gamma   33.72314555
_symmetry_Int_Tables_number   1
_chemical_formula_structural   SrCa3(CuO3)2
_chemical_formula_sum   'Sr1 Ca3 Cu2 O6'
_cell_volume   159.61926130
_cell_formula_units_Z   1
loop_
 _symmetry_equiv_pos_site_id
 _symmetry_equiv_pos_as_xyz
  1  'x, y, z'
loop_
 _atom_site_type_symbol
 _atom_site_label
 _atom_site_symmetry_multiplicity
 _atom_site_fract_x
 _atom_site_fract_y
 _atom_site_fract_z
 _atom_site_occupancy
  Sr  Sr0  1  0.14899700  0.14899700  0.17553700  1
  Ca  Ca1  1  0.14866100  0.14866100  0.67563000  1
  Ca  Ca2  1  0.85212500  0.85212500  0.82151300  1
  Ca  Ca3  1  0.85183400  0.85183400  0.32665200  1
  Cu  Cu4  1  0.50077800  0.50077800  0.99577300  1
  Cu  Cu5  1  0.49910400  0.49910400  0.50423100  1
  O  O6  1  0.33946100  0.33946100  0.57978400  1
  O  O7  1  0.34465700  0.34465700  0.07819900  1
  O  O8  1  0.66062400  0.66062400  0.42956600  1
  O  O9  1  0.66040900  0.66040900  0.90990900  1
  O  O10  1  0.99651400  0.99651400  0.50784900  1
  O  O11  1  0.99683700  0.99683700  0.99535700  1
