# generated using pymatgen
data_Sr4Fe3ReO12
_symmetry_space_group_name_H-M   'P 1'
_cell_length_a   7.97115200
_cell_length_b   7.97114800
_cell_length_c   7.97114500
_cell_angle_alpha   90.00011501
_cell_angle_beta   89.99995687
_cell_angle_gamma   89.99982749
_symmetry_Int_Tables_number   1
_chemical_formula_structural   Sr4Fe3ReO12
_chemical_formula_sum   'Sr8 Fe6 Re2 O24'
_cell_volume   506.48043403
_cell_formula_units_Z   2
loop_
 _symmetry_equiv_pos_site_id
 _symmetry_equiv_pos_as_xyz
  1  'x, y, z'
loop_
 _atom_site_type_symbol
 _atom_site_label
 _atom_site_symmetry_multiplicity
 _atom_site_fract_x
 _atom_site_fract_y
 _atom_site_fract_z
 _atom_site_occupancy
  Sr  Sr0  1  0.75000100  0.24999900  0.74999800  1
  Sr  Sr1  1  0.24999900  0.75000000  0.25000100  1
  Sr  Sr2  1  0.24999900  0.74999700  0.74999900  1
  Sr  Sr3  1  0.75000100  0.25000000  0.25000100  1
  Sr  Sr4  1  0.25000000  0.25000100  0.24999800  1
  Sr  Sr5  1  0.75000100  0.75000000  0.74999900  1
  Sr  Sr6  1  0.24999800  0.25000200  0.75000000  1
  Sr  Sr7  1  0.75000300  0.74999800  0.25000100  1
  Fe  Fe8  1  0.00000100  0.50000000  0.50000100  1
  Fe  Fe9  1  0.49999900  0.50000000  0.00000000  1
  Fe  Fe10  1  0.50000000  0.00000000  0.50000000  1
  Fe  Fe11  1  0.50000000  0.00000000  0.00000000  1
  Fe  Fe12  1  0.00000000  0.00000000  0.50000000  1
  Fe  Fe13  1  0.00000100  0.50000100  0.99999900  1
  Re  Re14  1  0.00000100  0.00000400  0.00000300  1
  Re  Re15  1  0.49999700  0.49999500  0.50000100  1
  O  O16  1  0.75000100  0.50000000  0.99999800  1
  O  O17  1  0.24999900  0.00000100  0.50000000  1
  O  O18  1  0.75000100  0.99999900  0.50000000  1
  O  O19  1  0.24999900  0.50000000  0.00000100  1
  O  O20  1  0.50000000  0.99999900  0.75000200  1
  O  O21  1  0.00000100  0.50000000  0.24999800  1
  O  O22  1  0.00000000  0.50000100  0.75000200  1
  O  O23  1  0.50000000  0.00000100  0.24999800  1
  O  O24  1  0.50000000  0.24999700  0.99999900  1
  O  O25  1  0.00000100  0.75000400  0.50000000  1
  O  O26  1  0.00000100  0.24999600  0.50000000  1
  O  O27  1  0.50000000  0.75000300  0.99999900  1
  O  O28  1  0.23702000  0.00000000  0.00000100  1
  O  O29  1  0.73701800  0.49999900  0.50000000  1
  O  O30  1  0.76298000  0.00000000  0.00000000  1
  O  O31  1  0.26298200  0.50000000  0.50000000  1
  O  O32  1  0.49999900  0.49999900  0.73702100  1
  O  O33  1  0.00000100  0.00000100  0.23702100  1
  O  O34  1  0.49999900  0.50000000  0.26297900  1
  O  O35  1  0.99999900  0.99999900  0.76297800  1
  O  O36  1  0.50000000  0.26298300  0.50000000  1
  O  O37  1  0.00000000  0.76297900  0.99999900  1
  O  O38  1  0.49999900  0.73701800  0.50000000  1
  O  O39  1  0.00000000  0.23702300  0.00000000  1
