# generated using pymatgen
data_Sr3Ir2O7
_symmetry_space_group_name_H-M   'P 1'
_cell_length_a   3.99753148
_cell_length_b   3.99753148
_cell_length_c   10.71263385
_cell_angle_alpha   80.30441358
_cell_angle_beta   80.30441358
_cell_angle_gamma   93.08849199
_symmetry_Int_Tables_number   1
_chemical_formula_structural   Sr3Ir2O7
_chemical_formula_sum   'Sr3 Ir2 O7'
_cell_volume   165.73824948
_cell_formula_units_Z   1
loop_
 _symmetry_equiv_pos_site_id
 _symmetry_equiv_pos_as_xyz
  1  'x, y, z'
loop_
 _atom_site_type_symbol
 _atom_site_label
 _atom_site_symmetry_multiplicity
 _atom_site_fract_x
 _atom_site_fract_y
 _atom_site_fract_z
 _atom_site_occupancy
  Sr  Sr0  1  0.50000000  0.50000000  0.00000000  1
  Sr  Sr1  1  0.69487800  0.69487800  0.63003700  1
  Sr  Sr2  1  0.30512200  0.30512200  0.36996300  1
  Ir  Ir3  1  0.10251300  0.10251300  0.80335300  1
  Ir  Ir4  1  0.89748700  0.89748700  0.19664700  1
  O  O5  1  0.19595300  0.19595300  0.60802500  1
  O  O6  1  0.80404700  0.80404700  0.39197500  1
  O  O7  1  0.00000000  0.00000000  0.00000000  1
  O  O8  1  0.60998500  0.17045900  0.80553900  1
  O  O9  1  0.17045900  0.60998500  0.80553900  1
  O  O10  1  0.39001500  0.82954100  0.19446100  1
  O  O11  1  0.82954100  0.39001500  0.19446100  1
