# generated using pymatgen
data_SrCa3Hf4O12
_symmetry_space_group_name_H-M   'P 1'
_cell_length_a   8.08516000
_cell_length_b   5.64676900
_cell_length_c   5.79170158
_cell_angle_alpha   89.97439760
_cell_angle_beta   90.00000000
_cell_angle_gamma   90.00000000
_symmetry_Int_Tables_number   1
_chemical_formula_structural   SrCa3Hf4O12
_chemical_formula_sum   'Sr1 Ca3 Hf4 O12'
_cell_volume   264.42028782
_cell_formula_units_Z   1
loop_
 _symmetry_equiv_pos_site_id
 _symmetry_equiv_pos_as_xyz
  1  'x, y, z'
loop_
 _atom_site_type_symbol
 _atom_site_label
 _atom_site_symmetry_multiplicity
 _atom_site_fract_x
 _atom_site_fract_y
 _atom_site_fract_z
 _atom_site_occupancy
  Sr  Sr0  1  0.50000000  0.48865000  0.54133300  1
  Ca  Ca1  1  0.50000000  0.01237700  0.04538300  1
  Ca  Ca2  1  0.00000000  0.51170100  0.45479800  1
  Ca  Ca3  1  0.00000000  0.98952300  0.95632500  1
  Hf  Hf4  1  0.24757800  0.00034400  0.50000200  1
  Hf  Hf5  1  0.75199100  0.49934900  0.00016200  1
  Hf  Hf6  1  0.75242200  0.00034400  0.50000200  1
  Hf  Hf7  1  0.24800900  0.49934900  0.00016200  1
  O  O8  1  0.50000000  0.59929400  0.97939700  1
  O  O9  1  0.50000000  0.92073400  0.46633400  1
  O  O10  1  0.00000000  0.40185300  0.03102100  1
  O  O11  1  0.00000000  0.10131500  0.53404000  1
  O  O12  1  0.30029400  0.20147700  0.79655300  1
  O  O13  1  0.70542600  0.28981300  0.28802700  1
  O  O14  1  0.80390800  0.79355200  0.20684800  1
  O  O15  1  0.19623000  0.70274100  0.70409400  1
  O  O16  1  0.19609200  0.79355200  0.20684800  1
  O  O17  1  0.80377000  0.70274100  0.70409400  1
  O  O18  1  0.69970600  0.20147700  0.79655300  1
  O  O19  1  0.29457400  0.28981300  0.28802700  1
