# generated using pymatgen
data_Sr4Be3Ge5
_symmetry_space_group_name_H-M   'P 1'
_cell_length_a   4.17851153
_cell_length_b   4.17851153
_cell_length_c   18.45155000
_cell_angle_alpha   90.00000000
_cell_angle_beta   90.00000000
_cell_angle_gamma   119.99999257
_symmetry_Int_Tables_number   1
_chemical_formula_structural   Sr4Be3Ge5
_chemical_formula_sum   'Sr4 Be3 Ge5'
_cell_volume   279.00162227
_cell_formula_units_Z   1
loop_
 _symmetry_equiv_pos_site_id
 _symmetry_equiv_pos_as_xyz
  1  'x, y, z'
loop_
 _atom_site_type_symbol
 _atom_site_label
 _atom_site_symmetry_multiplicity
 _atom_site_fract_x
 _atom_site_fract_y
 _atom_site_fract_z
 _atom_site_occupancy
  Sr  Sr0  1  0.33333300  0.66666700  0.63078400  1
  Sr  Sr1  1  0.33333300  0.66666700  0.36921600  1
  Sr  Sr2  1  0.33333300  0.66666700  0.12486800  1
  Sr  Sr3  1  0.33333300  0.66666700  0.87513200  1
  Be  Be4  1  0.00000000  0.00000000  0.25075100  1
  Be  Be5  1  0.00000000  0.00000000  0.00000000  1
  Be  Be6  1  0.00000000  0.00000000  0.74924900  1
  Ge  Ge7  1  0.66666700  0.33333300  0.50000000  1
  Ge  Ge8  1  0.66666700  0.33333300  0.25004400  1
  Ge  Ge9  1  0.66666700  0.33333300  0.00000000  1
  Ge  Ge10  1  0.66666700  0.33333300  0.74995600  1
  Ge  Ge11  1  0.00000000  0.00000000  0.50000000  1
