# generated using pymatgen
data_SrCa3(PbO4)2
_symmetry_space_group_name_H-M   'P 1'
_cell_length_a   3.45544400
_cell_length_b   5.97181200
_cell_length_c   10.03064813
_cell_angle_alpha   89.74527504
_cell_angle_beta   90.00000000
_cell_angle_gamma   90.00000000
_symmetry_Int_Tables_number   1
_chemical_formula_structural   SrCa3(PbO4)2
_chemical_formula_sum   'Sr1 Ca3 Pb2 O8'
_cell_volume   206.98300606
_cell_formula_units_Z   1
loop_
 _symmetry_equiv_pos_site_id
 _symmetry_equiv_pos_as_xyz
  1  'x, y, z'
loop_
 _atom_site_type_symbol
 _atom_site_label
 _atom_site_symmetry_multiplicity
 _atom_site_fract_x
 _atom_site_fract_y
 _atom_site_fract_z
 _atom_site_occupancy
  Sr  Sr0  1  0.50000000  0.42723300  0.18099400  1
  Ca  Ca1  1  0.50000000  0.57514300  0.81394700  1
  Ca  Ca2  1  0.50000000  0.92972300  0.32580300  1
  Ca  Ca3  1  0.50000000  0.07363200  0.68341900  1
  Pb  Pb4  1  0.00000000  0.50257700  0.50447700  1
  Pb  Pb5  1  0.00000000  0.99855500  0.99556800  1
  O  O6  1  0.50000000  0.26179000  0.45511900  1
  O  O7  1  0.50000000  0.73932200  0.55277700  1
  O  O8  1  0.50000000  0.76252300  0.03739400  1
  O  O9  1  0.50000000  0.23701100  0.94480000  1
  O  O10  1  0.00000000  0.12108700  0.19953700  1
  O  O11  1  0.00000000  0.86051300  0.79604300  1
  O  O12  1  0.00000000  0.65090500  0.30869400  1
  O  O13  1  0.00000000  0.35998600  0.70142700  1
