# generated using pymatgen
data_SrCa3IrO6
_symmetry_space_group_name_H-M   'P 1'
_cell_length_a   6.68235800
_cell_length_b   6.68235800
_cell_length_c   6.72167424
_cell_angle_alpha   89.13156517
_cell_angle_beta   89.13156517
_cell_angle_gamma   91.72627208
_symmetry_Int_Tables_number   1
_chemical_formula_structural   SrCa3IrO6
_chemical_formula_sum   'Sr2 Ca6 Ir2 O12'
_cell_volume   299.94173635
_cell_formula_units_Z   2
loop_
 _symmetry_equiv_pos_site_id
 _symmetry_equiv_pos_as_xyz
  1  'x, y, z'
loop_
 _atom_site_type_symbol
 _atom_site_label
 _atom_site_symmetry_multiplicity
 _atom_site_fract_x
 _atom_site_fract_y
 _atom_site_fract_z
 _atom_site_occupancy
  Sr  Sr0  1  0.88431700  0.74858500  0.13565100  1
  Sr  Sr1  1  0.25141500  0.11568300  0.86434900  1
  Ca  Ca2  1  0.25060100  0.74939900  0.50000000  1
  Ca  Ca3  1  0.74928400  0.25071600  0.00000000  1
  Ca  Ca4  1  0.61035000  0.38965000  0.50000000  1
  Ca  Ca5  1  0.74846700  0.89091700  0.63914600  1
  Ca  Ca6  1  0.39046100  0.60953900  0.00000000  1
  Ca  Ca7  1  0.10908300  0.25153300  0.36085400  1
  Ir  Ir8  1  0.50309300  0.00147000  0.25209400  1
  Ir  Ir9  1  0.99853000  0.49690700  0.74790600  1
  O  O10  1  0.21026600  0.92591000  0.20249700  1
  O  O11  1  0.43193300  0.05663400  0.54028700  1
  O  O12  1  0.54918800  0.70686500  0.32731400  1
  O  O13  1  0.91649200  0.20566800  0.69246600  1
  O  O14  1  0.70373100  0.55024000  0.82053700  1
  O  O15  1  0.05861000  0.42050300  0.04140100  1
  O  O16  1  0.79433200  0.08350800  0.30753400  1
  O  O17  1  0.57949700  0.94139000  0.95859900  1
  O  O18  1  0.44976000  0.29626900  0.17946300  1
  O  O19  1  0.07409000  0.78973400  0.79750300  1
  O  O20  1  0.29313500  0.45081200  0.67268600  1
  O  O21  1  0.94336600  0.56806700  0.45971300  1
