# generated using pymatgen
data_Sr2YFeCu2O7
_symmetry_space_group_name_H-M   'P 1'
_cell_length_a   3.75853101
_cell_length_b   11.60401100
_cell_length_c   3.88632101
_cell_angle_alpha   89.99999506
_cell_angle_beta   90.00984802
_cell_angle_gamma   89.99999506
_symmetry_Int_Tables_number   1
_chemical_formula_structural   Sr2YFeCu2O7
_chemical_formula_sum   'Sr2 Y1 Fe1 Cu2 O7'
_cell_volume   169.49813913
_cell_formula_units_Z   1
loop_
 _symmetry_equiv_pos_site_id
 _symmetry_equiv_pos_as_xyz
  1  'x, y, z'
loop_
 _atom_site_type_symbol
 _atom_site_label
 _atom_site_symmetry_multiplicity
 _atom_site_fract_x
 _atom_site_fract_y
 _atom_site_fract_z
 _atom_site_occupancy
  Sr  Sr0  1  0.50000100  0.81211300  0.50000000  1
  Sr  Sr1  1  0.49999900  0.18789400  0.50000000  1
  Y  Y2  1  0.50000100  0.49999800  0.50000000  1
  Fe  Fe3  1  0.99999600  0.00000000  0.99999900  1
  Cu  Cu4  1  0.00000000  0.64794100  0.99999900  1
  Cu  Cu5  1  0.00000100  0.35205300  0.00000000  1
  O  O6  1  0.00000000  0.00000000  0.50000100  1
  O  O7  1  0.00000100  0.83766600  0.00000000  1
  O  O8  1  0.00000000  0.16232700  0.00000100  1
  O  O9  1  0.99999900  0.62765500  0.50000000  1
  O  O10  1  0.00000100  0.37235000  0.50000000  1
  O  O11  1  0.50000100  0.62364100  0.00000000  1
  O  O12  1  0.50000100  0.37636300  0.00000000  1
