# generated using pymatgen
data_Sr4Ca(FeO2)5
_symmetry_space_group_name_H-M   'P 1'
_cell_length_a   5.72913612
_cell_length_b   6.85852700
_cell_length_c   15.00307088
_cell_angle_alpha   76.78452113
_cell_angle_beta   101.00768441
_cell_angle_gamma   90.00178433
_symmetry_Int_Tables_number   1
_chemical_formula_structural   Sr4Ca(FeO2)5
_chemical_formula_sum   'Sr8 Ca2 Fe10 O20'
_cell_volume   562.76372191
_cell_formula_units_Z   2
loop_
 _symmetry_equiv_pos_site_id
 _symmetry_equiv_pos_as_xyz
  1  'x, y, z'
loop_
 _atom_site_type_symbol
 _atom_site_label
 _atom_site_symmetry_multiplicity
 _atom_site_fract_x
 _atom_site_fract_y
 _atom_site_fract_z
 _atom_site_occupancy
  Sr  Sr0  1  0.09933200  0.15067600  0.19866600  1
  Sr  Sr1  1  0.09933800  0.65066600  0.19865300  1
  Sr  Sr2  1  0.90061100  0.84936300  0.80126300  1
  Sr  Sr3  1  0.90064900  0.34936400  0.80128300  1
  Sr  Sr4  1  0.69976400  0.05024000  0.39952900  1
  Sr  Sr5  1  0.69974800  0.55023700  0.39952700  1
  Sr  Sr6  1  0.30024400  0.94979000  0.60048800  1
  Sr  Sr7  1  0.30025600  0.44972500  0.60048000  1
  Ca  Ca8  1  0.50002900  0.25004300  0.00004600  1
  Ca  Ca9  1  0.50001100  0.74991300  0.00004300  1
  Fe  Fe10  1  0.99975800  0.50024800  0.99952400  1
  Fe  Fe11  1  0.40090500  0.09915200  0.80176300  1
  Fe  Fe12  1  0.59945100  0.40052700  0.19888400  1
  Fe  Fe13  1  0.59911100  0.90087100  0.19820700  1
  Fe  Fe14  1  0.80024600  0.69979000  0.60041400  1
  Fe  Fe15  1  0.00000800  0.00002000  0.99997900  1
  Fe  Fe16  1  0.40085900  0.59914900  0.80176000  1
  Fe  Fe17  1  0.19953300  0.30042500  0.39912000  1
  Fe  Fe18  1  0.19975300  0.80015700  0.39964500  1
  Fe  Fe19  1  0.80046300  0.19957500  0.60085800  1
  O  O20  1  0.50006100  0.24997500  0.50001800  1
  O  O21  1  0.49999400  0.75004900  0.49999800  1
  O  O22  1  0.99994600  0.25000400  0.50001500  1
  O  O23  1  0.00000600  0.75001700  0.50000100  1
  O  O24  1  0.10009000  0.14946000  0.70111000  1
  O  O25  1  0.09999900  0.64946300  0.70105000  1
  O  O26  1  0.89997900  0.35053300  0.29896100  1
  O  O27  1  0.90000000  0.85051900  0.29896400  1
  O  O28  1  0.60100000  0.14943800  0.70110700  1
  O  O29  1  0.60107100  0.64942200  0.70105100  1
  O  O30  1  0.39897900  0.35050400  0.29896000  1
  O  O31  1  0.39896100  0.85053400  0.29896500  1
  O  O32  1  0.69629700  0.04865600  0.90259700  1
  O  O33  1  0.69622200  0.54873400  0.90253500  1
  O  O34  1  0.30368000  0.45131400  0.09732700  1
  O  O35  1  0.30369900  0.95132800  0.09737600  1
  O  O36  1  0.20628400  0.04870000  0.90259600  1
  O  O37  1  0.20633500  0.54878800  0.90253900  1
  O  O38  1  0.79365200  0.45132500  0.09732900  1
  O  O39  1  0.79367400  0.95130300  0.09737300  1
