# generated using pymatgen
data_SrCa3(RuO4)2
_symmetry_space_group_name_H-M   'P 1'
_cell_length_a   13.27929773
_cell_length_b   13.27929773
_cell_length_c   13.27929773
_cell_angle_alpha   156.63621680
_cell_angle_beta   156.63485096
_cell_angle_gamma   33.27973358
_symmetry_Int_Tables_number   1
_chemical_formula_structural   SrCa3(RuO4)2
_chemical_formula_sum   'Sr2 Ca6 Ru4 O16'
_cell_volume   367.94821467
_cell_formula_units_Z   2
loop_
 _symmetry_equiv_pos_site_id
 _symmetry_equiv_pos_as_xyz
  1  'x, y, z'
loop_
 _atom_site_type_symbol
 _atom_site_label
 _atom_site_symmetry_multiplicity
 _atom_site_fract_x
 _atom_site_fract_y
 _atom_site_fract_z
 _atom_site_occupancy
  Sr  Sr0  1  0.20105000  0.70105000  0.50000000  1
  Sr  Sr1  1  0.70105000  0.20105000  0.50000000  1
  Ca  Ca2  1  0.45207800  0.45207800  0.00000000  1
  Ca  Ca3  1  0.95207800  0.95207800  0.00000000  1
  Ca  Ca4  1  0.30056000  0.30056000  0.00000000  1
  Ca  Ca5  1  0.80056000  0.80056000  0.00000000  1
  Ca  Ca6  1  0.04792600  0.54792600  0.50000000  1
  Ca  Ca7  1  0.54792600  0.04792600  0.50000000  1
  Ru  Ru8  1  0.37672600  0.87672600  0.50000000  1
  Ru  Ru9  1  0.87672600  0.37672600  0.50000000  1
  Ru  Ru10  1  0.62298200  0.62298200  0.00000000  1
  Ru  Ru11  1  0.12298200  0.12298200  0.00000000  1
  O  O12  1  0.81590000  0.31590500  0.88850400  1
  O  O13  1  0.31590000  0.42739600  0.49999500  1
  O  O14  1  0.05900000  0.05900400  0.36545200  1
  O  O15  1  0.55900000  0.19354700  0.99999500  1
  O  O16  1  0.69355200  0.69354700  0.63454800  1
  O  O17  1  0.19355200  0.55900400  0.00000500  1
  O  O18  1  0.42740100  0.92739600  0.11149600  1
  O  O19  1  0.92740100  0.81590500  0.50000500  1
  O  O20  1  0.29557600  0.79557600  0.50000000  1
  O  O21  1  0.79557600  0.29557600  0.50000000  1
  O  O22  1  0.54109700  0.54109700  0.00000000  1
  O  O23  1  0.04109700  0.04109700  0.00000000  1
  O  O24  1  0.20762000  0.20762000  0.00000000  1
  O  O25  1  0.70762000  0.70762000  0.00000000  1
  O  O26  1  0.95853300  0.45853300  0.50000000  1
  O  O27  1  0.45853300  0.95853300  0.50000000  1
