# generated using pymatgen
data_Sr3LaC2N4F5
_symmetry_space_group_name_H-M   'P 1'
_cell_length_a   6.65614250
_cell_length_b   6.65614250
_cell_length_c   6.67576789
_cell_angle_alpha   75.76771905
_cell_angle_beta   75.76771905
_cell_angle_gamma   120.28310212
_symmetry_Int_Tables_number   1
_chemical_formula_structural   Sr3LaC2N4F5
_chemical_formula_sum   'Sr3 La1 C2 N4 F5'
_cell_volume   222.09164583
_cell_formula_units_Z   1
loop_
 _symmetry_equiv_pos_site_id
 _symmetry_equiv_pos_as_xyz
  1  'x, y, z'
loop_
 _atom_site_type_symbol
 _atom_site_label
 _atom_site_symmetry_multiplicity
 _atom_site_fract_x
 _atom_site_fract_y
 _atom_site_fract_z
 _atom_site_occupancy
  Sr  Sr0  1  0.58254500  0.58254500  0.32641600  1
  Sr  Sr1  1  0.09135900  0.41690100  0.99986000  1
  Sr  Sr2  1  0.41690100  0.09135900  0.99986000  1
  La  La3  1  0.91242700  0.91242700  0.67878800  1
  C  C4  1  0.49664600  0.99901700  0.50082300  1
  C  C5  1  0.99901700  0.49664600  0.50082300  1
  N  N6  1  0.65352200  0.00029600  0.35525000  1
  N  N7  1  0.33931200  0.99729300  0.64838100  1
  N  N8  1  0.00029600  0.65352200  0.35525000  1
  N  N9  1  0.99729300  0.33931200  0.64838100  1
  F  F10  1  0.99777000  0.99777000  0.99167300  1
  F  F11  1  0.22471300  0.22471300  0.27858000  1
  F  F12  1  0.51123500  0.51123500  0.72962600  1
  F  F13  1  0.77036100  0.50660400  0.99314600  1
  F  F14  1  0.50660400  0.77036100  0.99314600  1
