# generated using pymatgen
data_Sr2U2O7
_symmetry_space_group_name_H-M   'P 1'
_cell_length_a   4.06372200
_cell_length_b   6.71427100
_cell_length_c   6.94042000
_cell_angle_alpha   69.99429341
_cell_angle_beta   90.00000000
_cell_angle_gamma   90.00000000
_symmetry_Int_Tables_number   1
_chemical_formula_structural   Sr2U2O7
_chemical_formula_sum   'Sr2 U2 O7'
_cell_volume   177.94208668
_cell_formula_units_Z   1
loop_
 _symmetry_equiv_pos_site_id
 _symmetry_equiv_pos_as_xyz
  1  'x, y, z'
loop_
 _atom_site_type_symbol
 _atom_site_label
 _atom_site_symmetry_multiplicity
 _atom_site_fract_x
 _atom_site_fract_y
 _atom_site_fract_z
 _atom_site_occupancy
  Sr  Sr0  1  0.00000000  0.51206400  0.49759700  1
  Sr  Sr1  1  0.50000000  0.50465100  0.99504100  1
  U  U2  1  0.00000000  0.00384600  0.01132700  1
  U  U3  1  0.50000000  0.99503100  0.48478200  1
  O  O4  1  0.50000000  0.31853900  0.39227000  1
  O  O5  1  0.00000000  0.32169500  0.88932800  1
  O  O6  1  0.50000000  0.66963600  0.59823300  1
  O  O7  1  0.00000000  0.68517800  0.11065400  1
  O  O8  1  0.50000000  0.04633200  0.14962300  1
  O  O9  1  0.00000000  0.95389100  0.40463400  1
  O  O10  1  0.50000000  0.96913900  0.80651100  1
