# generated using pymatgen
data_Sr3(Cd2Ga)2
_symmetry_space_group_name_H-M   'P 1'
_cell_length_a   4.96632400
_cell_length_b   6.32835324
_cell_length_c   17.80579760
_cell_angle_alpha   83.97099686
_cell_angle_beta   98.01648452
_cell_angle_gamma   113.10308224
_symmetry_Int_Tables_number   1
_chemical_formula_structural   Sr3(Cd2Ga)2
_chemical_formula_sum   'Sr6 Cd8 Ga4'
_cell_volume   508.92340807
_cell_formula_units_Z   2
loop_
 _symmetry_equiv_pos_site_id
 _symmetry_equiv_pos_as_xyz
  1  'x, y, z'
loop_
 _atom_site_type_symbol
 _atom_site_label
 _atom_site_symmetry_multiplicity
 _atom_site_fract_x
 _atom_site_fract_y
 _atom_site_fract_z
 _atom_site_occupancy
  Sr  Sr0  1  0.55613100  0.70740800  0.90485300  1
  Sr  Sr1  1  0.21890800  0.70437700  0.23343900  1
  Sr  Sr2  1  0.88738000  0.70615800  0.56860200  1
  Sr  Sr3  1  0.77953700  0.29387700  0.76519700  1
  Sr  Sr4  1  0.44477100  0.29263900  0.09690400  1
  Sr  Sr5  1  0.11297400  0.29530000  0.43064900  1
  Cd  Cd6  1  0.79906400  0.72544300  0.37268300  1
  Cd  Cd7  1  0.46640200  0.72550800  0.70729600  1
  Cd  Cd8  1  0.92125300  0.10844900  0.23405800  1
  Cd  Cd9  1  0.58820000  0.10868600  0.56771300  1
  Cd  Cd10  1  0.25427900  0.10385100  0.90470700  1
  Cd  Cd11  1  0.53601400  0.27365700  0.29837000  1
  Cd  Cd12  1  0.20246000  0.27283300  0.63208700  1
  Cd  Cd13  1  0.87562700  0.28528900  0.96596400  1
  Ga  Ga14  1  0.73706200  0.88281100  0.09131200  1
  Ga  Ga15  1  0.40928200  0.89210700  0.42645700  1
  Ga  Ga16  1  0.07570500  0.89091000  0.76050000  1
  Ga  Ga17  1  0.13495200  0.73069600  0.03920700  1
