# generated using pymatgen
data_SrCa3La2(SbO6)2
_symmetry_space_group_name_H-M   'P 1'
_cell_length_a   5.78226169
_cell_length_b   5.94791799
_cell_length_c   8.30025186
_cell_angle_alpha   89.89564507
_cell_angle_beta   90.17671105
_cell_angle_gamma   89.81841121
_symmetry_Int_Tables_number   1
_chemical_formula_structural   SrCa3La2(SbO6)2
_chemical_formula_sum   'Sr1 Ca3 La2 Sb2 O12'
_cell_volume   285.46246414
_cell_formula_units_Z   1
loop_
 _symmetry_equiv_pos_site_id
 _symmetry_equiv_pos_as_xyz
  1  'x, y, z'
loop_
 _atom_site_type_symbol
 _atom_site_label
 _atom_site_symmetry_multiplicity
 _atom_site_fract_x
 _atom_site_fract_y
 _atom_site_fract_z
 _atom_site_occupancy
  Sr  Sr0  1  0.48766100  0.54773800  0.25118800  1
  Ca  Ca1  1  0.99130800  0.95298200  0.75288400  1
  Ca  Ca2  1  0.00058300  0.50338700  0.50165600  1
  Ca  Ca3  1  0.50093800  0.99531900  0.99768800  1
  La  La4  1  0.51226700  0.44598700  0.75028900  1
  La  La5  1  0.01408000  0.05186900  0.24980000  1
  Sb  Sb6  1  0.49936600  0.99919800  0.50333700  1
  Sb  Sb7  1  0.00045500  0.50044800  0.99726400  1
  O  O8  1  0.16844300  0.78846500  0.05657500  1
  O  O9  1  0.66951800  0.71156700  0.55942100  1
  O  O10  1  0.82230400  0.21754500  0.93828200  1
  O  O11  1  0.31805600  0.27930200  0.44732200  1
  O  O12  1  0.61122300  0.97064700  0.27119200  1
  O  O13  1  0.11079100  0.54722000  0.76846400  1
  O  O14  1  0.38975900  0.04023300  0.73213500  1
  O  O15  1  0.90947800  0.45632500  0.23044800  1
  O  O16  1  0.21518800  0.82120000  0.44468600  1
  O  O17  1  0.71507200  0.67804200  0.94406900  1
  O  O18  1  0.78217700  0.18129500  0.55813000  1
  O  O19  1  0.28133300  0.31123000  0.04517100  1
