# generated using pymatgen
data_Sr3CaSn16
_symmetry_space_group_name_H-M   'P 1'
_cell_length_a   11.45502712
_cell_length_b   11.45502712
_cell_length_c   11.45502712
_cell_angle_alpha   156.01950329
_cell_angle_beta   103.85349147
_cell_angle_gamma   81.19199736
_symmetry_Int_Tables_number   1
_chemical_formula_structural   Sr3CaSn16
_chemical_formula_sum   'Sr3 Ca1 Sn16'
_cell_volume   584.86293000
_cell_formula_units_Z   1
loop_
 _symmetry_equiv_pos_site_id
 _symmetry_equiv_pos_as_xyz
  1  'x, y, z'
loop_
 _atom_site_type_symbol
 _atom_site_label
 _atom_site_symmetry_multiplicity
 _atom_site_fract_x
 _atom_site_fract_y
 _atom_site_fract_z
 _atom_site_occupancy
  Sr  Sr0  1  0.11189400  0.61189400  0.50000000  1
  Sr  Sr1  1  0.13761400  0.38790500  0.74970900  1
  Sr  Sr2  1  0.63819600  0.38790500  0.25029100  1
  Ca  Ca3  1  0.61210800  0.61210800  0.00000000  1
  Sn  Sn4  1  0.90999500  0.40999500  0.50000000  1
  Sn  Sn5  1  0.41154000  0.41154000  0.00000000  1
  Sn  Sn6  1  0.83872700  0.59010400  0.24862300  1
  Sn  Sn7  1  0.34148200  0.59010400  0.75137700  1
  Sn  Sn8  1  0.90708600  0.80298800  0.10409800  1
  Sn  Sn9  1  0.40879400  0.80410100  0.60469300  1
  Sn  Sn10  1  0.83835000  0.19487700  0.64347300  1
  Sn  Sn11  1  0.34176000  0.19595400  0.14580600  1
  Sn  Sn12  1  0.69888900  0.80298800  0.89590200  1
  Sn  Sn13  1  0.19940800  0.80410100  0.39530700  1
  Sn  Sn14  1  0.05014800  0.19595400  0.85419400  1
  Sn  Sn15  1  0.55140500  0.19487700  0.35652700  1
  Sn  Sn16  1  0.62473800  0.00134600  0.62339200  1
  Sn  Sn17  1  0.12480600  0.99995600  0.12485000  1
  Sn  Sn18  1  0.87510600  0.99995600  0.87515000  1
  Sn  Sn19  1  0.37795500  0.00134600  0.37660800  1
