# generated using pymatgen
data_Sr8Fe2Ru2O13
_symmetry_space_group_name_H-M   'P 1'
_cell_length_a   8.75735589
_cell_length_b   8.75735589
_cell_length_c   5.44757968
_cell_angle_alpha   73.70093340
_cell_angle_beta   73.70093340
_cell_angle_gamma   94.98851451
_symmetry_Int_Tables_number   1
_chemical_formula_structural   Sr8Fe2Ru2O13
_chemical_formula_sum   'Sr8 Fe2 Ru2 O13'
_cell_volume   378.59668965
_cell_formula_units_Z   1
loop_
 _symmetry_equiv_pos_site_id
 _symmetry_equiv_pos_as_xyz
  1  'x, y, z'
loop_
 _atom_site_type_symbol
 _atom_site_label
 _atom_site_symmetry_multiplicity
 _atom_site_fract_x
 _atom_site_fract_y
 _atom_site_fract_z
 _atom_site_occupancy
  Sr  Sr0  1  0.77642400  0.47412400  0.63052500  1
  Sr  Sr1  1  0.01963500  0.73197600  0.86909900  1
  Sr  Sr2  1  0.26802400  0.98036500  0.13090100  1
  Sr  Sr3  1  0.52587600  0.22357600  0.36947500  1
  Sr  Sr4  1  0.73197600  0.01963500  0.86909900  1
  Sr  Sr5  1  0.98036500  0.26802400  0.13090100  1
  Sr  Sr6  1  0.22357600  0.52587600  0.36947500  1
  Sr  Sr7  1  0.47412400  0.77642400  0.63052500  1
  Fe  Fe8  1  0.87318700  0.87318700  0.37541300  1
  Fe  Fe9  1  0.12681300  0.12681300  0.62458700  1
  Ru  Ru10  1  0.37980500  0.37980500  0.86415000  1
  Ru  Ru11  1  0.62019500  0.62019500  0.13585000  1
  O  O12  1  0.98071500  0.29515300  0.63849900  1
  O  O13  1  0.21579100  0.53607100  0.87450900  1
  O  O14  1  0.46392900  0.78420900  0.12549100  1
  O  O15  1  0.70484700  0.01928500  0.36150100  1
  O  O16  1  0.53607100  0.21579100  0.87450900  1
  O  O17  1  0.78420900  0.46392900  0.12549100  1
  O  O18  1  0.01928500  0.70484700  0.36150100  1
  O  O19  1  0.29515300  0.98071500  0.63849900  1
  O  O20  1  0.50000000  0.50000000  0.50000000  1
  O  O21  1  0.73620100  0.73620100  0.74749100  1
  O  O22  1  0.00000000  0.00000000  0.00000000  1
  O  O23  1  0.26379900  0.26379900  0.25250900  1
  O  O24  1  0.00000000  0.00000000  0.50000000  1
