# generated using pymatgen
data_Sr6Fe2Ru2O11
_symmetry_space_group_name_H-M   'P 1'
_cell_length_a   10.69263489
_cell_length_b   10.69263489
_cell_length_c   5.51174643
_cell_angle_alpha   88.96938076
_cell_angle_beta   88.96938076
_cell_angle_gamma   150.13660716
_symmetry_Int_Tables_number   1
_chemical_formula_structural   Sr6Fe2Ru2O11
_chemical_formula_sum   'Sr6 Fe2 Ru2 O11'
_cell_volume   313.01818066
_cell_formula_units_Z   1
loop_
 _symmetry_equiv_pos_site_id
 _symmetry_equiv_pos_as_xyz
  1  'x, y, z'
loop_
 _atom_site_type_symbol
 _atom_site_label
 _atom_site_symmetry_multiplicity
 _atom_site_fract_x
 _atom_site_fract_y
 _atom_site_fract_z
 _atom_site_occupancy
  Sr  Sr0  1  0.99044300  0.48330900  0.23740700  1
  Sr  Sr1  1  0.51669100  0.00955700  0.76259300  1
  Sr  Sr2  1  0.68989300  0.82151800  0.75542600  1
  Sr  Sr3  1  0.17848200  0.31010700  0.24457400  1
  Sr  Sr4  1  0.80702800  0.67874300  0.25105700  1
  Sr  Sr5  1  0.32125700  0.19297200  0.74894300  1
  Fe  Fe6  1  0.10187600  0.40373300  0.74723900  1
  Fe  Fe7  1  0.59626700  0.89812400  0.25276100  1
  Ru  Ru8  1  0.39164700  0.08508500  0.25893500  1
  Ru  Ru9  1  0.91491500  0.60835300  0.74106500  1
  O  O10  1  0.65242600  0.34757400  0.50000000  1
  O  O11  1  0.15371100  0.84628900  0.00000000  1
  O  O12  1  0.84516600  0.15483400  0.50000000  1
  O  O13  1  0.34511100  0.65488900  0.00000000  1
  O  O14  1  0.80876600  0.69613400  0.75740000  1
  O  O15  1  0.30386600  0.19123400  0.24260000  1
  O  O16  1  0.66919100  0.77839600  0.27628300  1
  O  O17  1  0.22160400  0.33080900  0.72371700  1
  O  O18  1  0.46766600  0.97126000  0.28159300  1
  O  O19  1  0.02874000  0.53233400  0.71840700  1
  O  O20  1  0.84245400  0.15754600  0.00000000  1
