# generated using pymatgen
data_Zr2Sb3Pd
_symmetry_space_group_name_H-M   'P 1'
_cell_length_a   3.96126000
_cell_length_b   3.96126000
_cell_length_c   8.73891700
_cell_angle_alpha   90.00000000
_cell_angle_beta   90.00000000
_cell_angle_gamma   90.00000000
_symmetry_Int_Tables_number   1
_chemical_formula_structural   Zr2Sb3Pd
_chemical_formula_sum   'Zr2 Sb3 Pd1'
_cell_volume   137.12742210
_cell_formula_units_Z   1
loop_
 _symmetry_equiv_pos_site_id
 _symmetry_equiv_pos_as_xyz
  1  'x, y, z'
loop_
 _atom_site_type_symbol
 _atom_site_label
 _atom_site_symmetry_multiplicity
 _atom_site_fract_x
 _atom_site_fract_y
 _atom_site_fract_z
 _atom_site_occupancy
  Zr  Zr0  1  0.50000000  0.00000000  0.73919300  1
  Zr  Zr1  1  0.00000000  0.50000000  0.26080700  1
  Sb  Sb2  1  0.50000000  0.00000000  0.38377400  1
  Sb  Sb3  1  0.00000000  0.50000000  0.61622600  1
  Sb  Sb4  1  0.00000000  0.00000000  0.00000000  1
  Pd  Pd5  1  0.50000000  0.50000000  0.00000000  1
