# generated using pymatgen
data_Sr4Y2Fe2Cu4O15
_symmetry_space_group_name_H-M   'P 1'
_cell_length_a   11.98039279
_cell_length_b   11.96590983
_cell_length_c   5.47528729
_cell_angle_alpha   76.93006679
_cell_angle_beta   76.63498426
_cell_angle_gamma   26.43494895
_symmetry_Int_Tables_number   1
_chemical_formula_structural   Sr4Y2Fe2Cu4O15
_chemical_formula_sum   'Sr4 Y2 Fe2 Cu4 O15'
_cell_volume   339.63425667
_cell_formula_units_Z   1
loop_
 _symmetry_equiv_pos_site_id
 _symmetry_equiv_pos_as_xyz
  1  'x, y, z'
loop_
 _atom_site_type_symbol
 _atom_site_label
 _atom_site_symmetry_multiplicity
 _atom_site_fract_x
 _atom_site_fract_y
 _atom_site_fract_z
 _atom_site_occupancy
  Sr  Sr0  1  0.66663200  0.15384200  0.84615800  1
  Sr  Sr1  1  0.15384200  0.66663200  0.33336800  1
  Sr  Sr2  1  0.33336800  0.84615800  0.15384200  1
  Sr  Sr3  1  0.84615800  0.33336800  0.66663200  1
  Y  Y4  1  0.50000000  0.00000000  0.00000000  1
  Y  Y5  1  0.00000000  0.50000000  0.50000000  1
  Fe  Fe6  1  0.24313200  0.75686800  0.75686800  1
  Fe  Fe7  1  0.75686800  0.24313200  0.24313200  1
  Cu  Cu8  1  0.57207700  0.07785700  0.42792300  1
  Cu  Cu9  1  0.07785700  0.57207700  0.92214300  1
  Cu  Cu10  1  0.42792300  0.92214300  0.57207700  1
  Cu  Cu11  1  0.92214300  0.42792300  0.07785700  1
  O  O12  1  0.81972500  0.81972500  0.18027500  1
  O  O13  1  0.30704400  0.30704400  0.69295600  1
  O  O14  1  0.81415000  0.81415000  0.68585000  1
  O  O15  1  0.31415000  0.31415000  0.18585000  1
  O  O16  1  0.69295600  0.69295600  0.30704400  1
  O  O17  1  0.18027500  0.18027500  0.81972500  1
  O  O18  1  0.68585000  0.68585000  0.81415000  1
  O  O19  1  0.18585000  0.18585000  0.31415000  1
  O  O20  1  0.21108800  0.62550300  0.78891200  1
  O  O21  1  0.62550300  0.21108800  0.37449700  1
  O  O22  1  0.78891200  0.37449700  0.21108800  1
  O  O23  1  0.37449700  0.78891200  0.62550300  1
  O  O24  1  0.00000000  0.00000000  0.50000000  1
  O  O25  1  0.50000000  0.50000000  0.00000000  1
  O  O26  1  0.00000000  0.00000000  0.00000000  1
