# generated using pymatgen
data_Sr3ZrTi2O9
_symmetry_space_group_name_H-M   'P 1'
_cell_length_a   5.69311815
_cell_length_b   5.69311815
_cell_length_c   12.67097733
_cell_angle_alpha   77.15796951
_cell_angle_beta   77.15796951
_cell_angle_gamma   90.50731218
_symmetry_Int_Tables_number   1
_chemical_formula_structural   Sr3ZrTi2O9
_chemical_formula_sum   'Sr6 Zr2 Ti4 O18'
_cell_volume   389.66439644
_cell_formula_units_Z   2
loop_
 _symmetry_equiv_pos_site_id
 _symmetry_equiv_pos_as_xyz
  1  'x, y, z'
loop_
 _atom_site_type_symbol
 _atom_site_label
 _atom_site_symmetry_multiplicity
 _atom_site_fract_x
 _atom_site_fract_y
 _atom_site_fract_z
 _atom_site_occupancy
  Sr  Sr0  1  0.42054500  0.92076700  0.15961900  1
  Sr  Sr1  1  0.07923300  0.57945500  0.84038100  1
  Sr  Sr2  1  0.75051100  0.24948900  0.50000000  1
  Sr  Sr3  1  0.57945500  0.07923300  0.84038100  1
  Sr  Sr4  1  0.24948900  0.75051100  0.50000000  1
  Sr  Sr5  1  0.92076700  0.42054500  0.15961900  1
  Zr  Zr6  1  0.33381300  0.33381300  0.33352700  1
  Zr  Zr7  1  0.66618700  0.66618700  0.66647300  1
  Ti  Ti8  1  0.50000000  0.50000000  0.00000000  1
  Ti  Ti9  1  0.83506300  0.83506300  0.32832700  1
  Ti  Ti10  1  0.16493700  0.16493700  0.67167300  1
  Ti  Ti11  1  0.00000000  0.00000000  0.00000000  1
  O  O12  1  0.61217800  0.61217800  0.84073000  1
  O  O13  1  0.28364500  0.28364500  0.50606900  1
  O  O14  1  0.94956800  0.94956800  0.16275700  1
  O  O15  1  0.38782200  0.38782200  0.15927000  1
  O  O16  1  0.05043200  0.05043200  0.83724300  1
  O  O17  1  0.71635500  0.71635500  0.49393100  1
  O  O18  1  0.25907100  0.25907100  0.98091900  1
  O  O19  1  0.93551600  0.93551600  0.64538100  1
  O  O20  1  0.60521900  0.60521900  0.30599200  1
  O  O21  1  0.74092900  0.74092900  0.01908100  1
  O  O22  1  0.39478100  0.39478100  0.69400800  1
  O  O23  1  0.06448400  0.06448400  0.35461900  1
  O  O24  1  0.24959300  0.75040700  0.00000000  1
  O  O25  1  0.59352000  0.07730600  0.33064300  1
  O  O26  1  0.92269400  0.40648000  0.66935700  1
  O  O27  1  0.75040700  0.24959300  0.00000000  1
  O  O28  1  0.07730600  0.59352000  0.33064300  1
  O  O29  1  0.40648000  0.92269400  0.66935700  1
