# generated using pymatgen
data_Sr4Fe2MoWO12
_symmetry_space_group_name_H-M   'P 1'
_cell_length_a   5.63622700
_cell_length_b   5.68271420
_cell_length_c   9.83466133
_cell_angle_alpha   89.21588698
_cell_angle_beta   106.58146921
_cell_angle_gamma   119.51227600
_symmetry_Int_Tables_number   1
_chemical_formula_structural   Sr4Fe2MoWO12
_chemical_formula_sum   'Sr4 Fe2 Mo1 W1 O12'
_cell_volume   259.66653108
_cell_formula_units_Z   1
loop_
 _symmetry_equiv_pos_site_id
 _symmetry_equiv_pos_as_xyz
  1  'x, y, z'
loop_
 _atom_site_type_symbol
 _atom_site_label
 _atom_site_symmetry_multiplicity
 _atom_site_fract_x
 _atom_site_fract_y
 _atom_site_fract_z
 _atom_site_occupancy
  Sr  Sr0  1  0.75446000  0.62649100  0.38508100  1
  Sr  Sr1  1  0.74583300  0.12519700  0.86245800  1
  Sr  Sr2  1  0.25416700  0.87480300  0.13754200  1
  Sr  Sr3  1  0.24554000  0.37350900  0.61491900  1
  Fe  Fe4  1  0.00061000  0.25174000  0.25355800  1
  Fe  Fe5  1  0.99939000  0.74826000  0.74644200  1
  Mo  Mo6  1  0.50000000  0.00000000  0.50000000  1
  W  W7  1  0.50000000  0.50000000  0.00000000  1
  O  O8  1  0.74114900  0.85940700  0.11925100  1
  O  O9  1  0.75761400  0.38555300  0.63326100  1
  O  O10  1  0.24238600  0.61444700  0.36673900  1
  O  O11  1  0.25885100  0.14059300  0.88074900  1
  O  O12  1  0.20517400  0.09680700  0.38615900  1
  O  O13  1  0.22805200  0.61211000  0.90014600  1
  O  O14  1  0.79482600  0.90319300  0.61384100  1
  O  O15  1  0.77194800  0.38789000  0.09985400  1
  O  O16  1  0.71205500  0.64207700  0.86394900  1
  O  O17  1  0.71229400  0.13997200  0.35348400  1
  O  O18  1  0.28770600  0.86002800  0.64651600  1
  O  O19  1  0.28794500  0.35792300  0.13605100  1
