# generated using pymatgen
data_SrLa2(FeO3)3
_symmetry_space_group_name_H-M   'P 1'
_cell_length_a   5.55736800
_cell_length_b   9.67424100
_cell_length_c   13.70993268
_cell_angle_alpha   89.55977302
_cell_angle_beta   90.00000000
_cell_angle_gamma   90.00000000
_symmetry_Int_Tables_number   1
_chemical_formula_structural   SrLa2(FeO3)3
_chemical_formula_sum   'Sr4 La8 Fe12 O36'
_cell_volume   737.06970469
_cell_formula_units_Z   4
loop_
 _symmetry_equiv_pos_site_id
 _symmetry_equiv_pos_as_xyz
  1  'x, y, z'
loop_
 _atom_site_type_symbol
 _atom_site_label
 _atom_site_symmetry_multiplicity
 _atom_site_fract_x
 _atom_site_fract_y
 _atom_site_fract_z
 _atom_site_occupancy
  Sr  Sr0  1  0.49419200  0.49830100  0.75141500  1
  Sr  Sr1  1  0.99419200  0.00169900  0.24858500  1
  Sr  Sr2  1  0.50580800  0.50169900  0.24858500  1
  Sr  Sr3  1  0.00580800  0.99830100  0.75141500  1
  La  La4  1  0.49971400  0.17010300  0.41926700  1
  La  La5  1  0.49578200  0.83715400  0.08505000  1
  La  La6  1  0.99578200  0.66284600  0.91495000  1
  La  La7  1  0.99971400  0.32989700  0.58073300  1
  La  La8  1  0.50028600  0.82989700  0.58073300  1
  La  La9  1  0.50421800  0.16284600  0.91495000  1
  La  La10  1  0.00028600  0.67010300  0.41926700  1
  La  La11  1  0.00421800  0.33715400  0.08505000  1
  Fe  Fe12  1  0.50000000  0.50000000  0.00000000  1
  Fe  Fe13  1  0.49975300  0.16613200  0.66900000  1
  Fe  Fe14  1  0.50024700  0.83386800  0.33100000  1
  Fe  Fe15  1  0.00000000  0.00000000  0.00000000  1
  Fe  Fe16  1  0.00024700  0.66613200  0.66900000  1
  Fe  Fe17  1  0.99975300  0.33386800  0.33100000  1
  Fe  Fe18  1  0.49968400  0.83332900  0.83202300  1
  Fe  Fe19  1  0.50000000  0.50000000  0.50000000  1
  Fe  Fe20  1  0.50031600  0.16667100  0.16797700  1
  Fe  Fe21  1  0.99968400  0.66667100  0.16797700  1
  Fe  Fe22  1  0.00031600  0.33332900  0.83202300  1
  Fe  Fe23  1  0.00000000  0.00000000  0.50000000  1
  O  O24  1  0.73825400  0.77111000  0.23286200  1
  O  O25  1  0.74766800  0.44110500  0.90405400  1
  O  O26  1  0.73820500  0.10570700  0.56714400  1
  O  O27  1  0.24766800  0.05889500  0.09594600  1
  O  O28  1  0.23825400  0.72889000  0.76713800  1
  O  O29  1  0.23820500  0.39429300  0.43285600  1
  O  O30  1  0.26443800  0.94463800  0.91094700  1
  O  O31  1  0.25676900  0.61273300  0.57154500  1
  O  O32  1  0.25445200  0.27680200  0.23780000  1
  O  O33  1  0.75445200  0.22319800  0.76220000  1
  O  O34  1  0.75676900  0.88726700  0.42845500  1
  O  O35  1  0.76443800  0.55536200  0.08905300  1
  O  O36  1  0.26174600  0.22889000  0.76713800  1
  O  O37  1  0.26179500  0.89429300  0.43285600  1
  O  O38  1  0.25233200  0.55889500  0.09594600  1
  O  O39  1  0.75233200  0.94110500  0.90405400  1
  O  O40  1  0.76179500  0.60570700  0.56714400  1
  O  O41  1  0.76174600  0.27111000  0.23286200  1
  O  O42  1  0.73556200  0.05536200  0.08905300  1
  O  O43  1  0.74554800  0.72319800  0.76220000  1
  O  O44  1  0.74323100  0.38726700  0.42845500  1
  O  O45  1  0.24554800  0.77680200  0.23780000  1
  O  O46  1  0.23556200  0.44463800  0.91094700  1
  O  O47  1  0.24323100  0.11273300  0.57154500  1
  O  O48  1  0.50455400  0.02604700  0.27592700  1
  O  O49  1  0.49544700  0.69263700  0.94259000  1
  O  O50  1  0.49607700  0.35200600  0.60136200  1
  O  O51  1  0.99544700  0.80736300  0.05741000  1
  O  O52  1  0.00455400  0.47395300  0.72407300  1
  O  O53  1  0.99607700  0.14799400  0.39863800  1
  O  O54  1  0.49544600  0.97395300  0.72407300  1
  O  O55  1  0.50392300  0.64799400  0.39863800  1
  O  O56  1  0.50455300  0.30736300  0.05741000  1
  O  O57  1  0.00455300  0.19263700  0.94259000  1
  O  O58  1  0.00392300  0.85200600  0.60136200  1
  O  O59  1  0.99544600  0.52604700  0.27592700  1
