# generated using pymatgen
data_Sr3Ti(GaO2)10
_symmetry_space_group_name_H-M   'P 1'
_cell_length_a   9.83339295
_cell_length_b   9.83339295
_cell_length_c   5.15408770
_cell_angle_alpha   75.16420288
_cell_angle_beta   75.16420288
_cell_angle_gamma   73.92289448
_symmetry_Int_Tables_number   1
_chemical_formula_structural   Sr3Ti(GaO2)10
_chemical_formula_sum   'Sr3 Ti1 Ga10 O20'
_cell_volume   453.63277915
_cell_formula_units_Z   1
loop_
 _symmetry_equiv_pos_site_id
 _symmetry_equiv_pos_as_xyz
  1  'x, y, z'
loop_
 _atom_site_type_symbol
 _atom_site_label
 _atom_site_symmetry_multiplicity
 _atom_site_fract_x
 _atom_site_fract_y
 _atom_site_fract_z
 _atom_site_occupancy
  Sr  Sr0  1  0.27758000  0.27758000  0.71329400  1
  Sr  Sr1  1  0.72242000  0.72242000  0.28670600  1
  Sr  Sr2  1  0.00000000  0.00000000  0.00000000  1
  Ti  Ti3  1  0.50000000  0.50000000  0.00000000  1
  Ga  Ga4  1  0.00729900  0.27810800  0.34579300  1
  Ga  Ga5  1  0.27810800  0.00729900  0.34579300  1
  Ga  Ga6  1  0.99270100  0.72189200  0.65420700  1
  Ga  Ga7  1  0.72189200  0.99270100  0.65420700  1
  Ga  Ga8  1  0.63503500  0.36496500  0.50000000  1
  Ga  Ga9  1  0.36496500  0.63503500  0.50000000  1
  Ga  Ga10  1  0.85662800  0.42302900  0.83413000  1
  Ga  Ga11  1  0.42302900  0.85662800  0.83413000  1
  Ga  Ga12  1  0.14337200  0.57697100  0.16587000  1
  Ga  Ga13  1  0.57697100  0.14337200  0.16587000  1
  O  O14  1  0.90653800  0.90653800  0.49619600  1
  O  O15  1  0.09346200  0.09346200  0.50380400  1
  O  O16  1  0.30753000  0.54290000  0.89294300  1
  O  O17  1  0.54290000  0.30753000  0.89294300  1
  O  O18  1  0.69247000  0.45710000  0.10705700  1
  O  O19  1  0.45710000  0.69247000  0.10705700  1
  O  O20  1  0.82816000  0.33358700  0.57496100  1
  O  O21  1  0.33358700  0.82816000  0.57496100  1
  O  O22  1  0.17184000  0.66641300  0.42503900  1
  O  O23  1  0.66641300  0.17184000  0.42503900  1
  O  O24  1  0.60537800  0.87538200  0.65102400  1
  O  O25  1  0.87538200  0.60537800  0.65102400  1
  O  O26  1  0.39462200  0.12461800  0.34897600  1
  O  O27  1  0.12461800  0.39462200  0.34897600  1
  O  O28  1  0.56663900  0.56663900  0.61110200  1
  O  O29  1  0.43336100  0.43336100  0.38889800  1
  O  O30  1  0.00201400  0.28067400  0.98541700  1
  O  O31  1  0.28067400  0.00201400  0.98541700  1
  O  O32  1  0.99798600  0.71932600  0.01458300  1
  O  O33  1  0.71932600  0.99798600  0.01458300  1
