# generated using pymatgen
data_Sr8SnPb3O16
_symmetry_space_group_name_H-M   'P 1'
_cell_length_a   6.02654100
_cell_length_b   6.02654100
_cell_length_c   12.71750000
_cell_angle_alpha   90.00000000
_cell_angle_beta   90.00000000
_cell_angle_gamma   90.00000000
_symmetry_Int_Tables_number   1
_chemical_formula_structural   Sr8SnPb3O16
_chemical_formula_sum   'Sr8 Sn1 Pb3 O16'
_cell_volume   461.88938053
_cell_formula_units_Z   1
loop_
 _symmetry_equiv_pos_site_id
 _symmetry_equiv_pos_as_xyz
  1  'x, y, z'
loop_
 _atom_site_type_symbol
 _atom_site_label
 _atom_site_symmetry_multiplicity
 _atom_site_fract_x
 _atom_site_fract_y
 _atom_site_fract_z
 _atom_site_occupancy
  Sr  Sr0  1  0.50000000  0.00000000  0.85754000  1
  Sr  Sr1  1  0.00000000  0.50000000  0.85754000  1
  Sr  Sr2  1  0.50000000  0.00000000  0.14246000  1
  Sr  Sr3  1  0.00000000  0.50000000  0.14246000  1
  Sr  Sr4  1  0.00000000  0.00000000  0.64843600  1
  Sr  Sr5  1  0.50000000  0.50000000  0.64498100  1
  Sr  Sr6  1  0.00000000  0.00000000  0.35156400  1
  Sr  Sr7  1  0.50000000  0.50000000  0.35501900  1
  Sn  Sn8  1  0.00000000  0.00000000  0.00000000  1
  Pb  Pb9  1  0.50000000  0.00000000  0.50000000  1
  Pb  Pb10  1  0.00000000  0.50000000  0.50000000  1
  Pb  Pb11  1  0.50000000  0.50000000  0.00000000  1
  O  O12  1  0.00000000  0.00000000  0.83605400  1
  O  O13  1  0.50000000  0.50000000  0.83119900  1
  O  O14  1  0.00000000  0.00000000  0.16394600  1
  O  O15  1  0.50000000  0.50000000  0.16880100  1
  O  O16  1  0.50000000  0.00000000  0.67138900  1
  O  O17  1  0.00000000  0.50000000  0.67138900  1
  O  O18  1  0.50000000  0.00000000  0.32861100  1
  O  O19  1  0.00000000  0.50000000  0.32861100  1
  O  O20  1  0.24388200  0.75611800  0.00000000  1
  O  O21  1  0.75611800  0.24388200  0.00000000  1
  O  O22  1  0.24388200  0.24388200  0.00000000  1
  O  O23  1  0.75611800  0.75611800  0.00000000  1
  O  O24  1  0.25046000  0.25046000  0.50000000  1
  O  O25  1  0.74954000  0.74954000  0.50000000  1
  O  O26  1  0.25046000  0.74954000  0.50000000  1
  O  O27  1  0.74954000  0.25046000  0.50000000  1
