# generated using pymatgen
data_Sr7Mn4O15
_symmetry_space_group_name_H-M   'P 1'
_cell_length_a   9.77042800
_cell_length_b   6.89448500
_cell_length_c   10.58891357
_cell_angle_alpha   88.39997737
_cell_angle_beta   90.00000000
_cell_angle_gamma   90.00000000
_symmetry_Int_Tables_number   1
_chemical_formula_structural   Sr7Mn4O15
_chemical_formula_sum   'Sr14 Mn8 O30'
_cell_volume   713.01302059
_cell_formula_units_Z   2
loop_
 _symmetry_equiv_pos_site_id
 _symmetry_equiv_pos_as_xyz
  1  'x, y, z'
loop_
 _atom_site_type_symbol
 _atom_site_label
 _atom_site_symmetry_multiplicity
 _atom_site_fract_x
 _atom_site_fract_y
 _atom_site_fract_z
 _atom_site_occupancy
  Sr  Sr0  1  0.74919800  0.82084500  0.33383600  1
  Sr  Sr1  1  0.25178800  0.17753900  0.16757500  1
  Sr  Sr2  1  0.74821200  0.17753900  0.66757500  1
  Sr  Sr3  1  0.25080200  0.82084500  0.83383600  1
  Sr  Sr4  1  0.93681500  0.00112200  0.96390200  1
  Sr  Sr5  1  0.43514100  0.99773200  0.53557600  1
  Sr  Sr6  1  0.56485900  0.99773200  0.03557600  1
  Sr  Sr7  1  0.06318500  0.00112200  0.46390200  1
  Sr  Sr8  1  0.75594100  0.50074400  0.00498400  1
  Sr  Sr9  1  0.24405900  0.50074400  0.50498400  1
  Sr  Sr10  1  0.89886900  0.64826400  0.69586700  1
  Sr  Sr11  1  0.40235700  0.35211000  0.80398300  1
  Sr  Sr12  1  0.59764300  0.35211000  0.30398300  1
  Sr  Sr13  1  0.10113100  0.64826400  0.19586700  1
  Mn  Mn14  1  0.91966700  0.21917500  0.21906100  1
  Mn  Mn15  1  0.41655800  0.77942200  0.27951300  1
  Mn  Mn16  1  0.58344200  0.77942200  0.77951300  1
  Mn  Mn17  1  0.08033300  0.21917500  0.71906100  1
  Mn  Mn18  1  0.91654700  0.42371800  0.42399400  1
  Mn  Mn19  1  0.41799400  0.57580200  0.07401700  1
  Mn  Mn20  1  0.58200600  0.57580200  0.57401700  1
  Mn  Mn21  1  0.08345300  0.42371800  0.92399400  1
  O  O22  1  0.96968300  0.31733700  0.58336400  1
  O  O23  1  0.47517100  0.68436300  0.91615800  1
  O  O24  1  0.52482900  0.68436300  0.41615800  1
  O  O25  1  0.03031700  0.31733700  0.08336400  1
  O  O26  1  0.99632300  0.66282600  0.45324500  1
  O  O27  1  0.49728000  0.33579600  0.04697000  1
  O  O28  1  0.50272000  0.33579600  0.54697000  1
  O  O29  1  0.00367700  0.66282600  0.95324500  1
  O  O30  1  0.83295700  0.16005600  0.38125400  1
  O  O31  1  0.33217700  0.84029200  0.11611100  1
  O  O32  1  0.66782300  0.84029200  0.61611100  1
  O  O33  1  0.16704300  0.16005600  0.88125400  1
  O  O34  1  0.92472200  0.32059800  0.83730600  1
  O  O35  1  0.42507800  0.67857500  0.66316700  1
  O  O36  1  0.57492200  0.67857500  0.16316700  1
  O  O37  1  0.07527800  0.32059800  0.33730600  1
  O  O38  1  0.00036200  0.97399000  0.20777300  1
  O  O39  1  0.49772400  0.02553700  0.29101600  1
  O  O40  1  0.50227600  0.02553700  0.79101600  1
  O  O41  1  0.99963800  0.97399000  0.70777300  1
  O  O42  1  0.85094400  0.49244700  0.25181000  1
  O  O43  1  0.34836000  0.50739600  0.24288700  1
  O  O44  1  0.65164000  0.50739600  0.74288700  1
  O  O45  1  0.14905600  0.49244700  0.75181000  1
  O  O46  1  0.76950400  0.15835600  0.12010600  1
  O  O47  1  0.26661600  0.83940400  0.37873800  1
  O  O48  1  0.73338400  0.83940400  0.87873800  1
  O  O49  1  0.23049600  0.15835600  0.62010600  1
  O  O50  1  0.74747700  0.50355200  0.49378800  1
  O  O51  1  0.25252300  0.50355200  0.99378800  1
