# generated using pymatgen
data_SrCr9Ga3O19
_symmetry_space_group_name_H-M   'P 1'
_cell_length_a   5.91251818
_cell_length_b   5.91251818
_cell_length_c   23.04082500
_cell_angle_alpha   90.00000000
_cell_angle_beta   90.00000000
_cell_angle_gamma   120.00000205
_symmetry_Int_Tables_number   1
_chemical_formula_structural   SrCr9Ga3O19
_chemical_formula_sum   'Sr2 Cr18 Ga6 O38'
_cell_volume   697.54724350
_cell_formula_units_Z   2
loop_
 _symmetry_equiv_pos_site_id
 _symmetry_equiv_pos_as_xyz
  1  'x, y, z'
loop_
 _atom_site_type_symbol
 _atom_site_label
 _atom_site_symmetry_multiplicity
 _atom_site_fract_x
 _atom_site_fract_y
 _atom_site_fract_z
 _atom_site_occupancy
  Sr  Sr0  1  0.66666700  0.33333300  0.24940600  1
  Sr  Sr1  1  0.33333300  0.66666700  0.74940600  1
  Cr  Cr2  1  0.83166100  0.66332100  0.39228400  1
  Cr  Cr3  1  0.83166100  0.16833900  0.39228400  1
  Cr  Cr4  1  0.33667900  0.16833900  0.39228400  1
  Cr  Cr5  1  0.16769000  0.33537900  0.60805300  1
  Cr  Cr6  1  0.16769000  0.83231000  0.60805300  1
  Cr  Cr7  1  0.66462100  0.83231000  0.60805300  1
  Cr  Cr8  1  0.16833900  0.33667900  0.89228400  1
  Cr  Cr9  1  0.16833900  0.83166100  0.89228400  1
  Cr  Cr10  1  0.66332100  0.83166100  0.89228400  1
  Cr  Cr11  1  0.83231000  0.66462100  0.10805300  1
  Cr  Cr12  1  0.83231000  0.16769000  0.10805300  1
  Cr  Cr13  1  0.33537900  0.16769000  0.10805300  1
  Cr  Cr14  1  0.66666700  0.33333300  0.69123600  1
  Cr  Cr15  1  0.33333300  0.66666700  0.30877100  1
  Cr  Cr16  1  0.33333300  0.66666700  0.19123600  1
  Cr  Cr17  1  0.66666700  0.33333300  0.80877100  1
  Cr  Cr18  1  0.00000000  0.00000000  0.50006300  1
  Cr  Cr19  1  0.00000000  0.00000000  0.00006300  1
  Ga  Ga20  1  0.66666700  0.33333300  0.52785800  1
  Ga  Ga21  1  0.33333300  0.66666700  0.47265800  1
  Ga  Ga22  1  0.33333300  0.66666700  0.02785800  1
  Ga  Ga23  1  0.66666700  0.33333300  0.97265800  1
  Ga  Ga24  1  0.00000000  0.00000000  0.75430500  1
  Ga  Ga25  1  0.00000000  0.00000000  0.25430500  1
  O  O26  1  0.00000000  0.00000000  0.65153700  1
  O  O27  1  0.00000000  0.00000000  0.34792200  1
  O  O28  1  0.00000000  0.00000000  0.15153700  1
  O  O29  1  0.00000000  0.00000000  0.84792200  1
  O  O30  1  0.66666700  0.33333300  0.44478600  1
  O  O31  1  0.33333300  0.66666700  0.55524700  1
  O  O32  1  0.33333300  0.66666700  0.94478600  1
  O  O33  1  0.66666700  0.33333300  0.05524700  1
  O  O34  1  0.84288900  0.68577700  0.55268400  1
  O  O35  1  0.84288900  0.15711100  0.55268400  1
  O  O36  1  0.31422300  0.15711100  0.55268400  1
  O  O37  1  0.15711000  0.31422100  0.44717700  1
  O  O38  1  0.15711000  0.84289000  0.44717700  1
  O  O39  1  0.68577900  0.84289000  0.44717700  1
  O  O40  1  0.15711100  0.31422300  0.05268400  1
  O  O41  1  0.15711100  0.84288900  0.05268400  1
  O  O42  1  0.68577700  0.84288900  0.05268400  1
  O  O43  1  0.84289000  0.68577900  0.94717700  1
  O  O44  1  0.84289000  0.15711000  0.94717700  1
  O  O45  1  0.31422100  0.15711000  0.94717700  1
  O  O46  1  0.81840600  0.63681300  0.75033700  1
  O  O47  1  0.81840600  0.18159400  0.75033700  1
  O  O48  1  0.36318700  0.18159400  0.75033700  1
  O  O49  1  0.18159400  0.36318700  0.25033700  1
  O  O50  1  0.18159400  0.81840600  0.25033700  1
  O  O51  1  0.63681300  0.81840600  0.25033700  1
  O  O52  1  0.49289600  0.98579200  0.65154000  1
  O  O53  1  0.49289600  0.50710400  0.65154000  1
  O  O54  1  0.01420800  0.50710400  0.65154000  1
  O  O55  1  0.50766000  0.01532100  0.34855700  1
  O  O56  1  0.50766000  0.49234000  0.34855700  1
  O  O57  1  0.98467900  0.49234000  0.34855700  1
  O  O58  1  0.50710400  0.01420800  0.15154000  1
  O  O59  1  0.50710400  0.49289600  0.15154000  1
  O  O60  1  0.98579200  0.49289600  0.15154000  1
  O  O61  1  0.49234000  0.98467900  0.84855700  1
  O  O62  1  0.49234000  0.50766000  0.84855700  1
  O  O63  1  0.01532100  0.50766000  0.84855700  1
