# generated using pymatgen
data_Sr8Mn6Cu4Se4O15
_symmetry_space_group_name_H-M   'P 1'
_cell_length_a   17.96139805
_cell_length_b   17.96139805
_cell_length_c   5.62668111
_cell_angle_alpha   89.91743066
_cell_angle_beta   89.91743066
_cell_angle_gamma   161.97540666
_symmetry_Int_Tables_number   1
_chemical_formula_structural   Sr8Mn6Cu4Se4O15
_chemical_formula_sum   'Sr8 Mn6 Cu4 Se4 O15'
_cell_volume   561.65530905
_cell_formula_units_Z   1
loop_
 _symmetry_equiv_pos_site_id
 _symmetry_equiv_pos_as_xyz
  1  'x, y, z'
loop_
 _atom_site_type_symbol
 _atom_site_label
 _atom_site_symmetry_multiplicity
 _atom_site_fract_x
 _atom_site_fract_y
 _atom_site_fract_z
 _atom_site_occupancy
  Sr  Sr0  1  0.41429600  0.09257500  0.25343700  1
  Sr  Sr1  1  0.90742500  0.58570400  0.74656300  1
  Sr  Sr2  1  0.58570400  0.90742500  0.74656300  1
  Sr  Sr3  1  0.09257500  0.41429600  0.25343700  1
  Sr  Sr4  1  0.31262000  0.20156500  0.25704900  1
  Sr  Sr5  1  0.79843500  0.68738000  0.74295100  1
  Sr  Sr6  1  0.68738000  0.79843500  0.74295100  1
  Sr  Sr7  1  0.20156500  0.31262000  0.25704900  1
  Mn  Mn8  1  0.35538600  0.13504700  0.75478700  1
  Mn  Mn9  1  0.86495300  0.64461400  0.24521300  1
  Mn  Mn10  1  0.64461400  0.86495300  0.24521300  1
  Mn  Mn11  1  0.13504700  0.35538600  0.75478700  1
  Mn  Mn12  1  0.74436800  0.74436800  0.25564900  1
  Mn  Mn13  1  0.25563200  0.25563200  0.74435100  1
  Cu  Cu14  1  0.75009200  0.24990800  0.50000000  1
  Cu  Cu15  1  0.25009200  0.74990800  0.00000000  1
  Cu  Cu16  1  0.24990800  0.75009200  0.50000000  1
  Cu  Cu17  1  0.74990800  0.25009200  0.00000000  1
  Se  Se18  1  0.45771800  0.04309700  0.74990800  1
  Se  Se19  1  0.95690300  0.54228200  0.25009200  1
  Se  Se20  1  0.54228200  0.95690300  0.25009200  1
  Se  Se21  1  0.04309700  0.45771800  0.74990800  1
  O  O22  1  0.26421900  0.15819300  0.78887700  1
  O  O23  1  0.84180700  0.73578100  0.21112300  1
  O  O24  1  0.73578100  0.84180700  0.21112300  1
  O  O25  1  0.15819300  0.26421900  0.78887700  1
  O  O26  1  0.61238900  0.38761100  0.50000000  1
  O  O27  1  0.12208100  0.87791900  0.00000000  1
  O  O28  1  0.11774400  0.88225600  0.50000000  1
  O  O29  1  0.61773800  0.38226200  0.00000000  1
  O  O30  1  0.38761100  0.61238900  0.50000000  1
  O  O31  1  0.87791900  0.12208100  0.00000000  1
  O  O32  1  0.88225600  0.11774400  0.50000000  1
  O  O33  1  0.38226200  0.61773800  0.00000000  1
  O  O34  1  0.50000000  0.50000000  0.50000000  1
  O  O35  1  0.50000000  0.50000000  0.00000000  1
  O  O36  1  0.00000000  0.00000000  0.50000000  1
