# generated using pymatgen
data_Sr4Mn5O15
_symmetry_space_group_name_H-M   'P 1'
_cell_length_a   5.44455700
_cell_length_b   9.42707824
_cell_length_c   12.21333733
_cell_angle_alpha   97.47395668
_cell_angle_beta   102.87261246
_cell_angle_gamma   106.68994212
_symmetry_Int_Tables_number   1
_chemical_formula_structural   Sr4Mn5O15
_chemical_formula_sum   'Sr8 Mn10 O30'
_cell_volume   572.58657549
_cell_formula_units_Z   2
loop_
 _symmetry_equiv_pos_site_id
 _symmetry_equiv_pos_as_xyz
  1  'x, y, z'
loop_
 _atom_site_type_symbol
 _atom_site_label
 _atom_site_symmetry_multiplicity
 _atom_site_fract_x
 _atom_site_fract_y
 _atom_site_fract_z
 _atom_site_occupancy
  Sr  Sr0  1  0.65128700  0.34713600  0.45461000  1
  Sr  Sr1  1  0.05448800  0.95589900  0.65363500  1
  Sr  Sr2  1  0.44693100  0.54400000  0.84688400  1
  Sr  Sr3  1  0.84767500  0.15088400  0.04407900  1
  Sr  Sr4  1  0.34871300  0.65286400  0.54539000  1
  Sr  Sr5  1  0.15232500  0.84911600  0.95592100  1
  Sr  Sr6  1  0.55306900  0.45600000  0.15311600  1
  Sr  Sr7  1  0.94551200  0.04410100  0.34636500  1
  Mn  Mn8  1  0.39672000  0.09463400  0.19979600  1
  Mn  Mn9  1  0.60328000  0.90536600  0.80020400  1
  Mn  Mn10  1  0.00000000  0.50000000  0.00000000  1
  Mn  Mn11  1  0.79982200  0.70447200  0.39773200  1
  Mn  Mn12  1  0.20017800  0.29552800  0.60226800  1
  Mn  Mn13  1  0.50000000  0.00000000  0.50000000  1
  Mn  Mn14  1  0.70265300  0.80035000  0.10518200  1
  Mn  Mn15  1  0.10231200  0.40368600  0.29865500  1
  Mn  Mn16  1  0.89768800  0.59631400  0.70134500  1
  Mn  Mn17  1  0.29734700  0.19965000  0.89481800  1
  O  O18  1  0.72871100  0.75737300  0.25125900  1
  O  O19  1  0.94463600  0.56989300  0.85700500  1
  O  O20  1  0.34186000  0.16338900  0.05444000  1
  O  O21  1  0.13889600  0.36161900  0.45426900  1
  O  O22  1  0.52649700  0.95188300  0.65034100  1
  O  O23  1  0.86110400  0.63838100  0.54573100  1
  O  O24  1  0.05536400  0.43010700  0.14299500  1
  O  O25  1  0.47350300  0.04811700  0.34965900  1
  O  O26  1  0.27128900  0.24262700  0.74874100  1
  O  O27  1  0.65814000  0.83661100  0.94556000  1
  O  O28  1  0.25404500  0.24674100  0.26197800  1
  O  O29  1  0.44318700  0.04130600  0.86502700  1
  O  O30  1  0.84370000  0.64485700  0.05554200  1
  O  O31  1  0.66612000  0.84891400  0.46696100  1
  O  O32  1  0.06063300  0.45092400  0.65752900  1
  O  O33  1  0.55681300  0.95869400  0.13497300  1
  O  O34  1  0.74595500  0.75325900  0.73802200  1
  O  O35  1  0.15630000  0.35514300  0.94445800  1
  O  O36  1  0.93936700  0.54907600  0.34247100  1
  O  O37  1  0.33388000  0.15108600  0.53303900  1
  O  O38  1  0.45766700  0.54326600  0.35429600  1
  O  O39  1  0.85333300  0.14814100  0.54556000  1
  O  O40  1  0.24922700  0.74880700  0.74904100  1
  O  O41  1  0.64451900  0.35277500  0.95571800  1
  O  O42  1  0.04253700  0.95380000  0.14691300  1
  O  O43  1  0.54233300  0.45673400  0.64570400  1
  O  O44  1  0.95746300  0.04620000  0.85308700  1
  O  O45  1  0.35548100  0.64722500  0.04428200  1
  O  O46  1  0.75077300  0.25119300  0.25095900  1
  O  O47  1  0.14666700  0.85185900  0.45444000  1
