# generated using pymatgen
data_Sr2TaVO6
_symmetry_space_group_name_H-M   'P 1'
_cell_length_a   5.65087213
_cell_length_b   5.65087072
_cell_length_c   8.13837400
_cell_angle_alpha   90.00091961
_cell_angle_beta   90.00043733
_cell_angle_gamma   89.99518206
_symmetry_Int_Tables_number   1
_chemical_formula_structural   Sr2TaVO6
_chemical_formula_sum   'Sr4 Ta2 V2 O12'
_cell_volume   259.87738857
_cell_formula_units_Z   2
loop_
 _symmetry_equiv_pos_site_id
 _symmetry_equiv_pos_as_xyz
  1  'x, y, z'
loop_
 _atom_site_type_symbol
 _atom_site_label
 _atom_site_symmetry_multiplicity
 _atom_site_fract_x
 _atom_site_fract_y
 _atom_site_fract_z
 _atom_site_occupancy
  Sr  Sr0  1  0.00000100  0.00000000  0.99999700  1
  Sr  Sr1  1  0.50000400  0.49999500  0.50000400  1
  Sr  Sr2  1  0.00000000  0.00000000  0.50000400  1
  Sr  Sr3  1  0.49999600  0.50000600  0.99999700  1
  Ta  Ta4  1  0.50000000  0.00000000  0.75000100  1
  Ta  Ta5  1  0.00000100  0.50000100  0.25000100  1
  V  V6  1  0.99999300  0.50000800  0.74999400  1
  V  V7  1  0.50000300  0.99998700  0.24999200  1
  O  O8  1  0.74938100  0.24938200  0.75000100  1
  O  O9  1  0.24940100  0.74940100  0.25000100  1
  O  O10  1  0.25061800  0.75061900  0.75000100  1
  O  O11  1  0.75060000  0.25059900  0.25000000  1
  O  O12  1  0.50000000  0.99999600  0.50525800  1
  O  O13  1  0.99999700  0.50000100  0.00525500  1
  O  O14  1  0.50000100  0.00000500  0.99474300  1
  O  O15  1  0.00000300  0.50000000  0.49474700  1
  O  O16  1  0.25062100  0.24937900  0.75000100  1
  O  O17  1  0.75059900  0.74940200  0.25000100  1
  O  O18  1  0.74937900  0.75062100  0.75000100  1
  O  O19  1  0.24940200  0.25059800  0.25000000  1
