# generated using pymatgen
data_Sr2MnNbO6
_symmetry_space_group_name_H-M   'P 1'
_cell_length_a   8.12307514
_cell_length_b   8.11808580
_cell_length_c   9.75441977
_cell_angle_alpha   65.41154209
_cell_angle_beta   65.39761865
_cell_angle_gamma   90.00922979
_symmetry_Int_Tables_number   1
_chemical_formula_structural   Sr2MnNbO6
_chemical_formula_sum   'Sr8 Mn4 Nb4 O24'
_cell_volume   519.98835410
_cell_formula_units_Z   4
loop_
 _symmetry_equiv_pos_site_id
 _symmetry_equiv_pos_as_xyz
  1  'x, y, z'
loop_
 _atom_site_type_symbol
 _atom_site_label
 _atom_site_symmetry_multiplicity
 _atom_site_fract_x
 _atom_site_fract_y
 _atom_site_fract_z
 _atom_site_occupancy
  Sr  Sr0  1  0.87494400  0.37496500  0.75012800  1
  Sr  Sr1  1  0.62506100  0.62508200  0.24988000  1
  Sr  Sr2  1  0.12507400  0.12508200  0.24987800  1
  Sr  Sr3  1  0.37497200  0.87497100  0.75009600  1
  Sr  Sr4  1  0.37505500  0.37504900  0.74985600  1
  Sr  Sr5  1  0.12494700  0.62494600  0.25008400  1
  Sr  Sr6  1  0.62494000  0.12492100  0.25010300  1
  Sr  Sr7  1  0.87505500  0.87504700  0.74986400  1
  Mn  Mn8  1  0.24991700  0.25006500  0.50006100  1
  Mn  Mn9  1  0.00007200  0.50002500  0.00013400  1
  Mn  Mn10  1  0.50000200  0.99996900  0.99987100  1
  Mn  Mn11  1  0.75002000  0.74979900  0.50011800  1
  Nb  Nb12  1  0.49999500  0.49996600  0.00005700  1
  Nb  Nb13  1  0.25001600  0.75003300  0.50000100  1
  Nb  Nb14  1  0.74996900  0.24996900  0.49999700  1
  Nb  Nb15  1  0.99996500  0.99999400  0.00005200  1
  O  O16  1  0.12850800  0.12846000  0.74321900  1
  O  O17  1  0.87851000  0.37840800  0.24325700  1
  O  O18  1  0.37854500  0.87846600  0.24316400  1
  O  O19  1  0.62854300  0.62839500  0.74321800  1
  O  O20  1  0.37145000  0.37160000  0.25678800  1
  O  O21  1  0.12145100  0.62155500  0.75683000  1
  O  O22  1  0.62148300  0.12158400  0.75674900  1
  O  O23  1  0.87148800  0.87152800  0.25678900  1
  O  O24  1  0.99358600  0.28959300  0.50022700  1
  O  O25  1  0.74374700  0.53974000  0.99994600  1
  O  O26  1  0.24374100  0.03972900  0.99996700  1
  O  O27  1  0.49364700  0.78959000  0.50022500  1
  O  O28  1  0.25640200  0.46043600  0.99972900  1
  O  O29  1  0.00624000  0.71026500  0.50002000  1
  O  O30  1  0.50628700  0.21030000  0.50001700  1
  O  O31  1  0.75637600  0.96041800  0.99977200  1
  O  O32  1  0.28979400  0.50617100  0.49985300  1
  O  O33  1  0.03965700  0.75606900  0.00008700  1
  O  O34  1  0.53960900  0.25603500  0.00016100  1
  O  O35  1  0.78975900  0.00619900  0.49985400  1
  O  O36  1  0.96022400  0.24382500  0.00012400  1
  O  O37  1  0.71036400  0.49392900  0.49985000  1
  O  O38  1  0.21036300  0.99399000  0.49985400  1
  O  O39  1  0.46022100  0.74383300  0.00012000  1
