# generated using pymatgen
data_Sr2Si3Ni
_symmetry_space_group_name_H-M   'P 1'
_cell_length_a   4.08262528
_cell_length_b   4.08262528
_cell_length_c   9.33010800
_cell_angle_alpha   90.00000000
_cell_angle_beta   90.00000000
_cell_angle_gamma   119.99998835
_symmetry_Int_Tables_number   1
_chemical_formula_structural   Sr2Si3Ni
_chemical_formula_sum   'Sr2 Si3 Ni1'
_cell_volume   134.67791823
_cell_formula_units_Z   1
loop_
 _symmetry_equiv_pos_site_id
 _symmetry_equiv_pos_as_xyz
  1  'x, y, z'
loop_
 _atom_site_type_symbol
 _atom_site_label
 _atom_site_symmetry_multiplicity
 _atom_site_fract_x
 _atom_site_fract_y
 _atom_site_fract_z
 _atom_site_occupancy
  Sr  Sr0  1  0.33333300  0.66666700  0.23912300  1
  Sr  Sr1  1  0.33333300  0.66666700  0.76087700  1
  Si  Si2  1  0.66666700  0.33333300  0.50000000  1
  Si  Si3  1  0.00000000  0.00000000  0.00000000  1
  Si  Si4  1  0.00000000  0.00000000  0.50000000  1
  Ni  Ni5  1  0.66666700  0.33333300  0.00000000  1
