# generated using pymatgen
data_Sr2NiN2
_symmetry_space_group_name_H-M   'P 1'
_cell_length_a   3.85153800
_cell_length_b   3.85153800
_cell_length_c   6.80485146
_cell_angle_alpha   73.56069882
_cell_angle_beta   73.56069882
_cell_angle_gamma   90.00000000
_symmetry_Int_Tables_number   1
_chemical_formula_structural   Sr2NiN2
_chemical_formula_sum   'Sr2 Ni1 N2'
_cell_volume   92.50832513
_cell_formula_units_Z   1
loop_
 _symmetry_equiv_pos_site_id
 _symmetry_equiv_pos_as_xyz
  1  'x, y, z'
loop_
 _atom_site_type_symbol
 _atom_site_label
 _atom_site_symmetry_multiplicity
 _atom_site_fract_x
 _atom_site_fract_y
 _atom_site_fract_z
 _atom_site_occupancy
  Sr  Sr0  1  0.64312800  0.64312800  0.71374300  1
  Sr  Sr1  1  0.34705700  0.34705700  0.30588500  1
  Ni  Ni2  1  0.99408900  0.99408900  0.01182100  1
  N  N3  1  0.13485100  0.13485100  0.73029800  1
  N  N4  1  0.85317400  0.85317400  0.29365200  1
