# generated using pymatgen
data_Sr5CeNd3Cu4PbO18
_symmetry_space_group_name_H-M   'P 1'
_cell_length_a   15.42108456
_cell_length_b   15.42108456
_cell_length_c   5.47620900
_cell_angle_alpha   90.00000000
_cell_angle_beta   90.00000000
_cell_angle_gamma   159.53465569
_symmetry_Int_Tables_number   1
_chemical_formula_structural   Sr5CeNd3Cu4PbO18
_chemical_formula_sum   'Sr5 Ce1 Nd3 Cu4 Pb1 O18'
_cell_volume   455.33592261
_cell_formula_units_Z   1
loop_
 _symmetry_equiv_pos_site_id
 _symmetry_equiv_pos_as_xyz
  1  'x, y, z'
loop_
 _atom_site_type_symbol
 _atom_site_label
 _atom_site_symmetry_multiplicity
 _atom_site_fract_x
 _atom_site_fract_y
 _atom_site_fract_z
 _atom_site_occupancy
  Sr  Sr0  1  0.91217100  0.08782900  0.50000000  1
  Sr  Sr1  1  0.41218000  0.58782000  0.00000000  1
  Sr  Sr2  1  0.58796800  0.41203200  0.00000000  1
  Sr  Sr3  1  0.08726000  0.91274000  0.50000000  1
  Sr  Sr4  1  0.00003200  0.99996800  0.00000000  1
  Ce  Ce5  1  0.70913800  0.29086200  0.00000000  1
  Nd  Nd6  1  0.29314300  0.70685700  0.00000000  1
  Nd  Nd7  1  0.79313500  0.20686500  0.50000000  1
  Nd  Nd8  1  0.20611900  0.79388100  0.50000000  1
  Cu  Cu9  1  0.85779400  0.14220600  0.00000000  1
  Cu  Cu10  1  0.35409600  0.64590400  0.50000000  1
  Cu  Cu11  1  0.64657600  0.35342400  0.50000000  1
  Cu  Cu12  1  0.14288500  0.85711500  0.00000000  1
  Pb  Pb13  1  0.49998700  0.50001300  0.50000000  1
  O  O14  1  0.92332900  0.07667100  0.00000000  1
  O  O15  1  0.42993600  0.57006400  0.50000000  1
  O  O16  1  0.57014200  0.42985800  0.50000000  1
  O  O17  1  0.07671100  0.92328900  0.00000000  1
  O  O18  1  0.10271700  0.40386500  0.74665700  1
  O  O19  1  0.59613500  0.89728300  0.25334300  1
  O  O20  1  0.59613500  0.89728300  0.74665700  1
  O  O21  1  0.10271700  0.40386500  0.25334300  1
  O  O22  1  0.40721200  0.10464100  0.74936000  1
  O  O23  1  0.89535900  0.59278800  0.25064000  1
  O  O24  1  0.89535900  0.59278800  0.74936000  1
  O  O25  1  0.40721200  0.10464100  0.25064000  1
  O  O26  1  0.99317900  0.49601300  0.75554200  1
  O  O27  1  0.50398700  0.00682100  0.24445800  1
  O  O28  1  0.50398700  0.00682100  0.75554200  1
  O  O29  1  0.99317900  0.49601300  0.24445800  1
  O  O30  1  0.50002000  0.49998000  0.00000000  1
  O  O31  1  0.00020000  0.99980000  0.50000000  1
