# generated using pymatgen
data_Sr9Fe(PO4)7
_symmetry_space_group_name_H-M   'P 1'
_cell_length_a   9.09304281
_cell_length_b   9.09304281
_cell_length_c   18.18835805
_cell_angle_alpha   71.85739036
_cell_angle_beta   71.85739036
_cell_angle_gamma   72.42557270
_symmetry_Int_Tables_number   1
_chemical_formula_structural   Sr9Fe(PO4)7
_chemical_formula_sum   'Sr18 Fe2 P14 O56'
_cell_volume   1322.61007027
_cell_formula_units_Z   2
loop_
 _symmetry_equiv_pos_site_id
 _symmetry_equiv_pos_as_xyz
  1  'x, y, z'
loop_
 _atom_site_type_symbol
 _atom_site_label
 _atom_site_symmetry_multiplicity
 _atom_site_fract_x
 _atom_site_fract_y
 _atom_site_fract_z
 _atom_site_occupancy
  Sr  Sr0  1  0.27810400  0.83736800  0.63455800  1
  Sr  Sr1  1  0.15890300  0.72320500  0.86473800  1
  Sr  Sr2  1  0.72320500  0.15890300  0.36473800  1
  Sr  Sr3  1  0.83736800  0.27810400  0.13455800  1
  Sr  Sr4  1  0.71921500  0.71341700  0.58739300  1
  Sr  Sr5  1  0.28510000  0.27857500  0.91264900  1
  Sr  Sr6  1  0.27857500  0.28510000  0.41264900  1
  Sr  Sr7  1  0.71341700  0.71921500  0.08739300  1
  Sr  Sr8  1  0.27166600  0.83817700  0.13976200  1
  Sr  Sr9  1  0.15849300  0.72980500  0.35978800  1
  Sr  Sr10  1  0.72980500  0.15849300  0.85978800  1
  Sr  Sr11  1  0.83817700  0.27166600  0.63976200  1
  Sr  Sr12  1  0.49610800  0.03908200  0.74845600  1
  Sr  Sr13  1  0.96458900  0.50337300  0.74954500  1
  Sr  Sr14  1  0.50337300  0.96458900  0.24954500  1
  Sr  Sr15  1  0.03908200  0.49610800  0.24845600  1
  Sr  Sr16  1  0.50801500  0.50496300  0.48348200  1
  Sr  Sr17  1  0.50496300  0.50801500  0.98348200  1
  Fe  Fe18  1  0.99944400  0.99896200  0.50025800  1
  Fe  Fe19  1  0.99896200  0.99944400  0.00025800  1
  P  P20  1  0.10529200  0.59316400  0.05721500  1
  P  P21  1  0.40733300  0.89509700  0.44244800  1
  P  P22  1  0.89509700  0.40733300  0.94244800  1
  P  P23  1  0.59316400  0.10529200  0.55721500  1
  P  P24  1  0.88491900  0.89344700  0.20427900  1
  P  P25  1  0.10631100  0.11505000  0.29561600  1
  P  P26  1  0.11505000  0.10631100  0.79561600  1
  P  P27  1  0.89344700  0.88491900  0.70427900  1
  P  P28  1  0.11467500  0.59277000  0.55253700  1
  P  P29  1  0.40701600  0.88650800  0.94723000  1
  P  P30  1  0.88650800  0.40701600  0.44723000  1
  P  P31  1  0.59277000  0.11467500  0.05253700  1
  P  P32  1  0.47474400  0.52581300  0.25102200  1
  P  P33  1  0.52581300  0.47474400  0.75102200  1
  O  O34  1  0.49920100  0.78785000  0.50579200  1
  O  O35  1  0.21179500  0.50285500  0.99280100  1
  O  O36  1  0.50285500  0.21179500  0.49280100  1
  O  O37  1  0.78785000  0.49920100  0.00579200  1
  O  O38  1  0.41641300  0.52462500  0.82834600  1
  O  O39  1  0.47249500  0.58825300  0.67609100  1
  O  O40  1  0.58825300  0.47249500  0.17609100  1
  O  O41  1  0.52462500  0.41641300  0.32834600  1
  O  O42  1  0.02298200  0.76202000  0.50923600  1
  O  O43  1  0.23808500  0.97716500  0.99027400  1
  O  O44  1  0.97716500  0.23808500  0.49027400  1
  O  O45  1  0.76202000  0.02298200  0.00923600  1
  O  O46  1  0.02786100  0.48993700  0.88432400  1
  O  O47  1  0.50955700  0.97282900  0.61478500  1
  O  O48  1  0.97282900  0.50955700  0.11478500  1
  O  O49  1  0.48993700  0.02786100  0.38432400  1
  O  O50  1  0.01513700  0.49879000  0.39387200  1
  O  O51  1  0.50084700  0.98538400  0.10531700  1
  O  O52  1  0.98538400  0.50084700  0.60531700  1
  O  O53  1  0.49879000  0.01513700  0.89387200  1
  O  O54  1  0.78709300  0.01304500  0.74942400  1
  O  O55  1  0.98695800  0.21272700  0.75056300  1
  O  O56  1  0.21272700  0.98695800  0.25056300  1
  O  O57  1  0.01304500  0.78709300  0.24942400  1
  O  O58  1  0.52483400  0.29641500  0.76478300  1
  O  O59  1  0.70513900  0.47368700  0.73601900  1
  O  O60  1  0.47368700  0.70513900  0.23601900  1
  O  O61  1  0.29641500  0.52483400  0.26478300  1
  O  O62  1  0.97768100  0.97906600  0.11915400  1
  O  O63  1  0.02064600  0.02220900  0.38076200  1
  O  O64  1  0.02220900  0.02064600  0.88076200  1
  O  O65  1  0.97906600  0.97768100  0.61915400  1
  O  O66  1  0.48921000  0.77307600  0.01389800  1
  O  O67  1  0.22604900  0.51177300  0.48480300  1
  O  O68  1  0.51177300  0.22604900  0.98480300  1
  O  O69  1  0.77307600  0.48921000  0.51389800  1
  O  O70  1  0.21322100  0.20783700  0.80460100  1
  O  O71  1  0.79206400  0.78652200  0.69544800  1
  O  O72  1  0.78652200  0.79206400  0.19544800  1
  O  O73  1  0.20783700  0.21322100  0.30460100  1
  O  O74  1  0.79159100  0.38819400  0.89423500  1
  O  O75  1  0.61390800  0.20691400  0.60531000  1
  O  O76  1  0.20691400  0.61390800  0.10531000  1
  O  O77  1  0.38819400  0.79159100  0.39423500  1
  O  O78  1  0.77375900  0.02637100  0.24566100  1
  O  O79  1  0.97323500  0.22647400  0.25449600  1
  O  O80  1  0.22647400  0.97323500  0.75449600  1
  O  O81  1  0.02637100  0.77375900  0.74566100  1
  O  O82  1  0.78818300  0.38866900  0.39692400  1
  O  O83  1  0.61214100  0.21144800  0.10265600  1
  O  O84  1  0.21144800  0.61214100  0.60265600  1
  O  O85  1  0.38866900  0.78818300  0.89692400  1
  O  O86  1  0.01789900  0.76164600  0.01144300  1
  O  O87  1  0.23887000  0.98146200  0.48790700  1
  O  O88  1  0.98146200  0.23887000  0.98790700  1
  O  O89  1  0.76164600  0.01789900  0.51144300  1
