# generated using pymatgen
data_Sr2NdSmMn4O12
_symmetry_space_group_name_H-M   'P 1'
_cell_length_a   5.51174067
_cell_length_b   5.51174067
_cell_length_c   7.79752715
_cell_angle_alpha   89.55603470
_cell_angle_beta   89.55603470
_cell_angle_gamma   89.50267605
_symmetry_Int_Tables_number   1
_chemical_formula_structural   Sr2NdSmMn4O12
_chemical_formula_sum   'Sr2 Nd1 Sm1 Mn4 O12'
_cell_volume   236.86027778
_cell_formula_units_Z   1
loop_
 _symmetry_equiv_pos_site_id
 _symmetry_equiv_pos_as_xyz
  1  'x, y, z'
loop_
 _atom_site_type_symbol
 _atom_site_label
 _atom_site_symmetry_multiplicity
 _atom_site_fract_x
 _atom_site_fract_y
 _atom_site_fract_z
 _atom_site_occupancy
  Sr  Sr0  1  0.74935700  0.74935700  0.99978200  1
  Sr  Sr1  1  0.24973500  0.24973500  0.49966900  1
  Nd  Nd2  1  0.75619400  0.75619400  0.50715200  1
  Sm  Sm3  1  0.25964600  0.25964600  0.00780700  1
  Mn  Mn4  1  0.25055300  0.75086700  0.75142000  1
  Mn  Mn5  1  0.75055300  0.25039700  0.24959700  1
  Mn  Mn6  1  0.25039700  0.75055300  0.24959700  1
  Mn  Mn7  1  0.75086700  0.25055300  0.75142000  1
  O  O8  1  0.45975300  0.03909600  0.23823400  1
  O  O9  1  0.96093000  0.53877500  0.74102700  1
  O  O10  1  0.27957400  0.69675300  0.99969900  1
  O  O11  1  0.77895800  0.20225800  0.49974900  1
  O  O12  1  0.69675300  0.27957400  0.99969900  1
  O  O13  1  0.20225800  0.77895800  0.49974900  1
  O  O14  1  0.53877500  0.96093000  0.74102700  1
  O  O15  1  0.03909600  0.45975300  0.23823400  1
  O  O16  1  0.97131300  0.97131300  0.22020300  1
  O  O17  1  0.47091600  0.47091600  0.72167700  1
  O  O18  1  0.04325100  0.04325100  0.79417200  1
  O  O19  1  0.54112300  0.54112300  0.29008500  1
