# generated using pymatgen
data_Nb2Fe
_symmetry_space_group_name_H-M   'P 1'
_cell_length_a   5.26678728
_cell_length_b   5.26678728
_cell_length_c   5.26678728
_cell_angle_alpha   60.00000000
_cell_angle_beta   60.00000000
_cell_angle_gamma   60.00000000
_symmetry_Int_Tables_number   1
_chemical_formula_structural   Nb2Fe
_chemical_formula_sum   'Nb4 Fe2'
_cell_volume   103.30523642
_cell_formula_units_Z   2
loop_
 _symmetry_equiv_pos_site_id
 _symmetry_equiv_pos_as_xyz
  1  'x, y, z'
loop_
 _atom_site_type_symbol
 _atom_site_label
 _atom_site_symmetry_multiplicity
 _atom_site_fract_x
 _atom_site_fract_y
 _atom_site_fract_z
 _atom_site_occupancy
  Nb  Nb0  1  0.62500000  0.62500000  0.12500000  1
  Nb  Nb1  1  0.62500000  0.12500000  0.62500000  1
  Nb  Nb2  1  0.12500000  0.62500000  0.62500000  1
  Nb  Nb3  1  0.62500000  0.62500000  0.62500000  1
  Fe  Fe4  1  0.25000000  0.25000000  0.25000000  1
  Fe  Fe5  1  0.00000000  0.00000000  0.00000000  1
