# generated using pymatgen
data_Sr4In17Au15
_symmetry_space_group_name_H-M   'P 1'
_cell_length_a   4.40058500
_cell_length_b   12.85077200
_cell_length_c   15.35853790
_cell_angle_alpha   87.98542043
_cell_angle_beta   90.00000000
_cell_angle_gamma   90.00000000
_symmetry_Int_Tables_number   1
_chemical_formula_structural   Sr4In17Au15
_chemical_formula_sum   'Sr4 In17 Au15'
_cell_volume   868.00253148
_cell_formula_units_Z   1
loop_
 _symmetry_equiv_pos_site_id
 _symmetry_equiv_pos_as_xyz
  1  'x, y, z'
loop_
 _atom_site_type_symbol
 _atom_site_label
 _atom_site_symmetry_multiplicity
 _atom_site_fract_x
 _atom_site_fract_y
 _atom_site_fract_z
 _atom_site_occupancy
  Sr  Sr0  1  0.50000000  0.39122600  0.79507200  1
  Sr  Sr1  1  0.50000000  0.10670200  0.29254300  1
  Sr  Sr2  1  0.00000000  0.60714300  0.20593000  1
  Sr  Sr3  1  0.00000000  0.89698600  0.70783300  1
  In  In4  1  0.50000000  0.27924300  0.52517600  1
  In  In5  1  0.50000000  0.22282600  0.02815600  1
  In  In6  1  0.00000000  0.71959900  0.47086800  1
  In  In7  1  0.00000000  0.77720300  0.97522300  1
  In  In8  1  0.50000000  0.90899700  0.50289500  1
  In  In9  1  0.50000000  0.58849600  0.00331800  1
  In  In10  1  0.00000000  0.08308800  0.50005100  1
  In  In11  1  0.00000000  0.41291200  0.99596100  1
  In  In12  1  0.50000000  0.70205000  0.80369000  1
  In  In13  1  0.50000000  0.81114600  0.29030200  1
  In  In14  1  0.00000000  0.30693400  0.20864500  1
  In  In15  1  0.00000000  0.18817500  0.70888100  1
  In  In16  1  0.00000000  0.60361700  0.68786400  1
  In  In17  1  0.50000000  0.51473400  0.56319200  1
  In  In18  1  0.50000000  0.98035400  0.07766200  1
  In  In19  1  0.00000000  0.47703400  0.41558400  1
  In  In20  1  0.00000000  0.02225600  0.92222600  1
  Au  Au21  1  0.50000000  0.07805900  0.62196700  1
  Au  Au22  1  0.50000000  0.41763500  0.12119100  1
  Au  Au23  1  0.00000000  0.92123800  0.37835800  1
  Au  Au24  1  0.00000000  0.58274900  0.87422100  1
  Au  Au25  1  0.50000000  0.72846300  0.60996500  1
  Au  Au26  1  0.50000000  0.76383100  0.10263200  1
  Au  Au27  1  0.00000000  0.26081100  0.39553200  1
  Au  Au28  1  0.00000000  0.23676000  0.89873200  1
  Au  Au29  1  0.50000000  0.89063500  0.88573100  1
  Au  Au30  1  0.50000000  0.61536200  0.37620900  1
  Au  Au31  1  0.00000000  0.11692000  0.12058300  1
  Au  Au32  1  0.00000000  0.38710800  0.62521400  1
  Au  Au33  1  0.50000000  0.10671400  0.80947400  1
  Au  Au34  1  0.50000000  0.39496900  0.30787600  1
  Au  Au35  1  0.00000000  0.89802800  0.19124400  1
