# generated using pymatgen
data_Sr2LaTi2Nb3O15
_symmetry_space_group_name_H-M   'P 1'
_cell_length_a   3.96007100
_cell_length_b   12.44021200
_cell_length_c   12.53131500
_cell_angle_alpha   90.00000000
_cell_angle_beta   90.00000000
_cell_angle_gamma   90.00000000
_symmetry_Int_Tables_number   1
_chemical_formula_structural   Sr2LaTi2Nb3O15
_chemical_formula_sum   'Sr4 La2 Ti4 Nb6 O30'
_cell_volume   617.34424069
_cell_formula_units_Z   2
loop_
 _symmetry_equiv_pos_site_id
 _symmetry_equiv_pos_as_xyz
  1  'x, y, z'
loop_
 _atom_site_type_symbol
 _atom_site_label
 _atom_site_symmetry_multiplicity
 _atom_site_fract_x
 _atom_site_fract_y
 _atom_site_fract_z
 _atom_site_occupancy
  Sr  Sr0  1  0.00000000  0.33006100  0.16833600  1
  Sr  Sr1  1  0.00000000  0.66993900  0.83166400  1
  Sr  Sr2  1  0.00000000  0.83006100  0.33166400  1
  Sr  Sr3  1  0.00000000  0.16993900  0.66833600  1
  La  La4  1  0.00000000  0.50000000  0.50000000  1
  La  La5  1  0.00000000  0.00000000  0.00000000  1
  Ti  Ti6  1  0.50000000  0.28861100  0.42148400  1
  Ti  Ti7  1  0.50000000  0.71138900  0.57851600  1
  Ti  Ti8  1  0.50000000  0.78861100  0.07851600  1
  Ti  Ti9  1  0.50000000  0.21138900  0.92148400  1
  Nb  Nb10  1  0.50000000  0.58028800  0.28885100  1
  Nb  Nb11  1  0.50000000  0.41971200  0.71114900  1
  Nb  Nb12  1  0.50000000  0.91971200  0.78885100  1
  Nb  Nb13  1  0.50000000  0.08028800  0.21114900  1
  Nb  Nb14  1  0.50000000  0.00000000  0.50000000  1
  Nb  Nb15  1  0.50000000  0.50000000  0.00000000  1
  O  O16  1  0.50000000  0.33985000  0.00701800  1
  O  O17  1  0.50000000  0.66015000  0.99298200  1
  O  O18  1  0.50000000  0.83985000  0.49298200  1
  O  O19  1  0.50000000  0.16015000  0.50701800  1
  O  O20  1  0.50000000  0.98696200  0.33957500  1
  O  O21  1  0.50000000  0.01303800  0.66042500  1
  O  O22  1  0.50000000  0.51303800  0.83957500  1
  O  O23  1  0.50000000  0.48696200  0.16042500  1
  O  O24  1  0.00000000  0.30304800  0.42211400  1
  O  O25  1  0.00000000  0.69695200  0.57788600  1
  O  O26  1  0.00000000  0.80304800  0.07788600  1
  O  O27  1  0.00000000  0.19695200  0.92211400  1
  O  O28  1  0.00000000  0.57979700  0.30040100  1
  O  O29  1  0.00000000  0.42020300  0.69959900  1
  O  O30  1  0.00000000  0.92020300  0.80040100  1
  O  O31  1  0.00000000  0.07979700  0.19959900  1
  O  O32  1  0.50000000  0.43830800  0.36866600  1
  O  O33  1  0.50000000  0.56169200  0.63133400  1
  O  O34  1  0.50000000  0.93830800  0.13133400  1
  O  O35  1  0.50000000  0.06169200  0.86866600  1
  O  O36  1  0.50000000  0.63438300  0.43725100  1
  O  O37  1  0.50000000  0.36561700  0.56274900  1
  O  O38  1  0.50000000  0.86561700  0.93725100  1
  O  O39  1  0.50000000  0.13438300  0.06274900  1
  O  O40  1  0.50000000  0.22849800  0.27281200  1
  O  O41  1  0.50000000  0.77150200  0.72718800  1
  O  O42  1  0.50000000  0.72849800  0.22718800  1
  O  O43  1  0.50000000  0.27150200  0.77281200  1
  O  O44  1  0.00000000  0.00000000  0.50000000  1
  O  O45  1  0.00000000  0.50000000  0.00000000  1
