# generated using pymatgen
data_Sr8Ca3NdTl2Cu8(PbO14)2
_symmetry_space_group_name_H-M   'P 1'
_cell_length_a   13.39861220
_cell_length_b   13.39814014
_cell_length_c   7.61895540
_cell_angle_alpha   73.48496824
_cell_angle_beta   73.47816135
_cell_angle_gamma   33.03687041
_symmetry_Int_Tables_number   1
_chemical_formula_structural   Sr8Ca3NdTl2Cu8(PbO14)2
_chemical_formula_sum   'Sr8 Ca3 Nd1 Tl2 Cu8 Pb2 O28'
_cell_volume   712.11135468
_cell_formula_units_Z   1
loop_
 _symmetry_equiv_pos_site_id
 _symmetry_equiv_pos_as_xyz
  1  'x, y, z'
loop_
 _atom_site_type_symbol
 _atom_site_label
 _atom_site_symmetry_multiplicity
 _atom_site_fract_x
 _atom_site_fract_y
 _atom_site_fract_z
 _atom_site_occupancy
  Sr  Sr0  1  0.85732200  0.85732200  0.14267800  1
  Sr  Sr1  1  0.85733300  0.85733300  0.64266700  1
  Sr  Sr2  1  0.35733300  0.35733300  0.14266700  1
  Sr  Sr3  1  0.35531000  0.35531000  0.64469000  1
  Sr  Sr4  1  0.64469000  0.64469000  0.35531000  1
  Sr  Sr5  1  0.64266700  0.64266700  0.85733300  1
  Sr  Sr6  1  0.14266700  0.14266700  0.35733300  1
  Sr  Sr7  1  0.14267800  0.14267800  0.85732200  1
  Ca  Ca8  1  0.00000000  0.00000000  0.50000000  1
  Ca  Ca9  1  0.50000000  0.50000000  0.00000000  1
  Ca  Ca10  1  0.00000000  0.00000000  0.00000000  1
  Nd  Nd11  1  0.50000000  0.50000000  0.50000000  1
  Tl  Tl12  1  0.50000000  0.00000000  0.00000000  1
  Tl  Tl13  1  0.00000000  0.50000000  0.50000000  1
  Cu  Cu14  1  0.17903000  0.68229900  0.82097000  1
  Cu  Cu15  1  0.17950800  0.68283500  0.31716500  1
  Cu  Cu16  1  0.68283500  0.17950800  0.82049200  1
  Cu  Cu17  1  0.68229900  0.17903000  0.31770100  1
  Cu  Cu18  1  0.82097000  0.31770100  0.17903000  1
  Cu  Cu19  1  0.82049200  0.31716500  0.68283500  1
  Cu  Cu20  1  0.31716500  0.82049200  0.17950800  1
  Cu  Cu21  1  0.31770100  0.82097000  0.68229900  1
  Pb  Pb22  1  0.50000000  0.00000000  0.50000000  1
  Pb  Pb23  1  0.00000000  0.50000000  0.00000000  1
  O  O24  1  0.08790900  0.58685600  0.91209100  1
  O  O25  1  0.08626100  0.58458800  0.41541200  1
  O  O26  1  0.58458800  0.08626100  0.91373900  1
  O  O27  1  0.58685600  0.08790900  0.41314400  1
  O  O28  1  0.91209100  0.41314400  0.08790900  1
  O  O29  1  0.91373900  0.41541200  0.58458800  1
  O  O30  1  0.41541200  0.91373900  0.08626100  1
  O  O31  1  0.41314400  0.91209100  0.58685600  1
  O  O32  1  0.75022400  0.75022400  0.24977600  1
  O  O33  1  0.75000000  0.75000000  0.75000000  1
  O  O34  1  0.25000000  0.25000000  0.25000000  1
  O  O35  1  0.24977600  0.24977600  0.75022400  1
  O  O36  1  0.18692700  0.68441000  0.06437700  1
  O  O37  1  0.18748400  0.68533500  0.56351200  1
  O  O38  1  0.68441000  0.18692700  0.06428600  1
  O  O39  1  0.68533500  0.18748400  0.56366900  1
  O  O40  1  0.93562300  0.93571400  0.81307300  1
  O  O41  1  0.93571400  0.93562300  0.31559000  1
  O  O42  1  0.43648800  0.43633100  0.81251600  1
  O  O43  1  0.43633100  0.43648800  0.31466500  1
  O  O44  1  0.81251600  0.31466500  0.43648800  1
  O  O45  1  0.81307300  0.31559000  0.93562300  1
  O  O46  1  0.31466500  0.81251600  0.43633100  1
  O  O47  1  0.31559000  0.81307300  0.93571400  1
  O  O48  1  0.56351200  0.56366900  0.18748400  1
  O  O49  1  0.56366900  0.56351200  0.68533500  1
  O  O50  1  0.06437700  0.06428600  0.18692700  1
  O  O51  1  0.06428600  0.06437700  0.68441000  1
