# generated using pymatgen
data_Sr4Y2GaCu5(PbO4)4
_symmetry_space_group_name_H-M   'P 1'
_cell_length_a   16.26531974
_cell_length_b   16.26531974
_cell_length_c   5.48684308
_cell_angle_alpha   80.95017439
_cell_angle_beta   80.95017439
_cell_angle_gamma   19.33307125
_symmetry_Int_Tables_number   1
_chemical_formula_structural   Sr4Y2GaCu5(PbO4)4
_chemical_formula_sum   'Sr4 Y2 Ga1 Cu5 Pb4 O16'
_cell_volume   474.40945712
_cell_formula_units_Z   1
loop_
 _symmetry_equiv_pos_site_id
 _symmetry_equiv_pos_as_xyz
  1  'x, y, z'
loop_
 _atom_site_type_symbol
 _atom_site_label
 _atom_site_symmetry_multiplicity
 _atom_site_fract_x
 _atom_site_fract_y
 _atom_site_fract_z
 _atom_site_occupancy
  Sr  Sr0  1  0.89040300  0.89040300  0.10701800  1
  Sr  Sr1  1  0.39043500  0.39043500  0.60726900  1
  Sr  Sr2  1  0.60953800  0.60953800  0.39297900  1
  Sr  Sr3  1  0.10946500  0.10946500  0.89354100  1
  Y  Y4  1  0.49852300  0.49852300  0.50185000  1
  Y  Y5  1  0.99850900  0.99850900  0.00142900  1
  Ga  Ga6  1  0.05837200  0.05837200  0.44209400  1
  Cu  Cu7  1  0.74984800  0.74984800  0.24972400  1
  Cu  Cu8  1  0.24984300  0.24984300  0.75202200  1
  Cu  Cu9  1  0.94850900  0.94850900  0.55114300  1
  Cu  Cu10  1  0.44909100  0.44909100  0.05068300  1
  Cu  Cu11  1  0.55278800  0.55278800  0.94747200  1
  Pb  Pb12  1  0.30568800  0.30568800  0.20026500  1
  Pb  Pb13  1  0.80596600  0.80596600  0.69806600  1
  Pb  Pb14  1  0.19367200  0.19367200  0.29821600  1
  Pb  Pb15  1  0.69450400  0.69450400  0.80181600  1
  O  O16  1  0.37347700  0.37347700  0.12167800  1
  O  O17  1  0.87402400  0.87402400  0.62170800  1
  O  O18  1  0.12107900  0.12107900  0.38210000  1
  O  O19  1  0.62588600  0.62588600  0.87854000  1
  O  O20  1  0.20372900  0.70375400  0.29553000  1
  O  O21  1  0.70297200  0.20452300  0.79636000  1
  O  O22  1  0.80298600  0.29028100  0.21046300  1
  O  O23  1  0.28975600  0.80363200  0.69648000  1
  O  O24  1  0.80363200  0.28975600  0.69648000  1
  O  O25  1  0.29028100  0.80298600  0.21046300  1
  O  O26  1  0.20452300  0.70297200  0.79636000  1
  O  O27  1  0.70375400  0.20372900  0.29553000  1
  O  O28  1  0.80761500  0.80761500  0.14299200  1
  O  O29  1  0.30752100  0.30752100  0.64140600  1
  O  O30  1  0.69179500  0.69179500  0.35509200  1
  O  O31  1  0.19181400  0.19181400  0.86322800  1
