# generated using pymatgen
data_Sr2LaGa11O20
_symmetry_space_group_name_H-M   'P 1'
_cell_length_a   5.16567295
_cell_length_b   9.75744387
_cell_length_c   9.75744387
_cell_angle_alpha   74.50718358
_cell_angle_beta   75.42414890
_cell_angle_gamma   75.42414890
_symmetry_Int_Tables_number   1
_chemical_formula_structural   Sr2LaGa11O20
_chemical_formula_sum   'Sr2 La1 Ga11 O20'
_cell_volume   449.62911129
_cell_formula_units_Z   1
loop_
 _symmetry_equiv_pos_site_id
 _symmetry_equiv_pos_as_xyz
  1  'x, y, z'
loop_
 _atom_site_type_symbol
 _atom_site_label
 _atom_site_symmetry_multiplicity
 _atom_site_fract_x
 _atom_site_fract_y
 _atom_site_fract_z
 _atom_site_occupancy
  Sr  Sr0  1  0.99881500  0.99502700  0.99502700  1
  Sr  Sr1  1  0.28914200  0.71952600  0.71952600  1
  La  La2  1  0.69890900  0.28357400  0.28357400  1
  Ga  Ga3  1  0.49957900  0.36812200  0.63295500  1
  Ga  Ga4  1  0.49957900  0.63295500  0.36812200  1
  Ga  Ga5  1  0.35090400  0.00749800  0.27943600  1
  Ga  Ga6  1  0.65216400  0.72111200  0.99278600  1
  Ga  Ga7  1  0.65216400  0.99278600  0.72111200  1
  Ga  Ga8  1  0.35090400  0.27943600  0.00749800  1
  Ga  Ga9  1  0.16148400  0.14613500  0.57874400  1
  Ga  Ga10  1  0.83920800  0.42413400  0.85408100  1
  Ga  Ga11  1  0.83920800  0.85408100  0.42413400  1
  Ga  Ga12  1  0.16148400  0.57874400  0.14613500  1
  Ga  Ga13  1  0.99678500  0.49864100  0.49864100  1
  O  O14  1  0.98263700  0.29052500  0.01195900  1
  O  O15  1  0.01392200  0.99590900  0.71665200  1
  O  O16  1  0.01392200  0.71665200  0.99590900  1
  O  O17  1  0.98263700  0.01195900  0.29052500  1
  O  O18  1  0.11164600  0.45563700  0.69289300  1
  O  O19  1  0.88372800  0.30107100  0.53366600  1
  O  O20  1  0.88372800  0.53366600  0.30107100  1
  O  O21  1  0.11164600  0.69289300  0.45563700  1
  O  O22  1  0.60780300  0.56443000  0.56443000  1
  O  O23  1  0.38967800  0.42778300  0.42778300  1
  O  O24  1  0.36784400  0.12872200  0.39431700  1
  O  O25  1  0.63982600  0.60312500  0.87668800  1
  O  O26  1  0.63982600  0.87668800  0.60312500  1
  O  O27  1  0.36784400  0.39431700  0.12872200  1
  O  O28  1  0.50977600  0.09623600  0.09623600  1
  O  O29  1  0.49863700  0.90776700  0.90776700  1
  O  O30  1  0.58345400  0.82992200  0.32835400  1
  O  O31  1  0.41883200  0.67112900  0.17144400  1
  O  O32  1  0.41883200  0.17144400  0.67112900  1
  O  O33  1  0.58345400  0.32835400  0.82992200  1
