# generated using pymatgen
data_Sr2La2Cr3MoO12
_symmetry_space_group_name_H-M   'P 1'
_cell_length_a   5.58340388
_cell_length_b   9.67951149
_cell_length_c   5.58340892
_cell_angle_alpha   74.25884222
_cell_angle_beta   60.33664740
_cell_angle_gamma   74.25875930
_symmetry_Int_Tables_number   1
_chemical_formula_structural   Sr2La2Cr3MoO12
_chemical_formula_sum   'Sr2 La2 Cr3 Mo1 O12'
_cell_volume   248.96398161
_cell_formula_units_Z   1
loop_
 _symmetry_equiv_pos_site_id
 _symmetry_equiv_pos_as_xyz
  1  'x, y, z'
loop_
 _atom_site_type_symbol
 _atom_site_label
 _atom_site_symmetry_multiplicity
 _atom_site_fract_x
 _atom_site_fract_y
 _atom_site_fract_z
 _atom_site_occupancy
  Sr  Sr0  1  0.62939700  0.61255800  0.62939700  1
  Sr  Sr1  1  0.87059600  0.88744100  0.87060200  1
  La  La2  1  0.12877900  0.12980600  0.12877900  1
  La  La3  1  0.37120700  0.37021900  0.37120500  1
  Cr  Cr4  1  0.75000300  0.24999900  0.75000500  1
  Cr  Cr5  1  0.00174400  0.49672700  0.00174000  1
  Cr  Cr6  1  0.49827100  0.00325700  0.49827100  1
  Mo  Mo7  1  0.25000200  0.74998700  0.25000400  1
  O  O8  1  0.58650300  0.16273500  0.58650000  1
  O  O9  1  0.91349300  0.33725000  0.91349500  1
  O  O10  1  0.09712600  0.65972300  0.09713900  1
  O  O11  1  0.40286500  0.84029400  0.40285700  1
  O  O12  1  0.11029500  0.11101300  0.59389600  1
  O  O13  1  0.90609200  0.38896700  0.38974900  1
  O  O14  1  0.38975600  0.38896900  0.90608500  1
  O  O15  1  0.59388800  0.11101800  0.11029800  1
  O  O16  1  0.60450200  0.60096500  0.11570200  1
  O  O17  1  0.38429500  0.89905400  0.89548300  1
  O  O18  1  0.89548000  0.89905400  0.38429400  1
  O  O19  1  0.11570300  0.60096500  0.60450100  1
