# generated using pymatgen
data_Sr2Eu2TlNi2O9
_symmetry_space_group_name_H-M   'P 1'
_cell_length_a   15.24082335
_cell_length_b   15.23598537
_cell_length_c   3.81686703
_cell_angle_alpha   82.87753408
_cell_angle_beta   82.73342978
_cell_angle_gamma   14.38903614
_symmetry_Int_Tables_number   1
_chemical_formula_structural   Sr2Eu2TlNi2O9
_chemical_formula_sum   'Sr2 Eu2 Tl1 Ni2 O9'
_cell_volume   218.47936577
_cell_formula_units_Z   1
loop_
 _symmetry_equiv_pos_site_id
 _symmetry_equiv_pos_as_xyz
  1  'x, y, z'
loop_
 _atom_site_type_symbol
 _atom_site_label
 _atom_site_symmetry_multiplicity
 _atom_site_fract_x
 _atom_site_fract_y
 _atom_site_fract_z
 _atom_site_occupancy
  Sr  Sr0  1  0.59180000  0.57757900  0.42242100  1
  Sr  Sr1  1  0.42242100  0.40820000  0.59180000  1
  Eu  Eu2  1  0.70473200  0.70352100  0.29647900  1
  Eu  Eu3  1  0.29647900  0.29526800  0.70473200  1
  Tl  Tl4  1  0.04439200  0.95560800  0.04439200  1
  Ni  Ni5  1  0.14983900  0.14586000  0.85414000  1
  Ni  Ni6  1  0.85414000  0.85016100  0.14983900  1
  O  O7  1  0.21913300  0.21828800  0.78171200  1
  O  O8  1  0.78171200  0.78086700  0.21913300  1
  O  O9  1  0.47888400  0.52111600  0.47888400  1
  O  O10  1  0.65110300  0.64745600  0.85221500  1
  O  O11  1  0.15077500  0.14778500  0.35254400  1
  O  O12  1  0.35254400  0.34889700  0.15077500  1
  O  O13  1  0.85221500  0.84922500  0.65110300  1
  O  O14  1  0.07154800  0.06971700  0.93028300  1
  O  O15  1  0.93028300  0.92845200  0.07154800  1
