# generated using pymatgen
data_Sr2FeMoNO5
_symmetry_space_group_name_H-M   'P 1'
_cell_length_a   5.60873063
_cell_length_b   5.60873063
_cell_length_c   5.71593112
_cell_angle_alpha   60.62361296
_cell_angle_beta   60.62361296
_cell_angle_gamma   89.88602881
_symmetry_Int_Tables_number   1
_chemical_formula_structural   Sr2FeMoNO5
_chemical_formula_sum   'Sr2 Fe1 Mo1 N1 O5'
_cell_volume   129.62427492
_cell_formula_units_Z   1
loop_
 _symmetry_equiv_pos_site_id
 _symmetry_equiv_pos_as_xyz
  1  'x, y, z'
loop_
 _atom_site_type_symbol
 _atom_site_label
 _atom_site_symmetry_multiplicity
 _atom_site_fract_x
 _atom_site_fract_y
 _atom_site_fract_z
 _atom_site_occupancy
  Sr  Sr0  1  0.77087200  0.27067800  0.46047000  1
  Sr  Sr1  1  0.27067800  0.77087200  0.46047000  1
  Fe  Fe2  1  0.51289200  0.51289200  0.97356100  1
  Mo  Mo3  1  0.02246800  0.02246800  0.95621300  1
  N  N4  1  0.24162600  0.24162600  0.52619100  1
  O  O5  1  0.74130700  0.23289800  0.02609200  1
  O  O6  1  0.23289800  0.74130700  0.02609200  1
  O  O7  1  0.73395900  0.73395900  0.51795900  1
  O  O8  1  0.22643100  0.22643100  0.03784700  1
  O  O9  1  0.74687000  0.74687000  0.01510400  1
