# generated using pymatgen
data_Sr2CaTi3O9
_symmetry_space_group_name_H-M   'P 1'
_cell_length_a   5.55465600
_cell_length_b   9.59504279
_cell_length_c   13.59887242
_cell_angle_alpha   89.64723222
_cell_angle_beta   89.82530895
_cell_angle_gamma   89.87789087
_symmetry_Int_Tables_number   1
_chemical_formula_structural   Sr2CaTi3O9
_chemical_formula_sum   'Sr8 Ca4 Ti12 O36'
_cell_volume   724.76258305
_cell_formula_units_Z   4
loop_
 _symmetry_equiv_pos_site_id
 _symmetry_equiv_pos_as_xyz
  1  'x, y, z'
loop_
 _atom_site_type_symbol
 _atom_site_label
 _atom_site_symmetry_multiplicity
 _atom_site_fract_x
 _atom_site_fract_y
 _atom_site_fract_z
 _atom_site_occupancy
  Sr  Sr0  1  0.99629800  0.83431400  0.58392200  1
  Sr  Sr1  1  0.99617200  0.16586900  0.91604500  1
  Sr  Sr2  1  0.51060900  0.66722700  0.91529600  1
  Sr  Sr3  1  0.51190400  0.99805100  0.24986800  1
  Sr  Sr4  1  0.50992400  0.33301000  0.58307100  1
  Sr  Sr5  1  0.01074900  0.50251500  0.75197600  1
  Sr  Sr6  1  0.01292700  0.83527400  0.08613300  1
  Sr  Sr7  1  0.01249400  0.16898000  0.41869700  1
  Ca  Ca8  1  0.49676200  0.33325700  0.08379400  1
  Ca  Ca9  1  0.49851500  0.66648800  0.41658900  1
  Ca  Ca10  1  0.49670700  0.00086100  0.75030300  1
  Ca  Ca11  1  0.99898600  0.50015100  0.25050500  1
  Ti  Ti12  1  0.00813800  0.50248400  0.49898900  1
  Ti  Ti13  1  0.00679400  0.83632600  0.83448100  1
  Ti  Ti14  1  0.00676300  0.17140600  0.16778700  1
  Ti  Ti15  1  0.50787000  0.00034900  0.50130700  1
  Ti  Ti16  1  0.50791500  0.33427200  0.83596700  1
  Ti  Ti17  1  0.50875400  0.66575600  0.16954300  1
  Ti  Ti18  1  0.00658200  0.16747000  0.66866800  1
  Ti  Ti19  1  0.00674700  0.49926900  0.00389900  1
  Ti  Ti20  1  0.00848400  0.83144400  0.33470000  1
  Ti  Ti21  1  0.50771900  0.66945300  0.66695100  1
  Ti  Ti22  1  0.50805500  0.00176500  0.00186000  1
  Ti  Ti23  1  0.50863400  0.33756200  0.33373300  1
  O  O24  1  0.73089300  0.92956600  0.90181100  1
  O  O25  1  0.72793400  0.26739200  0.23352400  1
  O  O26  1  0.73216900  0.59803300  0.56679200  1
  O  O27  1  0.23852800  0.23694500  0.75903200  1
  O  O28  1  0.23112500  0.56502200  0.09897600  1
  O  O29  1  0.23883800  0.89904900  0.42696100  1
  O  O30  1  0.25606100  0.09937000  0.57873400  1
  O  O31  1  0.25774500  0.43398600  0.91385500  1
  O  O32  1  0.25868000  0.76961100  0.24518300  1
  O  O33  1  0.76154000  0.39666800  0.41730900  1
  O  O34  1  0.75886000  0.73148400  0.75167000  1
  O  O35  1  0.75832400  0.06410400  0.08547200  1
  O  O36  1  0.25921000  0.40362900  0.42789000  1
  O  O37  1  0.25568700  0.73841600  0.75931600  1
  O  O38  1  0.25771600  0.07391700  0.09398000  1
  O  O39  1  0.75857300  0.09133900  0.57125500  1
  O  O40  1  0.75837800  0.42575600  0.90469500  1
  O  O41  1  0.76123600  0.75841400  0.23702200  1
  O  O42  1  0.73073000  0.22588400  0.75361500  1
  O  O43  1  0.72827600  0.55556300  0.08964600  1
  O  O44  1  0.73181800  0.88967300  0.42084700  1
  O  O45  1  0.23895000  0.93394300  0.91046000  1
  O  O46  1  0.23104800  0.27667100  0.24319100  1
  O  O47  1  0.23859300  0.60241200  0.57523800  1
  O  O48  1  0.00072700  0.98646000  0.73629000  1
  O  O49  1  0.99560600  0.31699900  0.06714000  1
  O  O50  1  0.00176700  0.64544200  0.39545400  1
  O  O51  1  0.49776200  0.85296500  0.60302400  1
  O  O52  1  0.49712000  0.18518900  0.93496800  1
  O  O53  1  0.49623200  0.52223900  0.27236900  1
  O  O54  1  0.99090900  0.34690600  0.59631100  1
  O  O55  1  0.99263900  0.67984100  0.93185700  1
  O  O56  1  0.99247500  0.01556700  0.26407800  1
  O  O57  1  0.49737100  0.48747800  0.73620000  1
  O  O58  1  0.49560900  0.81852900  0.06964200  1
  O  O59  1  0.49636900  0.15198900  0.40210800  1
