# generated using pymatgen
data_Sr2CePrCu3(PbO5)2
_symmetry_space_group_name_H-M   'P 1'
_cell_length_a   3.87411900
_cell_length_b   3.90292925
_cell_length_c   18.95841978
_cell_angle_alpha   94.95998972
_cell_angle_beta   95.61593493
_cell_angle_gamma   89.97966792
_symmetry_Int_Tables_number   1
_chemical_formula_structural   Sr2CePrCu3(PbO5)2
_chemical_formula_sum   'Sr2 Ce1 Pr1 Cu3 Pb2 O10'
_cell_volume   284.20542991
_cell_formula_units_Z   1
loop_
 _symmetry_equiv_pos_site_id
 _symmetry_equiv_pos_as_xyz
  1  'x, y, z'
loop_
 _atom_site_type_symbol
 _atom_site_label
 _atom_site_symmetry_multiplicity
 _atom_site_fract_x
 _atom_site_fract_y
 _atom_site_fract_z
 _atom_site_occupancy
  Sr  Sr0  1  0.12179400  0.13015100  0.23638800  1
  Sr  Sr1  1  0.87864400  0.86951400  0.76461900  1
  Ce  Ce2  1  0.78464200  0.78259300  0.57068600  1
  Pr  Pr3  1  0.21511400  0.21680200  0.42947100  1
  Cu  Cu4  1  0.66609000  0.66838700  0.33062200  1
  Cu  Cu5  1  0.33292500  0.33124500  0.66695200  1
  Cu  Cu6  1  0.99955500  0.99910500  0.99918000  1
  Pb  Pb7  1  0.55408200  0.54658500  0.09374600  1
  Pb  Pb8  1  0.44603100  0.45340100  0.90573900  1
  O  O9  1  0.17140900  0.67494900  0.34189100  1
  O  O10  1  0.32761300  0.82714000  0.65584400  1
  O  O11  1  0.82750000  0.32695400  0.65537900  1
  O  O12  1  0.67128600  0.17222300  0.34083900  1
  O  O13  1  0.25270400  0.74986400  0.50589500  1
  O  O14  1  0.75228000  0.25204100  0.50639700  1
  O  O15  1  0.60850800  0.61912500  0.20907200  1
  O  O16  1  0.39065100  0.38015500  0.78905900  1
  O  O17  1  0.06300800  0.14694400  0.09565100  1
  O  O18  1  0.93616500  0.85282300  0.90257000  1
