# generated using pymatgen
data_Sr2AlV11O22
_symmetry_space_group_name_H-M   'P 1'
_cell_length_a   5.90142050
_cell_length_b   5.90142050
_cell_length_c   13.37931300
_cell_angle_alpha   90.00000000
_cell_angle_beta   90.00000000
_cell_angle_gamma   120.81937563
_symmetry_Int_Tables_number   1
_chemical_formula_structural   Sr2AlV11O22
_chemical_formula_sum   'Sr2 Al1 V11 O22'
_cell_volume   400.15867917
_cell_formula_units_Z   1
loop_
 _symmetry_equiv_pos_site_id
 _symmetry_equiv_pos_as_xyz
  1  'x, y, z'
loop_
 _atom_site_type_symbol
 _atom_site_label
 _atom_site_symmetry_multiplicity
 _atom_site_fract_x
 _atom_site_fract_y
 _atom_site_fract_z
 _atom_site_occupancy
  Sr  Sr0  1  0.66438300  0.33561700  0.50000000  1
  Sr  Sr1  1  0.33223200  0.66776800  0.00000000  1
  Al  Al2  1  0.66593000  0.33407000  0.00000000  1
  V  V3  1  0.99994700  0.00005300  0.60347700  1
  V  V4  1  0.99927900  0.00072100  0.89885600  1
  V  V5  1  0.99927900  0.00072100  0.10114400  1
  V  V6  1  0.99994700  0.00005300  0.39652300  1
  V  V7  1  0.50683100  0.00816800  0.24802900  1
  V  V8  1  0.49842400  0.50157600  0.25050800  1
  V  V9  1  0.99183200  0.49316900  0.24802900  1
  V  V10  1  0.50683100  0.00816800  0.75197100  1
  V  V11  1  0.49842400  0.50157600  0.74949200  1
  V  V12  1  0.99183200  0.49316900  0.75197100  1
  V  V13  1  0.33290600  0.66709400  0.50000000  1
  O  O14  1  0.65976200  0.34023800  0.16111500  1
  O  O15  1  0.33714400  0.66285600  0.33296500  1
  O  O16  1  0.33714400  0.66285600  0.66703500  1
  O  O17  1  0.65976200  0.34023800  0.83888500  1
  O  O18  1  0.82010500  0.64544300  0.32787600  1
  O  O19  1  0.82541600  0.17458400  0.33210900  1
  O  O20  1  0.35455700  0.17989500  0.32787600  1
  O  O21  1  0.17608600  0.34554300  0.17102200  1
  O  O22  1  0.17973200  0.82026800  0.17172200  1
  O  O23  1  0.65445700  0.82391400  0.17102200  1
  O  O24  1  0.17608600  0.34554300  0.82897800  1
  O  O25  1  0.17973200  0.82026800  0.82827800  1
  O  O26  1  0.65445700  0.82391400  0.82897800  1
  O  O27  1  0.82010500  0.64544300  0.67212400  1
  O  O28  1  0.82541600  0.17458400  0.66789100  1
  O  O29  1  0.35455700  0.17989500  0.67212400  1
  O  O30  1  0.15242600  0.29738400  0.50000000  1
  O  O31  1  0.14698500  0.85301500  0.50000000  1
  O  O32  1  0.70261600  0.84757400  0.50000000  1
  O  O33  1  0.84560100  0.68946400  0.00000000  1
  O  O34  1  0.83924000  0.16076000  0.00000000  1
  O  O35  1  0.31053600  0.15439900  0.00000000  1
