# generated using pymatgen
data_Sr2CeEuCu2RuO10
_symmetry_space_group_name_H-M   'P 1'
_cell_length_a   3.89765054
_cell_length_b   3.89765054
_cell_length_c   14.72856415
_cell_angle_alpha   82.43435123
_cell_angle_beta   82.43435123
_cell_angle_gamma   90.07743923
_symmetry_Int_Tables_number   1
_chemical_formula_structural   Sr2CeEuCu2RuO10
_chemical_formula_sum   'Sr2 Ce1 Eu1 Cu2 Ru1 O10'
_cell_volume   219.83315828
_cell_formula_units_Z   1
loop_
 _symmetry_equiv_pos_site_id
 _symmetry_equiv_pos_as_xyz
  1  'x, y, z'
loop_
 _atom_site_type_symbol
 _atom_site_label
 _atom_site_symmetry_multiplicity
 _atom_site_fract_x
 _atom_site_fract_y
 _atom_site_fract_z
 _atom_site_occupancy
  Sr  Sr0  1  0.57521200  0.57521200  0.84119600  1
  Sr  Sr1  1  0.41717300  0.41717300  0.15250000  1
  Ce  Ce2  1  0.29336600  0.29336600  0.41216000  1
  Eu  Eu3  1  0.70413500  0.70413500  0.59078700  1
  Cu  Cu4  1  0.14113700  0.14113700  0.71388000  1
  Cu  Cu5  1  0.85485800  0.85485800  0.28607300  1
  Ru  Ru6  1  0.97277400  0.97277400  0.00031800  1
  O  O7  1  0.06276500  0.06276500  0.86609900  1
  O  O8  1  0.92607400  0.92607400  0.13641600  1
  O  O9  1  0.64588300  0.14656300  0.70451800  1
  O  O10  1  0.14656300  0.64588300  0.70451800  1
  O  O11  1  0.34820600  0.84889800  0.29953500  1
  O  O12  1  0.84889800  0.34820600  0.29953500  1
  O  O13  1  0.75271900  0.25270600  0.49410500  1
  O  O14  1  0.25270600  0.75271900  0.49410500  1
  O  O15  1  0.47441300  0.95411700  0.00212700  1
  O  O16  1  0.95411700  0.47441300  0.00212700  1
