# generated using pymatgen
data_Sr10Mg4Fe(MoO6)5
_symmetry_space_group_name_H-M   'P 1'
_cell_length_a   8.04065800
_cell_length_b   9.78796112
_cell_length_c   9.78796112
_cell_angle_alpha   80.28721849
_cell_angle_beta   114.25147564
_cell_angle_gamma   114.25147564
_symmetry_Int_Tables_number   1
_chemical_formula_structural   Sr10Mg4Fe(MoO6)5
_chemical_formula_sum   'Sr10 Mg4 Fe1 Mo5 O30'
_cell_volume   640.36708503
_cell_formula_units_Z   1
loop_
 _symmetry_equiv_pos_site_id
 _symmetry_equiv_pos_as_xyz
  1  'x, y, z'
loop_
 _atom_site_type_symbol
 _atom_site_label
 _atom_site_symmetry_multiplicity
 _atom_site_fract_x
 _atom_site_fract_y
 _atom_site_fract_z
 _atom_site_occupancy
  Sr  Sr0  1  0.45000000  0.10000000  0.30000000  1
  Sr  Sr1  1  0.25139800  0.50010800  0.50032600  1
  Sr  Sr2  1  0.04871000  0.89967400  0.70010800  1
  Sr  Sr3  1  0.84892900  0.30032600  0.89989200  1
  Sr  Sr4  1  0.65096300  0.69989200  0.09967400  1
  Sr  Sr5  1  0.35129000  0.30032600  0.89989200  1
  Sr  Sr6  1  0.14860200  0.69989200  0.09967400  1
  Sr  Sr7  1  0.95000000  0.10000000  0.30000000  1
  Sr  Sr8  1  0.74903700  0.50010800  0.50032600  1
  Sr  Sr9  1  0.55107100  0.89967400  0.70010800  1
  Mg  Mg10  1  0.99949400  0.99963100  0.99935700  1
  Mg  Mg11  1  0.80013700  0.40064300  0.19963100  1
  Mg  Mg12  1  0.59986300  0.79935700  0.40036900  1
  Mg  Mg13  1  0.40050600  0.20036900  0.60064300  1
  Fe  Fe14  1  0.20000000  0.60000000  0.80000000  1
  Mo  Mo15  1  0.50098400  0.00097900  0.00098800  1
  Mo  Mo16  1  0.29999600  0.39901200  0.20097900  1
  Mo  Mo17  1  0.10000400  0.80098800  0.39902100  1
  Mo  Mo18  1  0.89901600  0.19902100  0.59901200  1
  Mo  Mo19  1  0.70000000  0.60000000  0.80000000  1
  O  O20  1  0.54226500  0.39976800  0.20027700  1
  O  O21  1  0.34222000  0.80023200  0.39972300  1
  O  O22  1  0.14198700  0.19972300  0.59976800  1
  O  O23  1  0.94885600  0.60000000  0.80000000  1
  O  O24  1  0.74249700  0.00027700  0.00023200  1
  O  O25  1  0.25801300  0.00027700  0.00023200  1
  O  O26  1  0.05778000  0.39976800  0.20027700  1
  O  O27  1  0.85773500  0.80023200  0.39972300  1
  O  O28  1  0.65750300  0.19972300  0.59976800  1
  O  O29  1  0.45114400  0.60000000  0.80000000  1
  O  O30  1  0.85242400  0.78362600  0.92122300  1
  O  O31  1  0.65144000  0.18203800  0.12084300  1
  O  O32  1  0.45045300  0.58178200  0.31912500  1
  O  O33  1  0.25099900  0.98164800  0.52035100  1
  O  O34  1  0.05288800  0.38422100  0.72155500  1
  O  O35  1  0.54757600  0.41637400  0.67877700  1
  O  O36  1  0.34711200  0.81577900  0.87844500  1
  O  O37  1  0.14900100  0.21835200  0.07964900  1
  O  O38  1  0.94954700  0.61821800  0.28087500  1
  O  O39  1  0.74856000  0.01796200  0.47915700  1
  O  O40  1  0.66879900  0.72122300  0.61637400  1
  O  O41  1  0.46867200  0.11912500  0.81821800  1
  O  O42  1  0.26866700  0.52155500  0.01577900  1
  O  O43  1  0.06940300  0.92084300  0.21796200  1
  O  O44  1  0.86935100  0.32035100  0.41835200  1
  O  O45  1  0.73120100  0.47877700  0.98362600  1
  O  O46  1  0.53064900  0.87964900  0.18164800  1
  O  O47  1  0.33059700  0.27915700  0.38203800  1
  O  O48  1  0.13133300  0.67844500  0.58422100  1
  O  O49  1  0.93132800  0.08087500  0.78178200  1
