# generated using pymatgen
data_Sr10Nb5N5O14
_symmetry_space_group_name_H-M   'P 1'
_cell_length_a   9.04586581
_cell_length_b   9.04586581
_cell_length_c   9.10108915
_cell_angle_alpha   60.09987985
_cell_angle_beta   60.09987985
_cell_angle_gamma   89.54439277
_symmetry_Int_Tables_number   1
_chemical_formula_structural   Sr10Nb5N5O14
_chemical_formula_sum   'Sr10 Nb5 N5 O14'
_cell_volume   530.22101005
_cell_formula_units_Z   1
loop_
 _symmetry_equiv_pos_site_id
 _symmetry_equiv_pos_as_xyz
  1  'x, y, z'
loop_
 _atom_site_type_symbol
 _atom_site_label
 _atom_site_symmetry_multiplicity
 _atom_site_fract_x
 _atom_site_fract_y
 _atom_site_fract_z
 _atom_site_occupancy
  Sr  Sr0  1  0.85652900  0.14347100  0.00000000  1
  Sr  Sr1  1  0.64996600  0.94198100  0.80472100  1
  Sr  Sr2  1  0.45421800  0.74270400  0.60042800  1
  Sr  Sr3  1  0.25729600  0.54578200  0.39957200  1
  Sr  Sr4  1  0.05801900  0.35003400  0.19527900  1
  Sr  Sr5  1  0.54578200  0.25729600  0.39957200  1
  Sr  Sr6  1  0.35003400  0.05801900  0.19527900  1
  Sr  Sr7  1  0.14347100  0.85652900  0.00000000  1
  Sr  Sr8  1  0.94198100  0.64996600  0.80472100  1
  Sr  Sr9  1  0.74270400  0.45421800  0.60042800  1
  Nb  Nb10  1  0.89878500  0.89878500  0.39690800  1
  Nb  Nb11  1  0.69777200  0.69777200  0.19974900  1
  Nb  Nb12  1  0.50000000  0.50000000  0.00000000  1
  Nb  Nb13  1  0.30222800  0.30222800  0.80025100  1
  Nb  Nb14  1  0.10121500  0.10121500  0.60309200  1
  N  N15  1  0.10319000  0.10319000  0.10944500  1
  N  N16  1  0.50000000  0.50000000  0.50000000  1
  N  N17  1  0.89681000  0.89681000  0.89055500  1
  N  N18  1  0.29336000  0.29336000  0.29774900  1
  N  N19  1  0.70664000  0.70664000  0.70225100  1
  O  O20  1  0.66360600  0.33639400  0.00000000  1
  O  O21  1  0.45958600  0.13693700  0.80017100  1
  O  O22  1  0.25646900  0.93430900  0.59311000  1
  O  O23  1  0.06569100  0.74353100  0.40689000  1
  O  O24  1  0.86306300  0.54041400  0.19982900  1
  O  O25  1  0.74353100  0.06569100  0.40689000  1
  O  O26  1  0.54041400  0.86306300  0.19982900  1
  O  O27  1  0.33639400  0.66360600  0.00000000  1
  O  O28  1  0.13693700  0.45958600  0.80017100  1
  O  O29  1  0.93430900  0.25646900  0.59311000  1
  O  O30  1  0.40854600  0.40854600  0.88910300  1
  O  O31  1  0.80523400  0.80523400  0.29382900  1
  O  O32  1  0.19476600  0.19476600  0.70617100  1
  O  O33  1  0.59145400  0.59145400  0.11089700  1
