# generated using pymatgen
data_Sr10P6ClO24F
_symmetry_space_group_name_H-M   'P 1'
_cell_length_a   9.94112493
_cell_length_b   9.94112493
_cell_length_c   7.33367900
_cell_angle_alpha   90.00000000
_cell_angle_beta   90.00000000
_cell_angle_gamma   120.00000619
_symmetry_Int_Tables_number   1
_chemical_formula_structural   Sr10P6ClO24F
_chemical_formula_sum   'Sr10 P6 Cl1 O24 F1'
_cell_volume   627.65871666
_cell_formula_units_Z   1
loop_
 _symmetry_equiv_pos_site_id
 _symmetry_equiv_pos_as_xyz
  1  'x, y, z'
loop_
 _atom_site_type_symbol
 _atom_site_label
 _atom_site_symmetry_multiplicity
 _atom_site_fract_x
 _atom_site_fract_y
 _atom_site_fract_z
 _atom_site_occupancy
  Sr  Sr0  1  0.00000000  0.00000000  0.50240800  1
  Sr  Sr1  1  0.33333300  0.66666700  0.00100000  1
  Sr  Sr2  1  0.33333300  0.66666700  0.50109200  1
  Sr  Sr3  1  0.00000000  0.00000000  0.99654100  1
  Sr  Sr4  1  0.92255300  0.32581900  0.25124100  1
  Sr  Sr5  1  0.40326600  0.07744700  0.25124100  1
  Sr  Sr6  1  0.67418100  0.59673400  0.25124100  1
  Sr  Sr7  1  0.42751000  0.33933100  0.75180100  1
  Sr  Sr8  1  0.91182100  0.57249000  0.75180100  1
  Sr  Sr9  1  0.66066900  0.08817900  0.75180100  1
  P  P10  1  0.63841600  0.93416500  0.24951300  1
  P  P11  1  0.29574800  0.36158400  0.24951300  1
  P  P12  1  0.06583500  0.70425200  0.24951300  1
  P  P13  1  0.69432100  0.73463600  0.74913400  1
  P  P14  1  0.04031500  0.30567900  0.74913400  1
  P  P15  1  0.26536400  0.95968500  0.74913400  1
  Cl  Cl16  1  0.66666700  0.33333300  0.08358800  1
  O  O17  1  0.81674800  0.99657100  0.24969700  1
  O  O18  1  0.17982300  0.18325200  0.24969700  1
  O  O19  1  0.00342900  0.82017700  0.24969700  1
  O  O20  1  0.51605600  0.66950800  0.74932500  1
  O  O21  1  0.15345200  0.48394400  0.74932500  1
  O  O22  1  0.33049200  0.84654800  0.74932500  1
  O  O23  1  0.59038100  0.99554800  0.41869900  1
  O  O24  1  0.40516800  0.40961900  0.41869900  1
  O  O25  1  0.00445200  0.59483200  0.41869900  1
  O  O26  1  0.74518100  0.67908400  0.92080700  1
  O  O27  1  0.93390300  0.25481900  0.92080700  1
  O  O28  1  0.32091600  0.06609700  0.92080700  1
  O  O29  1  0.74462900  0.67719400  0.57852900  1
  O  O30  1  0.93256500  0.25537100  0.57852900  1
  O  O31  1  0.32280600  0.06743500  0.57852900  1
  O  O32  1  0.58535300  0.98313300  0.07549900  1
  O  O33  1  0.39777900  0.41464700  0.07549900  1
  O  O34  1  0.01686700  0.60222100  0.07549900  1
  O  O35  1  0.54711100  0.75223500  0.25532400  1
  O  O36  1  0.20512400  0.45288900  0.25532400  1
  O  O37  1  0.24776500  0.79487600  0.25532400  1
  O  O38  1  0.78469800  0.91638600  0.74805200  1
  O  O39  1  0.13168900  0.21530200  0.74805200  1
  O  O40  1  0.08361400  0.86831100  0.74805200  1
  F  F41  1  0.66666700  0.33333300  0.66952100  1
