# generated using pymatgen
data_Sr10Mg5Mo(W2O15)2
_symmetry_space_group_name_H-M   'P 1'
_cell_length_a   5.66083300
_cell_length_b   5.67196964
_cell_length_c   23.35786372
_cell_angle_alpha   89.77404671
_cell_angle_beta   96.86688952
_cell_angle_gamma   119.72351106
_symmetry_Int_Tables_number   1
_chemical_formula_structural   Sr10Mg5Mo(W2O15)2
_chemical_formula_sum   'Sr10 Mg5 Mo1 W4 O30'
_cell_volume   645.29500408
_cell_formula_units_Z   1
loop_
 _symmetry_equiv_pos_site_id
 _symmetry_equiv_pos_as_xyz
  1  'x, y, z'
loop_
 _atom_site_type_symbol
 _atom_site_label
 _atom_site_symmetry_multiplicity
 _atom_site_fract_x
 _atom_site_fract_y
 _atom_site_fract_z
 _atom_site_occupancy
  Sr  Sr0  1  0.49940200  0.24948400  0.74982700  1
  Sr  Sr1  1  0.69943800  0.84950900  0.54981700  1
  Sr  Sr2  1  0.89944600  0.44950600  0.34981100  1
  Sr  Sr3  1  0.09921200  0.04941700  0.14916700  1
  Sr  Sr4  1  0.29983000  0.64985700  0.95043100  1
  Sr  Sr5  1  0.90078800  0.95058300  0.85083300  1
  Sr  Sr6  1  0.10055400  0.55049400  0.65018900  1
  Sr  Sr7  1  0.30056200  0.15049100  0.45018300  1
  Sr  Sr8  1  0.50059800  0.75051600  0.25017300  1
  Sr  Sr9  1  0.70017000  0.35014300  0.04956900  1
  Mg  Mg10  1  0.59991600  0.30001100  0.89979200  1
  Mg  Mg11  1  0.80001400  0.90000400  0.70006700  1
  Mg  Mg12  1  0.00000000  0.50000000  0.50000000  1
  Mg  Mg13  1  0.19998600  0.09999600  0.29993300  1
  Mg  Mg14  1  0.40008400  0.69998900  0.10020800  1
  Mo  Mo15  1  0.00000000  0.00000000  0.00000000  1
  W  W16  1  0.20001100  0.59997900  0.79994500  1
  W  W17  1  0.39992800  0.19995100  0.59996000  1
  W  W18  1  0.60007200  0.80004900  0.40004000  1
  W  W19  1  0.79998900  0.40002100  0.20005500  1
  O  O20  1  0.01414700  0.25177900  0.75477500  1
  O  O21  1  0.21405800  0.85165800  0.55469100  1
  O  O22  1  0.41401800  0.45153700  0.35466200  1
  O  O23  1  0.61392700  0.05139800  0.15457700  1
  O  O24  1  0.81439000  0.65246100  0.95478000  1
  O  O25  1  0.38607300  0.94860200  0.84542300  1
  O  O26  1  0.58598200  0.54846300  0.64533800  1
  O  O27  1  0.78594200  0.14834200  0.44530900  1
  O  O28  1  0.98585300  0.74822100  0.24522500  1
  O  O29  1  0.18561000  0.34753900  0.04522000  1
  O  O30  1  0.13824100  0.04044900  0.65556000  1
  O  O31  1  0.33834100  0.64048400  0.45551400  1
  O  O32  1  0.53852700  0.24060800  0.25546100  1
  O  O33  1  0.73849900  0.84076600  0.05526200  1
  O  O34  1  0.93834000  0.44050600  0.85569900  1
  O  O35  1  0.26150100  0.15923400  0.94473800  1
  O  O36  1  0.46147300  0.75939200  0.74453900  1
  O  O37  1  0.66165900  0.35951600  0.54448600  1
  O  O38  1  0.86175900  0.95955100  0.34444000  1
  O  O39  1  0.06166000  0.55949400  0.14430100  1
  O  O40  1  0.64111700  0.09098300  0.64451800  1
  O  O41  1  0.84107100  0.69102900  0.44449400  1
  O  O42  1  0.04099700  0.29107900  0.24442100  1
  O  O43  1  0.24031300  0.89101200  0.04437600  1
  O  O44  1  0.44118900  0.49102200  0.84460700  1
  O  O45  1  0.75968700  0.10898800  0.95562400  1
  O  O46  1  0.95900300  0.70892100  0.75557900  1
  O  O47  1  0.15892900  0.30897100  0.55550600  1
  O  O48  1  0.35888300  0.90901700  0.35548200  1
  O  O49  1  0.55881100  0.50897800  0.15539300  1
