# generated using pymatgen
data_Sr2CaCu2(BiO4)2
_symmetry_space_group_name_H-M   'P 1'
_cell_length_a   16.11398919
_cell_length_b   16.11398919
_cell_length_c   5.41711500
_cell_angle_alpha   90.00000000
_cell_angle_beta   90.00000000
_cell_angle_gamma   160.44549941
_symmetry_Int_Tables_number   1
_chemical_formula_structural   Sr2CaCu2(BiO4)2
_chemical_formula_sum   'Sr4 Ca2 Cu4 Bi4 O16'
_cell_volume   470.79762861
_cell_formula_units_Z   2
loop_
 _symmetry_equiv_pos_site_id
 _symmetry_equiv_pos_as_xyz
  1  'x, y, z'
loop_
 _atom_site_type_symbol
 _atom_site_label
 _atom_site_symmetry_multiplicity
 _atom_site_fract_x
 _atom_site_fract_y
 _atom_site_fract_z
 _atom_site_occupancy
  Sr  Sr0  1  0.60699000  0.89545300  0.49433200  1
  Sr  Sr1  1  0.39301000  0.10454700  0.49433200  1
  Sr  Sr2  1  0.89545300  0.60699000  0.99433200  1
  Sr  Sr3  1  0.10454700  0.39301000  0.99433200  1
  Ca  Ca4  1  0.00000000  0.50000000  0.99874500  1
  Ca  Ca5  1  0.50000000  0.00000000  0.49874500  1
  Cu  Cu6  1  0.54872500  0.95110600  0.99755200  1
  Cu  Cu7  1  0.45127500  0.04889400  0.99755200  1
  Cu  Cu8  1  0.95110600  0.54872500  0.49755200  1
  Cu  Cu9  1  0.04889400  0.45127500  0.49755200  1
  Bi  Bi10  1  0.77478700  0.67180200  0.44109100  1
  Bi  Bi11  1  0.22521300  0.32819800  0.44109100  1
  Bi  Bi12  1  0.32819800  0.22521300  0.94109100  1
  Bi  Bi13  1  0.67180200  0.77478700  0.94109100  1
  O  O14  1  0.12535500  0.35645900  0.48394700  1
  O  O15  1  0.87464500  0.64354100  0.48394700  1
  O  O16  1  0.35645900  0.12535500  0.98394700  1
  O  O17  1  0.64354100  0.87464500  0.98394700  1
  O  O18  1  0.19906500  0.80098100  0.74736300  1
  O  O19  1  0.80093500  0.19901900  0.74736300  1
  O  O20  1  0.80098100  0.19906500  0.24736300  1
  O  O21  1  0.19901900  0.80093500  0.24736300  1
  O  O22  1  0.71843900  0.61161200  0.03670200  1
  O  O23  1  0.28156100  0.38838800  0.03670200  1
  O  O24  1  0.61161200  0.71843900  0.53670200  1
  O  O25  1  0.38838800  0.28156100  0.53670200  1
  O  O26  1  0.69867000  0.30094900  0.24764100  1
  O  O27  1  0.30133000  0.69905100  0.24764100  1
  O  O28  1  0.30094900  0.69867000  0.74764100  1
  O  O29  1  0.69905100  0.30133000  0.74764100  1
