# generated using pymatgen
data_SnTe2Pb
_symmetry_space_group_name_H-M   'P 1'
_cell_length_a   7.94525320
_cell_length_b   7.94525320
_cell_length_c   7.94525293
_cell_angle_alpha   33.57162999
_cell_angle_beta   33.57162999
_cell_angle_gamma   33.57163531
_symmetry_Int_Tables_number   1
_chemical_formula_structural   SnTe2Pb
_chemical_formula_sum   'Sn1 Te2 Pb1'
_cell_volume   136.61355279
_cell_formula_units_Z   1
loop_
 _symmetry_equiv_pos_site_id
 _symmetry_equiv_pos_as_xyz
  1  'x, y, z'
loop_
 _atom_site_type_symbol
 _atom_site_label
 _atom_site_symmetry_multiplicity
 _atom_site_fract_x
 _atom_site_fract_y
 _atom_site_fract_z
 _atom_site_occupancy
  Sn  Sn0  1  0.50000000  0.50000000  0.50000000  1
  Te  Te1  1  0.24755200  0.24755200  0.24755200  1
  Te  Te2  1  0.75244800  0.75244800  0.75244800  1
  Pb  Pb3  1  0.00000000  0.00000000  0.00000000  1
