# generated using pymatgen
data_Sr10Fe3Co2(MoO6)5
_symmetry_space_group_name_H-M   'P 1'
_cell_length_a   8.03330700
_cell_length_b   9.75591889
_cell_length_c   9.87996630
_cell_angle_alpha   79.43421076
_cell_angle_beta   66.03311534
_cell_angle_gamma   65.68984866
_symmetry_Int_Tables_number   1
_chemical_formula_structural   Sr10Fe3Co2(MoO6)5
_chemical_formula_sum   'Sr10 Fe3 Co2 Mo5 O30'
_cell_volume   644.69471499
_cell_formula_units_Z   1
loop_
 _symmetry_equiv_pos_site_id
 _symmetry_equiv_pos_as_xyz
  1  'x, y, z'
loop_
 _atom_site_type_symbol
 _atom_site_label
 _atom_site_symmetry_multiplicity
 _atom_site_fract_x
 _atom_site_fract_y
 _atom_site_fract_z
 _atom_site_occupancy
  Sr  Sr0  1  0.14795000  0.40119100  0.29985000  1
  Sr  Sr1  1  0.75415300  0.00044900  0.50017700  1
  Sr  Sr2  1  0.94834600  0.20389100  0.89950300  1
  Sr  Sr3  1  0.55019000  0.79632500  0.10161400  1
  Sr  Sr4  1  0.34797500  0.59920600  0.70107300  1
  Sr  Sr5  1  0.65202500  0.40079400  0.29892700  1
  Sr  Sr6  1  0.24584700  0.99955100  0.49982300  1
  Sr  Sr7  1  0.44981000  0.20367500  0.89838600  1
  Sr  Sr8  1  0.05165400  0.79610900  0.10049700  1
  Sr  Sr9  1  0.85205000  0.59880900  0.70015000  1
  Fe  Fe10  1  0.29977600  0.30115800  0.60013800  1
  Fe  Fe11  1  0.50000000  0.50000000  0.00000000  1
  Fe  Fe12  1  0.70022400  0.69884200  0.39986200  1
  Co  Co13  1  0.90075600  0.89858000  0.79989000  1
  Co  Co14  1  0.09924400  0.10142000  0.20011000  1
  Mo  Mo15  1  0.80144000  0.29739300  0.60044500  1
  Mo  Mo16  1  0.39889700  0.90086700  0.80112500  1
  Mo  Mo17  1  0.60110300  0.09913300  0.19887500  1
  Mo  Mo18  1  0.19856000  0.70260700  0.39955500  1
  Mo  Mo19  1  0.00000000  0.50000000  0.00000000  1
  O  O20  1  0.84892300  0.60097900  0.20142500  1
  O  O21  1  0.45409400  0.19745700  0.39437300  1
  O  O22  1  0.64962000  0.39923500  0.80108200  1
  O  O23  1  0.25552600  0.99640400  0.99251200  1
  O  O24  1  0.05216300  0.79920200  0.59736900  1
  O  O25  1  0.94783700  0.20079800  0.40263100  1
  O  O26  1  0.54590600  0.80254300  0.60562700  1
  O  O27  1  0.74447400  0.00359600  0.00748800  1
  O  O28  1  0.35038000  0.60076500  0.19891800  1
  O  O29  1  0.15107700  0.39902100  0.79857500  1
  O  O30  1  0.11903800  0.89271600  0.29988500  1
  O  O31  1  0.31613900  0.09556800  0.70050300  1
  O  O32  1  0.51588700  0.29511400  0.10278400  1
  O  O33  1  0.71352300  0.49650200  0.50483000  1
  O  O34  1  0.91806200  0.69311800  0.90471900  1
  O  O35  1  0.08193800  0.30688200  0.09528100  1
  O  O36  1  0.28647700  0.50349800  0.49517000  1
  O  O37  1  0.48411300  0.70488600  0.89721600  1
  O  O38  1  0.68386100  0.90443200  0.29949700  1
  O  O39  1  0.88096200  0.10728400  0.70011500  1
  O  O40  1  0.24335200  0.52816900  0.98586400  1
  O  O41  1  0.44360800  0.72866800  0.38663400  1
  O  O42  1  0.62964500  0.92830100  0.78728500  1
  O  O43  1  0.83102900  0.12799700  0.18465300  1
  O  O44  1  0.04513000  0.32710300  0.58503700  1
  O  O45  1  0.75664800  0.47183100  0.01413600  1
  O  O46  1  0.95487000  0.67289700  0.41496300  1
  O  O47  1  0.16897100  0.87200300  0.81534700  1
  O  O48  1  0.37035500  0.07169900  0.21271500  1
  O  O49  1  0.55639200  0.27133200  0.61336600  1
