# generated using pymatgen
data_Sr10Fe5Mo4WO30
_symmetry_space_group_name_H-M   'P 1'
_cell_length_a   5.66418000
_cell_length_b   8.05299528
_cell_length_c   14.93387084
_cell_angle_alpha   105.63293691
_cell_angle_beta   99.67377628
_cell_angle_gamma   90.03236541
_symmetry_Int_Tables_number   1
_chemical_formula_structural   Sr10Fe5Mo4WO30
_chemical_formula_sum   'Sr10 Fe5 Mo4 W1 O30'
_cell_volume   645.90679158
_cell_formula_units_Z   1
loop_
 _symmetry_equiv_pos_site_id
 _symmetry_equiv_pos_as_xyz
  1  'x, y, z'
loop_
 _atom_site_type_symbol
 _atom_site_label
 _atom_site_symmetry_multiplicity
 _atom_site_fract_x
 _atom_site_fract_y
 _atom_site_fract_z
 _atom_site_occupancy
  Sr  Sr0  1  0.09813400  0.34678000  0.20304400  1
  Sr  Sr1  1  0.69765900  0.95028000  0.39951900  1
  Sr  Sr2  1  0.29818600  0.55031800  0.59934500  1
  Sr  Sr3  1  0.89855200  0.14405500  0.79609600  1
  Sr  Sr4  1  0.49911500  0.75713900  0.99964900  1
  Sr  Sr5  1  0.50088500  0.24286100  0.00035100  1
  Sr  Sr6  1  0.10144800  0.85594500  0.20390400  1
  Sr  Sr7  1  0.70181400  0.44968200  0.40065500  1
  Sr  Sr8  1  0.30234100  0.04972000  0.60048100  1
  Sr  Sr9  1  0.90186600  0.65322000  0.79695600  1
  Fe  Fe10  1  0.00000000  0.00000000  0.00000000  1
  Fe  Fe11  1  0.60369500  0.60045800  0.20099900  1
  Fe  Fe12  1  0.19998900  0.20017600  0.40041600  1
  Fe  Fe13  1  0.80001100  0.79982400  0.59958400  1
  Fe  Fe14  1  0.39630500  0.39954200  0.79900100  1
  Mo  Mo15  1  0.59813600  0.09948400  0.20005700  1
  Mo  Mo16  1  0.20122500  0.69984700  0.39996800  1
  Mo  Mo17  1  0.79877500  0.30015300  0.60003200  1
  Mo  Mo18  1  0.40186400  0.90051600  0.79994300  1
  W  W19  1  0.00000000  0.50000000  0.00000000  1
  O  O20  1  0.30165300  0.05091900  0.10163200  1
  O  O21  1  0.89797100  0.64956200  0.29989000  1
  O  O22  1  0.49817200  0.25047700  0.50098600  1
  O  O23  1  0.09797800  0.84903700  0.69790300  1
  O  O24  1  0.71022000  0.45119000  0.90255100  1
  O  O25  1  0.28978000  0.54881000  0.09744900  1
  O  O26  1  0.90202200  0.15096300  0.30209700  1
  O  O27  1  0.50182800  0.74952300  0.49901400  1
  O  O28  1  0.10202900  0.35043800  0.70011000  1
  O  O29  1  0.69834700  0.94908100  0.89836800  1
  O  O30  1  0.57073600  0.85313400  0.21170100  1
  O  O31  1  0.17862300  0.45486300  0.41088900  1
  O  O32  1  0.77736500  0.05502300  0.61046500  1
  O  O33  1  0.38354500  0.65354600  0.81128100  1
  O  O34  1  0.97666900  0.26859800  0.01200400  1
  O  O35  1  0.61645500  0.34645400  0.18871900  1
  O  O36  1  0.22263500  0.94497700  0.38953500  1
  O  O37  1  0.82137700  0.54513700  0.58911100  1
  O  O38  1  0.42926400  0.14686600  0.78829900  1
  O  O39  1  0.02333100  0.73140200  0.98799600  1
  O  O40  1  0.19957400  0.42142600  0.90270900  1
  O  O41  1  0.79179600  0.02626700  0.10650900  1
  O  O42  1  0.39196000  0.62299000  0.30187500  1
  O  O43  1  0.99630100  0.22517400  0.50399800  1
  O  O44  1  0.59389400  0.82462100  0.70029700  1
  O  O45  1  0.40610600  0.17537900  0.29970300  1
  O  O46  1  0.00369900  0.77482600  0.49600200  1
  O  O47  1  0.60804000  0.37701000  0.69812500  1
  O  O48  1  0.20820400  0.97373300  0.89349100  1
  O  O49  1  0.80042600  0.57857400  0.09729100  1
