# generated using pymatgen
data_SnPbS2
_symmetry_space_group_name_H-M   'P 1'
_cell_length_a   4.17672163
_cell_length_b   4.22781760
_cell_length_c   17.07102243
_cell_angle_alpha   87.34005234
_cell_angle_beta   85.65802285
_cell_angle_gamma   90.05879262
_symmetry_Int_Tables_number   1
_chemical_formula_structural   SnPbS2
_chemical_formula_sum   'Sn2 Pb2 S4'
_cell_volume   300.25508514
_cell_formula_units_Z   2
loop_
 _symmetry_equiv_pos_site_id
 _symmetry_equiv_pos_as_xyz
  1  'x, y, z'
loop_
 _atom_site_type_symbol
 _atom_site_label
 _atom_site_symmetry_multiplicity
 _atom_site_fract_x
 _atom_site_fract_y
 _atom_site_fract_z
 _atom_site_occupancy
  Sn  Sn0  1  0.32511500  0.61328600  0.24436000  1
  Sn  Sn1  1  0.22358400  0.86559400  0.58774500  1
  Pb  Pb2  1  0.67055200  0.38297800  0.75912100  1
  Pb  Pb3  1  0.77680500  0.10904000  0.41383600  1
  S  S4  1  0.71613200  0.44631700  0.60093700  1
  S  S5  1  0.28407600  0.57840500  0.39729800  1
  S  S6  1  0.17327800  0.90136200  0.74170600  1
  S  S7  1  0.83045900  0.10301600  0.25499800  1
