# generated using pymatgen
data_Sr2Gd(FeO3)3
_symmetry_space_group_name_H-M   'P 1'
_cell_length_a   5.52533376
_cell_length_b   5.52533376
_cell_length_c   13.44443467
_cell_angle_alpha   89.94713349
_cell_angle_beta   89.94713349
_cell_angle_gamma   60.45212439
_symmetry_Int_Tables_number   1
_chemical_formula_structural   Sr2Gd(FeO3)3
_chemical_formula_sum   'Sr4 Gd2 Fe6 O18'
_cell_volume   357.06772214
_cell_formula_units_Z   2
loop_
 _symmetry_equiv_pos_site_id
 _symmetry_equiv_pos_as_xyz
  1  'x, y, z'
loop_
 _atom_site_type_symbol
 _atom_site_label
 _atom_site_symmetry_multiplicity
 _atom_site_fract_x
 _atom_site_fract_y
 _atom_site_fract_z
 _atom_site_occupancy
  Sr  Sr0  1  0.16961300  0.16358900  0.41564400  1
  Sr  Sr1  1  0.83641100  0.83038700  0.08435600  1
  Sr  Sr2  1  0.16358900  0.16961300  0.91564400  1
  Sr  Sr3  1  0.83038700  0.83641100  0.58435600  1
  Gd  Gd4  1  0.51064200  0.48935800  0.75000000  1
  Gd  Gd5  1  0.48935800  0.51064200  0.25000000  1
  Fe  Fe6  1  0.16788100  0.16493900  0.66604500  1
  Fe  Fe7  1  0.83211900  0.83506100  0.33395500  1
  Fe  Fe8  1  0.50000000  0.50000000  0.00000000  1
  Fe  Fe9  1  0.50000000  0.50000000  0.50000000  1
  Fe  Fe10  1  0.16493900  0.16788100  0.16604500  1
  Fe  Fe11  1  0.83506100  0.83211900  0.83395500  1
  O  O12  1  0.38830600  0.28646300  0.08770600  1
  O  O13  1  0.08685000  0.91315000  0.75000000  1
  O  O14  1  0.71353700  0.61169400  0.41229400  1
  O  O15  1  0.28646300  0.38830600  0.58770600  1
  O  O16  1  0.91315000  0.08685000  0.25000000  1
  O  O17  1  0.61169400  0.71353700  0.91229400  1
  O  O18  1  0.64941300  0.15109100  0.42408000  1
  O  O19  1  0.32207100  0.80211500  0.09919100  1
  O  O20  1  0.94823700  0.48314000  0.75780200  1
  O  O21  1  0.19788500  0.67792900  0.40080900  1
  O  O22  1  0.84890900  0.35058700  0.07592000  1
  O  O23  1  0.51686000  0.05176300  0.74219800  1
  O  O24  1  0.05176300  0.51686000  0.24219800  1
  O  O25  1  0.67792900  0.19788500  0.90080900  1
  O  O26  1  0.35058700  0.84890900  0.57592000  1
  O  O27  1  0.48314000  0.94823700  0.25780200  1
  O  O28  1  0.15109100  0.64941300  0.92408000  1
  O  O29  1  0.80211500  0.32207100  0.59919100  1
