# generated using pymatgen
data_Sr2CaCu6(BO3)6
_symmetry_space_group_name_H-M   'P 1'
_cell_length_a   7.23829414
_cell_length_b   7.24004251
_cell_length_c   16.23048826
_cell_angle_alpha   92.03732699
_cell_angle_beta   87.96607392
_cell_angle_gamma   102.50210864
_symmetry_Int_Tables_number   1
_chemical_formula_structural   Sr2CaCu6(BO3)6
_chemical_formula_sum   'Sr4 Ca2 Cu12 B12 O36'
_cell_volume   829.53741114
_cell_formula_units_Z   2
loop_
 _symmetry_equiv_pos_site_id
 _symmetry_equiv_pos_as_xyz
  1  'x, y, z'
loop_
 _atom_site_type_symbol
 _atom_site_label
 _atom_site_symmetry_multiplicity
 _atom_site_fract_x
 _atom_site_fract_y
 _atom_site_fract_z
 _atom_site_occupancy
  Sr  Sr0  1  0.66561500  0.33414500  0.16543600  1
  Sr  Sr1  1  0.00094500  0.99900100  0.50129500  1
  Sr  Sr2  1  0.33347700  0.66678900  0.83323700  1
  Sr  Sr3  1  0.83324800  0.16655400  0.33342400  1
  Ca  Ca4  1  0.16707700  0.83344400  0.66689700  1
  Ca  Ca5  1  0.49999100  0.50017700  0.99964400  1
  Cu  Cu6  1  0.12952700  0.10266300  0.12844200  1
  Cu  Cu7  1  0.46145000  0.76706000  0.46314000  1
  Cu  Cu8  1  0.79570100  0.43563400  0.79610000  1
  Cu  Cu9  1  0.38567400  0.38468900  0.38552600  1
  Cu  Cu10  1  0.71901300  0.04969300  0.71885700  1
  Cu  Cu11  1  0.05241000  0.71614000  0.05194500  1
  Cu  Cu12  1  0.76837900  0.46252700  0.53854700  1
  Cu  Cu13  1  0.10186300  0.12901900  0.87066800  1
  Cu  Cu14  1  0.43319900  0.79452800  0.20352900  1
  Cu  Cu15  1  0.38424500  0.38605500  0.61446100  1
  Cu  Cu16  1  0.71647900  0.05238500  0.94779000  1
  Cu  Cu17  1  0.05176600  0.71894200  0.28104100  1
  B  B18  1  0.51250400  0.07730300  0.51567100  1
  B  B19  1  0.84699200  0.74637600  0.84803300  1
  B  B20  1  0.18195000  0.41332600  0.17961800  1
  B  B21  1  0.31670900  0.09040500  0.31638300  1
  B  B22  1  0.65066600  0.75731100  0.64996100  1
  B  B23  1  0.98375800  0.42292300  0.98291200  1
  B  B24  1  0.74470500  0.84610900  0.15096500  1
  B  B25  1  0.07949100  0.51489800  0.48703500  1
  B  B26  1  0.41282600  0.18041100  0.81868000  1
  B  B27  1  0.42358000  0.98390200  0.01686000  1
  B  B28  1  0.75734400  0.65009300  0.35017700  1
  B  B29  1  0.09033000  0.31748100  0.68362500  1
  O  O30  1  0.64776400  0.00734200  0.46855000  1
  O  O31  1  0.98161500  0.67751600  0.79953800  1
  O  O32  1  0.31749000  0.34467200  0.13197900  1
  O  O33  1  0.18816700  0.15366400  0.37019000  1
  O  O34  1  0.51858800  0.82227300  0.70152800  1
  O  O35  1  0.85216900  0.48876000  0.03437700  1
  O  O36  1  0.67439600  0.98140900  0.19809600  1
  O  O37  1  0.01085700  0.65061200  0.53469100  1
  O  O38  1  0.34442000  0.31536600  0.86717600  1
  O  O39  1  0.82055400  0.52162600  0.29641600  1
  O  O40  1  0.15570300  0.18569700  0.63225000  1
  O  O41  1  0.48839700  0.85179200  0.96530700  1
  O  O42  1  0.94718300  0.34781500  0.47173800  1
  O  O43  1  0.27944100  0.01391500  0.80141500  1
  O  O44  1  0.61200000  0.67934200  0.13441000  1
  O  O45  1  0.88162700  0.82516500  0.35773700  1
  O  O46  1  0.21169000  0.49541400  0.68870900  1
  O  O47  1  0.54438000  0.16215000  0.02199800  1
  O  O48  1  0.01460200  0.28108600  0.19496900  1
  O  O49  1  0.34566800  0.94499100  0.53232800  1
  O  O50  1  0.68076500  0.61253500  0.86513300  1
  O  O51  1  0.49168400  0.21498700  0.30897400  1
  O  O52  1  0.82886400  0.87808000  0.64474300  1
  O  O53  1  0.16191700  0.54456100  0.97783300  1
  O  O54  1  0.54010800  0.26304200  0.54135300  1
  O  O55  1  0.87427100  0.93041400  0.87521500  1
  O  O56  1  0.20819600  0.59645800  0.20807900  1
  O  O57  1  0.27334600  0.92213700  0.27320100  1
  O  O58  1  0.60664500  0.58959700  0.60630600  1
  O  O59  1  0.94024200  0.25456400  0.93971600  1
  O  O60  1  0.26291100  0.54151000  0.45875900  1
  O  O61  1  0.59704100  0.20771700  0.79152900  1
  O  O62  1  0.93043000  0.87357800  0.12496400  1
  O  O63  1  0.58916900  0.60685200  0.39360600  1
  O  O64  1  0.92147900  0.27361900  0.72694500  1
  O  O65  1  0.25530700  0.93975900  0.06034600  1
