# generated using pymatgen
data_Sr12Tm3Ni5O24
_symmetry_space_group_name_H-M   'P 1'
_cell_length_a   6.76365754
_cell_length_b   6.76365754
_cell_length_c   13.51792578
_cell_angle_alpha   87.35653765
_cell_angle_beta   87.35653765
_cell_angle_gamma   92.66065673
_symmetry_Int_Tables_number   1
_chemical_formula_structural   Sr12Tm3Ni5O24
_chemical_formula_sum   'Sr12 Tm3 Ni5 O24'
_cell_volume   616.35924249
_cell_formula_units_Z   1
loop_
 _symmetry_equiv_pos_site_id
 _symmetry_equiv_pos_as_xyz
  1  'x, y, z'
loop_
 _atom_site_type_symbol
 _atom_site_label
 _atom_site_symmetry_multiplicity
 _atom_site_fract_x
 _atom_site_fract_y
 _atom_site_fract_z
 _atom_site_occupancy
  Sr  Sr0  1  0.11474600  0.88525400  0.00000000  1
  Sr  Sr1  1  0.11795600  0.88204400  0.50000000  1
  Sr  Sr2  1  0.75173400  0.61241500  0.17867200  1
  Sr  Sr3  1  0.74928900  0.62010300  0.68708200  1
  Sr  Sr4  1  0.37989700  0.25071100  0.31291800  1
  Sr  Sr5  1  0.38758500  0.24826600  0.82132800  1
  Sr  Sr6  1  0.25195900  0.37745000  0.06282900  1
  Sr  Sr7  1  0.24659300  0.38041800  0.56684900  1
  Sr  Sr8  1  0.62255000  0.74804100  0.93717100  1
  Sr  Sr9  1  0.61958200  0.75340700  0.43315100  1
  Sr  Sr10  1  0.88053300  0.12207200  0.24184400  1
  Sr  Sr11  1  0.87792800  0.11946700  0.75815600  1
  Tm  Tm12  1  0.74756700  0.25243300  0.50000000  1
  Tm  Tm13  1  0.25023900  0.75081600  0.24718500  1
  Tm  Tm14  1  0.24918400  0.74976100  0.75281500  1
  Ni  Ni15  1  0.50546200  0.00270600  0.12220400  1
  Ni  Ni16  1  0.49848500  0.00076000  0.62670100  1
  Ni  Ni17  1  0.99729400  0.49453800  0.87779600  1
  Ni  Ni18  1  0.99924000  0.50151500  0.37329900  1
  Ni  Ni19  1  0.75263600  0.24736400  0.00000000  1
  O  O20  1  0.78876600  0.96241300  0.08083600  1
  O  O21  1  0.78419900  0.95980300  0.58097900  1
  O  O22  1  0.58784200  0.28248700  0.13996000  1
  O  O23  1  0.58616600  0.28690600  0.64797000  1
  O  O24  1  0.46674900  0.08170300  0.98703400  1
  O  O25  1  0.45750000  0.09329900  0.47796600  1
  O  O26  1  0.09236800  0.46129000  0.22639000  1
  O  O27  1  0.08392700  0.45702500  0.73786100  1
  O  O28  1  0.28479100  0.58423300  0.89638400  1
  O  O29  1  0.28767700  0.59228000  0.39470000  1
  O  O30  1  0.95727500  0.78744100  0.32920100  1
  O  O31  1  0.96025500  0.78909800  0.83230100  1
  O  O32  1  0.21090200  0.03974500  0.16769900  1
  O  O33  1  0.21255900  0.04272500  0.67079900  1
  O  O34  1  0.41576700  0.71520900  0.10361600  1
  O  O35  1  0.40772000  0.71232300  0.60530000  1
  O  O36  1  0.54297500  0.91607300  0.26213900  1
  O  O37  1  0.53871000  0.90763200  0.77361000  1
  O  O38  1  0.91829700  0.53325100  0.01296600  1
  O  O39  1  0.90670100  0.54250000  0.52203400  1
  O  O40  1  0.71309400  0.41383400  0.35203000  1
  O  O41  1  0.71751300  0.41215800  0.86004000  1
  O  O42  1  0.03758700  0.21123400  0.91916400  1
  O  O43  1  0.04019700  0.21580100  0.41902100  1
