# generated using pymatgen
data_SnAsPd6
_symmetry_space_group_name_H-M   'P 1'
_cell_length_a   7.76232742
_cell_length_b   7.76232742
_cell_length_c   7.76232771
_cell_angle_alpha   33.77111110
_cell_angle_beta   33.77111110
_cell_angle_gamma   33.77110894
_symmetry_Int_Tables_number   1
_chemical_formula_structural   SnAsPd6
_chemical_formula_sum   'Sn1 As1 Pd6'
_cell_volume   128.77414072
_cell_formula_units_Z   1
loop_
 _symmetry_equiv_pos_site_id
 _symmetry_equiv_pos_as_xyz
  1  'x, y, z'
loop_
 _atom_site_type_symbol
 _atom_site_label
 _atom_site_symmetry_multiplicity
 _atom_site_fract_x
 _atom_site_fract_y
 _atom_site_fract_z
 _atom_site_occupancy
  Sn  Sn0  1  0.50000000  0.50000000  0.50000000  1
  As  As1  1  0.00000000  0.00000000  0.00000000  1
  Pd  Pd2  1  0.63032400  0.63032400  0.63032400  1
  Pd  Pd3  1  0.11845900  0.11845900  0.11845900  1
  Pd  Pd4  1  0.88154100  0.88154100  0.88154100  1
  Pd  Pd5  1  0.36967600  0.36967600  0.36967600  1
  Pd  Pd6  1  0.24493700  0.24493700  0.24493700  1
  Pd  Pd7  1  0.75506300  0.75506300  0.75506300  1
