# generated using pymatgen
data_Sn4TeSe3
_symmetry_space_group_name_H-M   'P 1'
_cell_length_a   4.26160800
_cell_length_b   4.71749000
_cell_length_c   11.97675838
_cell_angle_alpha   89.52051708
_cell_angle_beta   90.00000000
_cell_angle_gamma   90.00000000
_symmetry_Int_Tables_number   1
_chemical_formula_structural   Sn4TeSe3
_chemical_formula_sum   'Sn4 Te1 Se3'
_cell_volume   240.77343454
_cell_formula_units_Z   1
loop_
 _symmetry_equiv_pos_site_id
 _symmetry_equiv_pos_as_xyz
  1  'x, y, z'
loop_
 _atom_site_type_symbol
 _atom_site_label
 _atom_site_symmetry_multiplicity
 _atom_site_fract_x
 _atom_site_fract_y
 _atom_site_fract_z
 _atom_site_occupancy
  Sn  Sn0  1  0.50000000  0.58735100  0.62064700  1
  Sn  Sn1  1  0.50000000  0.88555800  0.12277000  1
  Sn  Sn2  1  0.00000000  0.38338200  0.37663800  1
  Sn  Sn3  1  0.00000000  0.12242400  0.88725600  1
  Te  Te4  1  0.00000000  0.01948700  0.64311300  1
  Se  Se5  1  0.50000000  0.50536500  0.85169300  1
  Se  Se6  1  0.50000000  0.99751200  0.34936900  1
  Se  Se7  1  0.00000000  0.49892100  0.14851500  1
