# generated using pymatgen
data_Sn2SeS2
_symmetry_space_group_name_H-M   'P 1'
_cell_length_a   3.89237000
_cell_length_b   9.17792900
_cell_length_c   14.52096700
_cell_angle_alpha   90.00000000
_cell_angle_beta   90.00000000
_cell_angle_gamma   90.00000000
_symmetry_Int_Tables_number   1
_chemical_formula_structural   Sn2SeS2
_chemical_formula_sum   'Sn8 Se4 S8'
_cell_volume   518.74550769
_cell_formula_units_Z   4
loop_
 _symmetry_equiv_pos_site_id
 _symmetry_equiv_pos_as_xyz
  1  'x, y, z'
loop_
 _atom_site_type_symbol
 _atom_site_label
 _atom_site_symmetry_multiplicity
 _atom_site_fract_x
 _atom_site_fract_y
 _atom_site_fract_z
 _atom_site_occupancy
  Sn  Sn0  1  0.25000000  0.15969900  0.94604400  1
  Sn  Sn1  1  0.25000000  0.65969900  0.55395600  1
  Sn  Sn2  1  0.75000000  0.84030100  0.05395600  1
  Sn  Sn3  1  0.75000000  0.34030100  0.44604400  1
  Sn  Sn4  1  0.75000000  0.47812900  0.82874600  1
  Sn  Sn5  1  0.75000000  0.97812900  0.67125400  1
  Sn  Sn6  1  0.25000000  0.52187100  0.17125400  1
  Sn  Sn7  1  0.25000000  0.02187100  0.32874600  1
  Se  Se8  1  0.75000000  0.34215200  0.00729400  1
  Se  Se9  1  0.75000000  0.84215200  0.49270600  1
  Se  Se10  1  0.25000000  0.65784800  0.99270600  1
  Se  Se11  1  0.25000000  0.15784800  0.50729400  1
  S  S12  1  0.25000000  0.28755000  0.79008300  1
  S  S13  1  0.25000000  0.78755000  0.70991700  1
  S  S14  1  0.75000000  0.71245000  0.20991700  1
  S  S15  1  0.75000000  0.21245000  0.29008300  1
  S  S16  1  0.75000000  0.98168600  0.89598000  1
  S  S17  1  0.75000000  0.48168600  0.60402000  1
  S  S18  1  0.25000000  0.01831400  0.10402000  1
  S  S19  1  0.25000000  0.51831400  0.39598000  1
