# generated using pymatgen
data_Sn2PbSe3
_symmetry_space_group_name_H-M   'P 1'
_cell_length_a   4.31799580
_cell_length_b   4.31799580
_cell_length_c   10.58972600
_cell_angle_alpha   90.00000000
_cell_angle_beta   90.00000000
_cell_angle_gamma   119.99999696
_symmetry_Int_Tables_number   1
_chemical_formula_structural   Sn2PbSe3
_chemical_formula_sum   'Sn2 Pb1 Se3'
_cell_volume   170.99357791
_cell_formula_units_Z   1
loop_
 _symmetry_equiv_pos_site_id
 _symmetry_equiv_pos_as_xyz
  1  'x, y, z'
loop_
 _atom_site_type_symbol
 _atom_site_label
 _atom_site_symmetry_multiplicity
 _atom_site_fract_x
 _atom_site_fract_y
 _atom_site_fract_z
 _atom_site_occupancy
  Sn  Sn0  1  0.33333300  0.66666700  0.66474000  1
  Sn  Sn1  1  0.66666700  0.33333300  0.33526000  1
  Pb  Pb2  1  0.00000000  0.00000000  0.00000000  1
  Se  Se3  1  0.33333300  0.66666700  0.17299000  1
  Se  Se4  1  0.66666700  0.33333300  0.82701000  1
  Se  Se5  1  0.00000000  0.00000000  0.50000000  1
