# generated using pymatgen
data_Sn3SbSe2I5
_symmetry_space_group_name_H-M   'P 1'
_cell_length_a   7.51954864
_cell_length_b   7.51954864
_cell_length_c   12.71795483
_cell_angle_alpha   81.95302359
_cell_angle_beta   81.95302359
_cell_angle_gamma   33.83271090
_symmetry_Int_Tables_number   1
_chemical_formula_structural   Sn3SbSe2I5
_chemical_formula_sum   'Sn3 Sb1 Se2 I5'
_cell_volume   396.07493242
_cell_formula_units_Z   1
loop_
 _symmetry_equiv_pos_site_id
 _symmetry_equiv_pos_as_xyz
  1  'x, y, z'
loop_
 _atom_site_type_symbol
 _atom_site_label
 _atom_site_symmetry_multiplicity
 _atom_site_fract_x
 _atom_site_fract_y
 _atom_site_fract_z
 _atom_site_occupancy
  Sn  Sn0  1  0.62785900  0.62785900  0.48218800  1
  Sn  Sn1  1  0.36937200  0.36937200  0.52326600  1
  Sn  Sn2  1  0.65184600  0.65184600  0.82720000  1
  Sb  Sb3  1  0.35323600  0.35323600  0.18138100  1
  Se  Se4  1  0.76200200  0.76200200  0.61608400  1
  Se  Se5  1  0.23976400  0.23976400  0.37907300  1
  I  I6  1  0.71470200  0.71470200  0.13676400  1
  I  I7  1  0.29355600  0.29355600  0.86292900  1
  I  I8  1  0.95656900  0.95656900  0.31268300  1
  I  I9  1  0.03874400  0.03874400  0.66907600  1
  I  I10  1  0.99235000  0.99235000  0.00935600  1
