# generated using pymatgen
data_Sn2GeTe3
_symmetry_space_group_name_H-M   'P 1'
_cell_length_a   4.38501700
_cell_length_b   12.28864900
_cell_length_c   14.33412802
_cell_angle_alpha   89.74494848
_cell_angle_beta   90.00000000
_cell_angle_gamma   90.00000000
_symmetry_Int_Tables_number   1
_chemical_formula_structural   Sn2GeTe3
_chemical_formula_sum   'Sn8 Ge4 Te12'
_cell_volume   772.40023462
_cell_formula_units_Z   4
loop_
 _symmetry_equiv_pos_site_id
 _symmetry_equiv_pos_as_xyz
  1  'x, y, z'
loop_
 _atom_site_type_symbol
 _atom_site_label
 _atom_site_symmetry_multiplicity
 _atom_site_fract_x
 _atom_site_fract_y
 _atom_site_fract_z
 _atom_site_occupancy
  Sn  Sn0  1  0.00000000  0.11667100  0.63541100  1
  Sn  Sn1  1  0.00000000  0.11686800  0.29980400  1
  Sn  Sn2  1  0.50000000  0.38558300  0.80198500  1
  Sn  Sn3  1  0.50000000  0.38601600  0.46739100  1
  Sn  Sn4  1  0.50000000  0.38335500  0.13351900  1
  Sn  Sn5  1  0.50000000  0.88274700  0.70005000  1
  Sn  Sn6  1  0.50000000  0.88269500  0.36595700  1
  Sn  Sn7  1  0.50000000  0.88366800  0.03240600  1
  Ge  Ge8  1  0.00000000  0.62672900  0.87225700  1
  Ge  Ge9  1  0.00000000  0.62653200  0.53916100  1
  Ge  Ge10  1  0.00000000  0.62627400  0.20563800  1
  Ge  Ge11  1  0.00000000  0.12868000  0.96386300  1
  Te  Te12  1  0.00000000  0.85011300  0.84010200  1
  Te  Te13  1  0.00000000  0.84941000  0.50603300  1
  Te  Te14  1  0.00000000  0.84939500  0.17242400  1
  Te  Te15  1  0.00000000  0.35789500  0.66136400  1
  Te  Te16  1  0.00000000  0.35887400  0.32668300  1
  Te  Te17  1  0.00000000  0.35259800  0.99200900  1
  Te  Te18  1  0.50000000  0.13974000  0.83747100  1
  Te  Te19  1  0.50000000  0.14003500  0.49490800  1
  Te  Te20  1  0.50000000  0.13827300  0.15817700  1
  Te  Te21  1  0.50000000  0.63972900  0.66446100  1
  Te  Te22  1  0.50000000  0.63935200  0.33115600  1
  Te  Te23  1  0.50000000  0.63876800  0.99776800  1
