# generated using pymatgen
data_CuSnAu
_symmetry_space_group_name_H-M   'P 1'
_cell_length_a   7.12993570
_cell_length_b   7.12993570
_cell_length_c   7.12993570
_cell_angle_alpha   145.90576317
_cell_angle_beta   145.90576317
_cell_angle_gamma   48.98675733
_symmetry_Int_Tables_number   1
_chemical_formula_structural   CuSnAu
_chemical_formula_sum   'Cu2 Sn2 Au2'
_cell_volume   113.38777617
_cell_formula_units_Z   2
loop_
 _symmetry_equiv_pos_site_id
 _symmetry_equiv_pos_as_xyz
  1  'x, y, z'
loop_
 _atom_site_type_symbol
 _atom_site_label
 _atom_site_symmetry_multiplicity
 _atom_site_fract_x
 _atom_site_fract_y
 _atom_site_fract_z
 _atom_site_occupancy
  Cu  Cu0  1  0.00000000  0.50000000  0.50000000  1
  Cu  Cu1  1  0.50000000  0.00000000  0.50000000  1
  Sn  Sn2  1  0.65598200  0.65598200  0.00000000  1
  Sn  Sn3  1  0.34401800  0.34401800  0.00000000  1
  Au  Au4  1  0.87075900  0.87075900  0.00000000  1
  Au  Au5  1  0.12924100  0.12924100  0.00000000  1
