# generated using pymatgen
data_SmBiTe3
_symmetry_space_group_name_H-M   'P 1'
_cell_length_a   10.84072049
_cell_length_b   10.84072049
_cell_length_c   10.84072002
_cell_angle_alpha   23.69042906
_cell_angle_beta   23.69042906
_cell_angle_gamma   23.69042978
_symmetry_Int_Tables_number   1
_chemical_formula_structural   SmBiTe3
_chemical_formula_sum   'Sm1 Bi1 Te3'
_cell_volume   180.65667859
_cell_formula_units_Z   1
loop_
 _symmetry_equiv_pos_site_id
 _symmetry_equiv_pos_as_xyz
  1  'x, y, z'
loop_
 _atom_site_type_symbol
 _atom_site_label
 _atom_site_symmetry_multiplicity
 _atom_site_fract_x
 _atom_site_fract_y
 _atom_site_fract_z
 _atom_site_occupancy
  Sm  Sm0  1  0.60097500  0.60097500  0.60097500  1
  Bi  Bi1  1  0.40025700  0.40025700  0.40025700  1
  Te  Te2  1  0.99733400  0.99733400  0.99733400  1
  Te  Te3  1  0.78696900  0.78696900  0.78696900  1
  Te  Te4  1  0.21446500  0.21446500  0.21446500  1
