# generated using pymatgen
data_Sm8Sb3O8
_symmetry_space_group_name_H-M   'P 1'
_cell_length_a   7.11947054
_cell_length_b   7.11947054
_cell_length_c   15.46492922
_cell_angle_alpha   73.38069868
_cell_angle_beta   73.38069868
_cell_angle_gamma   31.52238847
_symmetry_Int_Tables_number   1
_chemical_formula_structural   Sm8Sb3O8
_chemical_formula_sum   'Sm8 Sb3 O8'
_cell_volume   391.31523334
_cell_formula_units_Z   1
loop_
 _symmetry_equiv_pos_site_id
 _symmetry_equiv_pos_as_xyz
  1  'x, y, z'
loop_
 _atom_site_type_symbol
 _atom_site_label
 _atom_site_symmetry_multiplicity
 _atom_site_fract_x
 _atom_site_fract_y
 _atom_site_fract_z
 _atom_site_occupancy
  Sm  Sm0  1  0.71728800  0.72142600  0.91156300  1
  Sm  Sm1  1  0.27857400  0.28271200  0.08843700  1
  Sm  Sm2  1  0.64288600  0.64269600  0.56944700  1
  Sm  Sm3  1  0.35730400  0.35711400  0.43055300  1
  Sm  Sm4  1  0.87643800  0.87656900  0.65373400  1
  Sm  Sm5  1  0.12343100  0.12356200  0.34626600  1
  Sm  Sm6  1  0.45532300  0.45546300  0.83165600  1
  Sm  Sm7  1  0.54453700  0.54467700  0.16834400  1
  Sb  Sb8  1  0.17310700  0.17010800  0.73284900  1
  Sb  Sb9  1  0.82989200  0.82689300  0.26715100  1
  Sb  Sb10  1  0.96433900  0.03566100  0.00000000  1
  O  O11  1  0.46922900  0.46906400  0.63274700  1
  O  O12  1  0.53093600  0.53077100  0.36725300  1
  O  O13  1  0.88032800  0.88459300  0.79975800  1
  O  O14  1  0.11540700  0.11967200  0.20024200  1
  O  O15  1  0.16517400  0.16461000  0.48593800  1
  O  O16  1  0.83539000  0.83482600  0.51406200  1
  O  O17  1  0.29263400  0.30021800  0.93398500  1
  O  O18  1  0.69978200  0.70736600  0.06601500  1
