# generated using pymatgen
data_SmTiNbBi2O9
_symmetry_space_group_name_H-M   'P 1'
_cell_length_a   5.48887200
_cell_length_b   5.44037000
_cell_length_c   12.93241574
_cell_angle_alpha   78.22159727
_cell_angle_beta   90.00000000
_cell_angle_gamma   90.00000000
_symmetry_Int_Tables_number   1
_chemical_formula_structural   SmTiNbBi2O9
_chemical_formula_sum   'Sm2 Ti2 Nb2 Bi4 O18'
_cell_volume   378.04998510
_cell_formula_units_Z   2
loop_
 _symmetry_equiv_pos_site_id
 _symmetry_equiv_pos_as_xyz
  1  'x, y, z'
loop_
 _atom_site_type_symbol
 _atom_site_label
 _atom_site_symmetry_multiplicity
 _atom_site_fract_x
 _atom_site_fract_y
 _atom_site_fract_z
 _atom_site_occupancy
  Sm  Sm0  1  0.48225100  0.24254600  0.00005100  1
  Sm  Sm1  1  0.98225100  0.75745400  0.99994900  1
  Ti  Ti2  1  0.51815200  0.66449100  0.17167400  1
  Ti  Ti3  1  0.01815200  0.33550900  0.82832600  1
  Nb  Nb4  1  0.52278300  0.82423300  0.82922500  1
  Nb  Nb5  1  0.02278300  0.17576700  0.17077500  1
  Bi  Bi6  1  0.48467000  0.02178600  0.39736600  1
  Bi  Bi7  1  0.48286200  0.42702700  0.60122200  1
  Bi  Bi8  1  0.98467000  0.97821400  0.60263400  1
  Bi  Bi9  1  0.98286200  0.57297300  0.39877800  1
  O  O10  1  0.52832800  0.67054700  0.31032600  1
  O  O11  1  0.52924300  0.97719600  0.68420000  1
  O  O12  1  0.02832800  0.32945300  0.68967400  1
  O  O13  1  0.02924300  0.02280400  0.31580000  1
  O  O14  1  0.84200700  0.47656600  0.17299500  1
  O  O15  1  0.84795100  0.64157200  0.82730600  1
  O  O16  1  0.34200700  0.52343400  0.82700500  1
  O  O17  1  0.34795100  0.35842800  0.17269400  1
  O  O18  1  0.56008300  0.66590700  0.99883200  1
  O  O19  1  0.06008300  0.33409300  0.00116800  1
  O  O20  1  0.74717500  0.25628900  0.49816900  1
  O  O21  1  0.74555400  0.75300800  0.50185200  1
  O  O22  1  0.24717500  0.74371100  0.50183100  1
  O  O23  1  0.24555400  0.24699200  0.49814800  1
  O  O24  1  0.75382800  0.97816500  0.12271300  1
  O  O25  1  0.75591400  0.10069600  0.87756500  1
  O  O26  1  0.25382800  0.02183500  0.87728700  1
  O  O27  1  0.25591400  0.89930400  0.12243500  1
