# generated using pymatgen
data_Sm2ScNbO7
_symmetry_space_group_name_H-M   'P 1'
_cell_length_a   7.46905800
_cell_length_b   7.46905800
_cell_length_c   7.46905800
_cell_angle_alpha   120.52940011
_cell_angle_beta   119.35585691
_cell_angle_gamma   90.10239845
_symmetry_Int_Tables_number   1
_chemical_formula_structural   Sm2ScNbO7
_chemical_formula_sum   'Sm4 Sc2 Nb2 O14'
_cell_volume   294.85016444
_cell_formula_units_Z   2
loop_
 _symmetry_equiv_pos_site_id
 _symmetry_equiv_pos_as_xyz
  1  'x, y, z'
loop_
 _atom_site_type_symbol
 _atom_site_label
 _atom_site_symmetry_multiplicity
 _atom_site_fract_x
 _atom_site_fract_y
 _atom_site_fract_z
 _atom_site_occupancy
  Sm  Sm0  1  0.00000000  0.50000000  0.00000000  1
  Sm  Sm1  1  0.00000000  0.00000000  0.50000000  1
  Sm  Sm2  1  0.00000000  0.50000000  0.50000000  1
  Sm  Sm3  1  0.50000000  0.50000000  0.00000000  1
  Sc  Sc4  1  0.50000000  0.00000000  0.00000000  1
  Sc  Sc5  1  0.50000000  0.50000000  0.50000000  1
  Nb  Nb6  1  0.50000000  0.00000000  0.50000000  1
  Nb  Nb7  1  0.00000000  0.00000000  0.00000000  1
  O  O8  1  0.82023000  0.07023000  0.75000000  1
  O  O9  1  0.40314400  0.65314400  0.75000000  1
  O  O10  1  0.84161600  0.67468500  0.76690500  1
  O  O11  1  0.40778100  0.07471200  0.73309500  1
  O  O12  1  0.84161600  0.07471200  0.16693100  1
  O  O13  1  0.40778100  0.67468500  0.33306900  1
  O  O14  1  0.17977000  0.92977000  0.25000000  1
  O  O15  1  0.59685600  0.34685600  0.25000000  1
  O  O16  1  0.15838400  0.32531500  0.23309500  1
  O  O17  1  0.59221900  0.92528800  0.26690500  1
  O  O18  1  0.15838400  0.92528800  0.83306900  1
  O  O19  1  0.59221900  0.32531500  0.66693100  1
  O  O20  1  0.87780600  0.62780600  0.25000000  1
  O  O21  1  0.12219400  0.37219400  0.75000000  1
