# generated using pymatgen
data_Sm6Ta2Ti4O21
_symmetry_space_group_name_H-M   'P 1'
_cell_length_a   7.36724825
_cell_length_b   7.36724825
_cell_length_c   16.39860184
_cell_angle_alpha   77.50846723
_cell_angle_beta   77.50846723
_cell_angle_gamma   89.96841239
_symmetry_Int_Tables_number   1
_chemical_formula_structural   Sm6Ta2Ti4O21
_chemical_formula_sum   'Sm12 Ta4 Ti8 O42'
_cell_volume   847.41761379
_cell_formula_units_Z   2
loop_
 _symmetry_equiv_pos_site_id
 _symmetry_equiv_pos_as_xyz
  1  'x, y, z'
loop_
 _atom_site_type_symbol
 _atom_site_label
 _atom_site_symmetry_multiplicity
 _atom_site_fract_x
 _atom_site_fract_y
 _atom_site_fract_z
 _atom_site_occupancy
  Sm  Sm0  1  0.33627200  0.33407700  0.33785700  1
  Sm  Sm1  1  0.66372800  0.66592300  0.66214300  1
  Sm  Sm2  1  0.00000000  0.00000000  0.00000000  1
  Sm  Sm3  1  0.82623100  0.33202800  0.33697500  1
  Sm  Sm4  1  0.17376900  0.66797200  0.66302500  1
  Sm  Sm5  1  0.50000000  0.00000000  0.00000000  1
  Sm  Sm6  1  0.66592300  0.66372800  0.16214300  1
  Sm  Sm7  1  0.00000000  0.00000000  0.50000000  1
  Sm  Sm8  1  0.33407700  0.33627200  0.83785700  1
  Sm  Sm9  1  0.66797200  0.17376900  0.16302500  1
  Sm  Sm10  1  0.00000000  0.50000000  0.50000000  1
  Sm  Sm11  1  0.33202800  0.82623100  0.83697500  1
  Ta  Ta12  1  0.83217200  0.82677600  0.33372200  1
  Ta  Ta13  1  0.16782800  0.17322400  0.66627800  1
  Ta  Ta14  1  0.17322400  0.16782800  0.16627800  1
  Ta  Ta15  1  0.82677600  0.83217200  0.83372200  1
  Ti  Ti16  1  0.50000000  0.50000000  0.00000000  1
  Ti  Ti17  1  0.00000000  0.50000000  0.00000000  1
  Ti  Ti18  1  0.33751800  0.82330300  0.33796500  1
  Ti  Ti19  1  0.66248200  0.17669700  0.66203500  1
  Ti  Ti20  1  0.50000000  0.50000000  0.50000000  1
  Ti  Ti21  1  0.82330300  0.33751800  0.83796500  1
  Ti  Ti22  1  0.17669700  0.66248200  0.16203500  1
  Ti  Ti23  1  0.50000000  0.00000000  0.50000000  1
  O  O24  1  0.53070900  0.27963900  0.44399700  1
  O  O25  1  0.86240300  0.61014500  0.78135900  1
  O  O26  1  0.19335600  0.94420700  0.11398200  1
  O  O27  1  0.72036100  0.46929100  0.05600300  1
  O  O28  1  0.05579300  0.80664400  0.38601800  1
  O  O29  1  0.38985500  0.13759700  0.71864100  1
  O  O30  1  0.32615200  0.67384800  0.25000000  1
  O  O31  1  0.66824500  0.99938400  0.58308300  1
  O  O32  1  0.00061600  0.33175500  0.91691700  1
  O  O33  1  0.92672600  0.07327400  0.25000000  1
  O  O34  1  0.25144000  0.41355800  0.58345500  1
  O  O35  1  0.58644200  0.74856000  0.91654500  1
  O  O36  1  0.92378900  0.67334000  0.25056100  1
  O  O37  1  0.25137800  0.00105200  0.58482300  1
  O  O38  1  0.58160000  0.32884900  0.91756800  1
  O  O39  1  0.32666000  0.07621100  0.24943900  1
  O  O40  1  0.67115100  0.41840000  0.58243200  1
  O  O41  1  0.99894800  0.74862200  0.91517700  1
  O  O42  1  0.80664400  0.05579300  0.88601800  1
  O  O43  1  0.13759700  0.38985500  0.21864100  1
  O  O44  1  0.46929100  0.72036100  0.55600300  1
  O  O45  1  0.61014500  0.86240300  0.28135900  1
  O  O46  1  0.94420700  0.19335600  0.61398200  1
  O  O47  1  0.27963900  0.53070900  0.94399700  1
  O  O48  1  0.99938400  0.66824500  0.08308300  1
  O  O49  1  0.33175500  0.00061600  0.41691700  1
  O  O50  1  0.67384800  0.32615200  0.75000000  1
  O  O51  1  0.41355800  0.25144000  0.08345500  1
  O  O52  1  0.74856000  0.58644200  0.41654500  1
  O  O53  1  0.07327400  0.92672600  0.75000000  1
  O  O54  1  0.41840000  0.67115100  0.08243200  1
  O  O55  1  0.74862200  0.99894800  0.41517700  1
  O  O56  1  0.07621100  0.32666000  0.74943900  1
  O  O57  1  0.00105200  0.25137800  0.08482300  1
  O  O58  1  0.32884900  0.58160000  0.41756800  1
  O  O59  1  0.67334000  0.92378900  0.75056100  1
  O  O60  1  0.70905600  0.95926900  0.08317100  1
  O  O61  1  0.04073100  0.29094400  0.41682900  1
  O  O62  1  0.37535200  0.62464800  0.75000000  1
  O  O63  1  0.62464800  0.37535200  0.25000000  1
  O  O64  1  0.95926900  0.70905600  0.58317100  1
  O  O65  1  0.29094400  0.04073100  0.91682900  1
