# generated using pymatgen
data_Sm2ScTaO7
_symmetry_space_group_name_H-M   'P 1'
_cell_length_a   7.46889738
_cell_length_b   7.46889738
_cell_length_c   7.46889738
_cell_angle_alpha   120.50279469
_cell_angle_beta   119.41743244
_cell_angle_gamma   90.07166613
_symmetry_Int_Tables_number   1
_chemical_formula_structural   Sm2ScTaO7
_chemical_formula_sum   'Sm4 Sc2 Ta2 O14'
_cell_volume   294.75910719
_cell_formula_units_Z   2
loop_
 _symmetry_equiv_pos_site_id
 _symmetry_equiv_pos_as_xyz
  1  'x, y, z'
loop_
 _atom_site_type_symbol
 _atom_site_label
 _atom_site_symmetry_multiplicity
 _atom_site_fract_x
 _atom_site_fract_y
 _atom_site_fract_z
 _atom_site_occupancy
  Sm  Sm0  1  0.50000000  0.50000000  0.50000000  1
  Sm  Sm1  1  0.50000000  0.00000000  0.00000000  1
  Sm  Sm2  1  0.50000000  0.50000000  0.00000000  1
  Sm  Sm3  1  0.00000000  0.50000000  0.50000000  1
  Sc  Sc4  1  0.00000000  0.00000000  0.50000000  1
  Sc  Sc5  1  0.00000000  0.50000000  0.00000000  1
  Ta  Ta6  1  0.00000000  0.00000000  0.00000000  1
  Ta  Ta7  1  0.50000000  0.00000000  0.50000000  1
  O  O8  1  0.62173300  0.37173300  0.25000000  1
  O  O9  1  0.37826700  0.62826700  0.75000000  1
  O  O10  1  0.34202000  0.07318800  0.66574800  1
  O  O11  1  0.90744000  0.07318800  0.23116800  1
  O  O12  1  0.90273500  0.65273500  0.25000000  1
  O  O13  1  0.90744000  0.67627200  0.83425200  1
  O  O14  1  0.34202000  0.67627200  0.26883200  1
  O  O15  1  0.31651100  0.06651100  0.25000000  1
  O  O16  1  0.65798000  0.92681200  0.33425200  1
  O  O17  1  0.09256000  0.92681200  0.76883200  1
  O  O18  1  0.09726500  0.34726500  0.75000000  1
  O  O19  1  0.09256000  0.32372800  0.16574800  1
  O  O20  1  0.65798000  0.32372800  0.73116800  1
  O  O21  1  0.68348900  0.93348900  0.75000000  1
