# generated using pymatgen
data_Sn13Pd20
_symmetry_space_group_name_H-M   'P 1'
_cell_length_a   8.92114533
_cell_length_b   8.92114533
_cell_length_c   17.21659588
_cell_angle_alpha   89.93940781
_cell_angle_beta   89.93940781
_cell_angle_gamma   60.33119982
_symmetry_Int_Tables_number   1
_chemical_formula_structural   Sn13Pd20
_chemical_formula_sum   'Sn26 Pd40'
_cell_volume   1190.57998436
_cell_formula_units_Z   2
loop_
 _symmetry_equiv_pos_site_id
 _symmetry_equiv_pos_as_xyz
  1  'x, y, z'
loop_
 _atom_site_type_symbol
 _atom_site_label
 _atom_site_symmetry_multiplicity
 _atom_site_fract_x
 _atom_site_fract_y
 _atom_site_fract_z
 _atom_site_occupancy
  Sn  Sn0  1  0.38789400  0.30726200  0.25514200  1
  Sn  Sn1  1  0.30304300  0.38853600  0.92205900  1
  Sn  Sn2  1  0.31749900  0.31314100  0.58645800  1
  Sn  Sn3  1  0.68685900  0.68250100  0.41354200  1
  Sn  Sn4  1  0.61146400  0.69695700  0.07794100  1
  Sn  Sn5  1  0.69273800  0.61210600  0.74485800  1
  Sn  Sn6  1  0.69195100  0.19454000  0.74517600  1
  Sn  Sn7  1  0.13102100  0.68180500  0.41257000  1
  Sn  Sn8  1  0.19547400  0.11435000  0.07728600  1
  Sn  Sn9  1  0.88565000  0.80452600  0.92271400  1
  Sn  Sn10  1  0.31819500  0.86897900  0.58743000  1
  Sn  Sn11  1  0.80546000  0.30804900  0.25482400  1
  Sn  Sn12  1  0.66480700  0.16755900  0.08119200  1
  Sn  Sn13  1  0.16713300  0.66502000  0.74818000  1
  Sn  Sn14  1  0.16878100  0.16704800  0.41606400  1
  Sn  Sn15  1  0.83295200  0.83121900  0.58393600  1
  Sn  Sn16  1  0.33498000  0.83286700  0.25182000  1
  Sn  Sn17  1  0.83244100  0.33519300  0.91880800  1
  Sn  Sn18  1  0.68571200  0.12709100  0.41889900  1
  Sn  Sn19  1  0.19553600  0.69468700  0.08222600  1
  Sn  Sn20  1  0.10866800  0.19607700  0.74666500  1
  Sn  Sn21  1  0.80392300  0.89133200  0.25333500  1
  Sn  Sn22  1  0.30531300  0.80446400  0.91777400  1
  Sn  Sn23  1  0.87290900  0.31428800  0.58110100  1
  Sn  Sn24  1  0.99912700  0.50283400  0.16743300  1
  Sn  Sn25  1  0.49716600  0.00087300  0.83256700  1
  Pd  Pd26  1  0.49954400  0.50181700  0.16777300  1
  Pd  Pd27  1  0.99953900  0.49994100  0.83297600  1
  Pd  Pd28  1  0.50031700  0.99958600  0.49995600  1
  Pd  Pd29  1  0.00041400  0.49968300  0.50004400  1
  Pd  Pd30  1  0.50005900  0.00046100  0.16702400  1
  Pd  Pd31  1  0.49818300  0.50045600  0.83222700  1
  Pd  Pd32  1  0.65936500  0.15955700  0.90964000  1
  Pd  Pd33  1  0.17885600  0.66202900  0.57580800  1
  Pd  Pd34  1  0.15885200  0.18200000  0.24320900  1
  Pd  Pd35  1  0.81800000  0.84114800  0.75679100  1
  Pd  Pd36  1  0.33797100  0.82114400  0.42419200  1
  Pd  Pd37  1  0.84044300  0.34063500  0.09036000  1
  Pd  Pd38  1  0.31817700  0.34295100  0.08665700  1
  Pd  Pd39  1  0.33979000  0.31621200  0.75198600  1
  Pd  Pd40  1  0.34202500  0.33935700  0.41963900  1
  Pd  Pd41  1  0.66064300  0.65797500  0.58036100  1
  Pd  Pd42  1  0.68378800  0.66021000  0.24801400  1
  Pd  Pd43  1  0.65704900  0.68182300  0.91334300  1
  Pd  Pd44  1  0.49710100  0.50770800  0.33455900  1
  Pd  Pd45  1  0.99498500  0.49673400  0.00271500  1
  Pd  Pd46  1  0.50759700  0.99730200  0.66666500  1
  Pd  Pd47  1  0.00269800  0.49240300  0.33333500  1
  Pd  Pd48  1  0.50326600  0.00501500  0.99728500  1
  Pd  Pd49  1  0.49229200  0.50289900  0.66544100  1
  Pd  Pd50  1  0.99508200  0.00491800  0.00000000  1
  Pd  Pd51  1  0.00034900  0.99810600  0.66452900  1
  Pd  Pd52  1  0.00189400  0.99965100  0.33547100  1
  Pd  Pd53  1  0.66345500  0.17730800  0.58263200  1
  Pd  Pd54  1  0.15460100  0.66136800  0.24928600  1
  Pd  Pd55  1  0.17969100  0.15861300  0.91459600  1
  Pd  Pd56  1  0.84138700  0.82030900  0.08540400  1
  Pd  Pd57  1  0.33863200  0.84539900  0.75071400  1
  Pd  Pd58  1  0.82269200  0.33654500  0.41736800  1
  Pd  Pd59  1  0.50818000  0.49182000  0.00000000  1
  Pd  Pd60  1  0.00231600  0.50094900  0.66493100  1
  Pd  Pd61  1  0.49905100  0.99768400  0.33506900  1
  Pd  Pd62  1  0.00144400  0.99855600  0.50000000  1
  Pd  Pd63  1  0.00001400  0.99980300  0.16751900  1
  Pd  Pd64  1  0.00019700  0.99998600  0.83248100  1
  Pd  Pd65  1  0.50253500  0.49746500  0.50000000  1
