# generated using pymatgen
data_Sm2Fe17N
_symmetry_space_group_name_H-M   'P 1'
_cell_length_a   6.47361182
_cell_length_b   6.47361182
_cell_length_c   6.43078168
_cell_angle_alpha   83.56696985
_cell_angle_beta   83.56696985
_cell_angle_gamma   83.76704877
_symmetry_Int_Tables_number   1
_chemical_formula_structural   Sm2Fe17N
_chemical_formula_sum   'Sm2 Fe17 N1'
_cell_volume   264.85473774
_cell_formula_units_Z   1
loop_
 _symmetry_equiv_pos_site_id
 _symmetry_equiv_pos_as_xyz
  1  'x, y, z'
loop_
 _atom_site_type_symbol
 _atom_site_label
 _atom_site_symmetry_multiplicity
 _atom_site_fract_x
 _atom_site_fract_y
 _atom_site_fract_z
 _atom_site_occupancy
  Sm  Sm0  1  0.65711600  0.65711600  0.65572900  1
  Sm  Sm1  1  0.34288400  0.34288400  0.34427100  1
  Fe  Fe2  1  0.71677700  0.28322300  0.00000000  1
  Fe  Fe3  1  0.99956400  0.71445800  0.28742200  1
  Fe  Fe4  1  0.28554200  0.00043600  0.71257800  1
  Fe  Fe5  1  0.00043600  0.28554200  0.71257800  1
  Fe  Fe6  1  0.71445800  0.99956400  0.28742200  1
  Fe  Fe7  1  0.28322300  0.71677700  0.00000000  1
  Fe  Fe8  1  0.00000000  0.00000000  0.50000000  1
  Fe  Fe9  1  0.50000000  0.00000000  0.00000000  1
  Fe  Fe10  1  0.00000000  0.50000000  0.00000000  1
  Fe  Fe11  1  0.34153500  0.34153500  0.84983200  1
  Fe  Fe12  1  0.85317900  0.34331800  0.34590000  1
  Fe  Fe13  1  0.34331800  0.85317900  0.34590000  1
  Fe  Fe14  1  0.65846500  0.65846500  0.15016800  1
  Fe  Fe15  1  0.14682100  0.65668200  0.65410000  1
  Fe  Fe16  1  0.65668200  0.14682100  0.65410000  1
  Fe  Fe17  1  0.90368300  0.90368300  0.90212200  1
  Fe  Fe18  1  0.09631700  0.09631700  0.09787800  1
  N  N19  1  0.50000000  0.50000000  0.00000000  1
