# generated using pymatgen
data_Sm2Cr(Fe8C)2
_symmetry_space_group_name_H-M   'P 1'
_cell_length_a   6.49252487
_cell_length_b   6.49252487
_cell_length_c   6.51050346
_cell_angle_alpha   83.24748541
_cell_angle_beta   83.24748541
_cell_angle_gamma   83.24621103
_symmetry_Int_Tables_number   1
_chemical_formula_structural   Sm2Cr(Fe8C)2
_chemical_formula_sum   'Sm2 Cr1 Fe16 C2'
_cell_volume   269.13959692
_cell_formula_units_Z   1
loop_
 _symmetry_equiv_pos_site_id
 _symmetry_equiv_pos_as_xyz
  1  'x, y, z'
loop_
 _atom_site_type_symbol
 _atom_site_label
 _atom_site_symmetry_multiplicity
 _atom_site_fract_x
 _atom_site_fract_y
 _atom_site_fract_z
 _atom_site_occupancy
  Sm  Sm0  1  0.35039600  0.35039600  0.33543200  1
  Sm  Sm1  1  0.64465900  0.64465900  0.65997500  1
  Cr  Cr2  1  0.90658100  0.90658100  0.90792700  1
  Fe  Fe3  1  0.65949400  0.65949400  0.14536500  1
  Fe  Fe4  1  0.65631900  0.14357000  0.65997000  1
  Fe  Fe5  1  0.14357000  0.65631900  0.65997000  1
  Fe  Fe6  1  0.34121900  0.34121900  0.85743800  1
  Fe  Fe7  1  0.34344500  0.85627900  0.33827200  1
  Fe  Fe8  1  0.85627900  0.34344500  0.33827200  1
  Fe  Fe9  1  0.28662200  0.00194600  0.71556400  1
  Fe  Fe10  1  0.99928400  0.71731800  0.28793600  1
  Fe  Fe11  1  0.71679600  0.28426500  0.99888600  1
  Fe  Fe12  1  0.00194600  0.28662200  0.71556400  1
  Fe  Fe13  1  0.28426500  0.71679600  0.99888600  1
  Fe  Fe14  1  0.71731800  0.99928400  0.28793600  1
  Fe  Fe15  1  0.99903400  0.50149900  0.99980600  1
  Fe  Fe16  1  0.50149900  0.99903400  0.99980600  1
  Fe  Fe17  1  0.99990700  0.99990700  0.50199100  1
  Fe  Fe18  1  0.09216600  0.09216600  0.09136300  1
  C  C19  1  0.49937700  0.99982400  0.49981900  1
  C  C20  1  0.99982400  0.49937700  0.49981900  1
