# generated using pymatgen
data_SiO2
_symmetry_space_group_name_H-M   'P 1'
_cell_length_a   5.06823948
_cell_length_b   5.06823948
_cell_length_c   5.06823948
_cell_angle_alpha   127.67229375
_cell_angle_beta   124.59371307
_cell_angle_gamma   79.69443473
_symmetry_Int_Tables_number   1
_chemical_formula_structural   SiO2
_chemical_formula_sum   'Si2 O4'
_cell_volume   81.95669549
_cell_formula_units_Z   2
loop_
 _symmetry_equiv_pos_site_id
 _symmetry_equiv_pos_as_xyz
  1  'x, y, z'
loop_
 _atom_site_type_symbol
 _atom_site_label
 _atom_site_symmetry_multiplicity
 _atom_site_fract_x
 _atom_site_fract_y
 _atom_site_fract_z
 _atom_site_occupancy
  Si  Si0  1  0.25000000  0.00000000  0.25000000  1
  Si  Si1  1  0.75000000  0.00000000  0.75000000  1
  O  O2  1  0.60582000  0.91455700  0.30873700  1
  O  O3  1  0.39418000  0.08544300  0.69126300  1
  O  O4  1  0.10582000  0.29708300  0.19126300  1
  O  O5  1  0.89418000  0.70291700  0.80873700  1
