# generated using pymatgen
data_Si3Mo3W2
_symmetry_space_group_name_H-M   'P 1'
_cell_length_a   4.92780200
_cell_length_b   7.29171703
_cell_length_c   7.29171703
_cell_angle_alpha   96.75468427
_cell_angle_beta   109.74923119
_cell_angle_gamma   70.25076881
_symmetry_Int_Tables_number   1
_chemical_formula_structural   Si3Mo3W2
_chemical_formula_sum   'Si6 Mo6 W4'
_cell_volume   232.08949094
_cell_formula_units_Z   2
loop_
 _symmetry_equiv_pos_site_id
 _symmetry_equiv_pos_as_xyz
  1  'x, y, z'
loop_
 _atom_site_type_symbol
 _atom_site_label
 _atom_site_symmetry_multiplicity
 _atom_site_fract_x
 _atom_site_fract_y
 _atom_site_fract_z
 _atom_site_occupancy
  Si  Si0  1  0.25000000  0.00000000  0.00000000  1
  Si  Si1  1  0.75000000  0.00000000  0.00000000  1
  Si  Si2  1  0.33185300  0.50194200  0.16564900  1
  Si  Si3  1  0.66814700  0.49805800  0.83435100  1
  Si  Si4  1  0.83185300  0.83435100  0.49805800  1
  Si  Si5  1  0.16814700  0.16564900  0.50194200  1
  Mo  Mo6  1  0.72441000  0.69767700  0.14649800  1
  Mo  Mo7  1  0.27559000  0.30232300  0.85350200  1
  Mo  Mo8  1  0.77559000  0.14649800  0.69767700  1
  Mo  Mo9  1  0.22441000  0.85350200  0.30232300  1
  Mo  Mo10  1  0.25000000  0.50000000  0.50000000  1
  Mo  Mo11  1  0.75000000  0.50000000  0.50000000  1
  W  W12  1  0.42403600  0.85061100  0.69868300  1
  W  W13  1  0.57596400  0.14938900  0.30131700  1
  W  W14  1  0.92403600  0.30131700  0.14938900  1
  W  W15  1  0.07596400  0.69868300  0.85061100  1
