# generated using pymatgen
data_ScMn(BiO3)2
_symmetry_space_group_name_H-M   'P 1'
_cell_length_a   5.67480549
_cell_length_b   10.04741940
_cell_length_c   10.06116173
_cell_angle_alpha   110.09615091
_cell_angle_beta   90.38031636
_cell_angle_gamma   92.14957188
_symmetry_Int_Tables_number   1
_chemical_formula_structural   ScMn(BiO3)2
_chemical_formula_sum   'Sc4 Mn4 Bi8 O24'
_cell_volume   538.23726819
_cell_formula_units_Z   4
loop_
 _symmetry_equiv_pos_site_id
 _symmetry_equiv_pos_as_xyz
  1  'x, y, z'
loop_
 _atom_site_type_symbol
 _atom_site_label
 _atom_site_symmetry_multiplicity
 _atom_site_fract_x
 _atom_site_fract_y
 _atom_site_fract_z
 _atom_site_occupancy
  Sc  Sc0  1  0.26432200  0.48579400  0.75005000  1
  Sc  Sc1  1  0.76441600  0.98576200  0.75001700  1
  Sc  Sc2  1  0.73571100  0.51421200  0.24996000  1
  Sc  Sc3  1  0.23560400  0.01427500  0.24999800  1
  Mn  Mn4  1  0.75023900  0.74999000  0.99994300  1
  Mn  Mn5  1  0.25010500  0.75020000  0.49991700  1
  Mn  Mn6  1  0.24981100  0.25006600  0.00004300  1
  Mn  Mn7  1  0.74983900  0.24988000  0.49993900  1
  Bi  Bi8  1  0.28524500  0.36303300  0.37788500  1
  Bi  Bi9  1  0.78524600  0.86293900  0.37777600  1
  Bi  Bi10  1  0.75152400  0.09989100  0.12215300  1
  Bi  Bi11  1  0.25171600  0.59993200  0.12213200  1
  Bi  Bi12  1  0.71475000  0.63705800  0.62216700  1
  Bi  Bi13  1  0.21477300  0.13712500  0.62226000  1
  Bi  Bi14  1  0.24846100  0.90004200  0.87777100  1
  Bi  Bi15  1  0.74828600  0.40002300  0.87781400  1
  O  O16  1  0.00535400  0.42369600  0.11987200  1
  O  O17  1  0.50532700  0.92368500  0.11991900  1
  O  O18  1  0.67165900  0.39939600  0.38024900  1
  O  O19  1  0.17166500  0.89941300  0.38023200  1
  O  O20  1  0.99468300  0.57628400  0.88014200  1
  O  O21  1  0.49468400  0.07629700  0.88010600  1
  O  O22  1  0.32835700  0.60060400  0.61976800  1
  O  O23  1  0.82836400  0.10057400  0.61977000  1
  O  O24  1  0.40853800  0.62267100  0.33709000  1
  O  O25  1  0.90840700  0.12267500  0.33712300  1
  O  O26  1  0.28083600  0.18852600  0.16292900  1
  O  O27  1  0.78098500  0.68848300  0.16286100  1
  O  O28  1  0.59140600  0.37726800  0.66286600  1
  O  O29  1  0.09154500  0.87727400  0.66282300  1
  O  O30  1  0.71913800  0.81150400  0.83717600  1
  O  O31  1  0.21900500  0.31151700  0.83722600  1
  O  O32  1  0.51247000  0.58826600  0.91690200  1
  O  O33  1  0.01237800  0.08822800  0.91688300  1
  O  O34  1  0.06969300  0.32946400  0.58316800  1
  O  O35  1  0.56970100  0.82946300  0.58309800  1
  O  O36  1  0.48757000  0.41168900  0.08308900  1
  O  O37  1  0.98764200  0.91170300  0.08310500  1
  O  O38  1  0.93029100  0.67054700  0.41686100  1
  O  O39  1  0.43025300  0.17055000  0.41691700  1
