# generated using pymatgen
data_Sm2Ti12(CuO4)9
_symmetry_space_group_name_H-M   'P 1'
_cell_length_a   6.46916646
_cell_length_b   10.52712857
_cell_length_c   10.52712857
_cell_angle_alpha   120.00000000
_cell_angle_beta   90.00000000
_cell_angle_gamma   90.00000000
_symmetry_Int_Tables_number   1
_chemical_formula_structural   Sm2Ti12(CuO4)9
_chemical_formula_sum   'Sm2 Ti12 Cu9 O36'
_cell_volume   620.86733682
_cell_formula_units_Z   1
loop_
 _symmetry_equiv_pos_site_id
 _symmetry_equiv_pos_as_xyz
  1  'x, y, z'
loop_
 _atom_site_type_symbol
 _atom_site_label
 _atom_site_symmetry_multiplicity
 _atom_site_fract_x
 _atom_site_fract_y
 _atom_site_fract_z
 _atom_site_occupancy
  Sm  Sm0  1  0.00417800  0.00000000  0.00000000  1
  Sm  Sm1  1  0.66248900  0.66666700  0.33333300  1
  Ti  Ti2  1  0.16998000  0.65141700  0.82422300  1
  Ti  Ti3  1  0.83333300  0.33333300  0.16666700  1
  Ti  Ti4  1  0.49668700  0.01525000  0.50911000  1
  Ti  Ti5  1  0.83333300  0.33333300  0.66666700  1
  Ti  Ti6  1  0.49325100  0.00000000  0.00000000  1
  Ti  Ti7  1  0.17341600  0.66666700  0.33333300  1
  Ti  Ti8  1  0.16998000  0.17280600  0.34858300  1
  Ti  Ti9  1  0.83333300  0.83333300  0.66666700  1
  Ti  Ti10  1  0.49668700  0.49386100  0.98475000  1
  Ti  Ti11  1  0.49668700  0.49089000  0.50613900  1
  Ti  Ti12  1  0.16998000  0.17577700  0.82719400  1
  Ti  Ti13  1  0.83333300  0.83333300  0.16666700  1
  Cu  Cu14  1  0.67124600  0.67000700  0.83493500  1
  Cu  Cu15  1  0.33333300  0.33333300  0.16666700  1
  Cu  Cu16  1  0.99542100  0.99666000  0.49839800  1
  Cu  Cu17  1  0.99542100  0.50160200  0.49826200  1
  Cu  Cu18  1  0.67124600  0.16506500  0.83507100  1
  Cu  Cu19  1  0.33333300  0.83333300  0.16666700  1
  Cu  Cu20  1  0.33333300  0.83333300  0.66666700  1
  Cu  Cu21  1  0.99542100  0.50173800  0.00334000  1
  Cu  Cu22  1  0.67124600  0.16492900  0.32999300  1
  O  O23  1  0.24487500  0.06392700  0.62227500  1
  O  O24  1  0.91983700  0.74271700  0.95925100  1
  O  O25  1  0.58354500  0.40845400  0.29214400  1
  O  O26  1  0.34908700  0.52563800  0.17540200  1
  O  O27  1  0.00292200  0.18522500  0.50186200  1
  O  O28  1  0.68584500  0.85986100  0.84249600  1
  O  O29  1  0.98082100  0.80680500  0.49083800  1
  O  O30  1  0.66374500  0.48144200  0.83147100  1
  O  O31  1  0.31758000  0.14102900  0.15793100  1
  O  O32  1  0.08312200  0.25821300  0.04118900  1
  O  O33  1  0.74683000  0.92395000  0.37408200  1
  O  O34  1  0.42179100  0.60273900  0.71105900  1
  O  O35  1  0.42179100  0.28894100  0.89168100  1
  O  O36  1  0.08312200  0.95881100  0.21702400  1
  O  O37  1  0.74683000  0.62591800  0.54986700  1
  O  O38  1  0.66374500  0.16852900  0.64997100  1
  O  O39  1  0.31758000  0.84206900  0.98309700  1
  O  O40  1  0.98082100  0.50916200  0.31596700  1
  O  O41  1  0.68584500  0.15750400  0.01736700  1
  O  O42  1  0.34908700  0.82459800  0.35023600  1
  O  O43  1  0.00292200  0.49813800  0.68336200  1
  O  O44  1  0.91983700  0.04074900  0.78346600  1
  O  O45  1  0.58354500  0.70785600  0.11630900  1
  O  O46  1  0.24487500  0.37772500  0.44165300  1
  O  O47  1  0.00292200  0.31663800  0.81477500  1
  O  O48  1  0.68584500  0.98263300  0.14013900  1
  O  O49  1  0.34908700  0.64976400  0.47436200  1
  O  O50  1  0.58354500  0.88369100  0.59154600  1
  O  O51  1  0.24487500  0.55834700  0.93607300  1
  O  O52  1  0.91983700  0.21653400  0.25728300  1
  O  O53  1  0.74683000  0.45013300  0.07605000  1
  O  O54  1  0.42179100  0.10831900  0.39726100  1
  O  O55  1  0.08312200  0.78297600  0.74178700  1
  O  O56  1  0.31758000  0.01690300  0.85897100  1
  O  O57  1  0.98082100  0.68403300  0.19319500  1
  O  O58  1  0.66374500  0.35002900  0.51855800  1
