# generated using pymatgen
data_Si3Ag10S11
_symmetry_space_group_name_H-M   'P 1'
_cell_length_a   6.50302800
_cell_length_b   12.50924157
_cell_length_c   13.57506860
_cell_angle_alpha   69.15108888
_cell_angle_beta   79.74344975
_cell_angle_gamma   78.21334236
_symmetry_Int_Tables_number   1
_chemical_formula_structural   Si3Ag10S11
_chemical_formula_sum   'Si6 Ag20 S22'
_cell_volume   1003.51504095
_cell_formula_units_Z   2
loop_
 _symmetry_equiv_pos_site_id
 _symmetry_equiv_pos_as_xyz
  1  'x, y, z'
loop_
 _atom_site_type_symbol
 _atom_site_label
 _atom_site_symmetry_multiplicity
 _atom_site_fract_x
 _atom_site_fract_y
 _atom_site_fract_z
 _atom_site_occupancy
  Si  Si0  1  0.30329100  0.82483400  0.93731500  1
  Si  Si1  1  0.69670900  0.17516600  0.06268500  1
  Si  Si2  1  0.01240400  0.78908400  0.53933300  1
  Si  Si3  1  0.98759600  0.21091600  0.46066700  1
  Si  Si4  1  0.20213700  0.48776900  0.69943100  1
  Si  Si5  1  0.79786300  0.51223100  0.30056900  1
  Ag  Ag6  1  0.55377300  0.68851600  0.47088400  1
  Ag  Ag7  1  0.44622700  0.31148400  0.52911600  1
  Ag  Ag8  1  0.80696000  0.02759500  0.88273700  1
  Ag  Ag9  1  0.19304000  0.97240500  0.11726300  1
  Ag  Ag10  1  0.48276600  0.73524600  0.68512500  1
  Ag  Ag11  1  0.51723400  0.26475400  0.31487500  1
  Ag  Ag12  1  0.85784200  0.72227700  0.82176600  1
  Ag  Ag13  1  0.14215800  0.27772300  0.17823400  1
  Ag  Ag14  1  0.20397600  0.63706700  0.36835800  1
  Ag  Ag15  1  0.79602400  0.36293300  0.63164200  1
  Ag  Ag16  1  0.77259300  0.82733400  0.12103000  1
  Ag  Ag17  1  0.22740700  0.17266600  0.87897000  1
  Ag  Ag18  1  0.64484100  0.96240700  0.65866700  1
  Ag  Ag19  1  0.35515900  0.03759300  0.34133300  1
  Ag  Ag20  1  0.25106200  0.59817600  0.16384500  1
  Ag  Ag21  1  0.74893800  0.40182400  0.83615500  1
  Ag  Ag22  1  0.85324700  0.97220400  0.31214400  1
  Ag  Ag23  1  0.14675300  0.02779600  0.68785600  1
  Ag  Ag24  1  0.67540600  0.53400600  0.03824900  1
  Ag  Ag25  1  0.32459400  0.46599400  0.96175100  1
  S  S26  1  0.51916800  0.52665900  0.66538500  1
  S  S27  1  0.48083200  0.47334100  0.33461500  1
  S  S28  1  0.03962300  0.50284000  0.84746400  1
  S  S29  1  0.96037700  0.49716000  0.15253600  1
  S  S30  1  0.69021900  0.86304400  0.51704900  1
  S  S31  1  0.30978100  0.13695600  0.48295100  1
  S  S32  1  0.97004600  0.82434300  0.94227400  1
  S  S33  1  0.02995400  0.17565700  0.05772600  1
  S  S34  1  0.38426700  0.79148700  0.09292900  1
  S  S35  1  0.61573300  0.20851300  0.90707100  1
  S  S36  1  0.20742100  0.83931800  0.38939500  1
  S  S37  1  0.79257900  0.16068200  0.61060500  1
  S  S38  1  0.09698300  0.82989800  0.66304900  1
  S  S39  1  0.90301700  0.17010200  0.33695100  1
  S  S40  1  0.39652100  0.98435800  0.82517800  1
  S  S41  1  0.60347900  0.01564200  0.17482200  1
  S  S42  1  0.18235700  0.32298500  0.69200300  1
  S  S43  1  0.81764300  0.67701500  0.30799700  1
  S  S44  1  0.01747500  0.60279900  0.57289400  1
  S  S45  1  0.98252500  0.39720100  0.42710600  1
  S  S46  1  0.47691700  0.67995200  0.88836800  1
  S  S47  1  0.52308300  0.32004800  0.11163200  1
