# generated using pymatgen
data_SiH2O
_symmetry_space_group_name_H-M   'P 1'
_cell_length_a   3.41971816
_cell_length_b   2.95542512
_cell_length_c   5.21763910
_cell_angle_alpha   80.96895706
_cell_angle_beta   90.05228571
_cell_angle_gamma   58.36281869
_symmetry_Int_Tables_number   1
_chemical_formula_structural   SiH2O
_chemical_formula_sum   'Si1 H2 O1'
_cell_volume   44.12194729
_cell_formula_units_Z   1
loop_
 _symmetry_equiv_pos_site_id
 _symmetry_equiv_pos_as_xyz
  1  'x, y, z'
loop_
 _atom_site_type_symbol
 _atom_site_label
 _atom_site_symmetry_multiplicity
 _atom_site_fract_x
 _atom_site_fract_y
 _atom_site_fract_z
 _atom_site_occupancy
  Si  Si0  1  0.26932100  0.45797500  0.88393600  1
  H  H1  1  0.73094200  0.54267500  0.81460400  1
  H  H2  1  0.19525100  0.62781900  0.29881100  1
  O  O3  1  0.33338700  0.31363100  0.21264800  1
