# generated using pymatgen
data_Si60Te13P32Se3
_symmetry_space_group_name_H-M   'P 1'
_cell_length_a   10.01818200
_cell_length_b   10.01845100
_cell_length_c   20.03647000
_cell_angle_alpha   90.00000000
_cell_angle_beta   90.00000000
_cell_angle_gamma   90.00000000
_symmetry_Int_Tables_number   1
_chemical_formula_structural   Si60Te13P32Se3
_chemical_formula_sum   'Si60 Te13 P32 Se3'
_cell_volume   2010.99368181
_cell_formula_units_Z   1
loop_
 _symmetry_equiv_pos_site_id
 _symmetry_equiv_pos_as_xyz
  1  'x, y, z'
loop_
 _atom_site_type_symbol
 _atom_site_label
 _atom_site_symmetry_multiplicity
 _atom_site_fract_x
 _atom_site_fract_y
 _atom_site_fract_z
 _atom_site_occupancy
  Si  Si0  1  0.50000000  0.75020100  0.74989800  1
  Si  Si1  1  0.50000000  0.75020100  0.25010200  1
  Si  Si2  1  0.24962000  0.00000000  0.00000000  1
  Si  Si3  1  0.24998200  0.00000000  0.50000000  1
  Si  Si4  1  0.00000000  0.50000000  0.87480300  1
  Si  Si5  1  0.00000000  0.50000000  0.37498600  1
  Si  Si6  1  0.50000000  0.24979900  0.74989800  1
  Si  Si7  1  0.50000000  0.24979900  0.25010200  1
  Si  Si8  1  0.75038000  0.00000000  0.00000000  1
  Si  Si9  1  0.75001800  0.00000000  0.50000000  1
  Si  Si10  1  0.00000000  0.50000000  0.12519700  1
  Si  Si11  1  0.00000000  0.50000000  0.62501400  1
  Si  Si12  1  0.50000000  0.61687800  0.84552200  1
  Si  Si13  1  0.50000000  0.61678200  0.34585700  1
  Si  Si14  1  0.38310200  0.80892800  0.00000000  1
  Si  Si15  1  0.38323600  0.80832200  0.50000000  1
  Si  Si16  1  0.19106600  0.50000000  0.94153900  1
  Si  Si17  1  0.19166500  0.50000000  0.44161800  1
  Si  Si18  1  0.50000000  0.38312200  0.15447800  1
  Si  Si19  1  0.50000000  0.38321800  0.65414300  1
  Si  Si20  1  0.61689900  0.19107200  0.00000000  1
  Si  Si21  1  0.61676400  0.19167800  0.50000000  1
  Si  Si22  1  0.80893400  0.50000000  0.05846100  1
  Si  Si23  1  0.80833500  0.50000000  0.55838200  1
  Si  Si24  1  0.38310200  0.19107200  0.00000000  1
  Si  Si25  1  0.38323600  0.19167800  0.50000000  1
  Si  Si26  1  0.19106600  0.50000000  0.05846100  1
  Si  Si27  1  0.19166500  0.50000000  0.55838200  1
  Si  Si28  1  0.61689900  0.80892800  0.00000000  1
  Si  Si29  1  0.61676400  0.80832200  0.50000000  1
  Si  Si30  1  0.80893400  0.50000000  0.94153900  1
  Si  Si31  1  0.80833500  0.50000000  0.44161800  1
  Si  Si32  1  0.50000000  0.38312200  0.84552200  1
  Si  Si33  1  0.50000000  0.38321800  0.34585700  1
  Si  Si34  1  0.50000000  0.61687800  0.15447800  1
  Si  Si35  1  0.50000000  0.61678200  0.65414300  1
  Si  Si36  1  0.00000000  0.69178400  0.80835800  1
  Si  Si37  1  0.00000000  0.69172000  0.30838500  1
  Si  Si38  1  0.88327900  0.00000000  0.90407300  1
  Si  Si39  1  0.88324500  0.00000000  0.40416300  1
  Si  Si40  1  0.69175200  0.88325100  0.74998200  1
  Si  Si41  1  0.69175200  0.88325100  0.25001800  1
  Si  Si42  1  0.00000000  0.30821600  0.19164200  1
  Si  Si43  1  0.00000000  0.30828000  0.69161500  1
  Si  Si44  1  0.11672100  0.00000000  0.09592700  1
  Si  Si45  1  0.11675500  0.00000000  0.59583700  1
  Si  Si46  1  0.30824800  0.11674900  0.74998200  1
  Si  Si47  1  0.30824800  0.11674900  0.25001800  1
  Si  Si48  1  0.88327900  0.00000000  0.09592700  1
  Si  Si49  1  0.88324500  0.00000000  0.59583700  1
  Si  Si50  1  0.69175200  0.11674900  0.74998200  1
  Si  Si51  1  0.69175200  0.11674900  0.25001800  1
  Si  Si52  1  0.11672100  0.00000000  0.90407300  1
  Si  Si53  1  0.11675500  0.00000000  0.40416300  1
  Si  Si54  1  0.30824800  0.88325100  0.74998200  1
  Si  Si55  1  0.30824800  0.88325100  0.25001800  1
  Si  Si56  1  0.00000000  0.69178400  0.19164200  1
  Si  Si57  1  0.00000000  0.69172000  0.69161500  1
  Si  Si58  1  0.00000000  0.30821600  0.80835800  1
  Si  Si59  1  0.00000000  0.30828000  0.30838500  1
  Te  Te60  1  0.00000000  0.74997500  0.00000000  1
  Te  Te61  1  0.00000000  0.75000700  0.50000000  1
  Te  Te62  1  0.25001800  0.50000000  0.75001600  1
  Te  Te63  1  0.25001800  0.50000000  0.24998400  1
  Te  Te64  1  0.50000000  0.00000000  0.87501000  1
  Te  Te65  1  0.50000000  0.00000000  0.37497000  1
  Te  Te66  1  0.00000000  0.25002500  0.00000000  1
  Te  Te67  1  0.00000000  0.24999300  0.50000000  1
  Te  Te68  1  0.74998200  0.50000000  0.75001600  1
  Te  Te69  1  0.74998200  0.50000000  0.24998400  1
  Te  Te70  1  0.50000000  0.00000000  0.12499000  1
  Te  Te71  1  0.50000000  0.00000000  0.62503000  1
  Te  Te72  1  0.50000000  0.50000000  0.00000000  1
  P  P73  1  0.31560600  0.68438200  0.90780900  1
  P  P74  1  0.31593900  0.68407000  0.40797500  1
  P  P75  1  0.68439400  0.31561800  0.09219100  1
  P  P76  1  0.68406100  0.31593000  0.59202500  1
  P  P77  1  0.31560600  0.31561800  0.09219100  1
  P  P78  1  0.31593900  0.31593000  0.59202500  1
  P  P79  1  0.68439400  0.68438200  0.90780900  1
  P  P80  1  0.68406100  0.68407000  0.40797500  1
  P  P81  1  0.68439400  0.31561800  0.90780900  1
  P  P82  1  0.68406100  0.31593000  0.40797500  1
  P  P83  1  0.31560600  0.68438200  0.09219100  1
  P  P84  1  0.31593900  0.68407000  0.59202500  1
  P  P85  1  0.68439400  0.68438200  0.09219100  1
  P  P86  1  0.68406100  0.68407000  0.59202500  1
  P  P87  1  0.31560600  0.31561800  0.90780900  1
  P  P88  1  0.31593900  0.31593000  0.40797500  1
  P  P89  1  0.81623800  0.81621800  0.84186600  1
  P  P90  1  0.81595800  0.81598000  0.34202900  1
  P  P91  1  0.18376200  0.18378200  0.15813400  1
  P  P92  1  0.18404200  0.18402000  0.65797100  1
  P  P93  1  0.81623800  0.18378200  0.15813400  1
  P  P94  1  0.81595800  0.18402000  0.65797100  1
  P  P95  1  0.18376200  0.81621800  0.84186600  1
  P  P96  1  0.18404200  0.81598000  0.34202900  1
  P  P97  1  0.18376200  0.81621800  0.15813400  1
  P  P98  1  0.18404200  0.81598000  0.65797100  1
  P  P99  1  0.81623800  0.18378200  0.84186600  1
  P  P100  1  0.81595800  0.18402000  0.34202900  1
  P  P101  1  0.18376200  0.18378200  0.84186600  1
  P  P102  1  0.18404200  0.18402000  0.34202900  1
  P  P103  1  0.81623800  0.81621800  0.15813400  1
  P  P104  1  0.81595800  0.81598000  0.65797100  1
  Se  Se105  1  0.50000000  0.50000000  0.50000000  1
  Se  Se106  1  0.00000000  0.00000000  0.74993900  1
  Se  Se107  1  0.00000000  0.00000000  0.25006100  1
