# generated using pymatgen
data_Sm3Mg21Sb16
_symmetry_space_group_name_H-M   'P 1'
_cell_length_a   4.65725959
_cell_length_b   4.65725959
_cell_length_c   58.30380100
_cell_angle_alpha   90.00000000
_cell_angle_beta   90.00000000
_cell_angle_gamma   119.99999419
_symmetry_Int_Tables_number   1
_chemical_formula_structural   Sm3Mg21Sb16
_chemical_formula_sum   'Sm3 Mg21 Sb16'
_cell_volume   1095.18734614
_cell_formula_units_Z   1
loop_
 _symmetry_equiv_pos_site_id
 _symmetry_equiv_pos_as_xyz
  1  'x, y, z'
loop_
 _atom_site_type_symbol
 _atom_site_label
 _atom_site_symmetry_multiplicity
 _atom_site_fract_x
 _atom_site_fract_y
 _atom_site_fract_z
 _atom_site_occupancy
  Sm  Sm0  1  0.00000000  0.00000000  0.25003700  1
  Sm  Sm1  1  0.00000000  0.00000000  0.00000000  1
  Sm  Sm2  1  0.00000000  0.00000000  0.74996300  1
  Mg  Mg3  1  0.00000000  0.00000000  0.12499000  1
  Mg  Mg4  1  0.00000000  0.00000000  0.87501000  1
  Mg  Mg5  1  0.00000000  0.00000000  0.62449100  1
  Mg  Mg6  1  0.00000000  0.00000000  0.37550900  1
  Mg  Mg7  1  0.33333300  0.66666700  0.20222500  1
  Mg  Mg8  1  0.33333300  0.66666700  0.95224700  1
  Mg  Mg9  1  0.33333300  0.66666700  0.70218400  1
  Mg  Mg10  1  0.33333300  0.66666700  0.45268100  1
  Mg  Mg11  1  0.66666700  0.33333300  0.04775300  1
  Mg  Mg12  1  0.66666700  0.33333300  0.79777500  1
  Mg  Mg13  1  0.66666700  0.33333300  0.54731900  1
  Mg  Mg14  1  0.66666700  0.33333300  0.29781600  1
  Mg  Mg15  1  0.00000000  0.00000000  0.50000000  1
  Mg  Mg16  1  0.66666700  0.33333300  0.16805000  1
  Mg  Mg17  1  0.66666700  0.33333300  0.91805300  1
  Mg  Mg18  1  0.66666700  0.33333300  0.66806100  1
  Mg  Mg19  1  0.66666700  0.33333300  0.41906000  1
  Mg  Mg20  1  0.33333300  0.66666700  0.08194700  1
  Mg  Mg21  1  0.33333300  0.66666700  0.83195000  1
  Mg  Mg22  1  0.33333300  0.66666700  0.58094000  1
  Mg  Mg23  1  0.33333300  0.66666700  0.33193900  1
  Sb  Sb24  1  0.66666700  0.33333300  0.21902000  1
  Sb  Sb25  1  0.66666700  0.33333300  0.96902800  1
  Sb  Sb26  1  0.66666700  0.33333300  0.71922300  1
  Sb  Sb27  1  0.66666700  0.33333300  0.47002300  1
  Sb  Sb28  1  0.33333300  0.66666700  0.03097200  1
  Sb  Sb29  1  0.33333300  0.66666700  0.78098000  1
  Sb  Sb30  1  0.33333300  0.66666700  0.52997700  1
  Sb  Sb31  1  0.33333300  0.66666700  0.28077700  1
  Sb  Sb32  1  0.33333300  0.66666700  0.15242500  1
  Sb  Sb33  1  0.33333300  0.66666700  0.90243300  1
  Sb  Sb34  1  0.33333300  0.66666700  0.65290900  1
  Sb  Sb35  1  0.33333300  0.66666700  0.40173100  1
  Sb  Sb36  1  0.66666700  0.33333300  0.09756700  1
  Sb  Sb37  1  0.66666700  0.33333300  0.84757500  1
  Sb  Sb38  1  0.66666700  0.33333300  0.59826900  1
  Sb  Sb39  1  0.66666700  0.33333300  0.34709100  1
