# generated using pymatgen
data_TmS2
_symmetry_space_group_name_H-M   'P 1'
_cell_length_a   3.81373700
_cell_length_b   3.81373700
_cell_length_c   7.86373600
_cell_angle_alpha   90.00000000
_cell_angle_beta   90.00000000
_cell_angle_gamma   90.00000000
_symmetry_Int_Tables_number   1
_chemical_formula_structural   TmS2
_chemical_formula_sum   'Tm2 S4'
_cell_volume   114.37481524
_cell_formula_units_Z   2
loop_
 _symmetry_equiv_pos_site_id
 _symmetry_equiv_pos_as_xyz
  1  'x, y, z'
loop_
 _atom_site_type_symbol
 _atom_site_label
 _atom_site_symmetry_multiplicity
 _atom_site_fract_x
 _atom_site_fract_y
 _atom_site_fract_z
 _atom_site_occupancy
  Tm  Tm0  1  0.00000000  0.50000000  0.72598400  1
  Tm  Tm1  1  0.50000000  0.00000000  0.27401600  1
  S  S2  1  0.00000000  0.00000000  0.00000000  1
  S  S3  1  0.50000000  0.50000000  0.00000000  1
  S  S4  1  0.00000000  0.50000000  0.36941300  1
  S  S5  1  0.50000000  0.00000000  0.63058700  1
