# generated using pymatgen
data_Sr12Ti4Si16O61
_symmetry_space_group_name_H-M   'P 1'
_cell_length_a   10.96707168
_cell_length_b   10.96707168
_cell_length_c   12.13619646
_cell_angle_alpha   72.29738959
_cell_angle_beta   72.29738959
_cell_angle_gamma   89.23622456
_symmetry_Int_Tables_number   1
_chemical_formula_structural   Sr12Ti4Si16O61
_chemical_formula_sum   'Sr12 Ti4 Si16 O61'
_cell_volume   1319.68804286
_cell_formula_units_Z   1
loop_
 _symmetry_equiv_pos_site_id
 _symmetry_equiv_pos_as_xyz
  1  'x, y, z'
loop_
 _atom_site_type_symbol
 _atom_site_label
 _atom_site_symmetry_multiplicity
 _atom_site_fract_x
 _atom_site_fract_y
 _atom_site_fract_z
 _atom_site_occupancy
  Sr  Sr0  1  0.24800300  0.24800300  0.89340400  1
  Sr  Sr1  1  0.74666900  0.74666900  0.89779700  1
  Sr  Sr2  1  0.25241100  0.74923900  0.10624100  1
  Sr  Sr3  1  0.74923900  0.25241100  0.10624100  1
  Sr  Sr4  1  0.22753100  0.22753100  0.58970200  1
  Sr  Sr5  1  0.72896500  0.72896500  0.58996400  1
  Sr  Sr6  1  0.26631300  0.77083600  0.41421800  1
  Sr  Sr7  1  0.77083600  0.26631300  0.41421800  1
  Sr  Sr8  1  0.05385300  0.55583600  0.73981400  1
  Sr  Sr9  1  0.55583600  0.05385300  0.73981400  1
  Sr  Sr10  1  0.44260000  0.44260000  0.26013100  1
  Sr  Sr11  1  0.94692300  0.94692300  0.25490900  1
  Ti  Ti12  1  0.24963600  0.49940200  0.99868000  1
  Ti  Ti13  1  0.74839500  0.99877700  0.00190800  1
  Ti  Ti14  1  0.49940200  0.24963600  0.99868000  1
  Ti  Ti15  1  0.99877700  0.74839500  0.00190800  1
  Si  Si16  1  0.56435400  0.35945600  0.69675300  1
  Si  Si17  1  0.06246700  0.85950100  0.70164900  1
  Si  Si18  1  0.13874400  0.43294200  0.29982600  1
  Si  Si19  1  0.63812100  0.93839900  0.30175500  1
  Si  Si20  1  0.93839900  0.63812100  0.30175500  1
  Si  Si21  1  0.43294200  0.13874400  0.29982600  1
  Si  Si22  1  0.35945600  0.56435400  0.69675300  1
  Si  Si23  1  0.85950100  0.06246700  0.70164900  1
  Si  Si24  1  0.74424700  0.45767200  0.80046300  1
  Si  Si25  1  0.24578000  0.95553400  0.80300600  1
  Si  Si26  1  0.54138300  0.75289400  0.20351000  1
  Si  Si27  1  0.04121900  0.25401900  0.19606100  1
  Si  Si28  1  0.75289400  0.54138300  0.20351000  1
  Si  Si29  1  0.25401900  0.04121900  0.19606100  1
  Si  Si30  1  0.95553400  0.24578000  0.80300600  1
  Si  Si31  1  0.45767200  0.74424700  0.80046300  1
  O  O32  1  0.37025800  0.37025800  0.98284600  1
  O  O33  1  0.87175800  0.87175800  0.98540200  1
  O  O34  1  0.12751800  0.62748700  0.01698100  1
  O  O35  1  0.62748700  0.12751800  0.01698100  1
  O  O36  1  0.43385000  0.43385000  0.69015200  1
  O  O37  1  0.93200900  0.93200900  0.69263900  1
  O  O38  1  0.06769400  0.56471500  0.30899400  1
  O  O39  1  0.56471500  0.06769400  0.30899400  1
  O  O40  1  0.64370200  0.39147800  0.93837500  1
  O  O41  1  0.14592900  0.88929400  0.94099700  1
  O  O42  1  0.60741400  0.85320400  0.06560400  1
  O  O43  1  0.10660000  0.35511900  0.05793000  1
  O  O44  1  0.85320400  0.60741400  0.06560400  1
  O  O45  1  0.35511900  0.10660000  0.05793000  1
  O  O46  1  0.88929400  0.14592900  0.94099700  1
  O  O47  1  0.39147800  0.64370200  0.93837500  1
  O  O48  1  0.93722000  0.43391500  0.97882200  1
  O  O49  1  0.43391500  0.93722000  0.97882200  1
  O  O50  1  0.56228900  0.56228900  0.02332000  1
  O  O51  1  0.06387000  0.06387000  0.01983300  1
  O  O52  1  0.11049400  0.79785600  0.59332700  1
  O  O53  1  0.60660100  0.29530100  0.59033300  1
  O  O54  1  0.20076700  0.39125600  0.40852100  1
  O  O55  1  0.70307000  0.89247300  0.40960300  1
  O  O56  1  0.39125600  0.20076700  0.40852100  1
  O  O57  1  0.89247300  0.70307000  0.40960300  1
  O  O58  1  0.29530100  0.60660100  0.59033300  1
  O  O59  1  0.79785600  0.11049400  0.59332700  1
  O  O60  1  0.86348400  0.36521800  0.77999800  1
  O  O61  1  0.36521800  0.86348400  0.77999800  1
  O  O62  1  0.63328700  0.63328700  0.22447700  1
  O  O63  1  0.13530800  0.13530800  0.21179800  1
  O  O64  1  0.41397900  0.41397900  0.50344000  1
  O  O65  1  0.91336700  0.91336700  0.50107600  1
  O  O66  1  0.04060200  0.64148000  0.50790500  1
  O  O67  1  0.64148000  0.04060200  0.50790500  1
  O  O68  1  0.31081200  0.09795600  0.77043800  1
  O  O69  1  0.80701300  0.60017800  0.77096900  1
  O  O70  1  0.39852200  0.68923300  0.23477300  1
  O  O71  1  0.89900000  0.18825800  0.22891700  1
  O  O72  1  0.18825800  0.89900000  0.22891700  1
  O  O73  1  0.68923300  0.39852200  0.23477300  1
  O  O74  1  0.09795600  0.31081200  0.77043800  1
  O  O75  1  0.60017800  0.80701300  0.77096900  1
  O  O76  1  0.17164800  0.96357700  0.69995300  1
  O  O77  1  0.67331000  0.46558200  0.69464200  1
  O  O78  1  0.53457200  0.82550800  0.30793700  1
  O  O79  1  0.02971700  0.32974500  0.29873100  1
  O  O80  1  0.32974500  0.02971700  0.29873100  1
  O  O81  1  0.82550800  0.53457200  0.30793700  1
  O  O82  1  0.96357700  0.17164800  0.69995300  1
  O  O83  1  0.46558200  0.67331000  0.69464200  1
  O  O84  1  0.01937100  0.74551600  0.83373400  1
  O  O85  1  0.52344900  0.24742200  0.83020300  1
  O  O86  1  0.25257000  0.47543900  0.16758100  1
  O  O87  1  0.75224100  0.97727100  0.17046400  1
  O  O88  1  0.47543900  0.25257000  0.16758100  1
  O  O89  1  0.97727100  0.75224100  0.17046400  1
  O  O90  1  0.24742200  0.52344900  0.83020300  1
  O  O91  1  0.74551600  0.01937100  0.83373400  1
  O  O92  1  0.18110500  0.18110500  0.41887700  1
