# generated using pymatgen
data_Sc2Fe3Ru
_symmetry_space_group_name_H-M   'P 1'
_cell_length_a   4.93562420
_cell_length_b   4.93562420
_cell_length_c   8.35149500
_cell_angle_alpha   90.00000000
_cell_angle_beta   90.00000000
_cell_angle_gamma   120.00000270
_symmetry_Int_Tables_number   1
_chemical_formula_structural   Sc2Fe3Ru
_chemical_formula_sum   'Sc4 Fe6 Ru2'
_cell_volume   176.18909122
_cell_formula_units_Z   2
loop_
 _symmetry_equiv_pos_site_id
 _symmetry_equiv_pos_as_xyz
  1  'x, y, z'
loop_
 _atom_site_type_symbol
 _atom_site_label
 _atom_site_symmetry_multiplicity
 _atom_site_fract_x
 _atom_site_fract_y
 _atom_site_fract_z
 _atom_site_occupancy
  Sc  Sc0  1  0.33333300  0.66666700  0.43672600  1
  Sc  Sc1  1  0.66666700  0.33333300  0.56327400  1
  Sc  Sc2  1  0.66666700  0.33333300  0.93672600  1
  Sc  Sc3  1  0.33333300  0.66666700  0.06327400  1
  Fe  Fe4  1  0.82787500  0.17212500  0.25000000  1
  Fe  Fe5  1  0.82787500  0.65574900  0.25000000  1
  Fe  Fe6  1  0.34425100  0.17212500  0.25000000  1
  Fe  Fe7  1  0.17212500  0.82787500  0.75000000  1
  Fe  Fe8  1  0.17212500  0.34425100  0.75000000  1
  Fe  Fe9  1  0.65574900  0.82787500  0.75000000  1
  Ru  Ru10  1  0.00000000  0.00000000  0.50000000  1
  Ru  Ru11  1  0.00000000  0.00000000  0.00000000  1
