# generated using pymatgen
data_Si16O32F
_symmetry_space_group_name_H-M   'P 1'
_cell_length_a   18.34943200
_cell_length_b   7.58846900
_cell_length_c   14.22452880
_cell_angle_alpha   80.63099855
_cell_angle_beta   90.00000000
_cell_angle_gamma   90.00000000
_symmetry_Int_Tables_number   1
_chemical_formula_structural   Si16O32F
_chemical_formula_sum   'Si32 O64 F2'
_cell_volume   1954.26011301
_cell_formula_units_Z   2
loop_
 _symmetry_equiv_pos_site_id
 _symmetry_equiv_pos_as_xyz
  1  'x, y, z'
loop_
 _atom_site_type_symbol
 _atom_site_label
 _atom_site_symmetry_multiplicity
 _atom_site_fract_x
 _atom_site_fract_y
 _atom_site_fract_z
 _atom_site_occupancy
  Si  Si0  1  0.66435100  0.94401900  0.16006400  1
  Si  Si1  1  0.16435100  0.05598100  0.83993600  1
  Si  Si2  1  0.33643400  0.05425000  0.33985200  1
  Si  Si3  1  0.83643400  0.94575000  0.66014800  1
  Si  Si4  1  0.50280900  0.39626600  0.10696400  1
  Si  Si5  1  0.00280900  0.60373400  0.89303600  1
  Si  Si6  1  0.49669100  0.60344600  0.39354000  1
  Si  Si7  1  0.99669100  0.39655400  0.60646000  1
  Si  Si8  1  0.66104400  0.32016400  0.04309600  1
  Si  Si9  1  0.16104400  0.67983600  0.95690400  1
  Si  Si10  1  0.33740100  0.67861800  0.45959600  1
  Si  Si11  1  0.83740100  0.32138200  0.54040400  1
  Si  Si12  1  0.84965600  0.67931500  0.97617500  1
  Si  Si13  1  0.34965600  0.32068500  0.02382500  1
  Si  Si14  1  0.15025900  0.32078200  0.51989300  1
  Si  Si15  1  0.65025900  0.67921800  0.48010700  1
  Si  Si16  1  0.73041100  0.42613000  0.35453100  1
  Si  Si17  1  0.23041100  0.57387000  0.64546900  1
  Si  Si18  1  0.25511100  0.58277500  0.13101900  1
  Si  Si19  1  0.75511100  0.41722500  0.86898100  1
  Si  Si20  1  0.64998800  0.05616500  0.36529600  1
  Si  Si21  1  0.14998800  0.94383500  0.63470400  1
  Si  Si22  1  0.35042800  0.93945100  0.13564700  1
  Si  Si23  1  0.85042800  0.06054900  0.86435300  1
  Si  Si24  1  0.75569600  0.58405200  0.15199300  1
  Si  Si25  1  0.25569600  0.41594800  0.84800700  1
  Si  Si26  1  0.24619500  0.41465400  0.34782100  1
  Si  Si27  1  0.74619500  0.58534600  0.65217900  1
  Si  Si28  1  0.50793900  0.77732400  0.17410400  1
  Si  Si29  1  0.00793900  0.22267600  0.82589600  1
  Si  Si30  1  0.49259600  0.22323300  0.32600000  1
  Si  Si31  1  0.99259600  0.77676700  0.67400000  1
  O  O32  1  0.71725900  0.77751900  0.15090300  1
  O  O33  1  0.21725900  0.22248100  0.84909700  1
  O  O34  1  0.28377200  0.22130500  0.34956400  1
  O  O35  1  0.78377200  0.77869500  0.65043600  1
  O  O36  1  0.78093200  0.49033200  0.25864400  1
  O  O37  1  0.28093200  0.50966800  0.74135600  1
  O  O38  1  0.22968100  0.51257200  0.24025100  1
  O  O39  1  0.72968100  0.48742800  0.75974900  1
  O  O40  1  0.67440700  0.99712300  0.26564800  1
  O  O41  1  0.17440700  0.00287700  0.73435200  1
  O  O42  1  0.32530700  0.00093700  0.23509300  1
  O  O43  1  0.82530700  0.99906300  0.76490700  1
  O  O44  1  0.57374600  0.33790200  0.05217700  1
  O  O45  1  0.07374600  0.66209800  0.94782300  1
  O  O46  1  0.42539300  0.65997600  0.45039500  1
  O  O47  1  0.92539300  0.34002400  0.54960500  1
  O  O48  1  0.70903100  0.58467300  0.41779800  1
  O  O49  1  0.20903100  0.41532700  0.58220200  1
  O  O50  1  0.29944800  0.42323800  0.09294800  1
  O  O51  1  0.79944800  0.57676200  0.90705200  1
  O  O52  1  0.93390700  0.62867500  0.96073700  1
  O  O53  1  0.43390700  0.37132500  0.03926300  1
  O  O54  1  0.06673600  0.37390600  0.53918600  1
  O  O55  1  0.56673600  0.62609400  0.46081400  1
  O  O56  1  0.68118400  0.37073900  0.93065800  1
  O  O57  1  0.18118400  0.62926100  0.06934200  1
  O  O58  1  0.30940500  0.62649300  0.57061600  1
  O  O59  1  0.80940500  0.37350700  0.42938400  1
  O  O60  1  0.68684600  0.11492300  0.08084200  1
  O  O61  1  0.18684600  0.88507700  0.91915800  1
  O  O62  1  0.31345200  0.88383100  0.42004500  1
  O  O63  1  0.81345200  0.11616900  0.57995500  1
  O  O64  1  0.50490800  0.73014100  0.29035700  1
  O  O65  1  0.00490800  0.26985900  0.70964300  1
  O  O66  1  0.49358200  0.27048100  0.21059500  1
  O  O67  1  0.99358200  0.72951900  0.78940500  1
  O  O68  1  0.70292900  0.21633500  0.38800800  1
  O  O69  1  0.20292900  0.78366500  0.61199200  1
  O  O70  1  0.30470400  0.76239500  0.12174700  1
  O  O71  1  0.80470400  0.23760500  0.87825300  1
  O  O72  1  0.57966700  0.89652100  0.14237700  1
  O  O73  1  0.07966700  0.10347900  0.85762300  1
  O  O74  1  0.42078900  0.10333000  0.35784200  1
  O  O75  1  0.92078900  0.89667000  0.64215800  1
  O  O76  1  0.66192200  0.89347000  0.45339100  1
  O  O77  1  0.16192200  0.10653000  0.54660900  1
  O  O78  1  0.33604800  0.10514200  0.04961100  1
  O  O79  1  0.83604800  0.89485800  0.95038900  1
  O  O80  1  0.50962500  0.60197600  0.12309300  1
  O  O81  1  0.00962500  0.39802400  0.87690700  1
  O  O82  1  0.48855600  0.39808100  0.37776500  1
  O  O83  1  0.98855600  0.60191900  0.62223500  1
  O  O84  1  0.70143900  0.45611300  0.10294700  1
  O  O85  1  0.20143900  0.54388700  0.89705300  1
  O  O86  1  0.30073100  0.54306100  0.39617400  1
  O  O87  1  0.80073100  0.45693900  0.60382600  1
  O  O88  1  0.56407300  0.10680300  0.36358500  1
  O  O89  1  0.06407300  0.89319700  0.63641500  1
  O  O90  1  0.43676300  0.89445700  0.13729000  1
  O  O91  1  0.93676300  0.10554300  0.86271000  1
  O  O92  1  0.82957700  0.61522700  0.08763700  1
  O  O93  1  0.32957700  0.38477300  0.91236300  1
  O  O94  1  0.17009700  0.38668400  0.40797700  1
  O  O95  1  0.67009700  0.61331600  0.59202300  1
  F  F96  1  0.64977700  0.46939400  0.29178300  1
  F  F97  1  0.14977700  0.53060600  0.70821700  1
