# generated using pymatgen
data_Ru3W3C2
_symmetry_space_group_name_H-M   'P 1'
_cell_length_a   2.86194382
_cell_length_b   2.86194382
_cell_length_c   14.54334900
_cell_angle_alpha   90.00000000
_cell_angle_beta   90.00000000
_cell_angle_gamma   119.99999583
_symmetry_Int_Tables_number   1
_chemical_formula_structural   Ru3W3C2
_chemical_formula_sum   'Ru3 W3 C2'
_cell_volume   103.16141360
_cell_formula_units_Z   1
loop_
 _symmetry_equiv_pos_site_id
 _symmetry_equiv_pos_as_xyz
  1  'x, y, z'
loop_
 _atom_site_type_symbol
 _atom_site_label
 _atom_site_symmetry_multiplicity
 _atom_site_fract_x
 _atom_site_fract_y
 _atom_site_fract_z
 _atom_site_occupancy
  Ru  Ru0  1  0.66666700  0.33333300  0.18363900  1
  Ru  Ru1  1  0.00000000  0.00000000  0.00000000  1
  Ru  Ru2  1  0.33333300  0.66666700  0.81636100  1
  W  W3  1  0.66666700  0.33333300  0.66420000  1
  W  W4  1  0.00000000  0.00000000  0.50000000  1
  W  W5  1  0.33333300  0.66666700  0.33580000  1
  C  C6  1  0.33333300  0.66666700  0.09936300  1
  C  C7  1  0.66666700  0.33333300  0.90063700  1
