# generated using pymatgen
data_ReMo3
_symmetry_space_group_name_H-M   'P 1'
_cell_length_a   9.38254078
_cell_length_b   9.38254078
_cell_length_c   9.38254140
_cell_angle_alpha   17.24723356
_cell_angle_beta   17.24723356
_cell_angle_gamma   17.24723048
_symmetry_Int_Tables_number   1
_chemical_formula_structural   ReMo3
_chemical_formula_sum   'Re1 Mo3'
_cell_volume   63.35701374
_cell_formula_units_Z   1
loop_
 _symmetry_equiv_pos_site_id
 _symmetry_equiv_pos_as_xyz
  1  'x, y, z'
loop_
 _atom_site_type_symbol
 _atom_site_label
 _atom_site_symmetry_multiplicity
 _atom_site_fract_x
 _atom_site_fract_y
 _atom_site_fract_z
 _atom_site_occupancy
  Re  Re0  1  0.00000000  0.00000000  0.00000000  1
  Mo  Mo1  1  0.25208100  0.25208100  0.25208100  1
  Mo  Mo2  1  0.50000000  0.50000000  0.50000000  1
  Mo  Mo3  1  0.74791900  0.74791900  0.74791900  1
