# generated using pymatgen
data_Sc(CuSe)3
_symmetry_space_group_name_H-M   'P 1'
_cell_length_a   7.50203910
_cell_length_b   7.50203910
_cell_length_c   7.50203946
_cell_angle_alpha   54.04990550
_cell_angle_beta   54.04990550
_cell_angle_gamma   54.04990123
_symmetry_Int_Tables_number   1
_chemical_formula_structural   Sc(CuSe)3
_chemical_formula_sum   'Sc2 Cu6 Se6'
_cell_volume   257.06877821
_cell_formula_units_Z   2
loop_
 _symmetry_equiv_pos_site_id
 _symmetry_equiv_pos_as_xyz
  1  'x, y, z'
loop_
 _atom_site_type_symbol
 _atom_site_label
 _atom_site_symmetry_multiplicity
 _atom_site_fract_x
 _atom_site_fract_y
 _atom_site_fract_z
 _atom_site_occupancy
  Sc  Sc0  1  0.83376700  0.83376700  0.83376700  1
  Sc  Sc1  1  0.16623300  0.16623300  0.16623300  1
  Cu  Cu2  1  0.62774100  0.27650800  0.97592800  1
  Cu  Cu3  1  0.97592800  0.62774100  0.27650800  1
  Cu  Cu4  1  0.27650800  0.97592800  0.62774100  1
  Cu  Cu5  1  0.72349200  0.02407200  0.37225900  1
  Cu  Cu6  1  0.02407200  0.37225900  0.72349200  1
  Cu  Cu7  1  0.37225900  0.72349200  0.02407200  1
  Se  Se8  1  0.42436300  0.09547500  0.74856400  1
  Se  Se9  1  0.09547500  0.74856400  0.42436300  1
  Se  Se10  1  0.74856400  0.42436300  0.09547500  1
  Se  Se11  1  0.25143600  0.57563700  0.90452500  1
  Se  Se12  1  0.90452500  0.25143600  0.57563700  1
  Se  Se13  1  0.57563700  0.90452500  0.25143600  1
