# generated using pymatgen
data_SbPb2S2I3
_symmetry_space_group_name_H-M   'P 1'
_cell_length_a   7.74378503
_cell_length_b   7.74378503
_cell_length_c   16.48976800
_cell_angle_alpha   90.00000000
_cell_angle_beta   90.00000000
_cell_angle_gamma   146.03436047
_symmetry_Int_Tables_number   1
_chemical_formula_structural   SbPb2S2I3
_chemical_formula_sum   'Sb2 Pb4 S4 I6'
_cell_volume   552.45434444
_cell_formula_units_Z   2
loop_
 _symmetry_equiv_pos_site_id
 _symmetry_equiv_pos_as_xyz
  1  'x, y, z'
loop_
 _atom_site_type_symbol
 _atom_site_label
 _atom_site_symmetry_multiplicity
 _atom_site_fract_x
 _atom_site_fract_y
 _atom_site_fract_z
 _atom_site_occupancy
  Sb  Sb0  1  0.65533000  0.34467000  0.01678400  1
  Sb  Sb1  1  0.34467000  0.65533000  0.51678400  1
  Pb  Pb2  1  0.30431300  0.69568700  0.23909300  1
  Pb  Pb3  1  0.69568700  0.30431300  0.73909300  1
  Pb  Pb4  1  0.37550400  0.62449600  0.97142100  1
  Pb  Pb5  1  0.62449600  0.37550400  0.47142100  1
  S  S6  1  0.77437600  0.22562400  0.91437300  1
  S  S7  1  0.22342000  0.77658000  0.07596700  1
  S  S8  1  0.77658000  0.22342000  0.57596700  1
  S  S9  1  0.22562400  0.77437600  0.41437300  1
  I  I10  1  0.65448900  0.34551100  0.24727600  1
  I  I11  1  0.34551100  0.65448900  0.74727600  1
  I  I12  1  0.93483200  0.06516800  0.12470500  1
  I  I13  1  0.05897900  0.94102100  0.89018200  1
  I  I14  1  0.94102100  0.05897900  0.39018200  1
  I  I15  1  0.06516800  0.93483200  0.62470500  1
