# generated using pymatgen
data_Sm9Ni24Sn49
_symmetry_space_group_name_H-M   'P 1'
_cell_length_a   10.31632821
_cell_length_b   10.31632821
_cell_length_c   17.00574071
_cell_angle_alpha   89.87406037
_cell_angle_beta   89.87406037
_cell_angle_gamma   70.64362772
_symmetry_Int_Tables_number   1
_chemical_formula_structural   Sm9Ni24Sn49
_chemical_formula_sum   'Sm9 Ni24 Sn49'
_cell_volume   1707.55545482
_cell_formula_units_Z   1
loop_
 _symmetry_equiv_pos_site_id
 _symmetry_equiv_pos_as_xyz
  1  'x, y, z'
loop_
 _atom_site_type_symbol
 _atom_site_label
 _atom_site_symmetry_multiplicity
 _atom_site_fract_x
 _atom_site_fract_y
 _atom_site_fract_z
 _atom_site_occupancy
  Sm  Sm0  1  0.75048200  0.24972500  0.75040800  1
  Sm  Sm1  1  0.24951800  0.75027500  0.24959200  1
  Sm  Sm2  1  0.00000000  0.50000000  0.00000000  1
  Sm  Sm3  1  0.50000000  0.00000000  0.50000000  1
  Sm  Sm4  1  0.50000000  0.00000000  0.00000000  1
  Sm  Sm5  1  0.00000000  0.50000000  0.50000000  1
  Sm  Sm6  1  0.24972500  0.75048200  0.75040800  1
  Sm  Sm7  1  0.75027500  0.24951800  0.24959200  1
  Sm  Sm8  1  0.00000000  0.00000000  0.00000000  1
  Ni  Ni9  1  0.74260300  0.09722200  0.57972600  1
  Ni  Ni10  1  0.24283300  0.59845700  0.07910600  1
  Ni  Ni11  1  0.75716700  0.40154300  0.92089400  1
  Ni  Ni12  1  0.25739700  0.90277800  0.42027400  1
  Ni  Ni13  1  0.09722200  0.74260300  0.57972600  1
  Ni  Ni14  1  0.59845700  0.24283300  0.07910600  1
  Ni  Ni15  1  0.40154200  0.75716700  0.92089400  1
  Ni  Ni16  1  0.90277800  0.25739700  0.42027400  1
  Ni  Ni17  1  0.68012400  0.99818800  0.83929600  1
  Ni  Ni18  1  0.17921900  0.49947800  0.33875100  1
  Ni  Ni19  1  0.82078100  0.50052200  0.66124900  1
  Ni  Ni20  1  0.31987600  0.00181200  0.16070400  1
  Ni  Ni21  1  0.50052200  0.82078100  0.66124900  1
  Ni  Ni22  1  0.00181200  0.31987600  0.16070400  1
  Ni  Ni23  1  0.99818800  0.68012400  0.83929600  1
  Ni  Ni24  1  0.49947800  0.17921900  0.33875100  1
  Ni  Ni25  1  0.23992200  0.23992200  0.91920900  1
  Ni  Ni26  1  0.74074300  0.74074300  0.41935500  1
  Ni  Ni27  1  0.25925700  0.25925700  0.58064500  1
  Ni  Ni28  1  0.76007800  0.76007800  0.08079100  1
  Ni  Ni29  1  0.41864900  0.41864900  0.74084800  1
  Ni  Ni30  1  0.91840200  0.91840200  0.23963200  1
  Ni  Ni31  1  0.08159800  0.08159800  0.76036800  1
  Ni  Ni32  1  0.58135100  0.58135100  0.25915200  1
  Sn  Sn33  1  0.50418600  0.25052100  0.62301500  1
  Sn  Sn34  1  0.00385500  0.74091600  0.12781900  1
  Sn  Sn35  1  0.99614500  0.25908400  0.87218100  1
  Sn  Sn36  1  0.49581400  0.74947900  0.37698500  1
  Sn  Sn37  1  0.25052100  0.50418600  0.62301500  1
  Sn  Sn38  1  0.74091600  0.00385500  0.12781900  1
  Sn  Sn39  1  0.25908400  0.99614500  0.87218100  1
  Sn  Sn40  1  0.74947900  0.49581400  0.37698500  1
  Sn  Sn41  1  0.68119000  0.18798900  0.93509200  1
  Sn  Sn42  1  0.19022600  0.68301900  0.43642000  1
  Sn  Sn43  1  0.80977400  0.31698100  0.56358000  1
  Sn  Sn44  1  0.31881000  0.81201100  0.06490800  1
  Sn  Sn45  1  0.31698100  0.80977400  0.56358000  1
  Sn  Sn46  1  0.81201100  0.31881000  0.06490800  1
  Sn  Sn47  1  0.18798900  0.68119000  0.93509200  1
  Sn  Sn48  1  0.68301900  0.19022600  0.43642000  1
  Sn  Sn49  1  0.68537200  0.68537200  0.55886100  1
  Sn  Sn50  1  0.19285700  0.19285700  0.06136600  1
  Sn  Sn51  1  0.80714300  0.80714300  0.93863400  1
  Sn  Sn52  1  0.31462800  0.31462800  0.44113900  1
  Sn  Sn53  1  0.55954900  0.55954900  0.68684000  1
  Sn  Sn54  1  0.06150800  0.06150800  0.19250800  1
  Sn  Sn55  1  0.93849200  0.93849200  0.80749200  1
  Sn  Sn56  1  0.44045100  0.44045100  0.31316000  1
  Sn  Sn57  1  0.81224700  0.55534700  0.81550200  1
  Sn  Sn58  1  0.31257900  0.05649500  0.31607200  1
  Sn  Sn59  1  0.68742100  0.94350500  0.68392800  1
  Sn  Sn60  1  0.18775300  0.44465300  0.18449800  1
  Sn  Sn61  1  0.55534700  0.81224700  0.81550200  1
  Sn  Sn62  1  0.05649500  0.31257900  0.31607200  1
  Sn  Sn63  1  0.94350500  0.68742100  0.68392800  1
  Sn  Sn64  1  0.44465300  0.18775300  0.18449800  1
  Sn  Sn65  1  0.05462000  0.31742700  0.68569200  1
  Sn  Sn66  1  0.55420100  0.81821400  0.18687600  1
  Sn  Sn67  1  0.44579900  0.18178600  0.81312400  1
  Sn  Sn68  1  0.94538000  0.68257300  0.31430800  1
  Sn  Sn69  1  0.18178600  0.44579900  0.81312400  1
  Sn  Sn70  1  0.68257300  0.94538000  0.31430800  1
  Sn  Sn71  1  0.31742700  0.05462000  0.68569200  1
  Sn  Sn72  1  0.81821400  0.55420100  0.18687600  1
  Sn  Sn73  1  0.13003100  0.13003100  0.50209500  1
  Sn  Sn74  1  0.62900200  0.62900200  0.00255600  1
  Sn  Sn75  1  0.37099800  0.37099800  0.99744400  1
  Sn  Sn76  1  0.86996900  0.86996900  0.49790500  1
  Sn  Sn77  1  0.00178700  0.00178700  0.63065100  1
  Sn  Sn78  1  0.50151400  0.50151400  0.13077600  1
  Sn  Sn79  1  0.49848600  0.49848600  0.86922400  1
  Sn  Sn80  1  0.99821300  0.99821300  0.36934900  1
  Sn  Sn81  1  0.50000000  0.50000000  0.50000000  1
