# generated using pymatgen
data_Sb4Cl13F7
_symmetry_space_group_name_H-M   'P 1'
_cell_length_a   7.85418000
_cell_length_b   10.27985753
_cell_length_c   10.28070127
_cell_angle_alpha   81.85900756
_cell_angle_beta   112.23041752
_cell_angle_gamma   112.24844730
_symmetry_Int_Tables_number   1
_chemical_formula_structural   Sb4Cl13F7
_chemical_formula_sum   'Sb4 Cl13 F7'
_cell_volume   711.15826757
_cell_formula_units_Z   1
loop_
 _symmetry_equiv_pos_site_id
 _symmetry_equiv_pos_as_xyz
  1  'x, y, z'
loop_
 _atom_site_type_symbol
 _atom_site_label
 _atom_site_symmetry_multiplicity
 _atom_site_fract_x
 _atom_site_fract_y
 _atom_site_fract_z
 _atom_site_occupancy
  Sb  Sb0  1  0.04304800  0.26395900  0.82997600  1
  Sb  Sb1  1  0.95061600  0.73668300  0.17119400  1
  Sb  Sb2  1  0.21890800  0.17265700  0.26765600  1
  Sb  Sb3  1  0.78125800  0.82906200  0.73664900  1
  Cl  Cl4  1  0.92791700  0.29628900  0.58767600  1
  Cl  Cl5  1  0.04231200  0.70263800  0.41247800  1
  Cl  Cl6  1  0.74804400  0.23083200  0.85745700  1
  Cl  Cl7  1  0.65780000  0.76756600  0.13887500  1
  Cl  Cl8  1  0.30069100  0.09808600  0.49959400  1
  Cl  Cl9  1  0.72050100  0.90156200  0.50446100  1
  Cl  Cl10  1  0.33129000  0.41452600  0.30010900  1
  Cl  Cl11  1  0.63335500  0.58748600  0.70294000  1
  Cl  Cl12  1  0.21156400  0.49657100  0.90152400  1
  Cl  Cl13  1  0.81549900  0.50460200  0.09660800  1
  Cl  Cl14  1  0.49397400  0.16778500  0.23537200  1
  Cl  Cl15  1  0.89281200  0.13821300  0.22971300  1
  Cl  Cl16  1  0.52153200  0.86066200  0.76810300  1
  F  F17  1  0.12923200  0.19917300  0.03934200  1
  F  F18  1  0.89469800  0.80198400  0.95794100  1
  F  F19  1  0.93735800  0.04112200  0.80241900  1
  F  F20  1  0.08773500  0.95578300  0.19803100  1
  F  F21  1  0.27302400  0.23884100  0.83368900  1
  F  F22  1  0.20074400  0.76087900  0.16663600  1
  F  F23  1  0.03708600  0.83304000  0.76155700  1
