# generated using pymatgen
data_RbEuGeS4
_symmetry_space_group_name_H-M   'P 1'
_cell_length_a   6.64454200
_cell_length_b   6.80092600
_cell_length_c   9.29523421
_cell_angle_alpha   71.47114520
_cell_angle_beta   90.00000000
_cell_angle_gamma   90.00000000
_symmetry_Int_Tables_number   1
_chemical_formula_structural   RbEuGeS4
_chemical_formula_sum   'Rb2 Eu2 Ge2 S8'
_cell_volume   398.26925220
_cell_formula_units_Z   2
loop_
 _symmetry_equiv_pos_site_id
 _symmetry_equiv_pos_as_xyz
  1  'x, y, z'
loop_
 _atom_site_type_symbol
 _atom_site_label
 _atom_site_symmetry_multiplicity
 _atom_site_fract_x
 _atom_site_fract_y
 _atom_site_fract_z
 _atom_site_occupancy
  Rb  Rb0  1  0.75042500  0.23211600  0.56385500  1
  Rb  Rb1  1  0.25042500  0.76788400  0.43614500  1
  Eu  Eu2  1  0.76654900  0.26597100  0.05247600  1
  Eu  Eu3  1  0.26654900  0.73402900  0.94752400  1
  Ge  Ge4  1  0.73615000  0.72016300  0.17298900  1
  Ge  Ge5  1  0.23615000  0.27983700  0.82701100  1
  S  S6  1  0.74584200  0.90903700  0.32583700  1
  S  S7  1  0.24584200  0.09096300  0.67416300  1
  S  S8  1  0.49189900  0.48130700  0.21743700  1
  S  S9  1  0.99189900  0.51869300  0.78256300  1
  S  S10  1  0.50163300  0.49133400  0.79703000  1
  S  S11  1  0.00163300  0.50866600  0.20297000  1
  S  S12  1  0.68440100  0.92475400  0.93615700  1
  S  S13  1  0.18440100  0.07524600  0.06384300  1
