# generated using pymatgen
data_RbMgNiF6
_symmetry_space_group_name_H-M   'P 1'
_cell_length_a   7.28873255
_cell_length_b   7.28873255
_cell_length_c   7.28873255
_cell_angle_alpha   120.50652589
_cell_angle_beta   119.24581516
_cell_angle_gamma   90.21806760
_symmetry_Int_Tables_number   1
_chemical_formula_structural   RbMgNiF6
_chemical_formula_sum   'Rb2 Mg2 Ni2 F12'
_cell_volume   274.27380614
_cell_formula_units_Z   2
loop_
 _symmetry_equiv_pos_site_id
 _symmetry_equiv_pos_as_xyz
  1  'x, y, z'
loop_
 _atom_site_type_symbol
 _atom_site_label
 _atom_site_symmetry_multiplicity
 _atom_site_fract_x
 _atom_site_fract_y
 _atom_site_fract_z
 _atom_site_occupancy
  Rb  Rb0  1  0.87229800  0.62229800  0.25000000  1
  Rb  Rb1  1  0.12770200  0.37770200  0.75000000  1
  Mg  Mg2  1  0.50000000  0.00000000  0.00000000  1
  Mg  Mg3  1  0.50000000  0.50000000  0.50000000  1
  Ni  Ni4  1  0.50000000  0.00000000  0.50000000  1
  Ni  Ni5  1  0.00000000  0.00000000  0.00000000  1
  F  F6  1  0.81963400  0.06963400  0.75000000  1
  F  F7  1  0.42778100  0.67778100  0.75000000  1
  F  F8  1  0.82746600  0.68999500  0.76144900  1
  F  F9  1  0.42854600  0.06601700  0.73855100  1
  F  F10  1  0.82746600  0.06601700  0.13747100  1
  F  F11  1  0.42854600  0.68999500  0.36252900  1
  F  F12  1  0.18036600  0.93036600  0.25000000  1
  F  F13  1  0.57221900  0.32221900  0.25000000  1
  F  F14  1  0.17253400  0.31000500  0.23855100  1
  F  F15  1  0.57145400  0.93398300  0.26144900  1
  F  F16  1  0.17253400  0.93398300  0.86252900  1
  F  F17  1  0.57145400  0.31000500  0.63747100  1
