# generated using pymatgen
data_RbLa2TaTi2O10
_symmetry_space_group_name_H-M   'P 1'
_cell_length_a   3.87766032
_cell_length_b   3.87766032
_cell_length_c   15.49236371
_cell_angle_alpha   89.61323644
_cell_angle_beta   89.61323644
_cell_angle_gamma   90.06224986
_symmetry_Int_Tables_number   1
_chemical_formula_structural   RbLa2TaTi2O10
_chemical_formula_sum   'Rb1 La2 Ta1 Ti2 O10'
_cell_volume   232.93628275
_cell_formula_units_Z   1
loop_
 _symmetry_equiv_pos_site_id
 _symmetry_equiv_pos_as_xyz
  1  'x, y, z'
loop_
 _atom_site_type_symbol
 _atom_site_label
 _atom_site_symmetry_multiplicity
 _atom_site_fract_x
 _atom_site_fract_y
 _atom_site_fract_z
 _atom_site_occupancy
  Rb  Rb0  1  0.49998000  0.49998000  0.50755000  1
  La  La1  1  0.49324500  0.49324500  0.84251000  1
  La  La2  1  0.49942200  0.49942200  0.13062000  1
  Ta  Ta3  1  0.00030600  0.00030600  0.28430400  1
  Ti  Ti4  1  0.01530000  0.01530000  0.99799300  1
  Ti  Ti5  1  0.99969200  0.99969200  0.70929800  1
  O  O6  1  0.01016300  0.01016300  0.87758200  1
  O  O7  1  0.01185600  0.01185600  0.13157100  1
  O  O8  1  0.50067000  0.99975300  0.74684000  1
  O  O9  1  0.99975300  0.50067000  0.74684000  1
  O  O10  1  0.50228200  0.00315900  0.25391800  1
  O  O11  1  0.00315900  0.50228200  0.25391800  1
  O  O12  1  0.00099800  0.00099800  0.59979500  1
  O  O13  1  0.99808500  0.99808500  0.40025900  1
  O  O14  1  0.52642100  0.05166600  0.00850100  1
  O  O15  1  0.05166600  0.52642100  0.00850100  1
