# generated using pymatgen
data_RbNa2Al3Ge3O13
_symmetry_space_group_name_H-M   'P 1'
_cell_length_a   5.32609900
_cell_length_b   8.35782300
_cell_length_c   15.84961900
_cell_angle_alpha   90.00000000
_cell_angle_beta   89.99974439
_cell_angle_gamma   90.00000000
_symmetry_Int_Tables_number   1
_chemical_formula_structural   RbNa2Al3Ge3O13
_chemical_formula_sum   'Rb2 Na4 Al6 Ge6 O26'
_cell_volume   705.53933459
_cell_formula_units_Z   2
loop_
 _symmetry_equiv_pos_site_id
 _symmetry_equiv_pos_as_xyz
  1  'x, y, z'
loop_
 _atom_site_type_symbol
 _atom_site_label
 _atom_site_symmetry_multiplicity
 _atom_site_fract_x
 _atom_site_fract_y
 _atom_site_fract_z
 _atom_site_occupancy
  Rb  Rb0  1  0.60931400  0.06418900  0.24740400  1
  Rb  Rb1  1  0.10931400  0.93581100  0.74740400  1
  Na  Na2  1  0.56853900  0.32775100  0.99941200  1
  Na  Na3  1  0.06853900  0.67224900  0.49941200  1
  Na  Na4  1  0.06828300  0.67659300  0.00059200  1
  Na  Na5  1  0.56828300  0.32340700  0.50059200  1
  Al  Al6  1  0.52988400  0.60732700  0.35599200  1
  Al  Al7  1  0.53043700  0.60548900  0.64400500  1
  Al  Al8  1  0.03043700  0.39451100  0.14400500  1
  Al  Al9  1  0.02988400  0.39267300  0.85599200  1
  Al  Al10  1  0.53432100  0.89628700  0.99939900  1
  Al  Al11  1  0.03432100  0.10371300  0.49939900  1
  Ge  Ge12  1  0.52928600  0.61242100  0.14331600  1
  Ge  Ge13  1  0.52973400  0.61079800  0.85644900  1
  Ge  Ge14  1  0.02973400  0.38920200  0.35644900  1
  Ge  Ge15  1  0.02928600  0.38757900  0.64331600  1
  Ge  Ge16  1  0.03340200  0.10878600  0.00056900  1
  Ge  Ge17  1  0.53340200  0.89121400  0.50056900  1
  O  O18  1  0.33329300  0.45199000  0.11055600  1
  O  O19  1  0.33153100  0.45314700  0.88991000  1
  O  O20  1  0.83153100  0.54685300  0.38991000  1
  O  O21  1  0.83329300  0.54801000  0.61055600  1
  O  O22  1  0.36009800  0.07662500  0.00050000  1
  O  O23  1  0.86009800  0.92337500  0.50050000  1
  O  O24  1  0.49737400  0.65615000  0.24990300  1
  O  O25  1  0.49558000  0.65722100  0.74996800  1
  O  O26  1  0.99558000  0.34277900  0.24996800  1
  O  O27  1  0.99737400  0.34385000  0.74990300  1
  O  O28  1  0.86195500  0.92858400  0.99975700  1
  O  O29  1  0.36195500  0.07141600  0.49975700  1
  O  O30  1  0.83299300  0.55386200  0.11159200  1
  O  O31  1  0.83499400  0.55510700  0.88786800  1
  O  O32  1  0.33499400  0.44489300  0.38786800  1
  O  O33  1  0.33299300  0.44613800  0.61159200  1
  O  O34  1  0.43810900  0.78500800  0.08829800  1
  O  O35  1  0.43524800  0.78464500  0.91077000  1
  O  O36  1  0.93524800  0.21535500  0.41077000  1
  O  O37  1  0.93810900  0.21499200  0.58829800  1
  O  O38  1  0.93471700  0.22107700  0.08885200  1
  O  O39  1  0.93712600  0.22095200  0.91217600  1
  O  O40  1  0.43712600  0.77904800  0.41217600  1
  O  O41  1  0.43471700  0.77892300  0.58885200  1
  O  O42  1  0.61110200  0.06600400  0.75271300  1
  O  O43  1  0.11110200  0.93399600  0.25271300  1
