# generated using pymatgen
data_PuTh
_symmetry_space_group_name_H-M   'P 1'
_cell_length_a   5.95947158
_cell_length_b   5.95947158
_cell_length_c   5.95947166
_cell_angle_alpha   34.03766741
_cell_angle_beta   34.03766741
_cell_angle_gamma   34.03766515
_symmetry_Int_Tables_number   1
_chemical_formula_structural   PuTh
_chemical_formula_sum   'Pu1 Th1'
_cell_volume   59.11269680
_cell_formula_units_Z   1
loop_
 _symmetry_equiv_pos_site_id
 _symmetry_equiv_pos_as_xyz
  1  'x, y, z'
loop_
 _atom_site_type_symbol
 _atom_site_label
 _atom_site_symmetry_multiplicity
 _atom_site_fract_x
 _atom_site_fract_y
 _atom_site_fract_z
 _atom_site_occupancy
  Pu  Pu0  1  0.00000000  0.00000000  0.00000000  1
  Th  Th1  1  0.50000000  0.50000000  0.50000000  1
