# generated using pymatgen
data_Rb2WSO4
_symmetry_space_group_name_H-M   'P 1'
_cell_length_a   12.36074054
_cell_length_b   12.36074054
_cell_length_c   12.36074099
_cell_angle_alpha   29.29407904
_cell_angle_beta   29.29407904
_cell_angle_gamma   29.29407622
_symmetry_Int_Tables_number   1
_chemical_formula_structural   Rb2WSO4
_chemical_formula_sum   'Rb4 W2 S2 O8'
_cell_volume   400.08074455
_cell_formula_units_Z   2
loop_
 _symmetry_equiv_pos_site_id
 _symmetry_equiv_pos_as_xyz
  1  'x, y, z'
loop_
 _atom_site_type_symbol
 _atom_site_label
 _atom_site_symmetry_multiplicity
 _atom_site_fract_x
 _atom_site_fract_y
 _atom_site_fract_z
 _atom_site_occupancy
  Rb  Rb0  1  0.77342500  0.77342500  0.77342500  1
  Rb  Rb1  1  0.22657500  0.22657500  0.22657500  1
  Rb  Rb2  1  0.64708900  0.64708900  0.64708900  1
  Rb  Rb3  1  0.35291100  0.35291100  0.35291100  1
  W  W4  1  0.93866500  0.93866500  0.93866500  1
  W  W5  1  0.06133500  0.06133500  0.06133500  1
  S  S6  1  0.87369500  0.87369500  0.87369500  1
  S  S7  1  0.12630500  0.12630500  0.12630500  1
  O  O8  1  0.11263400  0.64233700  0.11263400  1
  O  O9  1  0.11263400  0.11263400  0.64233700  1
  O  O10  1  0.64233700  0.11263400  0.11263400  1
  O  O11  1  0.88736600  0.35766300  0.88736600  1
  O  O12  1  0.88736600  0.88736600  0.35766300  1
  O  O13  1  0.35766300  0.88736600  0.88736600  1
  O  O14  1  0.55975100  0.55975100  0.55975100  1
  O  O15  1  0.44024900  0.44024900  0.44024900  1
