# generated using pymatgen
data_PrNdSb2
_symmetry_space_group_name_H-M   'P 1'
_cell_length_a   7.83718931
_cell_length_b   7.83718931
_cell_length_c   7.83718915
_cell_angle_alpha   33.91419756
_cell_angle_beta   33.91419756
_cell_angle_gamma   33.91419849
_symmetry_Int_Tables_number   1
_chemical_formula_structural   PrNdSb2
_chemical_formula_sum   'Pr1 Nd1 Sb2'
_cell_volume   133.55858812
_cell_formula_units_Z   1
loop_
 _symmetry_equiv_pos_site_id
 _symmetry_equiv_pos_as_xyz
  1  'x, y, z'
loop_
 _atom_site_type_symbol
 _atom_site_label
 _atom_site_symmetry_multiplicity
 _atom_site_fract_x
 _atom_site_fract_y
 _atom_site_fract_z
 _atom_site_occupancy
  Pr  Pr0  1  0.50000000  0.50000000  0.50000000  1
  Nd  Nd1  1  0.00000000  0.00000000  0.00000000  1
  Sb  Sb2  1  0.25046100  0.25046100  0.25046100  1
  Sb  Sb3  1  0.74953900  0.74953900  0.74953900  1
