# generated using pymatgen
data_Sb2H3C3SCl6O5F3
_symmetry_space_group_name_H-M   'P 1'
_cell_length_a   7.09494500
_cell_length_b   9.97987258
_cell_length_c   14.43278623
_cell_angle_alpha   90.37088309
_cell_angle_beta   90.04418030
_cell_angle_gamma   105.33855276
_symmetry_Int_Tables_number   1
_chemical_formula_structural   Sb2H3C3SCl6O5F3
_chemical_formula_sum   'Sb4 H6 C6 S2 Cl12 O10 F6'
_cell_volume   985.51152203
_cell_formula_units_Z   2
loop_
 _symmetry_equiv_pos_site_id
 _symmetry_equiv_pos_as_xyz
  1  'x, y, z'
loop_
 _atom_site_type_symbol
 _atom_site_label
 _atom_site_symmetry_multiplicity
 _atom_site_fract_x
 _atom_site_fract_y
 _atom_site_fract_z
 _atom_site_occupancy
  Sb  Sb0  1  0.65759600  0.27285100  0.86311600  1
  Sb  Sb1  1  0.34135300  0.72692200  0.36325100  1
  Sb  Sb2  1  0.34240400  0.72714900  0.13688400  1
  Sb  Sb3  1  0.65864700  0.27307800  0.63674900  1
  H  H4  1  0.30177100  0.57100500  0.75144200  1
  H  H5  1  0.69822900  0.42899500  0.24855800  1
  H  H6  1  0.07221800  0.58502600  0.69346700  1
  H  H7  1  0.92778200  0.41497400  0.30653300  1
  H  H8  1  0.85809600  0.66475000  0.19578500  1
  H  H9  1  0.14190400  0.33525000  0.80421500  1
  C  C10  1  0.91530400  0.92125000  0.74990900  1
  C  C11  1  0.08469600  0.07875000  0.25009100  1
  C  C12  1  0.14827200  0.52485100  0.73492300  1
  C  C13  1  0.85172800  0.47514900  0.26507700  1
  C  C14  1  0.06431000  0.39729900  0.76508400  1
  C  C15  1  0.93569000  0.60270100  0.23491600  1
  S  S16  1  0.67846800  0.97344200  0.74963200  1
  S  S17  1  0.32153200  0.02655800  0.25036800  1
  Cl  Cl18  1  0.64309500  0.50275000  0.88471600  1
  Cl  Cl19  1  0.35626500  0.49755600  0.38453500  1
  Cl  Cl20  1  0.35690500  0.49725000  0.11528400  1
  Cl  Cl21  1  0.64373500  0.50244400  0.61546500  1
  Cl  Cl22  1  0.39616200  0.16758600  0.95871800  1
  Cl  Cl23  1  0.60247000  0.83323700  0.45951700  1
  Cl  Cl24  1  0.60383800  0.83241400  0.04128200  1
  Cl  Cl25  1  0.39753000  0.16676300  0.54048300  1
  Cl  Cl26  1  0.90725800  0.28325900  0.97127300  1
  Cl  Cl27  1  0.08907900  0.71702800  0.46931200  1
  Cl  Cl28  1  0.09274200  0.71674100  0.02872700  1
  Cl  Cl29  1  0.91092100  0.28297200  0.53068800  1
  O  O30  1  0.49561100  0.23657200  0.74938100  1
  O  O31  1  0.50438900  0.76342800  0.25061900  1
  O  O32  1  0.86710000  0.32947700  0.75215200  1
  O  O33  1  0.13290000  0.67052300  0.24784800  1
  O  O34  1  0.69564500  0.05977400  0.83587500  1
  O  O35  1  0.30389000  0.94110900  0.33614500  1
  O  O36  1  0.30435500  0.94022600  0.16412500  1
  O  O37  1  0.69611000  0.05889100  0.66385500  1
  O  O38  1  0.52413400  0.84730500  0.74957100  1
  O  O39  1  0.47586600  0.15269500  0.25042900  1
  F  F40  1  0.92169600  0.84511000  0.82596200  1
  F  F41  1  0.07756900  0.15589300  0.32643300  1
  F  F42  1  0.07830400  0.15489000  0.17403800  1
  F  F43  1  0.92243100  0.84410700  0.67356700  1
  F  F44  1  0.06855800  0.03440400  0.75016200  1
  F  F45  1  0.93144200  0.96559600  0.24983800  1
