# generated using pymatgen
data_PrNdAl6
_symmetry_space_group_name_H-M   'P 1'
_cell_length_a   6.59461242
_cell_length_b   6.59461242
_cell_length_c   4.52445100
_cell_angle_alpha   90.00000000
_cell_angle_beta   90.00000000
_cell_angle_gamma   120.00000417
_symmetry_Int_Tables_number   1
_chemical_formula_structural   PrNdAl6
_chemical_formula_sum   'Pr1 Nd1 Al6'
_cell_volume   170.40214385
_cell_formula_units_Z   1
loop_
 _symmetry_equiv_pos_site_id
 _symmetry_equiv_pos_as_xyz
  1  'x, y, z'
loop_
 _atom_site_type_symbol
 _atom_site_label
 _atom_site_symmetry_multiplicity
 _atom_site_fract_x
 _atom_site_fract_y
 _atom_site_fract_z
 _atom_site_occupancy
  Pr  Pr0  1  0.33333300  0.66666700  0.00000000  1
  Nd  Nd1  1  0.66666700  0.33333300  0.50000000  1
  Al  Al2  1  0.71771300  0.85885600  0.50000000  1
  Al  Al3  1  0.14114400  0.85885600  0.50000000  1
  Al  Al4  1  0.14114400  0.28228700  0.50000000  1
  Al  Al5  1  0.28357900  0.14178900  0.00000000  1
  Al  Al6  1  0.85821100  0.14178900  0.00000000  1
  Al  Al7  1  0.85821100  0.71642100  0.00000000  1
