# generated using pymatgen
data_PrTl2InSe4
_symmetry_space_group_name_H-M   'P 1'
_cell_length_a   6.79172423
_cell_length_b   6.79172423
_cell_length_c   6.79172423
_cell_angle_alpha   65.06865561
_cell_angle_beta   73.18789653
_cell_angle_gamma   106.81210347
_symmetry_Int_Tables_number   1
_chemical_formula_structural   PrTl2InSe4
_chemical_formula_sum   'Pr1 Tl2 In1 Se4'
_cell_volume   239.50878441
_cell_formula_units_Z   1
loop_
 _symmetry_equiv_pos_site_id
 _symmetry_equiv_pos_as_xyz
  1  'x, y, z'
loop_
 _atom_site_type_symbol
 _atom_site_label
 _atom_site_symmetry_multiplicity
 _atom_site_fract_x
 _atom_site_fract_y
 _atom_site_fract_z
 _atom_site_occupancy
  Pr  Pr0  1  0.50000000  0.25000000  0.25000000  1
  Tl  Tl1  1  0.00000000  0.25000000  0.75000000  1
  Tl  Tl2  1  0.00000000  0.75000000  0.25000000  1
  In  In3  1  0.50000000  0.75000000  0.75000000  1
  Se  Se4  1  0.50000000  0.34405200  0.79114900  1
  Se  Se5  1  0.50000000  0.70885100  0.15594800  1
  Se  Se6  1  0.13520100  0.79114900  0.70885100  1
  Se  Se7  1  0.86479900  0.15594800  0.34405200  1
