# generated using pymatgen
data_PrNdCo10
_symmetry_space_group_name_H-M   'P 1'
_cell_length_a   3.98259700
_cell_length_b   5.02319793
_cell_length_c   8.71486433
_cell_angle_alpha   89.99999830
_cell_angle_beta   90.00000000
_cell_angle_gamma   90.00000000
_symmetry_Int_Tables_number   1
_chemical_formula_structural   PrNdCo10
_chemical_formula_sum   'Pr1 Nd1 Co10'
_cell_volume   174.34411184
_cell_formula_units_Z   1
loop_
 _symmetry_equiv_pos_site_id
 _symmetry_equiv_pos_as_xyz
  1  'x, y, z'
loop_
 _atom_site_type_symbol
 _atom_site_label
 _atom_site_symmetry_multiplicity
 _atom_site_fract_x
 _atom_site_fract_y
 _atom_site_fract_z
 _atom_site_occupancy
  Pr  Pr0  1  0.00000000  0.49997200  0.50000000  1
  Nd  Nd1  1  0.00000000  0.99998800  0.00000000  1
  Co  Co2  1  0.00000000  0.99997400  0.33283200  1
  Co  Co3  1  0.00000000  0.49994200  0.83365700  1
  Co  Co4  1  0.00000000  0.49994200  0.16634300  1
  Co  Co5  1  0.00000000  0.99997400  0.66716800  1
  Co  Co6  1  0.50000000  0.99999000  0.50000000  1
  Co  Co7  1  0.50000000  0.50002000  0.00000000  1
  Co  Co8  1  0.50000000  0.24953700  0.24956000  1
  Co  Co9  1  0.50000000  0.75046300  0.75044500  1
  Co  Co10  1  0.50000000  0.75046300  0.24955500  1
  Co  Co11  1  0.50000000  0.24953700  0.75044000  1
