# generated using pymatgen
data_Pu3Al
_symmetry_space_group_name_H-M   'P 1'
_cell_length_a   2.66429774
_cell_length_b   2.66429774
_cell_length_c   11.62782154
_cell_angle_alpha   90.00000000
_cell_angle_beta   83.42142375
_cell_angle_gamma   120.00000000
_symmetry_Int_Tables_number   1
_chemical_formula_structural   Pu3Al
_chemical_formula_sum   'Pu3 Al1'
_cell_volume   70.85339969
_cell_formula_units_Z   1
loop_
 _symmetry_equiv_pos_site_id
 _symmetry_equiv_pos_as_xyz
  1  'x, y, z'
loop_
 _atom_site_type_symbol
 _atom_site_label
 _atom_site_symmetry_multiplicity
 _atom_site_fract_x
 _atom_site_fract_y
 _atom_site_fract_z
 _atom_site_occupancy
  Pu  Pu0  1  0.51152000  0.25576000  0.23272000  1
  Pu  Pu1  1  0.00000000  0.50000000  0.50000000  1
  Pu  Pu2  1  0.48848000  0.74424000  0.76728000  1
  Al  Al3  1  0.00000000  0.00000000  0.00000000  1
