# generated using pymatgen
data_Rb2MnV2(ClO3)2
_symmetry_space_group_name_H-M   'P 1'
_cell_length_a   5.60212241
_cell_length_b   10.69063045
_cell_length_c   10.78631651
_cell_angle_alpha   59.88772808
_cell_angle_beta   105.74958278
_cell_angle_gamma   91.34503418
_symmetry_Int_Tables_number   1
_chemical_formula_structural   Rb2MnV2(ClO3)2
_chemical_formula_sum   'Rb4 Mn2 V4 Cl4 O12'
_cell_volume   532.88390622
_cell_formula_units_Z   2
loop_
 _symmetry_equiv_pos_site_id
 _symmetry_equiv_pos_as_xyz
  1  'x, y, z'
loop_
 _atom_site_type_symbol
 _atom_site_label
 _atom_site_symmetry_multiplicity
 _atom_site_fract_x
 _atom_site_fract_y
 _atom_site_fract_z
 _atom_site_occupancy
  Rb  Rb0  1  0.39777500  0.70171400  0.74583000  1
  Rb  Rb1  1  0.39764600  0.20177000  0.74565100  1
  Rb  Rb2  1  0.65186000  0.94752000  0.25422900  1
  Rb  Rb3  1  0.65199300  0.44744200  0.25434500  1
  Mn  Mn4  1  0.00135700  0.30274400  0.99981900  1
  Mn  Mn5  1  0.00201400  0.80273100  0.00018200  1
  V  V6  1  0.82239300  0.53109300  0.59892000  1
  V  V7  1  0.22337800  0.12978600  0.40098100  1
  V  V8  1  0.82245600  0.03095200  0.59890200  1
  V  V9  1  0.22342400  0.63009600  0.40113600  1
  Cl  Cl10  1  0.45143000  0.30890200  0.99993100  1
  Cl  Cl11  1  0.45161700  0.80886900  0.00007100  1
  Cl  Cl12  1  0.98143900  0.04191600  0.99998600  1
  Cl  Cl13  1  0.98151700  0.54183600  0.00006600  1
  O  O14  1  0.82676300  0.89232600  0.77285300  1
  O  O15  1  0.82646200  0.39238100  0.77268600  1
  O  O16  1  0.05369800  0.16502600  0.22712400  1
  O  O17  1  0.05393600  0.66501200  0.22733500  1
  O  O18  1  0.82812800  0.18714800  0.59562400  1
  O  O19  1  0.82806200  0.68728400  0.59580000  1
  O  O20  1  0.23223100  0.28279700  0.40428200  1
  O  O21  1  0.23207800  0.78315900  0.40419200  1
  O  O22  1  0.08866700  0.00137400  0.54607800  1
  O  O23  1  0.08860600  0.50155900  0.54608000  1
  O  O24  1  0.54258200  0.04748400  0.45392100  1
  O  O25  1  0.54248500  0.54767300  0.45397300  1
