# generated using pymatgen
data_PuMnAl
_symmetry_space_group_name_H-M   'P 1'
_cell_length_a   5.37459671
_cell_length_b   5.37472568
_cell_length_c   8.57142400
_cell_angle_alpha   90.00000000
_cell_angle_beta   90.00000000
_cell_angle_gamma   61.26656501
_symmetry_Int_Tables_number   1
_chemical_formula_structural   PuMnAl
_chemical_formula_sum   'Pu4 Mn4 Al4'
_cell_volume   217.11422852
_cell_formula_units_Z   4
loop_
 _symmetry_equiv_pos_site_id
 _symmetry_equiv_pos_as_xyz
  1  'x, y, z'
loop_
 _atom_site_type_symbol
 _atom_site_label
 _atom_site_symmetry_multiplicity
 _atom_site_fract_x
 _atom_site_fract_y
 _atom_site_fract_z
 _atom_site_occupancy
  Pu  Pu0  1  0.33410300  0.33408100  0.54953900  1
  Pu  Pu1  1  0.66753100  0.66790100  0.41856400  1
  Pu  Pu2  1  0.66753100  0.66790100  0.08143600  1
  Pu  Pu3  1  0.33410300  0.33408100  0.95046100  1
  Mn  Mn4  1  0.83657900  0.83702800  0.75000000  1
  Mn  Mn5  1  0.16700200  0.66109200  0.25000000  1
  Mn  Mn6  1  0.66168800  0.16691300  0.25000000  1
  Mn  Mn7  1  0.16548400  0.16405000  0.25000000  1
  Al  Al8  1  0.99623300  0.99631700  0.49368000  1
  Al  Al9  1  0.99623300  0.99631700  0.00632000  1
  Al  Al10  1  0.83049000  0.34346400  0.75000000  1
  Al  Al11  1  0.34302300  0.83085600  0.75000000  1
