# generated using pymatgen
data_Hf2Ge
_symmetry_space_group_name_H-M   'P 1'
_cell_length_a   5.60163276
_cell_length_b   5.60163276
_cell_length_c   5.60163276
_cell_angle_alpha   102.16985839
_cell_angle_beta   102.16985839
_cell_angle_gamma   125.33659979
_symmetry_Int_Tables_number   1
_chemical_formula_structural   Hf2Ge
_chemical_formula_sum   'Hf4 Ge2'
_cell_volume   127.38003129
_cell_formula_units_Z   2
loop_
 _symmetry_equiv_pos_site_id
 _symmetry_equiv_pos_as_xyz
  1  'x, y, z'
loop_
 _atom_site_type_symbol
 _atom_site_label
 _atom_site_symmetry_multiplicity
 _atom_site_fract_x
 _atom_site_fract_y
 _atom_site_fract_z
 _atom_site_occupancy
  Hf  Hf0  1  0.64928500  0.14928500  0.79857000  1
  Hf  Hf1  1  0.35071500  0.85071500  0.20143000  1
  Hf  Hf2  1  0.85071500  0.64928500  0.50000000  1
  Hf  Hf3  1  0.14928500  0.35071500  0.50000000  1
  Ge  Ge4  1  0.50000000  0.50000000  0.00000000  1
  Ge  Ge5  1  0.00000000  0.00000000  0.00000000  1
