# generated using pymatgen
data_Ni6SnSb
_symmetry_space_group_name_H-M   'P 1'
_cell_length_a   4.25264100
_cell_length_b   4.54883400
_cell_length_c   5.30306600
_cell_angle_alpha   90.00000000
_cell_angle_beta   90.00000000
_cell_angle_gamma   90.00000000
_symmetry_Int_Tables_number   1
_chemical_formula_structural   Ni6SnSb
_chemical_formula_sum   'Ni6 Sn1 Sb1'
_cell_volume   102.58546766
_cell_formula_units_Z   1
loop_
 _symmetry_equiv_pos_site_id
 _symmetry_equiv_pos_as_xyz
  1  'x, y, z'
loop_
 _atom_site_type_symbol
 _atom_site_label
 _atom_site_symmetry_multiplicity
 _atom_site_fract_x
 _atom_site_fract_y
 _atom_site_fract_z
 _atom_site_occupancy
  Ni  Ni0  1  0.50000000  0.16741700  0.74563000  1
  Ni  Ni1  1  0.50000000  0.16741700  0.25437000  1
  Ni  Ni2  1  0.00000000  0.83152900  0.74924600  1
  Ni  Ni3  1  0.00000000  0.83152900  0.25075400  1
  Ni  Ni4  1  0.00000000  0.31290600  0.50000000  1
  Ni  Ni5  1  0.50000000  0.69034300  0.00000000  1
  Sn  Sn6  1  0.00000000  0.32811100  0.00000000  1
  Sb  Sb7  1  0.50000000  0.67074700  0.50000000  1
