# generated using pymatgen
data_Rb5Gd(MoO4)4
_symmetry_space_group_name_H-M   'P 1'
_cell_length_a   6.27476484
_cell_length_b   10.24837274
_cell_length_c   8.20993375
_cell_angle_alpha   73.24547045
_cell_angle_beta   90.00000433
_cell_angle_gamma   89.99999584
_symmetry_Int_Tables_number   1
_chemical_formula_structural   Rb5Gd(MoO4)4
_chemical_formula_sum   'Rb5 Gd1 Mo4 O16'
_cell_volume   505.53686825
_cell_formula_units_Z   1
loop_
 _symmetry_equiv_pos_site_id
 _symmetry_equiv_pos_as_xyz
  1  'x, y, z'
loop_
 _atom_site_type_symbol
 _atom_site_label
 _atom_site_symmetry_multiplicity
 _atom_site_fract_x
 _atom_site_fract_y
 _atom_site_fract_z
 _atom_site_occupancy
  Rb  Rb0  1  0.50000000  0.29378400  0.13263000  1
  Rb  Rb1  1  0.00000000  0.81654000  0.60935900  1
  Rb  Rb2  1  0.50000000  0.70621600  0.86737000  1
  Rb  Rb3  1  0.00000000  0.18346000  0.39064100  1
  Rb  Rb4  1  0.00000000  0.00000000  0.00000000  1
  Gd  Gd5  1  0.50000000  0.50000000  0.50000000  1
  Mo  Mo6  1  0.00000000  0.60144800  0.22309400  1
  Mo  Mo7  1  0.50000000  0.11168100  0.69998100  1
  Mo  Mo8  1  0.00000000  0.39855200  0.77690600  1
  Mo  Mo9  1  0.50000000  0.88831900  0.30001900  1
  O  O10  1  0.50000000  0.16015800  0.89147900  1
  O  O11  1  0.00000000  0.72775300  0.32792000  1
  O  O12  1  0.50000000  0.83984200  0.10852100  1
  O  O13  1  0.00000000  0.27224700  0.67208000  1
  O  O14  1  0.24326600  0.50047400  0.28900100  1
  O  O15  1  0.72834500  0.00928400  0.69517900  1
  O  O16  1  0.75673400  0.50047400  0.28900100  1
  O  O17  1  0.27165500  0.00928400  0.69517900  1
  O  O18  1  0.00000000  0.68242800  0.99928500  1
  O  O19  1  0.50000000  0.26986100  0.51847400  1
  O  O20  1  0.75673400  0.49952600  0.71099900  1
  O  O21  1  0.27165500  0.99071600  0.30482100  1
  O  O22  1  0.24326600  0.49952600  0.71099900  1
  O  O23  1  0.72834500  0.99071600  0.30482100  1
  O  O24  1  0.00000000  0.31757200  0.00071500  1
  O  O25  1  0.50000000  0.73013900  0.48152600  1
