# generated using pymatgen
data_Ru3N12(Cl4O3)2
_symmetry_space_group_name_H-M   'P 1'
_cell_length_a   13.11234592
_cell_length_b   13.11234592
_cell_length_c   13.11234592
_cell_angle_alpha   155.86074761
_cell_angle_beta   139.06576363
_cell_angle_gamma   48.08585220
_symmetry_Int_Tables_number   1
_chemical_formula_structural   Ru3N12(Cl4O3)2
_chemical_formula_sum   'Ru3 N12 Cl8 O6'
_cell_volume   602.14190077
_cell_formula_units_Z   1
loop_
 _symmetry_equiv_pos_site_id
 _symmetry_equiv_pos_as_xyz
  1  'x, y, z'
loop_
 _atom_site_type_symbol
 _atom_site_label
 _atom_site_symmetry_multiplicity
 _atom_site_fract_x
 _atom_site_fract_y
 _atom_site_fract_z
 _atom_site_occupancy
  Ru  Ru0  1  0.21200900  0.21200900  0.00000000  1
  Ru  Ru1  1  0.78799100  0.78799100  0.00000000  1
  Ru  Ru2  1  0.50000000  0.50000000  0.00000000  1
  N  N3  1  0.55743700  0.31915100  0.76171500  1
  N  N4  1  0.44256300  0.68084900  0.23828500  1
  N  N5  1  0.55743700  0.79572200  0.23828500  1
  N  N6  1  0.44256300  0.20427800  0.76171500  1
  N  N7  1  0.12117100  0.39639500  0.27522500  1
  N  N8  1  0.87882900  0.60360500  0.72477500  1
  N  N9  1  0.12117100  0.84594600  0.72477500  1
  N  N10  1  0.87882900  0.15405400  0.27522500  1
  N  N11  1  0.25884100  0.49738900  0.23854900  1
  N  N12  1  0.74115900  0.50261100  0.76145100  1
  N  N13  1  0.25884100  0.02029200  0.76145100  1
  N  N14  1  0.74115900  0.97970800  0.23854900  1
  Cl  Cl15  1  0.82041300  0.00000000  0.82041300  1
  Cl  Cl16  1  0.17958700  0.00000000  0.17958700  1
  Cl  Cl17  1  0.97551800  0.61899500  0.35652300  1
  Cl  Cl18  1  0.73752800  0.38100500  0.35652300  1
  Cl  Cl19  1  0.26247200  0.61899500  0.64347700  1
  Cl  Cl20  1  0.02448200  0.38100500  0.64347700  1
  Cl  Cl21  1  0.58427200  0.08427200  0.50000000  1
  Cl  Cl22  1  0.41572800  0.91572800  0.50000000  1
  O  O23  1  0.00464500  0.16977100  0.83487400  1
  O  O24  1  0.66510200  0.83022900  0.83487400  1
  O  O25  1  0.33489800  0.16977100  0.16512600  1
  O  O26  1  0.99535500  0.83022900  0.16512600  1
  O  O27  1  0.93341000  0.50000000  0.43341000  1
  O  O28  1  0.06659000  0.50000000  0.56659000  1
