# generated using pymatgen
data_Si8HgC18
_symmetry_space_group_name_H-M   'P 1'
_cell_length_a   10.73313381
_cell_length_b   5.50679658
_cell_length_c   16.17971709
_cell_angle_alpha   87.30745821
_cell_angle_beta   123.56383254
_cell_angle_gamma   121.86216051
_symmetry_Int_Tables_number   1
_chemical_formula_structural   Si8HgC18
_chemical_formula_sum   'Si8 Hg1 C18'
_cell_volume   634.98791170
_cell_formula_units_Z   1
loop_
 _symmetry_equiv_pos_site_id
 _symmetry_equiv_pos_as_xyz
  1  'x, y, z'
loop_
 _atom_site_type_symbol
 _atom_site_label
 _atom_site_symmetry_multiplicity
 _atom_site_fract_x
 _atom_site_fract_y
 _atom_site_fract_z
 _atom_site_occupancy
  Si  Si0  1  0.97536500  0.55389700  0.19538500  1
  Si  Si1  1  0.02463500  0.44610300  0.80461500  1
  Si  Si2  1  0.54594900  0.33785300  0.27113400  1
  Si  Si3  1  0.45405100  0.66214700  0.72886600  1
  Si  Si4  1  0.83555800  0.89403600  0.21480300  1
  Si  Si5  1  0.16444200  0.10596400  0.78519700  1
  Si  Si6  1  0.78554100  0.33840200  0.29949300  1
  Si  Si7  1  0.21445900  0.66159800  0.70050700  1
  Hg  Hg8  1  0.00000000  0.50000000  0.50000000  1
  C  C9  1  0.97876300  0.18748000  0.09531000  1
  C  C10  1  0.02123700  0.81252000  0.90469000  1
  C  C11  1  0.21685900  0.89511900  0.24640600  1
  C  C12  1  0.78314100  0.10488100  0.75359400  1
  C  C13  1  0.89785700  0.32445600  0.07407400  1
  C  C14  1  0.10214300  0.67554400  0.92592600  1
  C  C15  1  0.30067000  0.01096600  0.19972600  1
  C  C16  1  0.69933000  0.98903400  0.80027400  1
  C  C17  1  0.95251800  0.19757600  0.17918400  1
  C  C18  1  0.04748200  0.80242400  0.82081600  1
  C  C19  1  0.40279700  0.14049500  0.32063600  1
  C  C20  1  0.59720300  0.85950500  0.67936400  1
  C  C21  1  0.72204000  0.94720500  0.26018800  1
  C  C22  1  0.27796000  0.05279500  0.73981200  1
  C  C23  1  0.85908200  0.59851300  0.23435600  1
  C  C24  1  0.14091800  0.40148700  0.76564400  1
  C  C25  1  0.60805700  0.70923800  0.27120600  1
  C  C26  1  0.39194300  0.29076200  0.72879400  1
