# generated using pymatgen
data_Rb12Sn2Bi6O
_symmetry_space_group_name_H-M   'P 1'
_cell_length_a   12.79827501
_cell_length_b   12.79827501
_cell_length_c   6.47942500
_cell_angle_alpha   90.00000000
_cell_angle_beta   90.00000000
_cell_angle_gamma   119.99999489
_symmetry_Int_Tables_number   1
_chemical_formula_structural   Rb12Sn2Bi6O
_chemical_formula_sum   'Rb12 Sn2 Bi6 O1'
_cell_volume   919.11530412
_cell_formula_units_Z   1
loop_
 _symmetry_equiv_pos_site_id
 _symmetry_equiv_pos_as_xyz
  1  'x, y, z'
loop_
 _atom_site_type_symbol
 _atom_site_label
 _atom_site_symmetry_multiplicity
 _atom_site_fract_x
 _atom_site_fract_y
 _atom_site_fract_z
 _atom_site_occupancy
  Rb  Rb0  1  0.90675400  0.45337700  0.24904000  1
  Rb  Rb1  1  0.54662300  0.45337700  0.24904000  1
  Rb  Rb2  1  0.54662300  0.09324600  0.24904000  1
  Rb  Rb3  1  0.09324600  0.54662300  0.75096000  1
  Rb  Rb4  1  0.45337700  0.54662300  0.75096000  1
  Rb  Rb5  1  0.45337700  0.90675400  0.75096000  1
  Rb  Rb6  1  0.22011600  0.11005800  0.27752700  1
  Rb  Rb7  1  0.88994200  0.11005800  0.27752700  1
  Rb  Rb8  1  0.88994200  0.77988400  0.27752700  1
  Rb  Rb9  1  0.77988400  0.88994200  0.72247300  1
  Rb  Rb10  1  0.11005800  0.88994200  0.72247300  1
  Rb  Rb11  1  0.11005800  0.22011600  0.72247300  1
  Sn  Sn12  1  0.66666700  0.33333300  0.74991300  1
  Sn  Sn13  1  0.33333300  0.66666700  0.25008700  1
  Bi  Bi14  1  0.58966300  0.79483200  0.24127700  1
  Bi  Bi15  1  0.20516800  0.79483200  0.24127700  1
  Bi  Bi16  1  0.20516800  0.41033700  0.24127700  1
  Bi  Bi17  1  0.41033700  0.20516800  0.75872300  1
  Bi  Bi18  1  0.79483200  0.20516800  0.75872300  1
  Bi  Bi19  1  0.79483200  0.58966300  0.75872300  1
  O  O20  1  0.00000000  0.00000000  0.50000000  1
