# generated using pymatgen
data_PrThUS5
_symmetry_space_group_name_H-M   'P 1'
_cell_length_a   7.48865300
_cell_length_b   8.07899700
_cell_length_c   12.04446600
_cell_angle_alpha   90.00000000
_cell_angle_beta   90.00000000
_cell_angle_gamma   90.00000000
_symmetry_Int_Tables_number   1
_chemical_formula_structural   PrThUS5
_chemical_formula_sum   'Pr4 Th4 U4 S20'
_cell_volume   728.69989025
_cell_formula_units_Z   4
loop_
 _symmetry_equiv_pos_site_id
 _symmetry_equiv_pos_as_xyz
  1  'x, y, z'
loop_
 _atom_site_type_symbol
 _atom_site_label
 _atom_site_symmetry_multiplicity
 _atom_site_fract_x
 _atom_site_fract_y
 _atom_site_fract_z
 _atom_site_occupancy
  Pr  Pr0  1  0.97656700  0.75086200  0.92982600  1
  Pr  Pr1  1  0.52343300  0.24913800  0.42982600  1
  Pr  Pr2  1  0.02343300  0.25086200  0.57017400  1
  Pr  Pr3  1  0.47656700  0.74913800  0.07017400  1
  Th  Th4  1  0.02281200  0.75063500  0.57375900  1
  Th  Th5  1  0.47718800  0.24936500  0.07375900  1
  Th  Th6  1  0.97718800  0.25063500  0.92624100  1
  Th  Th7  1  0.52281200  0.74936500  0.42624100  1
  U  U8  1  0.42917700  0.49881500  0.75596500  1
  U  U9  1  0.07082300  0.50118500  0.25596500  1
  U  U10  1  0.57082300  0.99881500  0.74403500  1
  U  U11  1  0.92917700  0.00118500  0.24403500  1
  S  S12  1  0.66212700  0.29057800  0.65437100  1
  S  S13  1  0.83787300  0.70942200  0.15437100  1
  S  S14  1  0.33787300  0.79057800  0.84562900  1
  S  S15  1  0.16212700  0.20942200  0.34562900  1
  S  S16  1  0.33577900  0.20825100  0.85068600  1
  S  S17  1  0.16422100  0.79174900  0.35068600  1
  S  S18  1  0.66422100  0.70825100  0.64931400  1
  S  S19  1  0.83577900  0.29174900  0.14931400  1
  S  S20  1  0.30234400  0.50765800  0.53546100  1
  S  S21  1  0.19765600  0.49234200  0.03546100  1
  S  S22  1  0.69765600  0.00765800  0.96453900  1
  S  S23  1  0.80234400  0.99234200  0.46453900  1
  S  S24  1  0.67062400  0.49134200  0.93650800  1
  S  S25  1  0.82937600  0.50865800  0.43650800  1
  S  S26  1  0.32937600  0.99134200  0.56349200  1
  S  S27  1  0.17062400  0.00865800  0.06349200  1
  S  S28  1  0.04106600  0.50042900  0.75052400  1
  S  S29  1  0.45893400  0.49957100  0.25052400  1
  S  S30  1  0.95893400  0.00042900  0.74947600  1
  S  S31  1  0.54106600  0.99957100  0.24947600  1
