# generated using pymatgen
data_Pr2Ga7Ni
_symmetry_space_group_name_H-M   'P 1'
_cell_length_a   4.29902400
_cell_length_b   4.29902400
_cell_length_c   10.42618500
_cell_angle_alpha   90.00000000
_cell_angle_beta   90.00000000
_cell_angle_gamma   90.00000000
_symmetry_Int_Tables_number   1
_chemical_formula_structural   Pr2Ga7Ni
_chemical_formula_sum   'Pr2 Ga7 Ni1'
_cell_volume   192.69265736
_cell_formula_units_Z   1
loop_
 _symmetry_equiv_pos_site_id
 _symmetry_equiv_pos_as_xyz
  1  'x, y, z'
loop_
 _atom_site_type_symbol
 _atom_site_label
 _atom_site_symmetry_multiplicity
 _atom_site_fract_x
 _atom_site_fract_y
 _atom_site_fract_z
 _atom_site_occupancy
  Pr  Pr0  1  0.00000000  0.00000000  0.99783900  1
  Pr  Pr1  1  0.50000000  0.50000000  0.48489800  1
  Ga  Ga2  1  0.00000000  0.50000000  0.23230500  1
  Ga  Ga3  1  0.50000000  0.00000000  0.75557500  1
  Ga  Ga4  1  0.50000000  0.00000000  0.23230500  1
  Ga  Ga5  1  0.00000000  0.50000000  0.75557500  1
  Ga  Ga6  1  0.00000000  0.00000000  0.61806600  1
  Ga  Ga7  1  0.00000000  0.00000000  0.38019500  1
  Ga  Ga8  1  0.50000000  0.50000000  0.91042500  1
  Ni  Ni9  1  0.50000000  0.50000000  0.13281900  1
