# generated using pymatgen
data_PuP2CO7
_symmetry_space_group_name_H-M   'P 1'
_cell_length_a   5.94257400
_cell_length_b   6.67266182
_cell_length_c   8.99388578
_cell_angle_alpha   102.73806406
_cell_angle_beta   90.00000000
_cell_angle_gamma   90.00000000
_symmetry_Int_Tables_number   1
_chemical_formula_structural   PuP2CO7
_chemical_formula_sum   'Pu2 P4 C2 O14'
_cell_volume   347.85529005
_cell_formula_units_Z   2
loop_
 _symmetry_equiv_pos_site_id
 _symmetry_equiv_pos_as_xyz
  1  'x, y, z'
loop_
 _atom_site_type_symbol
 _atom_site_label
 _atom_site_symmetry_multiplicity
 _atom_site_fract_x
 _atom_site_fract_y
 _atom_site_fract_z
 _atom_site_occupancy
  Pu  Pu0  1  0.25551500  0.62648000  0.28868200  1
  Pu  Pu1  1  0.75551500  0.37352000  0.71131800  1
  P  P2  1  0.75745700  0.98392500  0.32707900  1
  P  P3  1  0.25745700  0.01607500  0.67292100  1
  P  P4  1  0.75537600  0.31848100  0.09960300  1
  P  P5  1  0.25537600  0.68151900  0.90039700  1
  C  C6  1  0.76297300  0.08915100  0.16408600  1
  C  C7  1  0.26297300  0.91084900  0.83591400  1
  O  O8  1  0.54204700  0.85658800  0.31613700  1
  O  O9  1  0.04204700  0.14341200  0.68386300  1
  O  O10  1  0.46636000  0.15120100  0.67793100  1
  O  O11  1  0.96636000  0.84879900  0.32206900  1
  O  O12  1  0.75226300  0.25808400  0.92351500  1
  O  O13  1  0.25226300  0.74191600  0.07648500  1
  O  O14  1  0.25202600  0.43897700  0.40824400  1
  O  O15  1  0.75202600  0.56102300  0.59175600  1
  O  O16  1  0.97357100  0.42996900  0.15966700  1
  O  O17  1  0.47357100  0.57003100  0.84033300  1
  O  O18  1  0.03778200  0.57242200  0.83730200  1
  O  O19  1  0.53778200  0.42757800  0.16269800  1
  O  O20  1  0.76063100  0.17544100  0.45550000  1
  O  O21  1  0.26063100  0.82455900  0.54450000  1
