# generated using pymatgen
data_PdRhPb4
_symmetry_space_group_name_H-M   'P 1'
_cell_length_a   5.73588043
_cell_length_b   5.73588043
_cell_length_c   5.73588043
_cell_angle_alpha   105.54105324
_cell_angle_beta   105.54105324
_cell_angle_gamma   117.65473863
_symmetry_Int_Tables_number   1
_chemical_formula_structural   PdRhPb4
_chemical_formula_sum   'Pd1 Rh1 Pb4'
_cell_volume   143.01884889
_cell_formula_units_Z   1
loop_
 _symmetry_equiv_pos_site_id
 _symmetry_equiv_pos_as_xyz
  1  'x, y, z'
loop_
 _atom_site_type_symbol
 _atom_site_label
 _atom_site_symmetry_multiplicity
 _atom_site_fract_x
 _atom_site_fract_y
 _atom_site_fract_z
 _atom_site_occupancy
  Pd  Pd0  1  0.00000000  0.00000000  0.00000000  1
  Rh  Rh1  1  0.50000000  0.50000000  0.00000000  1
  Pb  Pb2  1  0.91507500  0.41507500  0.83015000  1
  Pb  Pb3  1  0.58492500  0.08492500  0.16985000  1
  Pb  Pb4  1  0.08492500  0.91507500  0.50000000  1
  Pb  Pb5  1  0.41507500  0.58492500  0.50000000  1
