# generated using pymatgen
data_Pr4B3O10F
_symmetry_space_group_name_H-M   'P 1'
_cell_length_a   6.65442179
_cell_length_b   8.88133172
_cell_length_c   8.84144620
_cell_angle_alpha   105.82845470
_cell_angle_beta   106.67854712
_cell_angle_gamma   106.38372382
_symmetry_Int_Tables_number   1
_chemical_formula_structural   Pr4B3O10F
_chemical_formula_sum   'Pr8 B6 O20 F2'
_cell_volume   443.23045813
_cell_formula_units_Z   2
loop_
 _symmetry_equiv_pos_site_id
 _symmetry_equiv_pos_as_xyz
  1  'x, y, z'
loop_
 _atom_site_type_symbol
 _atom_site_label
 _atom_site_symmetry_multiplicity
 _atom_site_fract_x
 _atom_site_fract_y
 _atom_site_fract_z
 _atom_site_occupancy
  Pr  Pr0  1  0.66790400  0.83308800  0.19116000  1
  Pr  Pr1  1  0.33209600  0.16691200  0.80884000  1
  Pr  Pr2  1  0.64599600  0.45773000  0.34262000  1
  Pr  Pr3  1  0.35400400  0.54227000  0.65738000  1
  Pr  Pr4  1  0.78549900  0.19702300  0.64090000  1
  Pr  Pr5  1  0.21450100  0.80297700  0.35910000  1
  Pr  Pr6  1  0.00203400  0.23597000  0.14680000  1
  Pr  Pr7  1  0.99796600  0.76403000  0.85320000  1
  B  B8  1  0.25157500  0.49616300  0.01508300  1
  B  B9  1  0.74842500  0.50383700  0.98491700  1
  B  B10  1  0.42719700  0.07173100  0.16622500  1
  B  B11  1  0.57280300  0.92826900  0.83377500  1
  B  B12  1  0.21913500  0.17282800  0.45506900  1
  B  B13  1  0.78086500  0.82717200  0.54493100  1
  O  O14  1  0.70788800  0.86400400  0.92644200  1
  O  O15  1  0.29211200  0.13599600  0.07355800  1
  O  O16  1  0.03624000  0.04297800  0.29393300  1
  O  O17  1  0.96376000  0.95702200  0.70606700  1
  O  O18  1  0.33065100  0.90297300  0.14412100  1
  O  O19  1  0.66934900  0.09702700  0.85587900  1
  O  O20  1  0.37220300  0.09652500  0.53386500  1
  O  O21  1  0.62779700  0.90347500  0.46613500  1
  O  O22  1  0.34403400  0.31961100  0.41818700  1
  O  O23  1  0.65596600  0.68038900  0.58181300  1
  O  O24  1  0.34632500  0.55411400  0.19311000  1
  O  O25  1  0.65367500  0.44588600  0.80689000  1
  O  O26  1  0.09404300  0.32980800  0.92322900  1
  O  O27  1  0.90595700  0.67019200  0.07677100  1
  O  O28  1  0.66000100  0.16422500  0.26531300  1
  O  O29  1  0.33999900  0.83577500  0.73468700  1
  O  O30  1  0.86699000  0.75346800  0.41229200  1
  O  O31  1  0.13301000  0.24653200  0.58770800  1
  O  O32  1  0.32108500  0.60011000  0.93375100  1
  O  O33  1  0.67891500  0.39989000  0.06624900  1
  F  F34  1  0.93213500  0.49361100  0.62542700  1
  F  F35  1  0.06786500  0.50638900  0.37457300  1
