# generated using pymatgen
data_Pd4W
_symmetry_space_group_name_H-M   'P 1'
_cell_length_a   11.50603692
_cell_length_b   11.50603692
_cell_length_c   11.50603607
_cell_angle_alpha   13.98066948
_cell_angle_beta   13.98066948
_cell_angle_gamma   13.98067298
_symmetry_Int_Tables_number   1
_chemical_formula_structural   Pd4W
_chemical_formula_sum   'Pd4 W1'
_cell_volume   77.38049312
_cell_formula_units_Z   1
loop_
 _symmetry_equiv_pos_site_id
 _symmetry_equiv_pos_as_xyz
  1  'x, y, z'
loop_
 _atom_site_type_symbol
 _atom_site_label
 _atom_site_symmetry_multiplicity
 _atom_site_fract_x
 _atom_site_fract_y
 _atom_site_fract_z
 _atom_site_occupancy
  Pd  Pd0  1  0.60169800  0.60169800  0.60169800  1
  Pd  Pd1  1  0.20034200  0.20034200  0.20034200  1
  Pd  Pd2  1  0.79965800  0.79965800  0.79965800  1
  Pd  Pd3  1  0.39830200  0.39830200  0.39830200  1
  W  W4  1  0.00000000  0.00000000  0.00000000  1
