# generated using pymatgen
data_PrGePd
_symmetry_space_group_name_H-M   'P 1'
_cell_length_a   5.74899638
_cell_length_b   5.74899638
_cell_length_c   7.48767331
_cell_angle_alpha   51.25551783
_cell_angle_beta   51.25551783
_cell_angle_gamma   46.39239668
_symmetry_Int_Tables_number   1
_chemical_formula_structural   PrGePd
_chemical_formula_sum   'Pr2 Ge2 Pd2'
_cell_volume   131.23729340
_cell_formula_units_Z   2
loop_
 _symmetry_equiv_pos_site_id
 _symmetry_equiv_pos_as_xyz
  1  'x, y, z'
loop_
 _atom_site_type_symbol
 _atom_site_label
 _atom_site_symmetry_multiplicity
 _atom_site_fract_x
 _atom_site_fract_y
 _atom_site_fract_z
 _atom_site_occupancy
  Pr  Pr0  1  0.53740300  0.53740300  0.70188600  1
  Pr  Pr1  1  0.46259700  0.46259700  0.29811400  1
  Ge  Ge2  1  0.83960500  0.83960500  0.10857900  1
  Ge  Ge3  1  0.16039500  0.16039500  0.89142100  1
  Pd  Pd4  1  0.18307900  0.18307900  0.27355800  1
  Pd  Pd5  1  0.81692100  0.81692100  0.72644200  1
