# generated using pymatgen
data_PrMnGa
_symmetry_space_group_name_H-M   'P 1'
_cell_length_a   6.08904430
_cell_length_b   6.08904430
_cell_length_c   6.08904430
_cell_angle_alpha   138.91757811
_cell_angle_beta   115.90024232
_cell_angle_gamma   79.01391264
_symmetry_Int_Tables_number   1
_chemical_formula_structural   PrMnGa
_chemical_formula_sum   'Pr2 Mn2 Ga2'
_cell_volume   129.73107219
_cell_formula_units_Z   2
loop_
 _symmetry_equiv_pos_site_id
 _symmetry_equiv_pos_as_xyz
  1  'x, y, z'
loop_
 _atom_site_type_symbol
 _atom_site_label
 _atom_site_symmetry_multiplicity
 _atom_site_fract_x
 _atom_site_fract_y
 _atom_site_fract_z
 _atom_site_occupancy
  Pr  Pr0  1  0.00000000  0.50000000  0.50000000  1
  Pr  Pr1  1  0.50000000  0.00000000  0.50000000  1
  Mn  Mn2  1  0.00000000  0.50000000  0.00000000  1
  Mn  Mn3  1  0.00000000  0.00000000  0.50000000  1
  Ga  Ga4  1  0.36804700  0.25000000  0.11804700  1
  Ga  Ga5  1  0.63195300  0.75000000  0.88195300  1
