# generated using pymatgen
data_PrN2
_symmetry_space_group_name_H-M   'P 1'
_cell_length_a   4.99056886
_cell_length_b   6.68238795
_cell_length_c   6.25679084
_cell_angle_alpha   65.62408531
_cell_angle_beta   90.00663788
_cell_angle_gamma   111.94186825
_symmetry_Int_Tables_number   1
_chemical_formula_structural   PrN2
_chemical_formula_sum   'Pr3 N6'
_cell_volume   173.33255144
_cell_formula_units_Z   3
loop_
 _symmetry_equiv_pos_site_id
 _symmetry_equiv_pos_as_xyz
  1  'x, y, z'
loop_
 _atom_site_type_symbol
 _atom_site_label
 _atom_site_symmetry_multiplicity
 _atom_site_fract_x
 _atom_site_fract_y
 _atom_site_fract_z
 _atom_site_occupancy
  Pr  Pr0  1  0.63911000  0.27896100  0.07351100  1
  Pr  Pr1  1  0.82359000  0.64680000  0.47515900  1
  Pr  Pr2  1  0.41706400  0.83363000  0.82965300  1
  N  N3  1  0.84626600  0.69233000  0.81755000  1
  N  N4  1  0.38326500  0.76569500  0.26392900  1
  N  N5  1  0.17957700  0.35963500  0.11843300  1
  N  N6  1  0.62070800  0.24176900  0.73061000  1
  N  N7  1  0.39573900  0.79101000  0.45152800  1
  N  N8  1  0.07213100  0.14516900  0.19547600  1
