# generated using pymatgen
data_Pr3Mn4PbO12
_symmetry_space_group_name_H-M   'P 1'
_cell_length_a   7.89606100
_cell_length_b   5.56302800
_cell_length_c   5.60444076
_cell_angle_alpha   89.13969892
_cell_angle_beta   90.00000000
_cell_angle_gamma   90.00000000
_symmetry_Int_Tables_number   1
_chemical_formula_structural   Pr3Mn4PbO12
_chemical_formula_sum   'Pr3 Mn4 Pb1 O12'
_cell_volume   246.15296139
_cell_formula_units_Z   1
loop_
 _symmetry_equiv_pos_site_id
 _symmetry_equiv_pos_as_xyz
  1  'x, y, z'
loop_
 _atom_site_type_symbol
 _atom_site_label
 _atom_site_symmetry_multiplicity
 _atom_site_fract_x
 _atom_site_fract_y
 _atom_site_fract_z
 _atom_site_occupancy
  Pr  Pr0  1  0.00000000  0.98976300  0.04045700  1
  Pr  Pr1  1  0.50000000  0.48867400  0.45626800  1
  Pr  Pr2  1  0.50000000  0.00428500  0.96362600  1
  Mn  Mn3  1  0.25050200  0.99917900  0.50217400  1
  Mn  Mn4  1  0.75062700  0.50005800  0.99556900  1
  Mn  Mn5  1  0.74949800  0.99917900  0.50217400  1
  Mn  Mn6  1  0.24937300  0.50005800  0.99556900  1
  Pb  Pb7  1  0.00000000  0.50503000  0.51177500  1
  O  O8  1  0.29533900  0.21995200  0.21767500  1
  O  O9  1  0.70094900  0.27514400  0.71693000  1
  O  O10  1  0.78187400  0.79770700  0.79809900  1
  O  O11  1  0.22222500  0.72817500  0.27875200  1
  O  O12  1  0.21812600  0.79770700  0.79809900  1
  O  O13  1  0.77777500  0.72817500  0.27875200  1
  O  O14  1  0.70466100  0.21995200  0.21767500  1
  O  O15  1  0.29905100  0.27514400  0.71693000  1
  O  O16  1  0.00000000  0.42391900  0.00532500  1
  O  O17  1  0.00000000  0.05756100  0.47574400  1
  O  O18  1  0.50000000  0.57097100  0.01102900  1
  O  O19  1  0.50000000  0.91936600  0.51737900  1
