# generated using pymatgen
data_Rb3Yb7Se12
_symmetry_space_group_name_H-M   'P 1'
_cell_length_a   4.39057900
_cell_length_b   13.89050200
_cell_length_c   22.97636800
_cell_angle_alpha   90.00000000
_cell_angle_beta   90.00000000
_cell_angle_gamma   90.00000000
_symmetry_Int_Tables_number   1
_chemical_formula_structural   Rb3Yb7Se12
_chemical_formula_sum   'Rb6 Yb14 Se24'
_cell_volume   1401.26771379
_cell_formula_units_Z   2
loop_
 _symmetry_equiv_pos_site_id
 _symmetry_equiv_pos_as_xyz
  1  'x, y, z'
loop_
 _atom_site_type_symbol
 _atom_site_label
 _atom_site_symmetry_multiplicity
 _atom_site_fract_x
 _atom_site_fract_y
 _atom_site_fract_z
 _atom_site_occupancy
  Rb  Rb0  1  0.00000000  0.01338500  0.38263600  1
  Rb  Rb1  1  0.00000000  0.50146000  0.60239300  1
  Rb  Rb2  1  0.50000000  0.49854000  0.10239300  1
  Rb  Rb3  1  0.50000000  0.98661500  0.88263600  1
  Rb  Rb4  1  0.50000000  0.76039400  0.49661000  1
  Rb  Rb5  1  0.00000000  0.23960600  0.99661000  1
  Yb  Yb6  1  0.50000000  0.48478000  0.40370200  1
  Yb  Yb7  1  0.50000000  0.02326800  0.59643400  1
  Yb  Yb8  1  0.00000000  0.97673200  0.09643400  1
  Yb  Yb9  1  0.00000000  0.51522000  0.90370200  1
  Yb  Yb10  1  0.00000000  0.41895100  0.26468700  1
  Yb  Yb11  1  0.00000000  0.08840800  0.73326500  1
  Yb  Yb12  1  0.50000000  0.91159200  0.23326500  1
  Yb  Yb13  1  0.50000000  0.58104900  0.76468700  1
  Yb  Yb14  1  0.00000000  0.24410200  0.49777700  1
  Yb  Yb15  1  0.50000000  0.75589800  0.99777700  1
  Yb  Yb16  1  0.00000000  0.69201800  0.32516600  1
  Yb  Yb17  1  0.00000000  0.81125600  0.67663600  1
  Yb  Yb18  1  0.50000000  0.18874400  0.17663600  1
  Yb  Yb19  1  0.50000000  0.30798200  0.82516600  1
  Se  Se20  1  0.00000000  0.59851400  0.43691300  1
  Se  Se21  1  0.00000000  0.90843400  0.56676500  1
  Se  Se22  1  0.50000000  0.09156600  0.06676500  1
  Se  Se23  1  0.50000000  0.40148600  0.93691300  1
  Se  Se24  1  0.50000000  0.55037300  0.28095700  1
  Se  Se25  1  0.50000000  0.95675100  0.71917700  1
  Se  Se26  1  0.00000000  0.04324900  0.21917700  1
  Se  Se27  1  0.00000000  0.44962700  0.78095700  1
  Se  Se28  1  0.00000000  0.62878200  0.00626500  1
  Se  Se29  1  0.00000000  0.88324300  0.98607200  1
  Se  Se30  1  0.50000000  0.11675700  0.48607200  1
  Se  Se31  1  0.50000000  0.37121800  0.50626500  1
  Se  Se32  1  0.00000000  0.32385100  0.15845900  1
  Se  Se33  1  0.00000000  0.17256600  0.84249300  1
  Se  Se34  1  0.50000000  0.82743400  0.34249300  1
  Se  Se35  1  0.50000000  0.67614900  0.65845900  1
  Se  Se36  1  0.00000000  0.29815300  0.36894100  1
  Se  Se37  1  0.00000000  0.20922400  0.62915600  1
  Se  Se38  1  0.50000000  0.79077600  0.12915600  1
  Se  Se39  1  0.50000000  0.70184700  0.86894100  1
  Se  Se40  1  0.00000000  0.74352700  0.17519600  1
  Se  Se41  1  0.00000000  0.74442700  0.82080100  1
  Se  Se42  1  0.50000000  0.25557300  0.32080100  1
  Se  Se43  1  0.50000000  0.25647300  0.67519600  1
