# generated using pymatgen
data_Re3PbSe6
_symmetry_space_group_name_H-M   'P 1'
_cell_length_a   9.88561294
_cell_length_b   9.88561294
_cell_length_c   12.41676809
_cell_angle_alpha   89.68152852
_cell_angle_beta   89.68152852
_cell_angle_gamma   60.51558610
_symmetry_Int_Tables_number   1
_chemical_formula_structural   Re3PbSe6
_chemical_formula_sum   'Re12 Pb4 Se24'
_cell_volume   1056.25888972
_cell_formula_units_Z   4
loop_
 _symmetry_equiv_pos_site_id
 _symmetry_equiv_pos_as_xyz
  1  'x, y, z'
loop_
 _atom_site_type_symbol
 _atom_site_label
 _atom_site_symmetry_multiplicity
 _atom_site_fract_x
 _atom_site_fract_y
 _atom_site_fract_z
 _atom_site_occupancy
  Re  Re0  1  0.60003400  0.81016900  0.08142300  1
  Re  Re1  1  0.18690800  0.39840000  0.42425100  1
  Re  Re2  1  0.39840000  0.18690800  0.92425100  1
  Re  Re3  1  0.81016900  0.60003400  0.58142300  1
  Re  Re4  1  0.47786100  0.11024100  0.12979400  1
  Re  Re5  1  0.88681200  0.52218800  0.37361700  1
  Re  Re6  1  0.52218800  0.88681200  0.87361700  1
  Re  Re7  1  0.11024100  0.47786100  0.62979400  1
  Re  Re8  1  0.30853200  0.00906700  0.02998800  1
  Re  Re9  1  0.98589000  0.69152900  0.47449100  1
  Re  Re10  1  0.69152900  0.98589000  0.97449100  1
  Re  Re11  1  0.00906700  0.30853200  0.52998800  1
  Pb  Pb12  1  0.76301500  0.26148700  0.22614700  1
  Pb  Pb13  1  0.26148700  0.76301500  0.72614700  1
  Pb  Pb14  1  0.65385400  0.11444500  0.49589500  1
  Pb  Pb15  1  0.11444500  0.65385400  0.99589500  1
  Se  Se16  1  0.60556700  0.06379900  0.78040200  1
  Se  Se17  1  0.93596000  0.39286700  0.72509500  1
  Se  Se18  1  0.39286700  0.93596000  0.22509500  1
  Se  Se19  1  0.06379900  0.60556700  0.28040200  1
  Se  Se20  1  0.45440700  0.26587500  0.31118000  1
  Se  Se21  1  0.74521300  0.54752600  0.19094400  1
  Se  Se22  1  0.54752600  0.74521300  0.69094400  1
  Se  Se23  1  0.26587500  0.45440700  0.81118000  1
  Se  Se24  1  0.00856500  0.05721200  0.58687700  1
  Se  Se25  1  0.95045600  0.97583300  0.91914200  1
  Se  Se26  1  0.97583300  0.95045600  0.41914200  1
  Se  Se27  1  0.05721200  0.00856500  0.08687700  1
  Se  Se28  1  0.23850200  0.08172900  0.83444100  1
  Se  Se29  1  0.91453900  0.75996200  0.67118700  1
  Se  Se30  1  0.75996200  0.91453900  0.17118700  1
  Se  Se31  1  0.08172900  0.23850200  0.33444100  1
  Se  Se32  1  0.57164200  0.27405900  0.02271100  1
  Se  Se33  1  0.72148500  0.43111300  0.47985300  1
  Se  Se34  1  0.43111300  0.72148500  0.97985300  1
  Se  Se35  1  0.27405900  0.57164200  0.52271100  1
  Se  Se36  1  0.69289900  0.80094000  0.43177700  1
  Se  Se37  1  0.19778800  0.29563100  0.07678500  1
  Se  Se38  1  0.29563100  0.19778800  0.57678500  1
  Se  Se39  1  0.80094000  0.69289900  0.93177700  1
