# generated using pymatgen
data_Pr2(MoO4)3
_symmetry_space_group_name_H-M   'P 1'
_cell_length_a   7.06754967
_cell_length_b   7.06754967
_cell_length_c   12.07446169
_cell_angle_alpha   80.20324626
_cell_angle_beta   80.20324626
_cell_angle_gamma   114.67241740
_symmetry_Int_Tables_number   1
_chemical_formula_structural   Pr2(MoO4)3
_chemical_formula_sum   'Pr4 Mo6 O24'
_cell_volume   520.11293128
_cell_formula_units_Z   2
loop_
 _symmetry_equiv_pos_site_id
 _symmetry_equiv_pos_as_xyz
  1  'x, y, z'
loop_
 _atom_site_type_symbol
 _atom_site_label
 _atom_site_symmetry_multiplicity
 _atom_site_fract_x
 _atom_site_fract_y
 _atom_site_fract_z
 _atom_site_occupancy
  Pr  Pr0  1  0.20823600  0.45572900  0.58865500  1
  Pr  Pr1  1  0.54427100  0.79176400  0.91134500  1
  Pr  Pr2  1  0.45572900  0.20823600  0.08865500  1
  Pr  Pr3  1  0.79176400  0.54427100  0.41134500  1
  Mo  Mo4  1  0.71090800  0.96206300  0.57652200  1
  Mo  Mo5  1  0.03793700  0.28909200  0.92347800  1
  Mo  Mo6  1  0.37498600  0.62501400  0.25000000  1
  Mo  Mo7  1  0.28909200  0.03793700  0.42347800  1
  Mo  Mo8  1  0.62501400  0.37498600  0.75000000  1
  Mo  Mo9  1  0.96206300  0.71090800  0.07652200  1
  O  O10  1  0.07038000  0.46497100  0.78840600  1
  O  O11  1  0.41926100  0.82810300  0.11794000  1
  O  O12  1  0.71916700  0.16463400  0.46238800  1
  O  O13  1  0.53502900  0.92962000  0.71159400  1
  O  O14  1  0.83536600  0.28083300  0.03761200  1
  O  O15  1  0.17189700  0.58073900  0.38206000  1
  O  O16  1  0.70161000  0.62692900  0.78354900  1
  O  O17  1  0.07075600  0.97308300  0.10232700  1
  O  O18  1  0.38978200  0.30472500  0.45669300  1
  O  O19  1  0.37307100  0.29839000  0.71645100  1
  O  O20  1  0.69527500  0.61021800  0.04330700  1
  O  O21  1  0.02691700  0.92924400  0.39767300  1
  O  O22  1  0.58073900  0.17189700  0.88206000  1
  O  O23  1  0.92962000  0.53502900  0.21159400  1
  O  O24  1  0.28083300  0.83536600  0.53761200  1
  O  O25  1  0.16463400  0.71916700  0.96238800  1
  O  O26  1  0.46497100  0.07038000  0.28840600  1
  O  O27  1  0.82810300  0.41926100  0.61794000  1
  O  O28  1  0.92924400  0.02691700  0.89767300  1
  O  O29  1  0.29839000  0.37307100  0.21645100  1
  O  O30  1  0.61021800  0.69527500  0.54330700  1
  O  O31  1  0.30472500  0.38978200  0.95669300  1
  O  O32  1  0.62692900  0.70161000  0.28354900  1
  O  O33  1  0.97308300  0.07075600  0.60232700  1
