# generated using pymatgen
data_OsPt4
_symmetry_space_group_name_H-M   'P 1'
_cell_length_a   11.49177505
_cell_length_b   11.49177505
_cell_length_c   11.49177531
_cell_angle_alpha   13.97675466
_cell_angle_beta   13.97675466
_cell_angle_gamma   13.97675188
_symmetry_Int_Tables_number   1
_chemical_formula_structural   OsPt4
_chemical_formula_sum   'Os1 Pt4'
_cell_volume   77.05057033
_cell_formula_units_Z   1
loop_
 _symmetry_equiv_pos_site_id
 _symmetry_equiv_pos_as_xyz
  1  'x, y, z'
loop_
 _atom_site_type_symbol
 _atom_site_label
 _atom_site_symmetry_multiplicity
 _atom_site_fract_x
 _atom_site_fract_y
 _atom_site_fract_z
 _atom_site_occupancy
  Os  Os0  1  0.00000000  0.00000000  0.00000000  1
  Pt  Pt1  1  0.60286900  0.60286900  0.60286900  1
  Pt  Pt2  1  0.20095600  0.20095600  0.20095600  1
  Pt  Pt3  1  0.79904400  0.79904400  0.79904400  1
  Pt  Pt4  1  0.39713100  0.39713100  0.39713100  1
