# generated using pymatgen
data_P3Pb5O12F
_symmetry_space_group_name_H-M   'P 1'
_cell_length_a   9.90560426
_cell_length_b   9.90560426
_cell_length_c   7.36210500
_cell_angle_alpha   90.00000000
_cell_angle_beta   90.00000000
_cell_angle_gamma   120.00000171
_symmetry_Int_Tables_number   1
_chemical_formula_structural   P3Pb5O12F
_chemical_formula_sum   'P6 Pb10 O24 F2'
_cell_volume   625.59688548
_cell_formula_units_Z   2
loop_
 _symmetry_equiv_pos_site_id
 _symmetry_equiv_pos_as_xyz
  1  'x, y, z'
loop_
 _atom_site_type_symbol
 _atom_site_label
 _atom_site_symmetry_multiplicity
 _atom_site_fract_x
 _atom_site_fract_y
 _atom_site_fract_z
 _atom_site_occupancy
  P  P0  1  0.02380600  0.61898000  0.75019400  1
  P  P1  1  0.59517400  0.97619400  0.75019400  1
  P  P2  1  0.38102000  0.40482600  0.75019400  1
  P  P3  1  0.97619400  0.38102000  0.25019400  1
  P  P4  1  0.40482600  0.02380600  0.25019400  1
  P  P5  1  0.61898000  0.59517400  0.25019400  1
  Pb  Pb6  1  0.23049000  0.99425800  0.74811200  1
  Pb  Pb7  1  0.76376800  0.76951000  0.74811200  1
  Pb  Pb8  1  0.00574200  0.23623200  0.74811200  1
  Pb  Pb9  1  0.76951000  0.00574200  0.24811200  1
  Pb  Pb10  1  0.23623200  0.23049000  0.24811200  1
  Pb  Pb11  1  0.99425800  0.76376800  0.24811200  1
  Pb  Pb12  1  0.66666700  0.33333300  0.99811600  1
  Pb  Pb13  1  0.33333300  0.66666700  0.49811600  1
  Pb  Pb14  1  0.33333300  0.66666700  0.00220900  1
  Pb  Pb15  1  0.66666700  0.33333300  0.50220900  1
  O  O16  1  0.08266700  0.72756800  0.92069400  1
  O  O17  1  0.64490100  0.91733300  0.92069400  1
  O  O18  1  0.27243200  0.35509900  0.92069400  1
  O  O19  1  0.91733300  0.27243200  0.42069400  1
  O  O20  1  0.35509900  0.08266700  0.42069400  1
  O  O21  1  0.72756800  0.64490100  0.42069400  1
  O  O22  1  0.91629600  0.27212600  0.08042300  1
  O  O23  1  0.35582900  0.08370400  0.08042300  1
  O  O24  1  0.72787400  0.64417100  0.08042300  1
  O  O25  1  0.08370400  0.72787400  0.58042300  1
  O  O26  1  0.64417100  0.91629600  0.58042300  1
  O  O27  1  0.27212600  0.35582900  0.58042300  1
  O  O28  1  0.10115000  0.51406100  0.75015600  1
  O  O29  1  0.41291100  0.89885000  0.75015600  1
  O  O30  1  0.48593900  0.58708900  0.75015600  1
  O  O31  1  0.89885000  0.48593900  0.25015600  1
  O  O32  1  0.58708900  0.10115000  0.25015600  1
  O  O33  1  0.51406100  0.41291100  0.25015600  1
  O  O34  1  0.84322600  0.51687600  0.74991400  1
  O  O35  1  0.67365000  0.15677400  0.74991400  1
  O  O36  1  0.48312400  0.32635000  0.74991400  1
  O  O37  1  0.15677400  0.48312400  0.24991400  1
  O  O38  1  0.32635000  0.84322600  0.24991400  1
  O  O39  1  0.51687600  0.67365000  0.24991400  1
  F  F40  1  0.00000000  0.00000000  0.54019700  1
  F  F41  1  0.00000000  0.00000000  0.04019700  1
