# generated using pymatgen
data_Pr2Fe20Si2C
_symmetry_space_group_name_H-M   'P 1'
_cell_length_a   6.40427092
_cell_length_b   7.84950880
_cell_length_c   7.82353283
_cell_angle_alpha   100.50573759
_cell_angle_beta   114.30048538
_cell_angle_gamma   65.60666027
_symmetry_Int_Tables_number   1
_chemical_formula_structural   Pr2Fe20Si2C
_chemical_formula_sum   'Pr2 Fe20 Si2 C1'
_cell_volume   326.41204224
_cell_formula_units_Z   1
loop_
 _symmetry_equiv_pos_site_id
 _symmetry_equiv_pos_as_xyz
  1  'x, y, z'
loop_
 _atom_site_type_symbol
 _atom_site_label
 _atom_site_symmetry_multiplicity
 _atom_site_fract_x
 _atom_site_fract_y
 _atom_site_fract_z
 _atom_site_occupancy
  Pr  Pr0  1  0.37418500  0.75106200  0.25410500  1
  Pr  Pr1  1  0.62581500  0.24893800  0.74589500  1
  Fe  Fe2  1  0.17737800  0.58291200  0.82530800  1
  Fe  Fe3  1  0.43442700  0.32351600  0.08065300  1
  Fe  Fe4  1  0.26977300  0.41963700  0.33153900  1
  Fe  Fe5  1  0.85620300  0.83265700  0.91774000  1
  Fe  Fe6  1  0.19093300  0.16762900  0.42137300  1
  Fe  Fe7  1  0.43751800  0.91949200  0.67113200  1
  Fe  Fe8  1  0.25787300  0.67598800  0.57736100  1
  Fe  Fe9  1  0.85724900  0.07862500  0.17470000  1
  Fe  Fe10  1  0.82262200  0.41708800  0.17469200  1
  Fe  Fe11  1  0.56557300  0.67648400  0.91934700  1
  Fe  Fe12  1  0.73022700  0.58036300  0.66846100  1
  Fe  Fe13  1  0.14379700  0.16734300  0.08226000  1
  Fe  Fe14  1  0.80906700  0.83237100  0.57862700  1
  Fe  Fe15  1  0.56248200  0.08050800  0.32886800  1
  Fe  Fe16  1  0.74212700  0.32401200  0.42263900  1
  Fe  Fe17  1  0.14275100  0.92137500  0.82530000  1
  Fe  Fe18  1  0.12308200  0.24807700  0.74877900  1
  Fe  Fe19  1  0.87691800  0.75192300  0.25122100  1
  Fe  Fe20  1  0.00000000  0.50000000  0.00000000  1
  Fe  Fe21  1  0.00000000  0.50000000  0.50000000  1
  Si  Si22  1  0.50000000  0.00000000  0.00000000  1
  Si  Si23  1  0.00000000  0.00000000  0.50000000  1
  C  C24  1  0.50000000  0.50000000  0.00000000  1
