# generated using pymatgen
data_P2Pb3O8
_symmetry_space_group_name_H-M   'P 1'
_cell_length_a   9.92769742
_cell_length_b   9.92769742
_cell_length_c   7.35007300
_cell_angle_alpha   90.00000000
_cell_angle_beta   90.00000000
_cell_angle_gamma   119.99999614
_symmetry_Int_Tables_number   1
_chemical_formula_structural   P2Pb3O8
_chemical_formula_sum   'P6 Pb9 O24'
_cell_volume   627.36366969
_cell_formula_units_Z   3
loop_
 _symmetry_equiv_pos_site_id
 _symmetry_equiv_pos_as_xyz
  1  'x, y, z'
loop_
 _atom_site_type_symbol
 _atom_site_label
 _atom_site_symmetry_multiplicity
 _atom_site_fract_x
 _atom_site_fract_y
 _atom_site_fract_z
 _atom_site_occupancy
  P  P0  1  0.60741000  0.98086100  0.25195900  1
  P  P1  1  0.37345100  0.39259000  0.25195900  1
  P  P2  1  0.01913900  0.62654900  0.25195900  1
  P  P3  1  0.39567300  0.01996500  0.75113700  1
  P  P4  1  0.62429200  0.60432700  0.75113700  1
  P  P5  1  0.98003500  0.37570800  0.75113700  1
  Pb  Pb6  1  0.74670900  0.73620600  0.24360100  1
  Pb  Pb7  1  0.98949600  0.25329100  0.24360100  1
  Pb  Pb8  1  0.26379400  0.01050400  0.24360100  1
  Pb  Pb9  1  0.25907300  0.25404800  0.75468800  1
  Pb  Pb10  1  0.99497600  0.74092700  0.75468800  1
  Pb  Pb11  1  0.74595200  0.00502400  0.75468800  1
  Pb  Pb12  1  0.66666700  0.33333300  0.48527500  1
  Pb  Pb13  1  0.33333300  0.66666700  0.99725500  1
  Pb  Pb14  1  0.33333300  0.66666700  0.50243900  1
  O  O15  1  0.42418000  0.90564000  0.24978400  1
  O  O16  1  0.48145900  0.57582000  0.24978400  1
  O  O17  1  0.09436000  0.51854100  0.24978400  1
  O  O18  1  0.57499800  0.09228500  0.74638900  1
  O  O19  1  0.51728700  0.42500200  0.74638900  1
  O  O20  1  0.90771500  0.48271300  0.74638900  1
  O  O21  1  0.68852500  0.15975500  0.25593400  1
  O  O22  1  0.47123000  0.31147500  0.25593400  1
  O  O23  1  0.84024500  0.52877000  0.25593400  1
  O  O24  1  0.31633300  0.83734500  0.75069500  1
  O  O25  1  0.52101100  0.68366700  0.75069500  1
  O  O26  1  0.16265500  0.47898900  0.75069500  1
  O  O27  1  0.64938100  0.91363200  0.42072800  1
  O  O28  1  0.26425100  0.35061900  0.42072800  1
  O  O29  1  0.08636800  0.73574900  0.42072800  1
  O  O30  1  0.33722000  0.07233600  0.91778200  1
  O  O31  1  0.73511600  0.66278000  0.91778200  1
  O  O32  1  0.92766400  0.26488400  0.91778200  1
  O  O33  1  0.34756000  0.08056200  0.58055400  1
  O  O34  1  0.73300200  0.65244000  0.58055400  1
  O  O35  1  0.91943800  0.26699800  0.58055400  1
  O  O36  1  0.65168500  0.91874800  0.07996900  1
  O  O37  1  0.26706300  0.34831500  0.07996900  1
  O  O38  1  0.08125200  0.73293700  0.07996900  1
