# generated using pymatgen
data_NdZrNO2
_symmetry_space_group_name_H-M   'P 1'
_cell_length_a   5.95500500
_cell_length_b   5.76623400
_cell_length_c   9.98562589
_cell_angle_alpha   55.43193496
_cell_angle_beta   90.00000000
_cell_angle_gamma   90.00000000
_symmetry_Int_Tables_number   1
_chemical_formula_structural   NdZrNO2
_chemical_formula_sum   'Nd4 Zr4 N4 O8'
_cell_volume   282.35037135
_cell_formula_units_Z   4
loop_
 _symmetry_equiv_pos_site_id
 _symmetry_equiv_pos_as_xyz
  1  'x, y, z'
loop_
 _atom_site_type_symbol
 _atom_site_label
 _atom_site_symmetry_multiplicity
 _atom_site_fract_x
 _atom_site_fract_y
 _atom_site_fract_z
 _atom_site_occupancy
  Nd  Nd0  1  0.44892900  0.77927600  0.74194600  1
  Nd  Nd1  1  0.94892900  0.22072400  0.75805400  1
  Nd  Nd2  1  0.55107100  0.22072400  0.25805400  1
  Nd  Nd3  1  0.05107100  0.77927600  0.24194600  1
  Zr  Zr4  1  0.00000000  0.50000000  0.00000000  1
  Zr  Zr5  1  0.50000000  0.50000000  0.50000000  1
  Zr  Zr6  1  0.00000000  0.00000000  0.50000000  1
  Zr  Zr7  1  0.50000000  0.00000000  0.00000000  1
  N  N8  1  0.20442500  0.85468500  0.94151600  1
  N  N9  1  0.70442500  0.14531500  0.55848400  1
  N  N10  1  0.79557500  0.14531500  0.05848400  1
  N  N11  1  0.29557500  0.85468500  0.44151600  1
  O  O12  1  0.04116100  0.63373200  0.75006000  1
  O  O13  1  0.54116100  0.36626800  0.74994000  1
  O  O14  1  0.95883900  0.36626800  0.24994000  1
  O  O15  1  0.45883900  0.63373200  0.25006000  1
  O  O16  1  0.79292200  0.77303900  0.43353700  1
  O  O17  1  0.29292200  0.22696100  0.06646300  1
  O  O18  1  0.20707800  0.22696100  0.56646300  1
  O  O19  1  0.70707800  0.77303900  0.93353700  1
