# generated using pymatgen
data_NdMn5(CuO6)2
_symmetry_space_group_name_H-M   'P 1'
_cell_length_a   6.50002486
_cell_length_b   6.50002486
_cell_length_c   6.50002486
_cell_angle_alpha   110.61949185
_cell_angle_beta   109.34667822
_cell_angle_gamma   108.45481840
_symmetry_Int_Tables_number   1
_chemical_formula_structural   NdMn5(CuO6)2
_chemical_formula_sum   'Nd1 Mn5 Cu2 O12'
_cell_volume   211.33248462
_cell_formula_units_Z   1
loop_
 _symmetry_equiv_pos_site_id
 _symmetry_equiv_pos_as_xyz
  1  'x, y, z'
loop_
 _atom_site_type_symbol
 _atom_site_label
 _atom_site_symmetry_multiplicity
 _atom_site_fract_x
 _atom_site_fract_y
 _atom_site_fract_z
 _atom_site_occupancy
  Nd  Nd0  1  0.00000000  0.00000000  0.00000000  1
  Mn  Mn1  1  0.00000000  0.50000000  0.00000000  1
  Mn  Mn2  1  0.50000000  0.50000000  0.50000000  1
  Mn  Mn3  1  0.00000000  0.00000000  0.50000000  1
  Mn  Mn4  1  0.50000000  0.00000000  0.00000000  1
  Mn  Mn5  1  0.50000000  0.50000000  0.00000000  1
  Cu  Cu6  1  0.50000000  0.00000000  0.50000000  1
  Cu  Cu7  1  0.00000000  0.50000000  0.50000000  1
  O  O8  1  0.31234900  0.82389100  0.13624000  1
  O  O9  1  0.31234900  0.17610900  0.48845700  1
  O  O10  1  0.68765100  0.82389100  0.51154300  1
  O  O11  1  0.68765100  0.17610900  0.86376000  1
  O  O12  1  0.16867600  0.86388800  0.69521100  1
  O  O13  1  0.83132400  0.52653500  0.69521100  1
  O  O14  1  0.16867600  0.47346500  0.30478900  1
  O  O15  1  0.83132400  0.13611200  0.30478900  1
  O  O16  1  0.47372000  0.30210200  0.17161800  1
  O  O17  1  0.13048400  0.30210200  0.82838200  1
  O  O18  1  0.86951600  0.69789800  0.17161800  1
  O  O19  1  0.52628000  0.69789800  0.82838200  1
