# generated using pymatgen
data_Hf2Bi
_symmetry_space_group_name_H-M   'P 1'
_cell_length_a   6.34586290
_cell_length_b   6.34586290
_cell_length_c   6.66700037
_cell_angle_alpha   70.33906474
_cell_angle_beta   70.33906474
_cell_angle_gamma   34.59436046
_symmetry_Int_Tables_number   1
_chemical_formula_structural   Hf2Bi
_chemical_formula_sum   'Hf4 Bi2'
_cell_volume   142.65482957
_cell_formula_units_Z   2
loop_
 _symmetry_equiv_pos_site_id
 _symmetry_equiv_pos_as_xyz
  1  'x, y, z'
loop_
 _atom_site_type_symbol
 _atom_site_label
 _atom_site_symmetry_multiplicity
 _atom_site_fract_x
 _atom_site_fract_y
 _atom_site_fract_z
 _atom_site_occupancy
  Hf  Hf0  1  0.16393500  0.16393500  0.91024100  1
  Hf  Hf1  1  0.83606500  0.83606500  0.08975900  1
  Hf  Hf2  1  0.49672200  0.49672200  0.23509400  1
  Hf  Hf3  1  0.50327800  0.50327800  0.76490600  1
  Bi  Bi4  1  0.84313900  0.84313900  0.60847400  1
  Bi  Bi5  1  0.15686100  0.15686100  0.39152600  1
