# generated using pymatgen
data_Pr9Ga5Se21
_symmetry_space_group_name_H-M   'P 1'
_cell_length_a   12.34003252
_cell_length_b   12.34003252
_cell_length_c   12.34003254
_cell_angle_alpha   96.15945099
_cell_angle_beta   96.15945099
_cell_angle_gamma   96.15945166
_symmetry_Int_Tables_number   1
_chemical_formula_structural   Pr9Ga5Se21
_chemical_formula_sum   'Pr18 Ga10 Se42'
_cell_volume   1843.99756697
_cell_formula_units_Z   2
loop_
 _symmetry_equiv_pos_site_id
 _symmetry_equiv_pos_as_xyz
  1  'x, y, z'
loop_
 _atom_site_type_symbol
 _atom_site_label
 _atom_site_symmetry_multiplicity
 _atom_site_fract_x
 _atom_site_fract_y
 _atom_site_fract_z
 _atom_site_occupancy
  Pr  Pr0  1  0.11534300  0.88173400  0.74466100  1
  Pr  Pr1  1  0.45505600  0.22154300  0.08127800  1
  Pr  Pr2  1  0.78166600  0.55198500  0.40960500  1
  Pr  Pr3  1  0.40960500  0.78166600  0.55198500  1
  Pr  Pr4  1  0.74466100  0.11534300  0.88173400  1
  Pr  Pr5  1  0.08127800  0.45505600  0.22154300  1
  Pr  Pr6  1  0.22154300  0.08127800  0.45505600  1
  Pr  Pr7  1  0.55198500  0.40960500  0.78166600  1
  Pr  Pr8  1  0.88173400  0.74466100  0.11534300  1
  Pr  Pr9  1  0.21275400  0.44468900  0.58333100  1
  Pr  Pr10  1  0.55027900  0.78288900  0.92439100  1
  Pr  Pr11  1  0.88036400  0.11215800  0.25198500  1
  Pr  Pr12  1  0.92439100  0.55027900  0.78288900  1
  Pr  Pr13  1  0.25198500  0.88036400  0.11215800  1
  Pr  Pr14  1  0.58333100  0.21275400  0.44468900  1
  Pr  Pr15  1  0.11215800  0.25198500  0.88036400  1
  Pr  Pr16  1  0.44468900  0.58333100  0.21275400  1
  Pr  Pr17  1  0.78288900  0.92439100  0.55027900  1
  Ga  Ga18  1  0.72199400  0.38878200  0.05466100  1
  Ga  Ga19  1  0.05466100  0.72199400  0.38878200  1
  Ga  Ga20  1  0.38878200  0.05466100  0.72199400  1
  Ga  Ga21  1  0.88799500  0.22286500  0.55470100  1
  Ga  Ga22  1  0.22286500  0.55470100  0.88799500  1
  Ga  Ga23  1  0.55470100  0.88799500  0.22286500  1
  Ga  Ga24  1  0.85303100  0.85303100  0.85303100  1
  Ga  Ga25  1  0.15401800  0.15401800  0.15401800  1
  Ga  Ga26  1  0.65376500  0.65376500  0.65376500  1
  Ga  Ga27  1  0.35301500  0.35301500  0.35301500  1
  Se  Se28  1  0.55163100  0.39476100  0.30335900  1
  Se  Se29  1  0.88555900  0.74243000  0.65335800  1
  Se  Se30  1  0.22977600  0.08071300  0.98518200  1
  Se  Se31  1  0.98518200  0.22977600  0.08071300  1
  Se  Se32  1  0.30335900  0.55163100  0.39476100  1
  Se  Se33  1  0.65335800  0.88555900  0.74243000  1
  Se  Se34  1  0.74243000  0.65335800  0.88555900  1
  Se  Se35  1  0.08071300  0.98518200  0.22977600  1
  Se  Se36  1  0.39476100  0.30335900  0.55163100  1
  Se  Se37  1  0.13538000  0.27919700  0.36717700  1
  Se  Se38  1  0.46713300  0.61596100  0.71208900  1
  Se  Se39  1  0.78144000  0.93847100  0.02974800  1
  Se  Se40  1  0.71208900  0.46713300  0.61596100  1
  Se  Se41  1  0.02974800  0.78144000  0.93847100  1
  Se  Se42  1  0.36717700  0.13538000  0.27919700  1
  Se  Se43  1  0.93847100  0.02974800  0.78144000  1
  Se  Se44  1  0.27919700  0.36717700  0.13538000  1
  Se  Se45  1  0.61596100  0.71208900  0.46713300  1
  Se  Se46  1  0.54080100  0.44857800  0.02134600  1
  Se  Se47  1  0.87413900  0.78157900  0.35862000  1
  Se  Se48  1  0.20501000  0.11009800  0.69589900  1
  Se  Se49  1  0.69589900  0.20501000  0.11009800  1
  Se  Se50  1  0.02134600  0.54080100  0.44857800  1
  Se  Se51  1  0.35862000  0.87413900  0.78157900  1
  Se  Se52  1  0.78157900  0.35862000  0.87413900  1
  Se  Se53  1  0.11009800  0.69589900  0.20501000  1
  Se  Se54  1  0.44857800  0.02134600  0.54080100  1
  Se  Se55  1  0.96825300  0.06417400  0.47941900  1
  Se  Se56  1  0.30171900  0.39413800  0.81441800  1
  Se  Se57  1  0.63436300  0.72563700  0.15459500  1
  Se  Se58  1  0.81441800  0.30171900  0.39413800  1
  Se  Se59  1  0.15459500  0.63436300  0.72563700  1
  Se  Se60  1  0.47941900  0.96825300  0.06417400  1
  Se  Se61  1  0.72563700  0.15459500  0.63436300  1
  Se  Se62  1  0.06417400  0.47941900  0.96825300  1
  Se  Se63  1  0.39413800  0.81441800  0.30171900  1
  Se  Se64  1  0.84641500  0.51544500  0.18131600  1
  Se  Se65  1  0.18131600  0.84641500  0.51544500  1
  Se  Se66  1  0.51544500  0.18131600  0.84641500  1
  Se  Se67  1  0.68085800  0.01589800  0.34656400  1
  Se  Se68  1  0.01589800  0.34656400  0.68085800  1
  Se  Se69  1  0.34656400  0.68085800  0.01589800  1
