# generated using pymatgen
data_Nd5CoSi2
_symmetry_space_group_name_H-M   'P 1'
_cell_length_a   8.82698000
_cell_length_b   8.78875006
_cell_length_c   7.86403847
_cell_angle_alpha   63.73519780
_cell_angle_beta   63.23671519
_cell_angle_gamma   53.02808702
_symmetry_Int_Tables_number   1
_chemical_formula_structural   Nd5CoSi2
_chemical_formula_sum   'Nd10 Co2 Si4'
_cell_volume   422.40136647
_cell_formula_units_Z   2
loop_
 _symmetry_equiv_pos_site_id
 _symmetry_equiv_pos_as_xyz
  1  'x, y, z'
loop_
 _atom_site_type_symbol
 _atom_site_label
 _atom_site_symmetry_multiplicity
 _atom_site_fract_x
 _atom_site_fract_y
 _atom_site_fract_z
 _atom_site_occupancy
  Nd  Nd0  1  0.00000000  0.00000000  0.50000000  1
  Nd  Nd1  1  0.50000000  0.50000000  0.00000000  1
  Nd  Nd2  1  0.19429600  0.52265400  0.80570400  1
  Nd  Nd3  1  0.52265400  0.19429600  0.47734600  1
  Nd  Nd4  1  0.03543200  0.67605100  0.32394900  1
  Nd  Nd5  1  0.67605100  0.03543200  0.96456800  1
  Nd  Nd6  1  0.80570400  0.47734600  0.19429600  1
  Nd  Nd7  1  0.47734600  0.80570400  0.52265400  1
  Nd  Nd8  1  0.96456800  0.32394900  0.67605100  1
  Nd  Nd9  1  0.32394900  0.96456800  0.03543200  1
  Co  Co10  1  0.38384000  0.61616000  0.38384000  1
  Co  Co11  1  0.61616000  0.38384000  0.61616000  1
  Si  Si12  1  0.75000000  0.75000000  0.75000000  1
  Si  Si13  1  0.25000000  0.25000000  0.25000000  1
  Si  Si14  1  0.11549000  0.88451000  0.88451000  1
  Si  Si15  1  0.88451000  0.11549000  0.11549000  1
