# generated using pymatgen
data_RbNa2V5H10O19
_symmetry_space_group_name_H-M   'P 1'
_cell_length_a   8.56897357
_cell_length_b   10.30220982
_cell_length_c   11.50500483
_cell_angle_alpha   69.10943628
_cell_angle_beta   86.92896313
_cell_angle_gamma   66.73574376
_symmetry_Int_Tables_number   1
_chemical_formula_structural   RbNa2V5H10O19
_chemical_formula_sum   'Rb2 Na4 V10 H20 O38'
_cell_volume   867.21977873
_cell_formula_units_Z   2
loop_
 _symmetry_equiv_pos_site_id
 _symmetry_equiv_pos_as_xyz
  1  'x, y, z'
loop_
 _atom_site_type_symbol
 _atom_site_label
 _atom_site_symmetry_multiplicity
 _atom_site_fract_x
 _atom_site_fract_y
 _atom_site_fract_z
 _atom_site_occupancy
  Rb  Rb0  1  0.72973100  0.17832900  0.07019400  1
  Rb  Rb1  1  0.27026900  0.82167100  0.92980600  1
  Na  Na2  1  0.93602000  0.66875100  0.87129600  1
  Na  Na3  1  0.06398000  0.33124900  0.12870400  1
  Na  Na4  1  0.82377000  0.76305000  0.56399700  1
  Na  Na5  1  0.17623000  0.23695000  0.43600300  1
  V  V6  1  0.83619500  0.21554000  0.71684500  1
  V  V7  1  0.16380500  0.78446000  0.28315500  1
  V  V8  1  0.62173600  0.20359900  0.50877800  1
  V  V9  1  0.37826400  0.79640100  0.49122200  1
  V  V10  1  0.47014300  0.20921900  0.76668900  1
  V  V11  1  0.52985700  0.79078200  0.23331100  1
  V  V12  1  0.68947800  0.50084300  0.47748400  1
  V  V13  1  0.31052200  0.49915700  0.52251600  1
  V  V14  1  0.46929400  0.49449900  0.26597700  1
  V  V15  1  0.53070600  0.50550100  0.73402300  1
  H  H16  1  0.58973300  0.76789100  0.74749100  1
  H  H17  1  0.41026700  0.23210900  0.25250900  1
  H  H18  1  0.89562700  0.82333200  0.06113900  1
  H  H19  1  0.10437300  0.17666800  0.93886100  1
  H  H20  1  0.30353800  0.45931600  0.05303700  1
  H  H21  1  0.69646200  0.54068400  0.94696300  1
  H  H22  1  0.13495100  0.77746500  0.66168000  1
  H  H23  1  0.86504900  0.22253500  0.33832000  1
  H  H24  1  0.60057500  0.92813800  0.70161000  1
  H  H25  1  0.39942500  0.07186200  0.29839000  1
  H  H26  1  0.89467100  0.46914700  0.75365500  1
  H  H27  1  0.10532900  0.53085300  0.24634500  1
  H  H28  1  0.07404500  0.46345400  0.71242000  1
  H  H29  1  0.92595500  0.53654600  0.28758000  1
  H  H30  1  0.83413900  0.93467000  0.92309300  1
  H  H31  1  0.16586100  0.06533000  0.07690700  1
  H  H32  1  0.29110700  0.43316100  0.92936500  1
  H  H33  1  0.70889300  0.56683900  0.07063500  1
  H  H34  1  0.98020400  0.93129500  0.65691700  1
  H  H35  1  0.01979600  0.06870500  0.34308300  1
  O  O36  1  0.82838900  0.12652600  0.60153400  1
  O  O37  1  0.17161100  0.87347400  0.39846600  1
  O  O38  1  0.92114900  0.83445600  0.97514700  1
  O  O39  1  0.07885100  0.16554400  0.02485400  1
  O  O40  1  0.51461800  0.12515000  0.64237200  1
  O  O41  1  0.48538200  0.87485000  0.35762800  1
  O  O42  1  0.02944100  0.81941300  0.69840000  1
  O  O43  1  0.97055900  0.18058700  0.30160000  1
  O  O44  1  0.55473800  0.63044600  0.17320900  1
  O  O45  1  0.44526200  0.36955400  0.82679100  1
  O  O46  1  0.73616600  0.62934700  0.34884200  1
  O  O47  1  0.26383400  0.37065300  0.65115800  1
  O  O48  1  0.60947000  0.62977800  0.57282900  1
  O  O49  1  0.39053000  0.37022200  0.42717100  1
  O  O50  1  0.56766900  0.38137400  0.60308600  1
  O  O51  1  0.43233100  0.61862600  0.39691400  1
  O  O52  1  0.39065800  0.10317700  0.86980200  1
  O  O53  1  0.60934200  0.89682300  0.13019800  1
  O  O54  1  0.96867000  0.52584400  0.73913200  1
  O  O55  1  0.03133000  0.47415600  0.26086800  1
  O  O56  1  0.21979600  0.47480600  0.98896400  1
  O  O57  1  0.78020400  0.52519400  0.01103600  1
  O  O58  1  0.49340200  0.38501600  0.18296300  1
  O  O59  1  0.50659800  0.61498400  0.81703700  1
  O  O60  1  0.24360400  0.62540200  0.21926600  1
  O  O61  1  0.75639600  0.37459800  0.78073400  1
  O  O62  1  0.66142800  0.08729700  0.43363600  1
  O  O63  1  0.33857200  0.91270300  0.56636400  1
  O  O64  1  0.67888600  0.37185300  0.38701100  1
  O  O65  1  0.32111400  0.62814700  0.61298900  1
  O  O66  1  0.88096600  0.37113100  0.56427600  1
  O  O67  1  0.11903400  0.62886900  0.43572400  1
  O  O68  1  0.70419200  0.12382400  0.81999000  1
  O  O69  1  0.29580800  0.87617600  0.18001000  1
  O  O70  1  0.67031900  0.81713700  0.73216100  1
  O  O71  1  0.32968100  0.18286300  0.26783900  1
  O  O72  1  0.03025800  0.11510500  0.78689200  1
  O  O73  1  0.96974200  0.88489500  0.21310800  1
