# generated using pymatgen
data_Nd6S3(OF4)2
_symmetry_space_group_name_H-M   'P 1'
_cell_length_a   3.87588800
_cell_length_b   13.58586900
_cell_length_c   13.68009861
_cell_angle_alpha   60.27058079
_cell_angle_beta   90.00000000
_cell_angle_gamma   90.00000000
_symmetry_Int_Tables_number   1
_chemical_formula_structural   Nd6S3(OF4)2
_chemical_formula_sum   'Nd12 S6 O4 F16'
_cell_volume   625.54157890
_cell_formula_units_Z   2
loop_
 _symmetry_equiv_pos_site_id
 _symmetry_equiv_pos_as_xyz
  1  'x, y, z'
loop_
 _atom_site_type_symbol
 _atom_site_label
 _atom_site_symmetry_multiplicity
 _atom_site_fract_x
 _atom_site_fract_y
 _atom_site_fract_z
 _atom_site_occupancy
  Nd  Nd0  1  0.50000000  0.05540600  0.22684600  1
  Nd  Nd1  1  0.50000000  0.71783500  0.05635000  1
  Nd  Nd2  1  0.50000000  0.23656000  0.71222300  1
  Nd  Nd3  1  0.00000000  0.94728100  0.76230900  1
  Nd  Nd4  1  0.00000000  0.29149800  0.94607700  1
  Nd  Nd5  1  0.00000000  0.76336000  0.29294700  1
  Nd  Nd6  1  0.50000000  0.38845700  0.13817600  1
  Nd  Nd7  1  0.50000000  0.47358800  0.39674400  1
  Nd  Nd8  1  0.50000000  0.13784000  0.47657100  1
  Nd  Nd9  1  0.00000000  0.60200200  0.86028600  1
  Nd  Nd10  1  0.00000000  0.52462400  0.60179200  1
  Nd  Nd11  1  0.00000000  0.85756700  0.53628300  1
  S  S12  1  0.50000000  0.72822300  0.47087200  1
  S  S13  1  0.50000000  0.80254400  0.72191000  1
  S  S14  1  0.50000000  0.47272800  0.80973700  1
  S  S15  1  0.00000000  0.27599600  0.53092000  1
  S  S16  1  0.00000000  0.18691200  0.28072300  1
  S  S17  1  0.00000000  0.53374900  0.18345100  1
  O  O18  1  0.50000000  0.43327700  0.58710600  1
  O  O19  1  0.00000000  0.01692500  0.56500500  1
  O  O20  1  0.00000000  0.41638000  0.02131700  1
  O  O21  1  0.00000000  0.56810000  0.41151400  1
  F  F22  1  0.50000000  0.33394400  0.33330500  1
  F  F23  1  0.00000000  0.66239600  0.66645100  1
  F  F24  1  0.50000000  0.89408500  0.20278700  1
  F  F25  1  0.50000000  0.90203500  0.89230100  1
  F  F26  1  0.50000000  0.20568400  0.90356700  1
  F  F27  1  0.00000000  0.10593400  0.79604200  1
  F  F28  1  0.00000000  0.09625200  0.10386500  1
  F  F29  1  0.00000000  0.80032400  0.09732400  1
  F  F30  1  0.50000000  0.24677600  0.07209600  1
  F  F31  1  0.50000000  0.68294100  0.24738500  1
  F  F32  1  0.50000000  0.06967800  0.68159400  1
  F  F33  1  0.00000000  0.74755500  0.92868300  1
  F  F34  1  0.00000000  0.32054800  0.75393600  1
  F  F35  1  0.00000000  0.93260700  0.32209300  1
  F  F36  1  0.50000000  0.97800200  0.43340100  1
  F  F37  1  0.50000000  0.59038600  0.97601000  1
