# generated using pymatgen
data_NdCoSbPbO6
_symmetry_space_group_name_H-M   'P 1'
_cell_length_a   5.82443800
_cell_length_b   5.64614500
_cell_length_c   9.79315090
_cell_angle_alpha   55.10631918
_cell_angle_beta   90.00000000
_cell_angle_gamma   90.00000000
_symmetry_Int_Tables_number   1
_chemical_formula_structural   NdCoSbPbO6
_chemical_formula_sum   'Nd2 Co2 Sb2 Pb2 O12'
_cell_volume   264.15339289
_cell_formula_units_Z   2
loop_
 _symmetry_equiv_pos_site_id
 _symmetry_equiv_pos_as_xyz
  1  'x, y, z'
loop_
 _atom_site_type_symbol
 _atom_site_label
 _atom_site_symmetry_multiplicity
 _atom_site_fract_x
 _atom_site_fract_y
 _atom_site_fract_z
 _atom_site_occupancy
  Nd  Nd0  1  0.81016100  0.26734200  0.24804000  1
  Nd  Nd1  1  0.18983900  0.26734200  0.74804000  1
  Co  Co2  1  0.73543800  0.50373300  0.49737400  1
  Co  Co3  1  0.26456200  0.50373300  0.99737400  1
  Sb  Sb4  1  0.74104000  0.99923800  0.00127000  1
  Sb  Sb5  1  0.25896000  0.99923800  0.50127000  1
  Pb  Pb6  1  0.72809100  0.74987000  0.74555600  1
  Pb  Pb7  1  0.27190900  0.74987000  0.24555600  1
  O  O8  1  0.43961400  0.65445000  0.55024900  1
  O  O9  1  0.56038600  0.65445000  0.05024900  1
  O  O10  1  0.04262100  0.31296800  0.46449200  1
  O  O11  1  0.95737900  0.31296800  0.96449200  1
  O  O12  1  0.26612500  0.85747700  0.74325100  1
  O  O13  1  0.73387500  0.85747700  0.24325100  1
  O  O14  1  0.21821800  0.17657400  0.25568800  1
  O  O15  1  0.78178200  0.17657400  0.75568800  1
  O  O16  1  0.98080700  0.74683800  0.54238300  1
  O  O17  1  0.01919300  0.74683800  0.04238300  1
  O  O18  1  0.54741800  0.23151000  0.45169600  1
  O  O19  1  0.45258200  0.23151000  0.95169600  1
