# generated using pymatgen
data_Nd3GdAl4O12
_symmetry_space_group_name_H-M   'P 1'
_cell_length_a   7.54896800
_cell_length_b   5.32420400
_cell_length_c   5.36188040
_cell_angle_alpha   89.91148980
_cell_angle_beta   90.00000000
_cell_angle_gamma   90.00000000
_symmetry_Int_Tables_number   1
_chemical_formula_structural   Nd3GdAl4O12
_chemical_formula_sum   'Nd3 Gd1 Al4 O12'
_cell_volume   215.50575680
_cell_formula_units_Z   1
loop_
 _symmetry_equiv_pos_site_id
 _symmetry_equiv_pos_as_xyz
  1  'x, y, z'
loop_
 _atom_site_type_symbol
 _atom_site_label
 _atom_site_symmetry_multiplicity
 _atom_site_fract_x
 _atom_site_fract_y
 _atom_site_fract_z
 _atom_site_occupancy
  Nd  Nd0  1  0.00000000  0.51214600  0.49322800  1
  Nd  Nd1  1  0.00000000  0.01192900  0.00578200  1
  Nd  Nd2  1  0.50000000  0.48815600  0.50545400  1
  Gd  Gd3  1  0.50000000  0.98626800  0.99270400  1
  Al  Al4  1  0.25093400  0.00009400  0.49948500  1
  Al  Al5  1  0.74885200  0.49994100  0.00049000  1
  Al  Al6  1  0.74906600  0.00009400  0.49948500  1
  Al  Al7  1  0.25114800  0.49994100  0.00049000  1
  O  O8  1  0.21559500  0.76176600  0.23934000  1
  O  O9  1  0.78488300  0.26275500  0.26213900  1
  O  O10  1  0.71193500  0.23522800  0.76379200  1
  O  O11  1  0.28703000  0.73998800  0.74079100  1
  O  O12  1  0.28806500  0.23522800  0.76379200  1
  O  O13  1  0.71297000  0.73998800  0.74079100  1
  O  O14  1  0.78440500  0.76176600  0.23934000  1
  O  O15  1  0.21511700  0.26275500  0.26213900  1
  O  O16  1  0.00000000  0.99791200  0.56479000  1
  O  O17  1  0.00000000  0.49754500  0.93439200  1
  O  O18  1  0.50000000  0.00223500  0.42648400  1
  O  O19  1  0.50000000  0.50426700  0.06509200  1
