# generated using pymatgen
data_Nd2Ga7Pd
_symmetry_space_group_name_H-M   'P 1'
_cell_length_a   4.31050900
_cell_length_b   4.31050900
_cell_length_c   10.64550700
_cell_angle_alpha   90.00000000
_cell_angle_beta   90.00000000
_cell_angle_gamma   90.00000000
_symmetry_Int_Tables_number   1
_chemical_formula_structural   Nd2Ga7Pd
_chemical_formula_sum   'Nd2 Ga7 Pd1'
_cell_volume   197.79871335
_cell_formula_units_Z   1
loop_
 _symmetry_equiv_pos_site_id
 _symmetry_equiv_pos_as_xyz
  1  'x, y, z'
loop_
 _atom_site_type_symbol
 _atom_site_label
 _atom_site_symmetry_multiplicity
 _atom_site_fract_x
 _atom_site_fract_y
 _atom_site_fract_z
 _atom_site_occupancy
  Nd  Nd0  1  0.50000000  0.00000000  0.75136400  1
  Nd  Nd1  1  0.00000000  0.50000000  0.24863600  1
  Ga  Ga2  1  0.00000000  0.50000000  0.86867800  1
  Ga  Ga3  1  0.50000000  0.00000000  0.36361300  1
  Ga  Ga4  1  0.50000000  0.00000000  0.13132200  1
  Ga  Ga5  1  0.00000000  0.50000000  0.63638700  1
  Ga  Ga6  1  0.00000000  0.00000000  0.50000000  1
  Ga  Ga7  1  0.00000000  0.00000000  0.00000000  1
  Ga  Ga8  1  0.50000000  0.50000000  0.50000000  1
  Pd  Pd9  1  0.50000000  0.50000000  0.00000000  1
