# generated using pymatgen
data_NbVB4
_symmetry_space_group_name_H-M   'P 1'
_cell_length_a   3.06819764
_cell_length_b   3.06819764
_cell_length_c   6.35106100
_cell_angle_alpha   90.00000000
_cell_angle_beta   90.00000000
_cell_angle_gamma   119.99999231
_symmetry_Int_Tables_number   1
_chemical_formula_structural   NbVB4
_chemical_formula_sum   'Nb1 V1 B4'
_cell_volume   51.77780236
_cell_formula_units_Z   1
loop_
 _symmetry_equiv_pos_site_id
 _symmetry_equiv_pos_as_xyz
  1  'x, y, z'
loop_
 _atom_site_type_symbol
 _atom_site_label
 _atom_site_symmetry_multiplicity
 _atom_site_fract_x
 _atom_site_fract_y
 _atom_site_fract_z
 _atom_site_occupancy
  Nb  Nb0  1  0.00000000  0.00000000  0.00000000  1
  V  V1  1  0.00000000  0.00000000  0.50000000  1
  B  B2  1  0.66666700  0.33333300  0.73479700  1
  B  B3  1  0.66666700  0.33333300  0.26520300  1
  B  B4  1  0.33333300  0.66666700  0.73479700  1
  B  B5  1  0.33333300  0.66666700  0.26520300  1
