# generated using pymatgen
data_NbAu4
_symmetry_space_group_name_H-M   'P 1'
_cell_length_a   12.17136294
_cell_length_b   12.17136294
_cell_length_c   12.17136276
_cell_angle_alpha   13.88452765
_cell_angle_beta   13.88452765
_cell_angle_gamma   13.88452990
_symmetry_Int_Tables_number   1
_chemical_formula_structural   NbAu4
_chemical_formula_sum   'Nb1 Au4'
_cell_volume   90.35815353
_cell_formula_units_Z   1
loop_
 _symmetry_equiv_pos_site_id
 _symmetry_equiv_pos_as_xyz
  1  'x, y, z'
loop_
 _atom_site_type_symbol
 _atom_site_label
 _atom_site_symmetry_multiplicity
 _atom_site_fract_x
 _atom_site_fract_y
 _atom_site_fract_z
 _atom_site_occupancy
  Nb  Nb0  1  0.00000000  0.00000000  0.00000000  1
  Au  Au1  1  0.60129800  0.60129800  0.60129800  1
  Au  Au2  1  0.20027100  0.20027100  0.20027100  1
  Au  Au3  1  0.79972900  0.79972900  0.79972900  1
  Au  Au4  1  0.39870200  0.39870200  0.39870200  1
