# generated using pymatgen
data_NbVC2
_symmetry_space_group_name_H-M   'P 1'
_cell_length_a   5.31511966
_cell_length_b   5.31511966
_cell_length_c   5.31512038
_cell_angle_alpha   33.75752184
_cell_angle_beta   33.75752184
_cell_angle_gamma   33.75752960
_symmetry_Int_Tables_number   1
_chemical_formula_structural   NbVC2
_chemical_formula_sum   'Nb1 V1 C2'
_cell_volume   41.31180197
_cell_formula_units_Z   1
loop_
 _symmetry_equiv_pos_site_id
 _symmetry_equiv_pos_as_xyz
  1  'x, y, z'
loop_
 _atom_site_type_symbol
 _atom_site_label
 _atom_site_symmetry_multiplicity
 _atom_site_fract_x
 _atom_site_fract_y
 _atom_site_fract_z
 _atom_site_occupancy
  Nb  Nb0  1  0.00000000  0.00000000  0.00000000  1
  V  V1  1  0.50000000  0.50000000  0.50000000  1
  C  C2  1  0.75557500  0.75557500  0.75557500  1
  C  C3  1  0.24442500  0.24442500  0.24442500  1
