# generated using pymatgen
data_Nd3AlSi5N10O
_symmetry_space_group_name_H-M   'P 1'
_cell_length_a   4.93033111
_cell_length_b   10.20013192
_cell_length_c   10.21005500
_cell_angle_alpha   90.00000000
_cell_angle_beta   90.00000000
_cell_angle_gamma   89.74637774
_symmetry_Int_Tables_number   1
_chemical_formula_structural   Nd3AlSi5N10O
_chemical_formula_sum   'Nd6 Al2 Si10 N20 O2'
_cell_volume   513.45891823
_cell_formula_units_Z   2
loop_
 _symmetry_equiv_pos_site_id
 _symmetry_equiv_pos_as_xyz
  1  'x, y, z'
loop_
 _atom_site_type_symbol
 _atom_site_label
 _atom_site_symmetry_multiplicity
 _atom_site_fract_x
 _atom_site_fract_y
 _atom_site_fract_z
 _atom_site_occupancy
  Nd  Nd0  1  0.03239600  0.68648300  0.80789000  1
  Nd  Nd1  1  0.01841800  0.30746900  0.18280000  1
  Nd  Nd2  1  0.01841800  0.80746900  0.31720000  1
  Nd  Nd3  1  0.03239600  0.18648300  0.69211000  1
  Nd  Nd4  1  0.03740300  0.50245600  0.49908200  1
  Nd  Nd5  1  0.03740300  0.00245600  0.00091800  1
  Al  Al6  1  0.48511100  0.71541600  0.56997600  1
  Al  Al7  1  0.48511100  0.21541600  0.93002400  1
  Si  Si8  1  0.97437000  0.88379500  0.61890400  1
  Si  Si9  1  0.97011500  0.11833800  0.38517700  1
  Si  Si10  1  0.97011500  0.61833800  0.11482300  1
  Si  Si11  1  0.97437000  0.38379500  0.88109600  1
  Si  Si12  1  0.48005800  0.28873700  0.42520700  1
  Si  Si13  1  0.48005800  0.78873700  0.07479300  1
  Si  Si14  1  0.48006100  0.57092800  0.28279700  1
  Si  Si15  1  0.47680300  0.42744800  0.71119900  1
  Si  Si16  1  0.48006100  0.07092800  0.21720300  1
  Si  Si17  1  0.47680300  0.92744800  0.78880100  1
  N  N18  1  0.85925400  0.73715200  0.56130000  1
  N  N19  1  0.83070800  0.26603300  0.42941400  1
  N  N20  1  0.83070800  0.76603300  0.07058600  1
  N  N21  1  0.85925400  0.23715200  0.93870000  1
  N  N22  1  0.83191800  0.56670500  0.26012300  1
  N  N23  1  0.82748300  0.42900000  0.73471600  1
  N  N24  1  0.83191800  0.06670500  0.23987700  1
  N  N25  1  0.82748300  0.92900000  0.76528400  1
  N  N26  1  0.36736800  0.67314700  0.40477400  1
  N  N27  1  0.36919200  0.32418900  0.58188000  1
  N  N28  1  0.36919200  0.82418900  0.91812000  1
  N  N29  1  0.36736800  0.17314700  0.09522600  1
  N  N30  1  0.37045700  0.41323400  0.31855500  1
  N  N31  1  0.36111700  0.58117800  0.67680400  1
  N  N32  1  0.37045700  0.91323400  0.18144500  1
  N  N33  1  0.36111700  0.08117800  0.82319600  1
  N  N34  1  0.31340400  0.86028500  0.65186000  1
  N  N35  1  0.31571900  0.14548500  0.35855500  1
  N  N36  1  0.31571900  0.64548500  0.14144500  1
  N  N37  1  0.31340400  0.36028500  0.84814000  1
  O  O38  1  0.94205700  0.00252100  0.50218800  1
  O  O39  1  0.94205700  0.50252100  0.99781200  1
