# generated using pymatgen
data_NdTi12(Bi5O16)3
_symmetry_space_group_name_H-M   'P 1'
_cell_length_a   5.49102700
_cell_length_b   10.90017311
_cell_length_c   16.92155652
_cell_angle_alpha   89.99279811
_cell_angle_beta   99.27141289
_cell_angle_gamma   90.08179502
_symmetry_Int_Tables_number   1
_chemical_formula_structural   NdTi12(Bi5O16)3
_chemical_formula_sum   'Nd1 Ti12 Bi15 O48'
_cell_volume   999.57624722
_cell_formula_units_Z   1
loop_
 _symmetry_equiv_pos_site_id
 _symmetry_equiv_pos_as_xyz
  1  'x, y, z'
loop_
 _atom_site_type_symbol
 _atom_site_label
 _atom_site_symmetry_multiplicity
 _atom_site_fract_x
 _atom_site_fract_y
 _atom_site_fract_z
 _atom_site_occupancy
  Nd  Nd0  1  0.48301700  0.25121400  0.87289800  1
  Ti  Ti1  1  0.93359500  0.75093500  0.74426700  1
  Ti  Ti2  1  0.94329100  0.25016000  0.74509900  1
  Ti  Ti3  1  0.43237500  0.00162800  0.74421100  1
  Ti  Ti4  1  0.43269700  0.49821900  0.74457800  1
  Ti  Ti5  1  0.05516000  0.75159900  0.00292900  1
  Ti  Ti6  1  0.05731300  0.25064100  0.00119500  1
  Ti  Ti7  1  0.55535200  0.49950700  0.00325400  1
  Ti  Ti8  1  0.55586500  0.99784300  0.00251100  1
  Ti  Ti9  1  0.19252300  0.75123800  0.25798700  1
  Ti  Ti10  1  0.19250900  0.25137600  0.25783800  1
  Ti  Ti11  1  0.69251200  0.99881700  0.25801000  1
  Ti  Ti12  1  0.69258600  0.49867800  0.25811800  1
  Bi  Bi13  1  0.23091700  0.51169200  0.42304100  1
  Bi  Bi14  1  0.23062800  0.01175500  0.42295100  1
  Bi  Bi15  1  0.73120400  0.73830000  0.42305300  1
  Bi  Bi16  1  0.73088100  0.23833300  0.42290000  1
  Bi  Bi17  1  0.80314700  0.98904400  0.57673600  1
  Bi  Bi18  1  0.80363900  0.48886500  0.57676800  1
  Bi  Bi19  1  0.30374200  0.76133900  0.57676100  1
  Bi  Bi20  1  0.30388900  0.26095900  0.57661600  1
  Bi  Bi21  1  0.08330600  0.50018800  0.13408100  1
  Bi  Bi22  1  0.08153600  0.00058400  0.13370600  1
  Bi  Bi23  1  0.58227000  0.74955400  0.13367700  1
  Bi  Bi24  1  0.58166200  0.24897200  0.13346200  1
  Bi  Bi25  1  0.95073600  0.50298600  0.86706100  1
  Bi  Bi26  1  0.94950900  0.00279200  0.86769200  1
  Bi  Bi27  1  0.44801400  0.74781100  0.86707900  1
  O  O28  1  0.50819800  0.84854300  0.25070900  1
  O  O29  1  0.50825800  0.34875500  0.25094200  1
  O  O30  1  0.00828600  0.90143700  0.25051600  1
  O  O31  1  0.00795700  0.40147500  0.25075400  1
  O  O32  1  0.32035700  0.61062600  0.02278800  1
  O  O33  1  0.32148600  0.11193000  0.02076100  1
  O  O34  1  0.82100900  0.63811700  0.02224700  1
  O  O35  1  0.81678700  0.14076500  0.02165600  1
  O  O36  1  0.04576100  0.71664000  0.88749200  1
  O  O37  1  0.02791700  0.21603400  0.88737600  1
  O  O38  1  0.54413200  0.53138900  0.88699700  1
  O  O39  1  0.54818400  0.03545800  0.88774000  1
  O  O40  1  0.23978900  0.64222400  0.75629600  1
  O  O41  1  0.23297100  0.14056200  0.75600300  1
  O  O42  1  0.74011700  0.60688500  0.75617700  1
  O  O43  1  0.73301500  0.10996900  0.75785700  1
  O  O44  1  0.20011600  0.88360600  0.78055000  1
  O  O45  1  0.19682800  0.38446900  0.77974800  1
  O  O46  1  0.69882200  0.86537000  0.78000100  1
  O  O47  1  0.69604700  0.36432000  0.78286700  1
  O  O48  1  0.89326000  0.77703600  0.63959500  1
  O  O49  1  0.89348100  0.27739500  0.64025400  1
  O  O50  1  0.39486100  0.97339700  0.63955500  1
  O  O51  1  0.39473000  0.47248300  0.63977600  1
  O  O52  1  0.24833800  0.72061200  0.36265800  1
  O  O53  1  0.24856500  0.22055600  0.36257000  1
  O  O54  1  0.74838900  0.52946100  0.36277100  1
  O  O55  1  0.74853100  0.02938500  0.36271300  1
  O  O56  1  0.53231700  0.87221100  0.49862200  1
  O  O57  1  0.53228600  0.37213900  0.49862200  1
  O  O58  1  0.03229800  0.87780700  0.49873900  1
  O  O59  1  0.03230100  0.37772400  0.49870100  1
  O  O60  1  0.41494700  0.60902800  0.22243500  1
  O  O61  1  0.41526700  0.10901600  0.22254000  1
  O  O62  1  0.91496600  0.64082900  0.22251100  1
  O  O63  1  0.91547500  0.14064800  0.22259200  1
  O  O64  1  0.16524700  0.78852100  0.11967600  1
  O  O65  1  0.16594100  0.28879700  0.11951400  1
  O  O66  1  0.66506200  0.96192000  0.11959200  1
  O  O67  1  0.66469400  0.46112400  0.11929400  1
  O  O68  1  0.03414700  0.62752800  0.50204300  1
  O  O69  1  0.03388000  0.12752700  0.50197100  1
  O  O70  1  0.53409000  0.62248800  0.50209800  1
  O  O71  1  0.53408100  0.12250500  0.50203700  1
  O  O72  1  0.36456000  0.85654500  0.98612900  1
  O  O73  1  0.36541600  0.35602900  0.98452500  1
  O  O74  1  0.86509000  0.89344400  0.98651800  1
  O  O75  1  0.85746800  0.39024600  0.98319300  1
