# generated using pymatgen
data_NbMoSe4
_symmetry_space_group_name_H-M   'P 1'
_cell_length_a   3.41168262
_cell_length_b   3.41168262
_cell_length_c   13.36442300
_cell_angle_alpha   90.00000000
_cell_angle_beta   90.00000000
_cell_angle_gamma   120.00001206
_symmetry_Int_Tables_number   1
_chemical_formula_structural   NbMoSe4
_chemical_formula_sum   'Nb1 Mo1 Se4'
_cell_volume   134.71564622
_cell_formula_units_Z   1
loop_
 _symmetry_equiv_pos_site_id
 _symmetry_equiv_pos_as_xyz
  1  'x, y, z'
loop_
 _atom_site_type_symbol
 _atom_site_label
 _atom_site_symmetry_multiplicity
 _atom_site_fract_x
 _atom_site_fract_y
 _atom_site_fract_z
 _atom_site_occupancy
  Nb  Nb0  1  0.66666700  0.33333300  0.00000000  1
  Mo  Mo1  1  0.66666700  0.33333300  0.50000000  1
  Se  Se2  1  0.33333300  0.66666700  0.62284900  1
  Se  Se3  1  0.00000000  0.00000000  0.87204500  1
  Se  Se4  1  0.00000000  0.00000000  0.12795500  1
  Se  Se5  1  0.33333300  0.66666700  0.37715100  1
