# generated using pymatgen
data_Nd(FeO2)3
_symmetry_space_group_name_H-M   'P 1'
_cell_length_a   5.36308315
_cell_length_b   5.36308300
_cell_length_c   5.61389246
_cell_angle_alpha   61.46719821
_cell_angle_beta   118.53280349
_cell_angle_gamma   120.00000527
_symmetry_Int_Tables_number   1
_chemical_formula_structural   Nd(FeO2)3
_chemical_formula_sum   'Nd1 Fe3 O6'
_cell_volume   116.64374750
_cell_formula_units_Z   1
loop_
 _symmetry_equiv_pos_site_id
 _symmetry_equiv_pos_as_xyz
  1  'x, y, z'
loop_
 _atom_site_type_symbol
 _atom_site_label
 _atom_site_symmetry_multiplicity
 _atom_site_fract_x
 _atom_site_fract_y
 _atom_site_fract_z
 _atom_site_occupancy
  Nd  Nd0  1  0.11926000  0.88074000  0.35778100  1
  Fe  Fe1  1  0.64889700  0.35110300  0.94669100  1
  Fe  Fe2  1  0.85750800  0.14249200  0.57252400  1
  Fe  Fe3  1  0.34645200  0.65354800  0.03935700  1
  O  O4  1  0.23990200  0.04835700  0.77208500  1
  O  O5  1  0.58054000  0.76009800  0.77208500  1
  O  O6  1  0.95164300  0.41946000  0.77208500  1
  O  O7  1  0.51341500  0.32040900  0.25579700  1
  O  O8  1  0.06279200  0.48658500  0.25579700  1
  O  O9  1  0.67959100  0.93720800  0.25579700  1
