# generated using pymatgen
data_Mg2Si3
_symmetry_space_group_name_H-M   'P 1'
_cell_length_a   4.48833500
_cell_length_b   5.27500199
_cell_length_c   16.57400043
_cell_angle_alpha   87.31036192
_cell_angle_beta   86.82728532
_cell_angle_gamma   67.36337703
_symmetry_Int_Tables_number   1
_chemical_formula_structural   Mg2Si3
_chemical_formula_sum   'Mg8 Si12'
_cell_volume   361.48148082
_cell_formula_units_Z   4
loop_
 _symmetry_equiv_pos_site_id
 _symmetry_equiv_pos_as_xyz
  1  'x, y, z'
loop_
 _atom_site_type_symbol
 _atom_site_label
 _atom_site_symmetry_multiplicity
 _atom_site_fract_x
 _atom_site_fract_y
 _atom_site_fract_z
 _atom_site_occupancy
  Mg  Mg0  1  0.90692900  0.22711400  0.69989000  1
  Mg  Mg1  1  0.09307100  0.77288600  0.30011000  1
  Mg  Mg2  1  0.58187000  0.82185800  0.59662900  1
  Mg  Mg3  1  0.41813000  0.17814200  0.40337100  1
  Mg  Mg4  1  0.41119000  0.21501100  0.19970200  1
  Mg  Mg5  1  0.58881000  0.78498900  0.80029800  1
  Mg  Mg6  1  0.08548900  0.81268600  0.09761100  1
  Mg  Mg7  1  0.91451100  0.18731400  0.90238900  1
  Si  Si8  1  0.87555900  0.23240300  0.52576700  1
  Si  Si9  1  0.70534400  0.60427700  0.42403700  1
  Si  Si10  1  0.29465600  0.39572300  0.57596300  1
  Si  Si11  1  0.12444100  0.76759700  0.47423300  1
  Si  Si12  1  0.63768700  0.65605700  0.19481000  1
  Si  Si13  1  0.36231300  0.34394300  0.80519000  1
  Si  Si14  1  0.37473900  0.23454300  0.02427000  1
  Si  Si15  1  0.62526100  0.76545700  0.97573000  1
  Si  Si16  1  0.79920000  0.38401700  0.07582400  1
  Si  Si17  1  0.20080000  0.61598300  0.92417600  1
  Si  Si18  1  0.13218700  0.66892800  0.69462400  1
  Si  Si19  1  0.86781300  0.33107200  0.30537600  1
