# generated using pymatgen
data_Nd2Mn3Sb3O14
_symmetry_space_group_name_H-M   'P 1'
_cell_length_a   7.27332509
_cell_length_b   7.27332509
_cell_length_c   7.37328803
_cell_angle_alpha   60.99042634
_cell_angle_beta   60.99042634
_cell_angle_gamma   61.46684252
_symmetry_Int_Tables_number   1
_chemical_formula_structural   Nd2Mn3Sb3O14
_chemical_formula_sum   'Nd2 Mn3 Sb3 O14'
_cell_volume   282.93124174
_cell_formula_units_Z   1
loop_
 _symmetry_equiv_pos_site_id
 _symmetry_equiv_pos_as_xyz
  1  'x, y, z'
loop_
 _atom_site_type_symbol
 _atom_site_label
 _atom_site_symmetry_multiplicity
 _atom_site_fract_x
 _atom_site_fract_y
 _atom_site_fract_z
 _atom_site_occupancy
  Nd  Nd0  1  0.50000000  0.00000000  0.00000000  1
  Nd  Nd1  1  0.00000000  0.50000000  0.00000000  1
  Mn  Mn2  1  0.50000000  0.50000000  0.50000000  1
  Mn  Mn3  1  0.00000000  0.00000000  0.00000000  1
  Mn  Mn4  1  0.00000000  0.00000000  0.50000000  1
  Sb  Sb5  1  0.50000000  0.50000000  0.00000000  1
  Sb  Sb6  1  0.00000000  0.50000000  0.50000000  1
  Sb  Sb7  1  0.50000000  0.00000000  0.50000000  1
  O  O8  1  0.89185400  0.89185400  0.86066300  1
  O  O9  1  0.10814600  0.10814600  0.13933700  1
  O  O10  1  0.58852500  0.58852500  0.15001800  1
  O  O11  1  0.17404700  0.17404700  0.57026200  1
  O  O12  1  0.17498000  0.57219600  0.58208100  1
  O  O13  1  0.57876700  0.17292100  0.17658800  1
  O  O14  1  0.17292100  0.57876700  0.17658800  1
  O  O15  1  0.57219600  0.17498000  0.58208100  1
  O  O16  1  0.41147500  0.41147500  0.84998200  1
  O  O17  1  0.82595300  0.82595300  0.42973800  1
  O  O18  1  0.82502000  0.42780400  0.41791900  1
  O  O19  1  0.42123300  0.82707900  0.82341200  1
  O  O20  1  0.82707900  0.42123300  0.82341200  1
  O  O21  1  0.42780400  0.82502000  0.41791900  1
