# generated using pymatgen
data_Rb4Sn(SeO)4
_symmetry_space_group_name_H-M   'P 1'
_cell_length_a   8.67625137
_cell_length_b   9.02812824
_cell_length_c   11.41067118
_cell_angle_alpha   113.26106822
_cell_angle_beta   75.70272062
_cell_angle_gamma   106.90788595
_symmetry_Int_Tables_number   1
_chemical_formula_structural   Rb4Sn(SeO)4
_chemical_formula_sum   'Rb8 Sn2 Se8 O8'
_cell_volume   776.73107708
_cell_formula_units_Z   2
loop_
 _symmetry_equiv_pos_site_id
 _symmetry_equiv_pos_as_xyz
  1  'x, y, z'
loop_
 _atom_site_type_symbol
 _atom_site_label
 _atom_site_symmetry_multiplicity
 _atom_site_fract_x
 _atom_site_fract_y
 _atom_site_fract_z
 _atom_site_occupancy
  Rb  Rb0  1  0.48356400  0.81131000  0.26157900  1
  Rb  Rb1  1  0.51643600  0.18869000  0.73842100  1
  Rb  Rb2  1  0.10180000  0.86105500  0.53111000  1
  Rb  Rb3  1  0.89820000  0.13894500  0.46889000  1
  Rb  Rb4  1  0.81918600  0.61443900  0.00225700  1
  Rb  Rb5  1  0.18081400  0.38556100  0.99774300  1
  Rb  Rb6  1  0.79953700  0.03886900  0.85947200  1
  Rb  Rb7  1  0.20046300  0.96113100  0.14052800  1
  Sn  Sn8  1  0.64380900  0.32859900  0.25613200  1
  Sn  Sn9  1  0.35619100  0.67140100  0.74386800  1
  Se  Se10  1  0.79878200  0.63671000  0.34112100  1
  Se  Se11  1  0.20121800  0.36329000  0.65887900  1
  Se  Se12  1  0.89288500  0.17855900  0.18829200  1
  Se  Se13  1  0.10711500  0.82144100  0.81170800  1
  Se  Se14  1  0.45299600  0.24855800  0.45915700  1
  Se  Se15  1  0.54700400  0.75144200  0.54084300  1
  Se  Se16  1  0.50485400  0.29115100  0.07421900  1
  Se  Se17  1  0.49514600  0.70884900  0.92578100  1
  O  O18  1  0.99462100  0.61082200  0.19612800  1
  O  O19  1  0.00537900  0.38917800  0.80387200  1
  O  O20  1  0.69125300  0.93099800  0.61192300  1
  O  O21  1  0.30874700  0.06900200  0.38807800  1
  O  O22  1  0.82238800  0.97701600  0.19958200  1
  O  O23  1  0.17761200  0.02298400  0.80041800  1
  O  O24  1  0.14208300  0.70868500  0.24783300  1
  O  O25  1  0.85791700  0.29131500  0.75216700  1
