# generated using pymatgen
data_Nd2Ti12(CuO4)9
_symmetry_space_group_name_H-M   'P 1'
_cell_length_a   10.53680902
_cell_length_b   10.53680902
_cell_length_c   6.47410800
_cell_angle_alpha   90.00000000
_cell_angle_beta   90.00000000
_cell_angle_gamma   119.99999383
_symmetry_Int_Tables_number   1
_chemical_formula_structural   Nd2Ti12(CuO4)9
_chemical_formula_sum   'Nd2 Ti12 Cu9 O36'
_cell_volume   622.48489215
_cell_formula_units_Z   1
loop_
 _symmetry_equiv_pos_site_id
 _symmetry_equiv_pos_as_xyz
  1  'x, y, z'
loop_
 _atom_site_type_symbol
 _atom_site_label
 _atom_site_symmetry_multiplicity
 _atom_site_fract_x
 _atom_site_fract_y
 _atom_site_fract_z
 _atom_site_occupancy
  Nd  Nd0  1  0.33333300  0.66666700  0.82897700  1
  Nd  Nd1  1  0.66666700  0.33333300  0.17102300  1
  Ti  Ti2  1  0.00000000  0.50000000  0.00000000  1
  Ti  Ti3  1  0.31793700  0.16027100  0.33688700  1
  Ti  Ti4  1  0.68206300  0.83972900  0.66311300  1
  Ti  Ti5  1  0.33333300  0.66666700  0.34038000  1
  Ti  Ti6  1  0.66666700  0.33333300  0.65962000  1
  Ti  Ti7  1  0.00000000  0.00000000  0.00000000  1
  Ti  Ti8  1  0.50000000  0.50000000  0.00000000  1
  Ti  Ti9  1  0.83972900  0.15766600  0.33688700  1
  Ti  Ti10  1  0.16027100  0.84233400  0.66311300  1
  Ti  Ti11  1  0.15766600  0.31793700  0.66311300  1
  Ti  Ti12  1  0.50000000  0.00000000  0.00000000  1
  Ti  Ti13  1  0.84233400  0.68206300  0.33688700  1
  Cu  Cu14  1  0.33479000  0.16721400  0.83621200  1
  Cu  Cu15  1  0.66521000  0.83278600  0.16378800  1
  Cu  Cu16  1  0.00000000  0.50000000  0.50000000  1
  Cu  Cu17  1  0.16757500  0.33479000  0.16378800  1
  Cu  Cu18  1  0.50000000  0.00000000  0.50000000  1
  Cu  Cu19  1  0.83242500  0.66521000  0.83621200  1
  Cu  Cu20  1  0.50000000  0.50000000  0.50000000  1
  Cu  Cu21  1  0.83278600  0.16757500  0.83621200  1
  Cu  Cu22  1  0.16721400  0.83242500  0.16378800  1
  O  O23  1  0.26803700  0.22447100  0.58693600  1
  O  O24  1  0.59217200  0.88422300  0.91537900  1
  O  O25  1  0.92556300  0.55102200  0.24910700  1
  O  O26  1  0.80780800  0.31586200  0.48542900  1
  O  O27  1  0.14620400  0.98244300  0.82908100  1
  O  O28  1  0.47503200  0.64984500  0.14959100  1
  O  O29  1  0.52496800  0.35015500  0.85040900  1
  O  O30  1  0.85379600  0.01755700  0.17091900  1
  O  O31  1  0.19219200  0.68413800  0.51457100  1
  O  O32  1  0.07443700  0.44897800  0.75089300  1
  O  O33  1  0.40782800  0.11577700  0.08462100  1
  O  O34  1  0.73196300  0.77552900  0.41306400  1
  O  O35  1  0.04356700  0.26803700  0.41306400  1
  O  O36  1  0.37454100  0.92556300  0.75089300  1
  O  O37  1  0.70794900  0.59217200  0.08462100  1
  O  O38  1  0.16376100  0.14620400  0.17091900  1
  O  O39  1  0.49194700  0.80780800  0.51457100  1
  O  O40  1  0.82518700  0.47503200  0.85040900  1
  O  O41  1  0.17481300  0.52496800  0.14959100  1
  O  O42  1  0.50805300  0.19219200  0.48542900  1
  O  O43  1  0.83623900  0.85379600  0.82908100  1
  O  O44  1  0.29205100  0.40782800  0.91537900  1
  O  O45  1  0.62545900  0.07443700  0.24910700  1
  O  O46  1  0.95643300  0.73196300  0.58693600  1
  O  O47  1  0.01755700  0.16376100  0.82908100  1
  O  O48  1  0.35015500  0.82518700  0.14959100  1
  O  O49  1  0.68413800  0.49194700  0.48542900  1
  O  O50  1  0.44897800  0.37454100  0.24910700  1
  O  O51  1  0.77552900  0.04356700  0.58693600  1
  O  O52  1  0.11577700  0.70794900  0.91537900  1
  O  O53  1  0.88422300  0.29205100  0.08462100  1
  O  O54  1  0.22447100  0.95643300  0.41306400  1
  O  O55  1  0.55102200  0.62545900  0.75089300  1
  O  O56  1  0.31586200  0.50805300  0.51457100  1
  O  O57  1  0.64984500  0.17481300  0.85040900  1
  O  O58  1  0.98244300  0.83623900  0.17091900  1
