# generated using pymatgen
data_Nb4AgBi5O18
_symmetry_space_group_name_H-M   'P 1'
_cell_length_a   12.93699770
_cell_length_b   12.93699770
_cell_length_c   5.60818359
_cell_angle_alpha   89.83000878
_cell_angle_beta   89.83000878
_cell_angle_gamma   155.13552680
_symmetry_Int_Tables_number   1
_chemical_formula_structural   Nb4AgBi5O18
_chemical_formula_sum   'Nb4 Ag1 Bi5 O18'
_cell_volume   394.62665236
_cell_formula_units_Z   1
loop_
 _symmetry_equiv_pos_site_id
 _symmetry_equiv_pos_as_xyz
  1  'x, y, z'
loop_
 _atom_site_type_symbol
 _atom_site_label
 _atom_site_symmetry_multiplicity
 _atom_site_fract_x
 _atom_site_fract_y
 _atom_site_fract_z
 _atom_site_occupancy
  Nb  Nb0  1  0.65538100  0.82617100  0.53484700  1
  Nb  Nb1  1  0.82617100  0.65538100  0.53484700  1
  Nb  Nb2  1  0.32874500  0.16025900  0.04110100  1
  Nb  Nb3  1  0.16025900  0.32874500  0.04110100  1
  Ag  Ag4  1  0.24128700  0.24128700  0.52877700  1
  Bi  Bi5  1  0.72514500  0.72514500  0.98975600  1
  Bi  Bi6  1  0.01891200  0.41919100  0.49023700  1
  Bi  Bi7  1  0.41919100  0.01891200  0.49023700  1
  Bi  Bi8  1  0.98213400  0.58230900  0.98995500  1
  Bi  Bi9  1  0.58230900  0.98213400  0.98995500  1
  O  O10  1  0.97487300  0.11028900  0.78048800  1
  O  O11  1  0.11028900  0.97487300  0.78048800  1
  O  O12  1  0.02482200  0.88819400  0.27229400  1
  O  O13  1  0.88819400  0.02482200  0.27229400  1
  O  O14  1  0.68963500  0.68963500  0.59408300  1
  O  O15  1  0.32896400  0.32896400  0.08308200  1
  O  O16  1  0.47341800  0.64542600  0.86986300  1
  O  O17  1  0.64542600  0.47341800  0.86986300  1
  O  O18  1  0.54646700  0.36344600  0.36114000  1
  O  O19  1  0.36344600  0.54646700  0.36114000  1
  O  O20  1  0.26344000  0.75903300  0.76610600  1
  O  O21  1  0.75903300  0.26344000  0.76610600  1
  O  O22  1  0.73948200  0.24198000  0.26547300  1
  O  O23  1  0.24198000  0.73948200  0.26547300  1
  O  O24  1  0.66554600  0.98155200  0.57475300  1
  O  O25  1  0.98155200  0.66554600  0.57475300  1
  O  O26  1  0.33997600  0.02392200  0.06489400  1
  O  O27  1  0.02392200  0.33997600  0.06489400  1
