# generated using pymatgen
data_NbBi2O5F
_symmetry_space_group_name_H-M   'P 1'
_cell_length_a   5.45937000
_cell_length_b   5.47074000
_cell_length_c   17.02851000
_cell_angle_alpha   90.00000000
_cell_angle_beta   90.00000000
_cell_angle_gamma   90.00000000
_symmetry_Int_Tables_number   1
_chemical_formula_structural   NbBi2O5F
_chemical_formula_sum   'Nb4 Bi8 O20 F4'
_cell_volume   508.58699747
_cell_formula_units_Z   4
loop_
 _symmetry_equiv_pos_site_id
 _symmetry_equiv_pos_as_xyz
  1  'x, y, z'
loop_
 _atom_site_type_symbol
 _atom_site_label
 _atom_site_symmetry_multiplicity
 _atom_site_fract_x
 _atom_site_fract_y
 _atom_site_fract_z
 _atom_site_occupancy
  Nb  Nb0  1  0.24930900  0.24686800  0.73649400  1
  Nb  Nb1  1  0.75069100  0.74686800  0.76350600  1
  Nb  Nb2  1  0.74930900  0.25313200  0.26350600  1
  Nb  Nb3  1  0.25069100  0.75313200  0.23649400  1
  Bi  Bi4  1  0.76094500  0.26160600  0.57415600  1
  Bi  Bi5  1  0.23905500  0.76160600  0.92584400  1
  Bi  Bi6  1  0.26094500  0.23839400  0.42584400  1
  Bi  Bi7  1  0.73905500  0.73839400  0.07415600  1
  Bi  Bi8  1  0.74479100  0.22845700  0.92320100  1
  Bi  Bi9  1  0.25520900  0.72845700  0.57679900  1
  Bi  Bi10  1  0.24479100  0.27154300  0.07679900  1
  Bi  Bi11  1  0.75520900  0.77154300  0.42320100  1
  O  O12  1  0.00205000  0.50358900  0.49738800  1
  O  O13  1  0.99795000  0.00358900  0.00261200  1
  O  O14  1  0.50205000  0.99641100  0.50261200  1
  O  O15  1  0.49795000  0.49641100  0.99738800  1
  O  O16  1  0.49773900  0.00088700  0.00238000  1
  O  O17  1  0.50226100  0.50088700  0.49762000  1
  O  O18  1  0.99773900  0.49911300  0.99762000  1
  O  O19  1  0.00226100  0.99911300  0.50238000  1
  O  O20  1  0.04965600  0.45019700  0.26163700  1
  O  O21  1  0.95034400  0.95019700  0.23836300  1
  O  O22  1  0.54965600  0.04980300  0.73836300  1
  O  O23  1  0.45034400  0.54980300  0.76163700  1
  O  O24  1  0.45109000  0.05133900  0.23554600  1
  O  O25  1  0.54891000  0.55133900  0.26445400  1
  O  O26  1  0.95109000  0.44866100  0.76445400  1
  O  O27  1  0.04891000  0.94866100  0.73554600  1
  O  O28  1  0.23214300  0.30476700  0.62709800  1
  O  O29  1  0.76785700  0.80476700  0.87290200  1
  O  O30  1  0.73214300  0.19523300  0.37290200  1
  O  O31  1  0.26785700  0.69523300  0.12709800  1
  F  F32  1  0.26387200  0.20420100  0.87023000  1
  F  F33  1  0.73612800  0.70420100  0.62977000  1
  F  F34  1  0.76387200  0.29579900  0.12977000  1
  F  F35  1  0.23612800  0.79579900  0.37023000  1
