# generated using pymatgen
data_Nb3Si
_symmetry_space_group_name_H-M   'P 1'
_cell_length_a   3.16714584
_cell_length_b   3.16714584
_cell_length_c   8.13673200
_cell_angle_alpha   90.00000000
_cell_angle_beta   90.00000000
_cell_angle_gamma   119.02280085
_symmetry_Int_Tables_number   1
_chemical_formula_structural   Nb3Si
_chemical_formula_sum   'Nb3 Si1'
_cell_volume   71.36898995
_cell_formula_units_Z   1
loop_
 _symmetry_equiv_pos_site_id
 _symmetry_equiv_pos_as_xyz
  1  'x, y, z'
loop_
 _atom_site_type_symbol
 _atom_site_label
 _atom_site_symmetry_multiplicity
 _atom_site_fract_x
 _atom_site_fract_y
 _atom_site_fract_z
 _atom_site_occupancy
  Nb  Nb0  1  0.99927300  0.00072700  0.48447300  1
  Nb  Nb1  1  0.99927300  0.00072700  0.01552700  1
  Nb  Nb2  1  0.66577100  0.33422900  0.75000000  1
  Si  Si3  1  0.33568400  0.66431600  0.25000000  1
