# generated using pymatgen
data_Nb6InSe8
_symmetry_space_group_name_H-M   'P 1'
_cell_length_a   10.19953216
_cell_length_b   10.19953216
_cell_length_c   3.50116200
_cell_angle_alpha   90.00000000
_cell_angle_beta   90.00000000
_cell_angle_gamma   120.00000102
_symmetry_Int_Tables_number   1
_chemical_formula_structural   Nb6InSe8
_chemical_formula_sum   'Nb6 In1 Se8'
_cell_volume   315.43024734
_cell_formula_units_Z   1
loop_
 _symmetry_equiv_pos_site_id
 _symmetry_equiv_pos_as_xyz
  1  'x, y, z'
loop_
 _atom_site_type_symbol
 _atom_site_label
 _atom_site_symmetry_multiplicity
 _atom_site_fract_x
 _atom_site_fract_y
 _atom_site_fract_z
 _atom_site_occupancy
  Nb  Nb0  1  0.48702400  0.10653500  0.50000000  1
  Nb  Nb1  1  0.89346500  0.38048900  0.50000000  1
  Nb  Nb2  1  0.61951100  0.51297600  0.50000000  1
  Nb  Nb3  1  0.51144200  0.89340400  0.00000000  1
  Nb  Nb4  1  0.10659600  0.61803800  0.00000000  1
  Nb  Nb5  1  0.38196200  0.48855800  0.00000000  1
  In  In6  1  0.00000000  0.00000000  0.50000000  1
  Se  Se7  1  0.33333300  0.66666700  0.50000000  1
  Se  Se8  1  0.66666700  0.33333300  0.00000000  1
  Se  Se9  1  0.34088900  0.28132600  0.50000000  1
  Se  Se10  1  0.71867400  0.05956300  0.50000000  1
  Se  Se11  1  0.94043700  0.65911100  0.50000000  1
  Se  Se12  1  0.66069200  0.72065100  0.00000000  1
  Se  Se13  1  0.27934900  0.94004100  0.00000000  1
  Se  Se14  1  0.05995900  0.33930800  0.00000000  1
