# generated using pymatgen
data_Nd2EuBeO5
_symmetry_space_group_name_H-M   'P 1'
_cell_length_a   6.60913400
_cell_length_b   7.28786800
_cell_length_c   9.60813900
_cell_angle_alpha   90.00000000
_cell_angle_beta   90.00000000
_cell_angle_gamma   90.00000000
_symmetry_Int_Tables_number   1
_chemical_formula_structural   Nd2EuBeO5
_chemical_formula_sum   'Nd8 Eu4 Be4 O20'
_cell_volume   462.79039050
_cell_formula_units_Z   4
loop_
 _symmetry_equiv_pos_site_id
 _symmetry_equiv_pos_as_xyz
  1  'x, y, z'
loop_
 _atom_site_type_symbol
 _atom_site_label
 _atom_site_symmetry_multiplicity
 _atom_site_fract_x
 _atom_site_fract_y
 _atom_site_fract_z
 _atom_site_occupancy
  Nd  Nd0  1  0.09613700  0.74559800  0.52357100  1
  Nd  Nd1  1  0.40386300  0.74559800  0.02357100  1
  Nd  Nd2  1  0.90386300  0.24559800  0.47642900  1
  Nd  Nd3  1  0.59613700  0.24559800  0.97642900  1
  Nd  Nd4  1  0.92275600  0.52630600  0.17289100  1
  Nd  Nd5  1  0.07724400  0.02630600  0.82710900  1
  Nd  Nd6  1  0.42275600  0.02630600  0.32710900  1
  Nd  Nd7  1  0.57724400  0.52630600  0.67289100  1
  Eu  Eu8  1  0.58332800  0.98032800  0.67507400  1
  Eu  Eu9  1  0.41667200  0.48032800  0.32492600  1
  Eu  Eu10  1  0.08332800  0.48032800  0.82492600  1
  Eu  Eu11  1  0.91667200  0.98032800  0.17507400  1
  Be  Be12  1  0.69105600  0.74941600  0.40081500  1
  Be  Be13  1  0.80894400  0.74941600  0.90081500  1
  Be  Be14  1  0.30894400  0.24941600  0.59918500  1
  Be  Be15  1  0.19105600  0.24941600  0.09918500  1
  O  O16  1  0.16451300  0.74911400  0.27707100  1
  O  O17  1  0.33548700  0.74911400  0.77707100  1
  O  O18  1  0.83548700  0.24911400  0.72292900  1
  O  O19  1  0.66451300  0.24911400  0.22292900  1
  O  O20  1  0.63474800  0.75042700  0.22839800  1
  O  O21  1  0.86525200  0.75042700  0.72839800  1
  O  O22  1  0.36525200  0.25042700  0.77160200  1
  O  O23  1  0.13474800  0.25042700  0.27160200  1
  O  O24  1  0.02039400  0.75020800  0.99036400  1
  O  O25  1  0.47960600  0.75020800  0.49036400  1
  O  O26  1  0.97960600  0.25020800  0.00963600  1
  O  O27  1  0.52039400  0.25020800  0.50963600  1
  O  O28  1  0.31103100  0.05879800  0.06704100  1
  O  O29  1  0.19466100  0.43980500  0.56650500  1
  O  O30  1  0.68896900  0.55879800  0.93295900  1
  O  O31  1  0.80533900  0.93980500  0.43349500  1
  O  O32  1  0.69466100  0.93980500  0.93349500  1
  O  O33  1  0.81103100  0.55879800  0.43295900  1
  O  O34  1  0.30533900  0.43980500  0.06650500  1
  O  O35  1  0.18896900  0.05879800  0.56704100  1
