# generated using pymatgen
data_Nd4Si7
_symmetry_space_group_name_H-M   'P 1'
_cell_length_a   3.26749700
_cell_length_b   5.58932900
_cell_length_c   15.81671400
_cell_angle_alpha   90.00000000
_cell_angle_beta   90.00000000
_cell_angle_gamma   90.00000000
_symmetry_Int_Tables_number   1
_chemical_formula_structural   Nd4Si7
_chemical_formula_sum   'Nd4 Si7'
_cell_volume   288.86247840
_cell_formula_units_Z   1
loop_
 _symmetry_equiv_pos_site_id
 _symmetry_equiv_pos_as_xyz
  1  'x, y, z'
loop_
 _atom_site_type_symbol
 _atom_site_label
 _atom_site_symmetry_multiplicity
 _atom_site_fract_x
 _atom_site_fract_y
 _atom_site_fract_z
 _atom_site_occupancy
  Nd  Nd0  1  0.00000000  0.75000000  0.19178400  1
  Nd  Nd1  1  0.00000000  0.75000000  0.63120400  1
  Nd  Nd2  1  0.00000000  0.25000000  0.33790600  1
  Nd  Nd3  1  0.00000000  0.25000000  0.83610400  1
  Si  Si4  1  0.00000000  0.75000000  0.39845200  1
  Si  Si5  1  0.00000000  0.75000000  0.81765500  1
  Si  Si6  1  0.00000000  0.25000000  0.15711800  1
  Si  Si7  1  0.00000000  0.25000000  0.65584700  1
  Si  Si8  1  0.00000000  0.75000000  0.96519800  1
  Si  Si9  1  0.00000000  0.25000000  0.01712400  1
  Si  Si10  1  0.00000000  0.25000000  0.51400800  1
