# generated using pymatgen
data_Nb5S8
_symmetry_space_group_name_H-M   'P 1'
_cell_length_a   5.81598769
_cell_length_b   5.81598769
_cell_length_c   25.43424600
_cell_angle_alpha   90.00000000
_cell_angle_beta   90.00000000
_cell_angle_gamma   119.99999649
_symmetry_Int_Tables_number   1
_chemical_formula_structural   Nb5S8
_chemical_formula_sum   'Nb15 S24'
_cell_volume   745.06896207
_cell_formula_units_Z   3
loop_
 _symmetry_equiv_pos_site_id
 _symmetry_equiv_pos_as_xyz
  1  'x, y, z'
loop_
 _atom_site_type_symbol
 _atom_site_label
 _atom_site_symmetry_multiplicity
 _atom_site_fract_x
 _atom_site_fract_y
 _atom_site_fract_z
 _atom_site_occupancy
  Nb  Nb0  1  0.33333300  0.66666700  0.37543400  1
  Nb  Nb1  1  0.33333300  0.66666700  0.87648900  1
  Nb  Nb2  1  0.00000000  0.00000000  0.37420200  1
  Nb  Nb3  1  0.00000000  0.00000000  0.87579600  1
  Nb  Nb4  1  0.00000000  0.00000000  0.12420400  1
  Nb  Nb5  1  0.00000000  0.00000000  0.62579800  1
  Nb  Nb6  1  0.33333300  0.66666700  0.62456600  1
  Nb  Nb7  1  0.33333300  0.66666700  0.12351100  1
  Nb  Nb8  1  0.66666700  0.33333300  0.37490200  1
  Nb  Nb9  1  0.66666700  0.33333300  0.87577300  1
  Nb  Nb10  1  0.66666700  0.33333300  0.62509800  1
  Nb  Nb11  1  0.66666700  0.33333300  0.12422700  1
  Nb  Nb12  1  0.33333300  0.66666700  0.24803200  1
  Nb  Nb13  1  0.33333300  0.66666700  0.75196800  1
  Nb  Nb14  1  0.00000000  0.00000000  0.50000000  1
  S  S15  1  0.66616400  0.66681700  0.18684100  1
  S  S16  1  0.66679800  0.66534000  0.68745300  1
  S  S17  1  0.33318300  0.99934700  0.18684100  1
  S  S18  1  0.33466000  0.00145800  0.68745300  1
  S  S19  1  0.00065300  0.33383600  0.18684100  1
  S  S20  1  0.99854200  0.33320200  0.68745300  1
  S  S21  1  0.66619500  0.66545400  0.56293000  1
  S  S22  1  0.66760700  0.66669900  0.06274400  1
  S  S23  1  0.99925900  0.33380500  0.56293000  1
  S  S24  1  0.99909200  0.33239300  0.06274400  1
  S  S25  1  0.33454600  0.00074100  0.56293000  1
  S  S26  1  0.33330100  0.00090800  0.06274400  1
  S  S27  1  0.66619500  0.00074100  0.43707000  1
  S  S28  1  0.66760700  0.00090800  0.93725600  1
  S  S29  1  0.99925900  0.66545400  0.43707000  1
  S  S30  1  0.99909200  0.66669900  0.93725600  1
  S  S31  1  0.33454600  0.33380500  0.43707000  1
  S  S32  1  0.33330100  0.33239300  0.93725600  1
  S  S33  1  0.66679800  0.00145800  0.31254700  1
  S  S34  1  0.66616400  0.99934700  0.81315900  1
  S  S35  1  0.33466000  0.33320200  0.31254700  1
  S  S36  1  0.33318300  0.33383600  0.81315900  1
  S  S37  1  0.99854200  0.66534000  0.31254700  1
  S  S38  1  0.00065300  0.66681700  0.81315900  1
