# generated using pymatgen
data_NaZr2SN2Cl
_symmetry_space_group_name_H-M   'P 1'
_cell_length_a   10.32778627
_cell_length_b   10.32778627
_cell_length_c   10.32778574
_cell_angle_alpha   20.56244595
_cell_angle_beta   20.56244595
_cell_angle_gamma   20.56244736
_symmetry_Int_Tables_number   1
_chemical_formula_structural   NaZr2SN2Cl
_chemical_formula_sum   'Na1 Zr2 S1 N2 Cl1'
_cell_volume   118.95035739
_cell_formula_units_Z   1
loop_
 _symmetry_equiv_pos_site_id
 _symmetry_equiv_pos_as_xyz
  1  'x, y, z'
loop_
 _atom_site_type_symbol
 _atom_site_label
 _atom_site_symmetry_multiplicity
 _atom_site_fract_x
 _atom_site_fract_y
 _atom_site_fract_z
 _atom_site_occupancy
  Na  Na0  1  0.00448100  0.00448100  0.00448100  1
  Zr  Zr1  1  0.20539600  0.20539600  0.20539600  1
  Zr  Zr2  1  0.78550000  0.78550000  0.78550000  1
  S  S3  1  0.39567400  0.39567400  0.39567400  1
  N  N4  1  0.13723000  0.13723000  0.13723000  1
  N  N5  1  0.86277600  0.86277600  0.86277600  1
  Cl  Cl6  1  0.60894300  0.60894300  0.60894300  1
