# generated using pymatgen
data_Nb5V(FeSe10)2
_symmetry_space_group_name_H-M   'P 1'
_cell_length_a   6.95951200
_cell_length_b   10.26404887
_cell_length_c   10.83946043
_cell_angle_alpha   62.39543966
_cell_angle_beta   71.93003183
_cell_angle_gamma   70.43494674
_symmetry_Int_Tables_number   1
_chemical_formula_structural   Nb5V(FeSe10)2
_chemical_formula_sum   'Nb5 V1 Fe2 Se20'
_cell_volume   635.29739002
_cell_formula_units_Z   1
loop_
 _symmetry_equiv_pos_site_id
 _symmetry_equiv_pos_as_xyz
  1  'x, y, z'
loop_
 _atom_site_type_symbol
 _atom_site_label
 _atom_site_symmetry_multiplicity
 _atom_site_fract_x
 _atom_site_fract_y
 _atom_site_fract_z
 _atom_site_occupancy
  Nb  Nb0  1  0.08583200  0.71650000  0.36345000  1
  Nb  Nb1  1  0.58114700  0.71988600  0.36488400  1
  Nb  Nb2  1  0.41284700  0.28285200  0.63470200  1
  Nb  Nb3  1  0.92328400  0.27974100  0.63212200  1
  Nb  Nb4  1  0.48611900  0.44845100  0.91328800  1
  V  V5  1  0.00851900  0.55185100  0.09291500  1
  Fe  Fe6  1  0.56305700  0.55303000  0.10222300  1
  Fe  Fe7  1  0.93283300  0.44868800  0.89978500  1
  Se  Se8  1  0.21292700  0.73152700  0.09206000  1
  Se  Se9  1  0.69376900  0.75409900  0.08712700  1
  Se  Se10  1  0.28077500  0.26455000  0.90856100  1
  Se  Se11  1  0.81557200  0.24214100  0.91103300  1
  Se  Se12  1  0.27732400  0.94702900  0.24392100  1
  Se  Se13  1  0.78359600  0.94365700  0.24071700  1
  Se  Se14  1  0.22544300  0.05043600  0.75391300  1
  Se  Se15  1  0.71711600  0.05762900  0.75789900  1
  Se  Se16  1  0.44003700  0.51401900  0.35870600  1
  Se  Se17  1  0.93394000  0.51153100  0.36204500  1
  Se  Se18  1  0.06059000  0.48661400  0.63995700  1
  Se  Se19  1  0.56841600  0.48843100  0.63245600  1
  Se  Se20  1  0.21265500  0.82991900  0.49581000  1
  Se  Se21  1  0.71640800  0.83180500  0.49200800  1
  Se  Se22  1  0.28971000  0.16793600  0.50209100  1
  Se  Se23  1  0.78407800  0.16742500  0.50659200  1
  Se  Se24  1  0.36232500  0.36437900  0.17034500  1
  Se  Se25  1  0.86284400  0.34535400  0.15300000  1
  Se  Se26  1  0.12715600  0.63629400  0.84100500  1
  Se  Se27  1  0.64168100  0.66422900  0.84738800  1
