# generated using pymatgen
data_Nb2VFeSe10
_symmetry_space_group_name_H-M   'P 1'
_cell_length_a   3.49472600
_cell_length_b   9.36330600
_cell_length_c   10.10535512
_cell_angle_alpha   67.03411812
_cell_angle_beta   90.00000000
_cell_angle_gamma   90.00000000
_symmetry_Int_Tables_number   1
_chemical_formula_structural   Nb2VFeSe10
_chemical_formula_sum   'Nb2 V1 Fe1 Se10'
_cell_volume   304.45961474
_cell_formula_units_Z   1
loop_
 _symmetry_equiv_pos_site_id
 _symmetry_equiv_pos_as_xyz
  1  'x, y, z'
loop_
 _atom_site_type_symbol
 _atom_site_label
 _atom_site_symmetry_multiplicity
 _atom_site_fract_x
 _atom_site_fract_y
 _atom_site_fract_z
 _atom_site_occupancy
  Nb  Nb0  1  0.00000000  0.27546600  0.63452900  1
  Nb  Nb1  1  0.50000000  0.72339000  0.36187400  1
  V  V2  1  0.50000000  0.45230900  0.91388200  1
  Fe  Fe3  1  0.00000000  0.55014100  0.09760300  1
  Se  Se4  1  0.50000000  0.04262200  0.75713000  1
  Se  Se5  1  0.00000000  0.95706000  0.24018000  1
  Se  Se6  1  0.00000000  0.65493500  0.84479600  1
  Se  Se7  1  0.50000000  0.35762100  0.16357000  1
  Se  Se8  1  0.50000000  0.16184000  0.50164200  1
  Se  Se9  1  0.00000000  0.83653600  0.49518500  1
  Se  Se10  1  0.50000000  0.48840700  0.63615400  1
  Se  Se11  1  0.00000000  0.51443400  0.35327300  1
  Se  Se12  1  0.00000000  0.24926000  0.91263300  1
  Se  Se13  1  0.50000000  0.73598000  0.08754900  1
