# generated using pymatgen
data_NaInSn4
_symmetry_space_group_name_H-M   'P 1'
_cell_length_a   6.06136694
_cell_length_b   6.06136694
_cell_length_c   6.06136694
_cell_angle_alpha   104.92180440
_cell_angle_beta   104.92180440
_cell_angle_gamma   119.01240201
_symmetry_Int_Tables_number   1
_chemical_formula_structural   NaInSn4
_chemical_formula_sum   'Na1 In1 Sn4'
_cell_volume   167.81351616
_cell_formula_units_Z   1
loop_
 _symmetry_equiv_pos_site_id
 _symmetry_equiv_pos_as_xyz
  1  'x, y, z'
loop_
 _atom_site_type_symbol
 _atom_site_label
 _atom_site_symmetry_multiplicity
 _atom_site_fract_x
 _atom_site_fract_y
 _atom_site_fract_z
 _atom_site_occupancy
  Na  Na0  1  0.50000000  0.50000000  0.00000000  1
  In  In1  1  0.00000000  0.00000000  0.00000000  1
  Sn  Sn2  1  0.60087200  0.10087200  0.20174400  1
  Sn  Sn3  1  0.89912800  0.39912800  0.79825600  1
  Sn  Sn4  1  0.39912800  0.60087200  0.50000000  1
  Sn  Sn5  1  0.10087200  0.89912800  0.50000000  1
