# generated using pymatgen
data_NaHf4(NCl)4
_symmetry_space_group_name_H-M   'P 1'
_cell_length_a   3.64595100
_cell_length_b   6.30742700
_cell_length_c   10.25383418
_cell_angle_alpha   78.01653169
_cell_angle_beta   90.00000000
_cell_angle_gamma   90.00000000
_symmetry_Int_Tables_number   1
_chemical_formula_structural   NaHf4(NCl)4
_chemical_formula_sum   'Na1 Hf4 N4 Cl4'
_cell_volume   230.66428758
_cell_formula_units_Z   1
loop_
 _symmetry_equiv_pos_site_id
 _symmetry_equiv_pos_as_xyz
  1  'x, y, z'
loop_
 _atom_site_type_symbol
 _atom_site_label
 _atom_site_symmetry_multiplicity
 _atom_site_fract_x
 _atom_site_fract_y
 _atom_site_fract_z
 _atom_site_occupancy
  Na  Na0  1  0.00000000  0.00000000  0.00000000  1
  Hf  Hf1  1  0.50000000  0.70561500  0.37632500  1
  Hf  Hf2  1  0.00000000  0.20940300  0.38057000  1
  Hf  Hf3  1  0.50000000  0.29438500  0.62367500  1
  Hf  Hf4  1  0.00000000  0.79059700  0.61943000  1
  N  N5  1  0.50000000  0.63920400  0.58930800  1
  N  N6  1  0.00000000  0.13332000  0.59243800  1
  N  N7  1  0.50000000  0.36079600  0.41069200  1
  N  N8  1  0.00000000  0.86668000  0.40756200  1
  Cl  Cl9  1  0.00000000  0.39544200  0.81634800  1
  Cl  Cl10  1  0.50000000  0.88994600  0.82315400  1
  Cl  Cl11  1  0.00000000  0.60455800  0.18365200  1
  Cl  Cl12  1  0.50000000  0.11005400  0.17684600  1
