# generated using pymatgen
data_NaYF4
_symmetry_space_group_name_H-M   'P 1'
_cell_length_a   6.05958500
_cell_length_b   7.02144985
_cell_length_c   7.02738548
_cell_angle_alpha   61.29245851
_cell_angle_beta   64.52878920
_cell_angle_gamma   64.49521801
_symmetry_Int_Tables_number   1
_chemical_formula_structural   NaYF4
_chemical_formula_sum   'Na3 Y3 F12'
_cell_volume   227.08163252
_cell_formula_units_Z   3
loop_
 _symmetry_equiv_pos_site_id
 _symmetry_equiv_pos_as_xyz
  1  'x, y, z'
loop_
 _atom_site_type_symbol
 _atom_site_label
 _atom_site_symmetry_multiplicity
 _atom_site_fract_x
 _atom_site_fract_y
 _atom_site_fract_z
 _atom_site_occupancy
  Na  Na0  1  0.66663700  0.97273000  0.67912600  1
  Na  Na1  1  0.66357500  0.48847200  0.19484500  1
  Na  Na2  1  0.33261000  0.92235200  0.41205500  1
  Y  Y3  1  0.99820700  0.99701600  0.00460300  1
  Y  Y4  1  0.00129000  0.49888400  0.49948500  1
  Y  Y5  1  0.33423100  0.41992400  0.91185800  1
  F  F6  1  0.04969400  0.77891600  0.81636000  1
  F  F7  1  0.05549000  0.31882700  0.27375600  1
  F  F8  1  0.35636400  0.50782200  0.54024600  1
  F  F9  1  0.35481500  0.04680100  0.00438200  1
  F  F10  1  0.59652300  0.65698200  0.69689400  1
  F  F11  1  0.59546700  0.20307300  0.15201400  1
  F  F12  1  0.75436300  0.23467200  0.73276700  1
  F  F13  1  0.76128900  0.73941200  0.24285300  1
  F  F14  1  0.25149700  0.12906100  0.63363000  1
  F  F15  1  0.27684100  0.62950800  0.12664500  1
  F  F16  1  0.97481300  0.87881900  0.38171100  1
  F  F17  1  0.97629500  0.38773100  0.88576800  1
