# generated using pymatgen
data_Nb12Ga3Ge
_symmetry_space_group_name_H-M   'P 1'
_cell_length_a   5.18842800
_cell_length_b   5.19211100
_cell_length_c   10.36822500
_cell_angle_alpha   90.00000000
_cell_angle_beta   90.00000000
_cell_angle_gamma   90.00000000
_symmetry_Int_Tables_number   1
_chemical_formula_structural   Nb12Ga3Ge
_chemical_formula_sum   'Nb12 Ga3 Ge1'
_cell_volume   279.30851519
_cell_formula_units_Z   1
loop_
 _symmetry_equiv_pos_site_id
 _symmetry_equiv_pos_as_xyz
  1  'x, y, z'
loop_
 _atom_site_type_symbol
 _atom_site_label
 _atom_site_symmetry_multiplicity
 _atom_site_fract_x
 _atom_site_fract_y
 _atom_site_fract_z
 _atom_site_occupancy
  Nb  Nb0  1  0.50000000  0.00000000  0.37508000  1
  Nb  Nb1  1  0.50000000  0.00000000  0.87564800  1
  Nb  Nb2  1  0.75085300  0.50000000  0.00000000  1
  Nb  Nb3  1  0.75097800  0.50000000  0.50000000  1
  Nb  Nb4  1  0.00000000  0.75042300  0.25022100  1
  Nb  Nb5  1  0.00000000  0.75042300  0.74977900  1
  Nb  Nb6  1  0.50000000  0.00000000  0.12435200  1
  Nb  Nb7  1  0.50000000  0.00000000  0.62492000  1
  Nb  Nb8  1  0.24914700  0.50000000  0.00000000  1
  Nb  Nb9  1  0.24902200  0.50000000  0.50000000  1
  Nb  Nb10  1  0.00000000  0.24957700  0.25022100  1
  Nb  Nb11  1  0.00000000  0.24957700  0.74977900  1
  Ga  Ga12  1  0.50000000  0.50000000  0.25017400  1
  Ga  Ga13  1  0.50000000  0.50000000  0.74982600  1
  Ga  Ga14  1  0.00000000  0.00000000  0.00000000  1
  Ge  Ge15  1  0.00000000  0.00000000  0.50000000  1
