# generated using pymatgen
data_NaLaMgTeO6
_symmetry_space_group_name_H-M   'P 1'
_cell_length_a   5.60154477
_cell_length_b   5.60154477
_cell_length_c   5.61900934
_cell_angle_alpha   59.81859789
_cell_angle_beta   59.81859789
_cell_angle_gamma   59.93225499
_symmetry_Int_Tables_number   1
_chemical_formula_structural   NaLaMgTeO6
_chemical_formula_sum   'Na1 La1 Mg1 Te1 O6'
_cell_volume   124.26319460
_cell_formula_units_Z   1
loop_
 _symmetry_equiv_pos_site_id
 _symmetry_equiv_pos_as_xyz
  1  'x, y, z'
loop_
 _atom_site_type_symbol
 _atom_site_label
 _atom_site_symmetry_multiplicity
 _atom_site_fract_x
 _atom_site_fract_y
 _atom_site_fract_z
 _atom_site_occupancy
  Na  Na0  1  0.75174500  0.75174500  0.75625200  1
  La  La1  1  0.25096300  0.25096300  0.23795700  1
  Mg  Mg2  1  0.99923300  0.99923300  0.99898000  1
  Te  Te3  1  0.50090600  0.50090600  0.49898300  1
  O  O4  1  0.21630200  0.69628400  0.78606600  1
  O  O5  1  0.29535300  0.78861600  0.22144300  1
  O  O6  1  0.78861600  0.29535300  0.22144300  1
  O  O7  1  0.69628400  0.21630200  0.78606600  1
  O  O8  1  0.73980400  0.73980400  0.33670900  1
  O  O9  1  0.26079500  0.26079500  0.65609900  1
