# generated using pymatgen
data_Nb5Ni41B12
_symmetry_space_group_name_H-M   'P 1'
_cell_length_a   12.92753328
_cell_length_b   12.92753328
_cell_length_c   12.92753342
_cell_angle_alpha   33.53143670
_cell_angle_beta   33.53143670
_cell_angle_gamma   33.53143916
_symmetry_Int_Tables_number   1
_chemical_formula_structural   Nb5Ni41B12
_chemical_formula_sum   'Nb5 Ni41 B12'
_cell_volume   587.17839035
_cell_formula_units_Z   1
loop_
 _symmetry_equiv_pos_site_id
 _symmetry_equiv_pos_as_xyz
  1  'x, y, z'
loop_
 _atom_site_type_symbol
 _atom_site_label
 _atom_site_symmetry_multiplicity
 _atom_site_fract_x
 _atom_site_fract_y
 _atom_site_fract_z
 _atom_site_occupancy
  Nb  Nb0  1  0.62484900  0.62484900  0.62484900  1
  Nb  Nb1  1  0.12530000  0.12530000  0.12530000  1
  Nb  Nb2  1  0.87470000  0.87470000  0.87470000  1
  Nb  Nb3  1  0.37515100  0.37515100  0.37515100  1
  Nb  Nb4  1  0.00000000  0.00000000  0.00000000  1
  Ni  Ni5  1  0.42249800  0.96246800  0.42249800  1
  Ni  Ni6  1  0.92330600  0.46133800  0.92330600  1
  Ni  Ni7  1  0.42249800  0.42249800  0.96246800  1
  Ni  Ni8  1  0.92330600  0.92330600  0.46133800  1
  Ni  Ni9  1  0.19242000  0.19242000  0.19242000  1
  Ni  Ni10  1  0.69236000  0.69236000  0.69236000  1
  Ni  Ni11  1  0.96246800  0.42249800  0.42249800  1
  Ni  Ni12  1  0.46133800  0.92330600  0.92330600  1
  Ni  Ni13  1  0.07669400  0.53866200  0.07669400  1
  Ni  Ni14  1  0.57750200  0.03753200  0.57750200  1
  Ni  Ni15  1  0.07669400  0.07669400  0.53866200  1
  Ni  Ni16  1  0.57750200  0.57750200  0.03753200  1
  Ni  Ni17  1  0.30764000  0.30764000  0.30764000  1
  Ni  Ni18  1  0.80758000  0.80758000  0.80758000  1
  Ni  Ni19  1  0.53866200  0.07669400  0.07669400  1
  Ni  Ni20  1  0.03753200  0.57750200  0.57750200  1
  Ni  Ni21  1  0.00000000  0.34349000  0.65651000  1
  Ni  Ni22  1  0.50000000  0.84089300  0.15910700  1
  Ni  Ni23  1  0.65651000  0.34349000  0.00000000  1
  Ni  Ni24  1  0.15910700  0.84089300  0.50000000  1
  Ni  Ni25  1  0.82642300  0.17334900  0.82642300  1
  Ni  Ni26  1  0.33113800  0.66942500  0.33113800  1
  Ni  Ni27  1  0.00000000  0.65651000  0.34349000  1
  Ni  Ni28  1  0.50000000  0.15910700  0.84089300  1
  Ni  Ni29  1  0.82642300  0.82642300  0.17334900  1
  Ni  Ni30  1  0.33113800  0.33113800  0.66942500  1
  Ni  Ni31  1  0.65651000  0.00000000  0.34349000  1
  Ni  Ni32  1  0.15910700  0.50000000  0.84089300  1
  Ni  Ni33  1  0.33057500  0.66886200  0.66886200  1
  Ni  Ni34  1  0.82665100  0.17357700  0.17357700  1
  Ni  Ni35  1  0.66886200  0.66886200  0.33057500  1
  Ni  Ni36  1  0.17357700  0.17357700  0.82665100  1
  Ni  Ni37  1  0.66886200  0.33057500  0.66886200  1
  Ni  Ni38  1  0.17357700  0.82665100  0.17357700  1
  Ni  Ni39  1  0.17334900  0.82642300  0.82642300  1
  Ni  Ni40  1  0.66942500  0.33113800  0.33113800  1
  Ni  Ni41  1  0.34349000  0.65651000  0.00000000  1
  Ni  Ni42  1  0.84089300  0.15910700  0.50000000  1
  Ni  Ni43  1  0.84089300  0.50000000  0.15910700  1
  Ni  Ni44  1  0.34349000  0.00000000  0.65651000  1
  Ni  Ni45  1  0.50000000  0.50000000  0.50000000  1
  B  B46  1  0.36585600  0.90228600  0.36585600  1
  B  B47  1  0.86679000  0.39993200  0.86679000  1
  B  B48  1  0.60006800  0.13321000  0.13321000  1
  B  B49  1  0.09771400  0.63414400  0.63414400  1
  B  B50  1  0.13321000  0.13321000  0.60006800  1
  B  B51  1  0.63414400  0.63414400  0.09771400  1
  B  B52  1  0.13321000  0.60006800  0.13321000  1
  B  B53  1  0.63414400  0.09771400  0.63414400  1
  B  B54  1  0.36585600  0.36585600  0.90228600  1
  B  B55  1  0.86679000  0.86679000  0.39993200  1
  B  B56  1  0.90228600  0.36585600  0.36585600  1
  B  B57  1  0.39993200  0.86679000  0.86679000  1
