# generated using pymatgen
data_Nd3Y3(Fe5O12)2
_symmetry_space_group_name_H-M   'P 1'
_cell_length_a   10.97396734
_cell_length_b   10.97396734
_cell_length_c   10.97396734
_cell_angle_alpha   109.47122063
_cell_angle_beta   109.47122063
_cell_angle_gamma   109.47122063
_symmetry_Int_Tables_number   1
_chemical_formula_structural   Nd3Y3(Fe5O12)2
_chemical_formula_sum   'Nd6 Y6 Fe20 O48'
_cell_volume   1017.34697885
_cell_formula_units_Z   2
loop_
 _symmetry_equiv_pos_site_id
 _symmetry_equiv_pos_as_xyz
  1  'x, y, z'
loop_
 _atom_site_type_symbol
 _atom_site_label
 _atom_site_symmetry_multiplicity
 _atom_site_fract_x
 _atom_site_fract_y
 _atom_site_fract_z
 _atom_site_occupancy
  Nd  Nd0  1  0.75000000  0.62500000  0.87500000  1
  Nd  Nd1  1  0.25000000  0.87500000  0.62500000  1
  Nd  Nd2  1  0.62500000  0.87500000  0.75000000  1
  Nd  Nd3  1  0.87500000  0.62500000  0.25000000  1
  Nd  Nd4  1  0.87500000  0.75000000  0.62500000  1
  Nd  Nd5  1  0.62500000  0.25000000  0.87500000  1
  Y  Y6  1  0.25000000  0.37500000  0.12500000  1
  Y  Y7  1  0.75000000  0.12500000  0.37500000  1
  Y  Y8  1  0.37500000  0.12500000  0.25000000  1
  Y  Y9  1  0.12500000  0.37500000  0.75000000  1
  Y  Y10  1  0.12500000  0.25000000  0.37500000  1
  Y  Y11  1  0.37500000  0.75000000  0.12500000  1
  Fe  Fe12  1  0.25000000  0.12718100  0.87718100  1
  Fe  Fe13  1  0.75000000  0.37281900  0.62281900  1
  Fe  Fe14  1  0.12718100  0.87718100  0.25000000  1
  Fe  Fe15  1  0.37281900  0.62281900  0.75000000  1
  Fe  Fe16  1  0.87718100  0.25000000  0.12718100  1
  Fe  Fe17  1  0.62281900  0.75000000  0.37281900  1
  Fe  Fe18  1  0.75000000  0.87718100  0.12718100  1
  Fe  Fe19  1  0.25000000  0.62281900  0.37281900  1
  Fe  Fe20  1  0.87718100  0.12718100  0.75000000  1
  Fe  Fe21  1  0.62281900  0.37281900  0.25000000  1
  Fe  Fe22  1  0.12718100  0.75000000  0.87718100  1
  Fe  Fe23  1  0.37281900  0.25000000  0.62281900  1
  Fe  Fe24  1  0.00308500  0.50000000  0.00000000  1
  Fe  Fe25  1  0.00000000  0.00308500  0.50000000  1
  Fe  Fe26  1  0.50000000  0.00000000  0.00308500  1
  Fe  Fe27  1  0.49691500  0.49691500  0.49691500  1
  Fe  Fe28  1  0.49691500  0.50000000  0.00000000  1
  Fe  Fe29  1  0.50000000  0.00000000  0.49691500  1
  Fe  Fe30  1  0.00000000  0.49691500  0.50000000  1
  Fe  Fe31  1  0.00308500  0.00308500  0.00308500  1
  O  O32  1  0.03182600  0.32305400  0.90522800  1
  O  O33  1  0.91782600  0.12659800  0.59477200  1
  O  O34  1  0.58217400  0.17694600  0.20877200  1
  O  O35  1  0.46817400  0.37340200  0.29122800  1
  O  O36  1  0.32305400  0.90522800  0.03182600  1
  O  O37  1  0.12659800  0.59477200  0.91782600  1
  O  O38  1  0.17694600  0.20877200  0.58217400  1
  O  O39  1  0.37340200  0.29122800  0.46817400  1
  O  O40  1  0.90522800  0.03182600  0.32305400  1
  O  O41  1  0.59477200  0.91782600  0.12659800  1
  O  O42  1  0.20877200  0.58217400  0.17694600  1
  O  O43  1  0.29122800  0.46817400  0.37340200  1
  O  O44  1  0.97640200  0.67889600  0.09539700  1
  O  O45  1  0.08349900  0.88100400  0.40460300  1
  O  O46  1  0.41650100  0.82110400  0.79750600  1
  O  O47  1  0.52359800  0.61899600  0.70249400  1
  O  O48  1  0.67889600  0.09539700  0.97640200  1
  O  O49  1  0.88100400  0.40460300  0.08349900  1
  O  O50  1  0.82110400  0.79750600  0.41650100  1
  O  O51  1  0.61899600  0.70249400  0.52359800  1
  O  O52  1  0.09539700  0.97640200  0.67889600  1
  O  O53  1  0.40460300  0.08349900  0.88100400  1
  O  O54  1  0.79750600  0.41650100  0.82110400  1
  O  O55  1  0.70249400  0.52359800  0.61899600  1
  O  O56  1  0.52359800  0.40460300  0.82110400  1
  O  O57  1  0.41650100  0.09539700  0.61899600  1
  O  O58  1  0.08349900  0.70249400  0.67889600  1
  O  O59  1  0.97640200  0.79750600  0.88100400  1
  O  O60  1  0.82110400  0.52359800  0.40460300  1
  O  O61  1  0.61899600  0.41650100  0.09539700  1
  O  O62  1  0.67889600  0.08349900  0.70249400  1
  O  O63  1  0.88100400  0.97640200  0.79750600  1
  O  O64  1  0.40460300  0.82110400  0.52359800  1
  O  O65  1  0.09539700  0.61899600  0.41650100  1
  O  O66  1  0.70249400  0.67889600  0.08349900  1
  O  O67  1  0.79750600  0.88100400  0.97640200  1
  O  O68  1  0.46817400  0.59477200  0.17694600  1
  O  O69  1  0.58217400  0.90522800  0.37340200  1
  O  O70  1  0.91782600  0.29122800  0.32305400  1
  O  O71  1  0.03182600  0.20877200  0.12659800  1
  O  O72  1  0.17694600  0.46817400  0.59477200  1
  O  O73  1  0.37340200  0.58217400  0.90522800  1
  O  O74  1  0.32305400  0.91782600  0.29122800  1
  O  O75  1  0.12659800  0.03182600  0.20877200  1
  O  O76  1  0.59477200  0.17694600  0.46817400  1
  O  O77  1  0.90522800  0.37340200  0.58217400  1
  O  O78  1  0.29122800  0.32305400  0.91782600  1
  O  O79  1  0.20877200  0.12659800  0.03182600  1
