# generated using pymatgen
data_NaAlSiO4
_symmetry_space_group_name_H-M   'P 1'
_cell_length_a   9.28339097
_cell_length_b   9.28339097
_cell_length_c   9.28339086
_cell_angle_alpha   90.20205746
_cell_angle_beta   90.20205746
_cell_angle_gamma   90.20205214
_symmetry_Int_Tables_number   1
_chemical_formula_structural   NaAlSiO4
_chemical_formula_sum   'Na6 Al6 Si6 O24'
_cell_volume   800.04017703
_cell_formula_units_Z   6
loop_
 _symmetry_equiv_pos_site_id
 _symmetry_equiv_pos_as_xyz
  1  'x, y, z'
loop_
 _atom_site_type_symbol
 _atom_site_label
 _atom_site_symmetry_multiplicity
 _atom_site_fract_x
 _atom_site_fract_y
 _atom_site_fract_z
 _atom_site_occupancy
  Na  Na0  1  0.25881400  0.73898100  0.25478700  1
  Na  Na1  1  0.73898100  0.25478700  0.25881400  1
  Na  Na2  1  0.25478700  0.25881400  0.73898100  1
  Na  Na3  1  0.23898100  0.75881400  0.75478700  1
  Na  Na4  1  0.75478700  0.23898100  0.75881400  1
  Na  Na5  1  0.75881400  0.75478700  0.23898100  1
  Al  Al6  1  0.50458400  0.75149900  0.99523700  1
  Al  Al7  1  0.99523700  0.50458400  0.75149900  1
  Al  Al8  1  0.75149900  0.99523700  0.50458400  1
  Al  Al9  1  0.00458400  0.49523700  0.25149900  1
  Al  Al10  1  0.25149900  0.00458400  0.49523700  1
  Al  Al11  1  0.49523700  0.25149900  0.00458400  1
  Si  Si12  1  0.00329900  0.75016700  0.49789800  1
  Si  Si13  1  0.49789800  0.00329900  0.75016700  1
  Si  Si14  1  0.75016700  0.49789800  0.00329900  1
  Si  Si15  1  0.50329900  0.99789800  0.25016700  1
  Si  Si16  1  0.25016700  0.50329900  0.99789800  1
  Si  Si17  1  0.99789800  0.25016700  0.50329900  1
  O  O18  1  0.65788000  0.64458600  0.99169400  1
  O  O19  1  0.99169400  0.65788000  0.64458600  1
  O  O20  1  0.64458600  0.99169400  0.65788000  1
  O  O21  1  0.34587200  0.65119700  0.01454800  1
  O  O22  1  0.02649400  0.65478300  0.35079800  1
  O  O23  1  0.35754600  0.96997500  0.34436100  1
  O  O24  1  0.65478300  0.35079800  0.02649400  1
  O  O25  1  0.96997500  0.34436100  0.35754600  1
  O  O26  1  0.65119700  0.01454800  0.34587200  1
  O  O27  1  0.34436100  0.35754600  0.96997500  1
  O  O28  1  0.01454800  0.34587200  0.65119700  1
  O  O29  1  0.35079800  0.02649400  0.65478300  1
  O  O30  1  0.15478300  0.52649400  0.85079800  1
  O  O31  1  0.46997500  0.85754600  0.84436100  1
  O  O32  1  0.15119700  0.84587200  0.51454800  1
  O  O33  1  0.84436100  0.46997500  0.85754600  1
  O  O34  1  0.51454800  0.15119700  0.84587200  1
  O  O35  1  0.85079800  0.15478300  0.52649400  1
  O  O36  1  0.15788000  0.49169400  0.14458600  1
  O  O37  1  0.49169400  0.14458600  0.15788000  1
  O  O38  1  0.14458600  0.15788000  0.49169400  1
  O  O39  1  0.84587200  0.51454800  0.15119700  1
  O  O40  1  0.52649400  0.85079800  0.15478300  1
  O  O41  1  0.85754600  0.84436100  0.46997500  1
