# generated using pymatgen
data_NaSrMg2F7
_symmetry_space_group_name_H-M   'P 1'
_cell_length_a   7.46033575
_cell_length_b   7.46033575
_cell_length_c   7.46033575
_cell_angle_alpha   120.84336715
_cell_angle_beta   118.59541935
_cell_angle_gamma   90.49764712
_symmetry_Int_Tables_number   1
_chemical_formula_structural   NaSrMg2F7
_chemical_formula_sum   'Na2 Sr2 Mg4 F14'
_cell_volume   294.69565209
_cell_formula_units_Z   2
loop_
 _symmetry_equiv_pos_site_id
 _symmetry_equiv_pos_as_xyz
  1  'x, y, z'
loop_
 _atom_site_type_symbol
 _atom_site_label
 _atom_site_symmetry_multiplicity
 _atom_site_fract_x
 _atom_site_fract_y
 _atom_site_fract_z
 _atom_site_occupancy
  Na  Na0  1  0.00000000  0.00000000  0.50000000  1
  Na  Na1  1  0.00000000  0.50000000  0.00000000  1
  Sr  Sr2  1  0.00000000  0.00000000  0.00000000  1
  Sr  Sr3  1  0.50000000  0.00000000  0.50000000  1
  Mg  Mg4  1  0.50000000  0.50000000  0.50000000  1
  Mg  Mg5  1  0.50000000  0.00000000  0.00000000  1
  Mg  Mg6  1  0.50000000  0.50000000  0.00000000  1
  Mg  Mg7  1  0.00000000  0.50000000  0.50000000  1
  F  F8  1  0.11788900  0.86788900  0.25000000  1
  F  F9  1  0.88211100  0.13211100  0.75000000  1
  F  F10  1  0.42172000  0.17172000  0.25000000  1
  F  F11  1  0.81862400  0.56862400  0.25000000  1
  F  F12  1  0.43305700  0.57923700  0.25897200  1
  F  F13  1  0.82026500  0.17408500  0.24102800  1
  F  F14  1  0.43305700  0.17408500  0.85382000  1
  F  F15  1  0.82026500  0.57923700  0.64618000  1
  F  F16  1  0.57828000  0.82828000  0.75000000  1
  F  F17  1  0.18137600  0.43137600  0.75000000  1
  F  F18  1  0.56694300  0.42076300  0.74102800  1
  F  F19  1  0.17973500  0.82591500  0.75897200  1
  F  F20  1  0.56694300  0.82591500  0.14618000  1
  F  F21  1  0.17973500  0.42076300  0.35382000  1
