# generated using pymatgen
data_Nd5Si10NiRu3
_symmetry_space_group_name_H-M   'P 1'
_cell_length_a   4.08726000
_cell_length_b   4.29555282
_cell_length_c   41.28700290
_cell_angle_alpha   93.74810482
_cell_angle_beta   90.00000000
_cell_angle_gamma   90.00000000
_symmetry_Int_Tables_number   1
_chemical_formula_structural   Nd5Si10NiRu3
_chemical_formula_sum   'Nd10 Si20 Ni2 Ru6'
_cell_volume   723.32716102
_cell_formula_units_Z   2
loop_
 _symmetry_equiv_pos_site_id
 _symmetry_equiv_pos_as_xyz
  1  'x, y, z'
loop_
 _atom_site_type_symbol
 _atom_site_label
 _atom_site_symmetry_multiplicity
 _atom_site_fract_x
 _atom_site_fract_y
 _atom_site_fract_z
 _atom_site_occupancy
  Nd  Nd0  1  0.75000000  0.51442400  0.04333300  1
  Nd  Nd1  1  0.75000000  0.12202900  0.24187200  1
  Nd  Nd2  1  0.75000000  0.72161600  0.43984000  1
  Nd  Nd3  1  0.75000000  0.32216900  0.63829100  1
  Nd  Nd4  1  0.75000000  0.93734800  0.83727900  1
  Nd  Nd5  1  0.25000000  0.08087100  0.15837200  1
  Nd  Nd6  1  0.25000000  0.68054500  0.35803700  1
  Nd  Nd7  1  0.25000000  0.28029900  0.55709200  1
  Nd  Nd8  1  0.25000000  0.88594400  0.75648000  1
  Nd  Nd9  1  0.25000000  0.46464300  0.95960900  1
  Si  Si10  1  0.75000000  0.04252200  0.10311000  1
  Si  Si11  1  0.75000000  0.64555700  0.30227000  1
  Si  Si12  1  0.75000000  0.25301900  0.50235000  1
  Si  Si13  1  0.75000000  0.84801600  0.70198000  1
  Si  Si14  1  0.75000000  0.37433100  0.89957900  1
  Si  Si15  1  0.25000000  0.55811600  0.10222700  1
  Si  Si16  1  0.25000000  0.15466300  0.30147300  1
  Si  Si17  1  0.25000000  0.75242700  0.50148500  1
  Si  Si18  1  0.25000000  0.35561400  0.70104000  1
  Si  Si19  1  0.25000000  0.02468800  0.89845700  1
  Si  Si20  1  0.75000000  0.59585600  0.18326300  1
  Si  Si21  1  0.75000000  0.19364600  0.38338000  1
  Si  Si22  1  0.75000000  0.79298100  0.58175300  1
  Si  Si23  1  0.75000000  0.39825000  0.77949000  1
  Si  Si24  1  0.75000000  0.97981500  0.98210500  1
  Si  Si25  1  0.25000000  0.99436400  0.01635200  1
  Si  Si26  1  0.25000000  0.60539800  0.21586800  1
  Si  Si27  1  0.25000000  0.20767200  0.41716900  1
  Si  Si28  1  0.25000000  0.80894600  0.61645000  1
  Si  Si29  1  0.25000000  0.42194600  0.81569100  1
  Ni  Ni30  1  0.75000000  0.55943400  0.12863600  1
  Ni  Ni31  1  0.75000000  0.16182700  0.32848000  1
  Ru  Ru32  1  0.75000000  0.88419100  0.92309500  1
  Ru  Ru33  1  0.25000000  0.04061500  0.07365900  1
  Ru  Ru34  1  0.25000000  0.63854500  0.27299500  1
  Ru  Ru35  1  0.25000000  0.23745800  0.47511700  1
  Ru  Ru36  1  0.25000000  0.84139500  0.67470500  1
  Ru  Ru37  1  0.25000000  0.51577900  0.87513600  1
