# generated using pymatgen
data_NaSbWO7
_symmetry_space_group_name_H-M   'P 1'
_cell_length_a   7.38234215
_cell_length_b   7.38234215
_cell_length_c   7.38234215
_cell_angle_alpha   120.51971955
_cell_angle_beta   118.90903547
_cell_angle_gamma   90.50103978
_symmetry_Int_Tables_number   1
_chemical_formula_structural   NaSbWO7
_chemical_formula_sum   'Na2 Sb2 W2 O14'
_cell_volume   285.63689081
_cell_formula_units_Z   2
loop_
 _symmetry_equiv_pos_site_id
 _symmetry_equiv_pos_as_xyz
  1  'x, y, z'
loop_
 _atom_site_type_symbol
 _atom_site_label
 _atom_site_symmetry_multiplicity
 _atom_site_fract_x
 _atom_site_fract_y
 _atom_site_fract_z
 _atom_site_occupancy
  Na  Na0  1  0.50000000  0.50000000  0.00000000  1
  Na  Na1  1  0.00000000  0.50000000  0.50000000  1
  Sb  Sb2  1  0.00000000  0.00000000  0.50000000  1
  Sb  Sb3  1  0.00000000  0.50000000  0.00000000  1
  W  W4  1  0.00000000  0.00000000  0.00000000  1
  W  W5  1  0.50000000  0.00000000  0.50000000  1
  O  O6  1  0.61644800  0.36644800  0.25000000  1
  O  O7  1  0.38355200  0.63355200  0.75000000  1
  O  O8  1  0.93849200  0.68863000  0.87085100  1
  O  O9  1  0.93849200  0.06764000  0.24986200  1
  O  O10  1  0.30698000  0.05698000  0.25000000  1
  O  O11  1  0.31777900  0.06764000  0.62914900  1
  O  O12  1  0.31777900  0.68863000  0.25013800  1
  O  O13  1  0.92076500  0.67076500  0.25000000  1
  O  O14  1  0.06150800  0.31137000  0.12914900  1
  O  O15  1  0.06150800  0.93236000  0.75013800  1
  O  O16  1  0.69302000  0.94302000  0.75000000  1
  O  O17  1  0.68222100  0.93236000  0.37085100  1
  O  O18  1  0.68222100  0.31137000  0.74986200  1
  O  O19  1  0.07923500  0.32923500  0.75000000  1
