# generated using pymatgen
data_Na8PtO6
_symmetry_space_group_name_H-M   'P 1'
_cell_length_a   4.50274700
_cell_length_b   6.93975900
_cell_length_c   6.93975900
_cell_angle_alpha   90.00000000
_cell_angle_beta   90.00000000
_cell_angle_gamma   90.00000000
_symmetry_Int_Tables_number   1
_chemical_formula_structural   Na8PtO6
_chemical_formula_sum   'Na8 Pt1 O6'
_cell_volume   216.85344362
_cell_formula_units_Z   1
loop_
 _symmetry_equiv_pos_site_id
 _symmetry_equiv_pos_as_xyz
  1  'x, y, z'
loop_
 _atom_site_type_symbol
 _atom_site_label
 _atom_site_symmetry_multiplicity
 _atom_site_fract_x
 _atom_site_fract_y
 _atom_site_fract_z
 _atom_site_occupancy
  Na  Na0  1  0.54428900  0.28666100  0.08273900  1
  Na  Na1  1  0.07240200  0.78454600  0.65982500  1
  Na  Na2  1  0.54428900  0.71333900  0.91726100  1
  Na  Na3  1  0.07240200  0.21545400  0.34017500  1
  Na  Na4  1  0.07240200  0.65982500  0.21545400  1
  Na  Na5  1  0.54428900  0.08273900  0.71333900  1
  Na  Na6  1  0.07240200  0.34017500  0.78454600  1
  Na  Na7  1  0.54428900  0.91726100  0.28666100  1
  Pt  Pt8  1  0.57692800  0.50000000  0.50000000  1
  O  O9  1  0.21611000  0.00000000  0.00000000  1
  O  O10  1  0.07603700  0.50000000  0.50000000  1
  O  O11  1  0.57604100  0.40850900  0.78392600  1
  O  O12  1  0.57604100  0.59149100  0.21607400  1
  O  O13  1  0.57604100  0.78392600  0.59149100  1
  O  O14  1  0.57604100  0.21607400  0.40850900  1
