# generated using pymatgen
data_Na6Fe2P4HO17
_symmetry_space_group_name_H-M   'P 1'
_cell_length_a   5.28093100
_cell_length_b   9.38103352
_cell_length_c   15.13170690
_cell_angle_alpha   80.34375097
_cell_angle_beta   81.40901456
_cell_angle_gamma   79.15927962
_symmetry_Int_Tables_number   1
_chemical_formula_structural   Na6Fe2P4HO17
_chemical_formula_sum   'Na12 Fe4 P8 H2 O34'
_cell_volume   720.42936264
_cell_formula_units_Z   2
loop_
 _symmetry_equiv_pos_site_id
 _symmetry_equiv_pos_as_xyz
  1  'x, y, z'
loop_
 _atom_site_type_symbol
 _atom_site_label
 _atom_site_symmetry_multiplicity
 _atom_site_fract_x
 _atom_site_fract_y
 _atom_site_fract_z
 _atom_site_occupancy
  Na  Na0  1  0.29957100  0.36288800  0.02030800  1
  Na  Na1  1  0.70038800  0.63664800  0.98017200  1
  Na  Na2  1  0.87894600  0.84354300  0.49257400  1
  Na  Na3  1  0.11988100  0.15942400  0.50632200  1
  Na  Na4  1  0.12073100  0.62357600  0.13279600  1
  Na  Na5  1  0.87926100  0.37607700  0.86759800  1
  Na  Na6  1  0.00009400  0.00005700  0.00023400  1
  Na  Na7  1  0.43504500  0.86440200  0.35469200  1
  Na  Na8  1  0.56521400  0.13740400  0.64406800  1
  Na  Na9  1  0.60481100  0.49934500  0.27259000  1
  Na  Na10  1  0.39349600  0.49966300  0.73005400  1
  Na  Na11  1  0.49108100  0.52356100  0.50904800  1
  Fe  Fe12  1  0.95872000  0.96986000  0.22721300  1
  Fe  Fe13  1  0.04052200  0.03061100  0.77289700  1
  Fe  Fe14  1  0.19009900  0.29202900  0.26937100  1
  Fe  Fe15  1  0.80988300  0.70775100  0.73085400  1
  P  P16  1  0.77313600  0.29973000  0.12315200  1
  P  P17  1  0.22677300  0.70057100  0.87690400  1
  P  P18  1  0.52767000  0.82516800  0.12926800  1
  P  P19  1  0.47194200  0.17459100  0.87094000  1
  P  P20  1  0.99818300  0.62931700  0.35409700  1
  P  P21  1  0.00080700  0.37107800  0.64623700  1
  P  P22  1  0.67391600  0.16945400  0.39069700  1
  P  P23  1  0.32593200  0.83070400  0.60936300  1
  H  H24  1  0.50095600  0.99903300  0.00031300  1
  H  H25  1  0.00131800  0.49971000  0.49939200  1
  O  O26  1  0.06964400  0.78435200  0.31908800  1
  O  O27  1  0.93130800  0.21549400  0.68126500  1
  O  O28  1  0.70224500  0.11034100  0.49013900  1
  O  O29  1  0.29839400  0.88824700  0.50967600  1
  O  O30  1  0.11538100  0.58271900  0.44661200  1
  O  O31  1  0.88317900  0.41728000  0.55400600  1
  O  O32  1  0.85447400  0.13109000  0.12875000  1
  O  O33  1  0.14529800  0.86913200  0.87118300  1
  O  O34  1  0.73157500  0.03813700  0.33507600  1
  O  O35  1  0.26895000  0.96146700  0.66493500  1
  O  O36  1  0.70411200  0.63414500  0.37340800  1
  O  O37  1  0.29465700  0.36756400  0.62775700  1
  O  O38  1  0.39227700  0.25150300  0.37910900  1
  O  O39  1  0.60760400  0.74703400  0.62022300  1
  O  O40  1  0.76430600  0.36995200  0.02384700  1
  O  O41  1  0.23568800  0.63016400  0.97608100  1
  O  O42  1  0.50061100  0.33679300  0.17855100  1
  O  O43  1  0.49919600  0.66353200  0.82135900  1
  O  O44  1  0.63545800  0.89062200  0.03110700  1
  O  O45  1  0.36391600  0.10946400  0.96882200  1
  O  O46  1  0.97873400  0.36512800  0.16228200  1
  O  O47  1  0.02161100  0.63493800  0.83759700  1
  O  O48  1  0.64461000  0.88344600  0.20186400  1
  O  O49  1  0.35597600  0.11648800  0.79793100  1
  O  O50  1  0.22536800  0.86918500  0.13694200  1
  O  O51  1  0.77449700  0.13082400  0.86313000  1
  O  O52  1  0.21236300  0.07991000  0.26085700  1
  O  O53  1  0.78770700  0.91981700  0.73906300  1
  O  O54  1  0.86325100  0.28052000  0.35323300  1
  O  O55  1  0.13781900  0.71842100  0.64634300  1
  O  O56  1  0.60908100  0.65865400  0.13654500  1
  O  O57  1  0.39087000  0.34120400  0.86347700  1
  O  O58  1  0.12940600  0.52248400  0.28518100  1
  O  O59  1  0.86815700  0.47775700  0.71530900  1
