# generated using pymatgen
data_Nd2S3O17
_symmetry_space_group_name_H-M   'P 1'
_cell_length_a   9.47133286
_cell_length_b   9.47133286
_cell_length_c   10.18954888
_cell_angle_alpha   63.70142619
_cell_angle_beta   63.70142619
_cell_angle_gamma   65.08668949
_symmetry_Int_Tables_number   1
_chemical_formula_structural   Nd2S3O17
_chemical_formula_sum   'Nd4 S6 O34'
_cell_volume   705.27792856
_cell_formula_units_Z   2
loop_
 _symmetry_equiv_pos_site_id
 _symmetry_equiv_pos_as_xyz
  1  'x, y, z'
loop_
 _atom_site_type_symbol
 _atom_site_label
 _atom_site_symmetry_multiplicity
 _atom_site_fract_x
 _atom_site_fract_y
 _atom_site_fract_z
 _atom_site_occupancy
  Nd  Nd0  1  0.51336800  0.25564000  0.07424400  1
  Nd  Nd1  1  0.74804500  0.48349400  0.42280000  1
  Nd  Nd2  1  0.48349400  0.74804500  0.92280000  1
  Nd  Nd3  1  0.25564000  0.51336800  0.57424400  1
  S  S4  1  0.62449000  0.37815500  0.24656200  1
  S  S5  1  0.37815500  0.62449000  0.74656200  1
  S  S6  1  0.43446600  0.84987400  0.26162500  1
  S  S7  1  0.14919500  0.56669100  0.23661900  1
  S  S8  1  0.56669100  0.14919500  0.73661900  1
  S  S9  1  0.84987400  0.43446600  0.76162500  1
  O  O10  1  0.02178600  0.11410100  0.42943200  1
  O  O11  1  0.88227600  0.96649200  0.00344300  1
  O  O12  1  0.96649200  0.88227600  0.50344300  1
  O  O13  1  0.11410100  0.02178600  0.92943200  1
  O  O14  1  0.72913900  0.75547200  0.41800400  1
  O  O15  1  0.24509000  0.26397200  0.07986700  1
  O  O16  1  0.26397200  0.24509000  0.57986700  1
  O  O17  1  0.75547200  0.72913900  0.91800400  1
  O  O18  1  0.41688400  0.85413900  0.12240800  1
  O  O19  1  0.14769300  0.57921200  0.37703100  1
  O  O20  1  0.57921200  0.14769300  0.87703100  1
  O  O21  1  0.85413900  0.41688400  0.62240800  1
  O  O22  1  0.60451400  0.74496300  0.26884800  1
  O  O23  1  0.25301800  0.39752800  0.22627000  1
  O  O24  1  0.39752800  0.25301800  0.72627000  1
  O  O25  1  0.74496300  0.60451400  0.76884800  1
  O  O26  1  0.55655400  0.48782800  0.11427600  1
  O  O27  1  0.51581000  0.43752100  0.38421900  1
  O  O28  1  0.43752100  0.51581000  0.88421900  1
  O  O29  1  0.48782800  0.55655400  0.61427600  1
  O  O30  1  0.62074200  0.21219900  0.27622000  1
  O  O31  1  0.78794100  0.38968900  0.21295600  1
  O  O32  1  0.38968900  0.78794100  0.71295600  1
  O  O33  1  0.21219900  0.62074200  0.77622000  1
  O  O34  1  0.30903800  0.78308100  0.40142500  1
  O  O35  1  0.21467200  0.69395100  0.09828300  1
  O  O36  1  0.69395100  0.21467200  0.59828300  1
  O  O37  1  0.78308100  0.30903800  0.90142500  1
  O  O38  1  0.41773500  0.01869300  0.24863700  1
  O  O39  1  0.97988300  0.58525800  0.24994100  1
  O  O40  1  0.58525800  0.97988300  0.74994100  1
  O  O41  1  0.01869300  0.41773500  0.74863700  1
  O  O42  1  0.96712700  0.02597700  0.40668800  1
  O  O43  1  0.02597700  0.96712700  0.90668800  1
