# generated using pymatgen
data_NaTiFeO4
_symmetry_space_group_name_H-M   'P 1'
_cell_length_a   2.99259800
_cell_length_b   9.29817400
_cell_length_c   10.84654300
_cell_angle_alpha   90.00000000
_cell_angle_beta   90.00000000
_cell_angle_gamma   90.00000000
_symmetry_Int_Tables_number   1
_chemical_formula_structural   NaTiFeO4
_chemical_formula_sum   'Na4 Ti4 Fe4 O16'
_cell_volume   301.81261810
_cell_formula_units_Z   4
loop_
 _symmetry_equiv_pos_site_id
 _symmetry_equiv_pos_as_xyz
  1  'x, y, z'
loop_
 _atom_site_type_symbol
 _atom_site_label
 _atom_site_symmetry_multiplicity
 _atom_site_fract_x
 _atom_site_fract_y
 _atom_site_fract_z
 _atom_site_occupancy
  Na  Na0  1  0.50000000  0.25737800  0.90167100  1
  Na  Na1  1  0.50000000  0.75737800  0.09832900  1
  Na  Na2  1  0.00000000  0.74168400  0.59657000  1
  Na  Na3  1  0.00000000  0.24168400  0.40343000  1
  Ti  Ti4  1  0.00000000  0.58369000  0.85265700  1
  Ti  Ti5  1  0.00000000  0.08369000  0.14734300  1
  Ti  Ti6  1  0.00000000  0.56114700  0.36257600  1
  Ti  Ti7  1  0.00000000  0.06114700  0.63742400  1
  Fe  Fe8  1  0.50000000  0.41744200  0.64526200  1
  Fe  Fe9  1  0.50000000  0.91744200  0.35473800  1
  Fe  Fe10  1  0.50000000  0.43457900  0.13754500  1
  Fe  Fe11  1  0.50000000  0.93457900  0.86245500  1
  O  O12  1  0.50000000  0.52623200  0.96317600  1
  O  O13  1  0.50000000  0.02623200  0.03682400  1
  O  O14  1  0.00000000  0.47691400  0.52989000  1
  O  O15  1  0.00000000  0.97691400  0.47011000  1
  O  O16  1  0.50000000  0.19953500  0.60035300  1
  O  O17  1  0.50000000  0.69953500  0.39964700  1
  O  O18  1  0.00000000  0.79018400  0.89981500  1
  O  O19  1  0.00000000  0.29018400  0.10018500  1
  O  O20  1  0.50000000  0.61904000  0.73446200  1
  O  O21  1  0.50000000  0.11904000  0.26553800  1
  O  O22  1  0.00000000  0.39128200  0.77064600  1
  O  O23  1  0.00000000  0.89128200  0.22935400  1
  O  O24  1  0.50000000  0.42482100  0.32672400  1
  O  O25  1  0.50000000  0.92482100  0.67327600  1
  O  O26  1  0.00000000  0.57607300  0.18216800  1
  O  O27  1  0.00000000  0.07607300  0.81783200  1
