# generated using pymatgen
data_Rb6Nb6H14O27
_symmetry_space_group_name_H-M   'P 1'
_cell_length_a   9.78291082
_cell_length_b   10.61741711
_cell_length_c   17.22372698
_cell_angle_alpha   73.13637753
_cell_angle_beta   88.28082263
_cell_angle_gamma   65.09767593
_symmetry_Int_Tables_number   1
_chemical_formula_structural   Rb6Nb6H14O27
_chemical_formula_sum   'Rb12 Nb12 H28 O54'
_cell_volume   1544.13094888
_cell_formula_units_Z   2
loop_
 _symmetry_equiv_pos_site_id
 _symmetry_equiv_pos_as_xyz
  1  'x, y, z'
loop_
 _atom_site_type_symbol
 _atom_site_label
 _atom_site_symmetry_multiplicity
 _atom_site_fract_x
 _atom_site_fract_y
 _atom_site_fract_z
 _atom_site_occupancy
  Rb  Rb0  1  0.56909277  0.78119681  0.63836412  1
  Rb  Rb1  1  0.43140787  0.21771638  0.36504825  1
  Rb  Rb2  1  0.28342928  0.71816706  0.03530836  1
  Rb  Rb3  1  0.71954235  0.28068984  0.96643651  1
  Rb  Rb4  1  0.10975625  0.36190658  0.85218308  1
  Rb  Rb5  1  0.89230425  0.63714491  0.14901448  1
  Rb  Rb6  1  0.87266343  0.40349251  0.56154670  1
  Rb  Rb7  1  0.12773057  0.59643642  0.43558391  1
  Rb  Rb8  1  0.46124668  0.37714773  0.70695747  1
  Rb  Rb9  1  0.53496589  0.62010076  0.29284893  1
  Rb  Rb10  1  0.40214617  0.95609160  0.82447857  1
  Rb  Rb11  1  0.59855116  0.04209699  0.17550377  1
  Nb  Nb12  1  0.21253619  0.69783691  0.81465966  1
  Nb  Nb13  1  0.78829585  0.30304569  0.18477847  1
  Nb  Nb14  1  0.74534831  0.06564627  0.64800242  1
  Nb  Nb15  1  0.25482730  0.93510014  0.35255654  1
  Nb  Nb16  1  0.01221506  0.70344862  0.65435844  1
  Nb  Nb17  1  0.98767160  0.29669557  0.34559164  1
  Nb  Nb18  1  0.96012365  0.04521450  0.80380128  1
  Nb  Nb19  1  0.03970532  0.95375746  0.19609942  1
  Nb  Nb20  1  0.83242703  0.78579335  0.81785402  1
  Nb  Nb21  1  0.16824730  0.21258342  0.18141834  1
  Nb  Nb22  1  0.13720729  0.96586213  0.63881965  1
  Nb  Nb23  1  0.86161473  0.03544651  0.36073592  1
  H  H24  1  0.64050134  0.71664220  0.97672879  1
  H  H25  1  0.35851257  0.28314589  0.02293481  1
  H  H26  1  0.51048189  0.82301637  0.09210427  1
  H  H27  1  0.48987398  0.17712643  0.90783617  1
  H  H28  1  0.89917252  0.12768054  0.51538320  1
  H  H29  1  0.10049607  0.87183338  0.48431025  1
  H  H30  1  0.72846327  0.79311223  0.46558059  1
  H  H31  1  0.27221934  0.20529106  0.53536944  1
  H  H32  1  0.15620723  0.47193166  0.05476134  1
  H  H33  1  0.84300507  0.52505057  0.94527091  1
  H  H34  1  0.59928561  0.74289071  0.45805149  1
  H  H35  1  0.40040507  0.25702098  0.54240651  1
  H  H36  1  0.11379007  0.07345352  0.94608217  1
  H  H37  1  0.88582415  0.92684696  0.05343581  1
  H  H38  1  0.61312027  0.60756906  0.05635624  1
  H  H39  1  0.38871013  0.39177267  0.94394958  1
  H  H40  1  0.07028755  0.60378668  0.97361589  1
  H  H41  1  0.93142762  0.39656636  0.02744383  1
  H  H42  1  0.37222506  0.91835284  0.13516371  1
  H  H43  1  0.62765152  0.08163144  0.86465430  1
  H  H44  1  0.79180599  0.92212384  0.53203395  1
  H  H45  1  0.20845866  0.07780146  0.46828455  1
  H  H46  1  0.18945120  0.34439525  0.65659537  1
  H  H47  1  0.80997381  0.65509939  0.34282517  1
  H  H48  1  0.19206449  0.05998923  0.02924281  1
  H  H49  1  0.80753231  0.93965804  0.97058716  1
  H  H50  1  0.16182765  0.20743399  0.70578976  1
  H  H51  1  0.83861668  0.79152231  0.29433779  1
  O  O52  1  0.57728570  0.20544716  0.58039731  1
  O  O53  1  0.42277326  0.79521733  0.41934005  1
  O  O54  1  0.91223701  0.11010988  0.57594303  1
  O  O55  1  0.08744630  0.89070546  0.42356580  1
  O  O56  1  0.24392155  0.04153305  0.56628974  1
  O  O57  1  0.75630641  0.95870298  0.43327928  1
  O  O58  1  0.18936609  0.59509544  0.73675054  1
  O  O59  1  0.81111584  0.40518826  0.26313442  1
  O  O60  1  0.71783240  0.71608418  0.88808968  1
  O  O61  1  0.28101104  0.28075911  0.11055236  1
  O  O62  1  0.21704294  0.26737773  0.70924246  1
  O  O63  1  0.78110979  0.73389820  0.29080629  1
  O  O64  1  0.70259028  0.70911992  0.48560369  1
  O  O65  1  0.29664446  0.29027355  0.51569309  1
  O  O66  1  0.11600066  0.82470972  0.58662869  1
  O  O67  1  0.88380756  0.17562966  0.41289476  1
  O  O68  1  0.08155791  0.09570167  0.71007071  1
  O  O69  1  0.91836728  0.90555180  0.28957546  1
  O  O70  1  0.04508280  0.65794990  0.87006297  1
  O  O71  1  0.95700942  0.34203177  0.12986055  1
  O  O72  1  0.29341039  0.80760589  0.72238990  1
  O  O73  1  0.70466937  0.19360423  0.27703016  1
  O  O74  1  0.09616229  0.57872937  0.03332055  1
  O  O75  1  0.90920013  0.41975693  0.96751688  1
  O  O76  1  0.02982234  0.57834533  0.59831596  1
  O  O77  1  0.96784277  0.42085325  0.40227561  1
  O  O78  1  0.87677985  0.67081054  0.73866740  1
  O  O79  1  0.12426331  0.32934438  0.26152656  1
  O  O80  1  0.97607916  0.88648578  0.72236944  1
  O  O81  1  0.02474728  0.11365717  0.27779675  1
  O  O82  1  0.15047705  0.86783932  0.85723516  1
  O  O83  1  0.85133531  0.13095007  0.14288346  1
  O  O84  1  0.21355385  0.03836760  0.97677099  1
  O  O85  1  0.78607754  0.96042372  0.02331785  1
  O  O86  1  0.95508353  0.16185641  0.86344515  1
  O  O87  1  0.04654662  0.83564113  0.13668894  1
  O  O88  1  0.38305539  0.64175767  0.56018536  1
  O  O89  1  0.61816870  0.35541395  0.44232961  1
  O  O90  1  0.59251406  0.71146707  0.02909021  1
  O  O91  1  0.40681434  0.28849259  0.97066043  1
  O  O92  1  0.48106406  0.85060284  0.14253416  1
  O  O93  1  0.51872150  0.14911596  0.85748592  1
  O  O94  1  0.80598395  0.89276135  0.59325585  1
  O  O95  1  0.19423654  0.10725696  0.40702928  1
  O  O96  1  0.66682701  0.95127040  0.73033210  1
  O  O97  1  0.33348737  0.04863675  0.26981642  1
  O  O98  1  0.83477320  0.94343014  0.86158942  1
  O  O99  1  0.16552870  0.05473093  0.13838987  1
  O  O100  1  0.38086199  0.55903637  0.88366597  1
  O  O101  1  0.62515461  0.44101370  0.11499705  1
  O  O102  1  0.77579089  0.17022214  0.71634788  1
  O  O103  1  0.22432226  0.83108995  0.28312584  1
  O  O104  1  0.61848676  0.55623222  0.82582393  1
  O  O105  1  0.24230176  0.54574789  0.27752324  1
