# generated using pymatgen
data_Nd3ErFe34
_symmetry_space_group_name_H-M   'P 1'
_cell_length_a   6.41110672
_cell_length_b   6.41110672
_cell_length_c   12.80930101
_cell_angle_alpha   83.01692719
_cell_angle_beta   83.01692719
_cell_angle_gamma   82.85460355
_symmetry_Int_Tables_number   1
_chemical_formula_structural   Nd3ErFe34
_chemical_formula_sum   'Nd3 Er1 Fe34'
_cell_volume   515.48966580
_cell_formula_units_Z   1
loop_
 _symmetry_equiv_pos_site_id
 _symmetry_equiv_pos_as_xyz
  1  'x, y, z'
loop_
 _atom_site_type_symbol
 _atom_site_label
 _atom_site_symmetry_multiplicity
 _atom_site_fract_x
 _atom_site_fract_y
 _atom_site_fract_z
 _atom_site_occupancy
  Nd  Nd0  1  0.65748600  0.65748600  0.83045500  1
  Nd  Nd1  1  0.34234900  0.34234900  0.17299800  1
  Nd  Nd2  1  0.34154000  0.34154000  0.67097900  1
  Er  Er3  1  0.65737900  0.65737900  0.32929400  1
  Fe  Fe4  1  0.90253100  0.90253100  0.44998200  1
  Fe  Fe5  1  0.90603200  0.90603200  0.95117000  1
  Fe  Fe6  1  0.09790600  0.09790600  0.04654000  1
  Fe  Fe7  1  0.09658700  0.09658700  0.54687300  1
  Fe  Fe8  1  0.99891200  0.99891200  0.24860100  1
  Fe  Fe9  1  0.00013200  0.00013200  0.75033500  1
  Fe  Fe10  1  0.99805600  0.50120000  0.00200800  1
  Fe  Fe11  1  0.99966800  0.50143400  0.49818400  1
  Fe  Fe12  1  0.50143400  0.99966800  0.49818400  1
  Fe  Fe13  1  0.50120000  0.99805600  0.00200800  1
  Fe  Fe14  1  0.28565400  0.71126500  0.00440400  1
  Fe  Fe15  1  0.29246100  0.70896800  0.49828500  1
  Fe  Fe16  1  0.72147900  0.98951900  0.14301300  1
  Fe  Fe17  1  0.71020700  0.00058300  0.64450100  1
  Fe  Fe18  1  0.99817000  0.28884800  0.35518800  1
  Fe  Fe19  1  0.99804100  0.29049400  0.85562900  1
  Fe  Fe20  1  0.28884800  0.99817000  0.35518800  1
  Fe  Fe21  1  0.29049400  0.99804100  0.85562900  1
  Fe  Fe22  1  0.98951900  0.72147900  0.14301300  1
  Fe  Fe23  1  0.00058300  0.71020700  0.64450100  1
  Fe  Fe24  1  0.71126500  0.28565400  0.00440400  1
  Fe  Fe25  1  0.70896800  0.29246100  0.49828500  1
  Fe  Fe26  1  0.84771100  0.34269000  0.17187100  1
  Fe  Fe27  1  0.84564200  0.34191300  0.67063600  1
  Fe  Fe28  1  0.34526900  0.34526900  0.42069600  1
  Fe  Fe29  1  0.34116500  0.34116500  0.92472300  1
  Fe  Fe30  1  0.34269000  0.84771100  0.17187100  1
  Fe  Fe31  1  0.34191300  0.84564200  0.67063600  1
  Fe  Fe32  1  0.15187900  0.65952100  0.32656200  1
  Fe  Fe33  1  0.15364700  0.65637000  0.83097300  1
  Fe  Fe34  1  0.65987800  0.65987800  0.07969800  1
  Fe  Fe35  1  0.65741400  0.65741400  0.57514500  1
  Fe  Fe36  1  0.65952100  0.15187900  0.32656200  1
  Fe  Fe37  1  0.65637000  0.15364700  0.83097300  1
