# generated using pymatgen
data_NaV5MoO15
_symmetry_space_group_name_H-M   'P 1'
_cell_length_a   3.74448400
_cell_length_b   8.18837122
_cell_length_c   10.29179307
_cell_angle_alpha   108.61117192
_cell_angle_beta   90.00000000
_cell_angle_gamma   76.78260438
_symmetry_Int_Tables_number   1
_chemical_formula_structural   NaV5MoO15
_chemical_formula_sum   'Na1 V5 Mo1 O15'
_cell_volume   290.22298537
_cell_formula_units_Z   1
loop_
 _symmetry_equiv_pos_site_id
 _symmetry_equiv_pos_as_xyz
  1  'x, y, z'
loop_
 _atom_site_type_symbol
 _atom_site_label
 _atom_site_symmetry_multiplicity
 _atom_site_fract_x
 _atom_site_fract_y
 _atom_site_fract_z
 _atom_site_occupancy
  Na  Na0  1  0.99551800  0.00896500  0.39677800  1
  V  V1  1  0.71400400  0.57199100  0.41258600  1
  V  V2  1  0.28710000  0.42580000  0.58993300  1
  V  V3  1  0.66719900  0.66560100  0.10223600  1
  V  V4  1  0.33482000  0.33036100  0.90592100  1
  V  V5  1  0.87508900  0.24982300  0.12657700  1
  Mo  Mo6  1  0.11375000  0.77249900  0.88878900  1
  O  O7  1  0.76021500  0.47957100  0.57277700  1
  O  O8  1  0.24027100  0.51945800  0.43412100  1
  O  O9  1  0.73983700  0.52032500  0.22760200  1
  O  O10  1  0.26210800  0.47578400  0.77502800  1
  O  O11  1  0.81156600  0.37686700  0.94862000  1
  O  O12  1  0.18584800  0.62830400  0.03959100  1
  O  O13  1  0.56859000  0.86281900  0.22280300  1
  O  O14  1  0.42865000  0.14270100  0.78298300  1
  O  O15  1  0.00001500  0.99997000  0.99530000  1
  O  O16  1  0.89279300  0.21441500  0.27596900  1
  O  O17  1  0.11032600  0.77934900  0.72303600  1
  O  O18  1  0.60631700  0.78736600  0.46516900  1
  O  O19  1  0.39521400  0.20957100  0.52748700  1
  O  O20  1  0.36677700  0.26644700  0.06802000  1
  O  O21  1  0.63499300  0.73001400  0.92067400  1
