# generated using pymatgen
data_NaIn(MoSe)6
_symmetry_space_group_name_H-M   'P 1'
_cell_length_a   9.61751585
_cell_length_b   9.61751585
_cell_length_c   4.52155500
_cell_angle_alpha   90.00000000
_cell_angle_beta   90.00000000
_cell_angle_gamma   119.99999894
_symmetry_Int_Tables_number   1
_chemical_formula_structural   NaIn(MoSe)6
_chemical_formula_sum   'Na1 In1 Mo6 Se6'
_cell_volume   362.19652175
_cell_formula_units_Z   1
loop_
 _symmetry_equiv_pos_site_id
 _symmetry_equiv_pos_as_xyz
  1  'x, y, z'
loop_
 _atom_site_type_symbol
 _atom_site_label
 _atom_site_symmetry_multiplicity
 _atom_site_fract_x
 _atom_site_fract_y
 _atom_site_fract_z
 _atom_site_occupancy
  Na  Na0  1  0.33333300  0.66666700  0.00000000  1
  In  In1  1  0.00000000  0.00000000  0.50000000  1
  Mo  Mo2  1  0.81374600  0.30974400  0.00000000  1
  Mo  Mo3  1  0.49599800  0.18625400  0.00000000  1
  Mo  Mo4  1  0.69025600  0.50400200  0.00000000  1
  Mo  Mo5  1  0.51854900  0.35548800  0.50000000  1
  Mo  Mo6  1  0.83693800  0.48145100  0.50000000  1
  Mo  Mo7  1  0.64451200  0.16306200  0.50000000  1
  Se  Se8  1  0.00582500  0.62345000  0.00000000  1
  Se  Se9  1  0.61762500  0.99417500  0.00000000  1
  Se  Se10  1  0.37655000  0.38237500  0.00000000  1
  Se  Se11  1  0.33150500  0.04051000  0.50000000  1
  Se  Se12  1  0.70900600  0.66849500  0.50000000  1
  Se  Se13  1  0.95949000  0.29099400  0.50000000  1
