# generated using pymatgen
data_Nd4(WO5)3
_symmetry_space_group_name_H-M   'P 1'
_cell_length_a   10.13031801
_cell_length_b   10.13031801
_cell_length_c   12.38861222
_cell_angle_alpha   89.76841604
_cell_angle_beta   90.23158396
_cell_angle_gamma   89.93686315
_symmetry_Int_Tables_number   1
_chemical_formula_structural   Nd4(WO5)3
_chemical_formula_sum   'Nd16 W12 O60'
_cell_volume   1271.33923504
_cell_formula_units_Z   4
loop_
 _symmetry_equiv_pos_site_id
 _symmetry_equiv_pos_as_xyz
  1  'x, y, z'
loop_
 _atom_site_type_symbol
 _atom_site_label
 _atom_site_symmetry_multiplicity
 _atom_site_fract_x
 _atom_site_fract_y
 _atom_site_fract_z
 _atom_site_occupancy
  Nd  Nd0  1  0.50100600  0.50100600  0.50000000  1
  Nd  Nd1  1  0.99851400  0.99851400  0.00000000  1
  Nd  Nd2  1  0.23427600  0.23427600  0.50000000  1
  Nd  Nd3  1  0.76518500  0.76518500  0.50000000  1
  Nd  Nd4  1  0.72837500  0.72837500  0.00000000  1
  Nd  Nd5  1  0.26845100  0.26845100  0.00000000  1
  Nd  Nd6  1  0.75014200  0.22163600  0.49861200  1
  Nd  Nd7  1  0.22163600  0.75014200  0.50138800  1
  Nd  Nd8  1  0.26992000  0.72958000  0.00262600  1
  Nd  Nd9  1  0.72958000  0.26992000  0.99737400  1
  Nd  Nd10  1  0.76215200  0.49948700  0.73839700  1
  Nd  Nd11  1  0.73308000  0.99583400  0.76374300  1
  Nd  Nd12  1  0.26819100  0.99764300  0.76827900  1
  Nd  Nd13  1  0.49948700  0.76215200  0.26160300  1
  Nd  Nd14  1  0.99583400  0.73308000  0.23625700  1
  Nd  Nd15  1  0.99764300  0.26819100  0.23172100  1
  W  W16  1  0.49531600  0.30671300  0.73005100  1
  W  W17  1  0.49467000  0.68932500  0.73137400  1
  W  W18  1  0.99970000  0.80320700  0.77244600  1
  W  W19  1  0.99865100  0.19542700  0.76974000  1
  W  W20  1  0.68932500  0.49467000  0.26862600  1
  W  W21  1  0.30671300  0.49531600  0.26994900  1
  W  W22  1  0.19542700  0.99865100  0.23026000  1
  W  W23  1  0.80320700  0.99970000  0.22755400  1
  W  W24  1  0.50209000  0.99763400  0.54963100  1
  W  W25  1  0.00003200  0.49940200  0.95492600  1
  W  W26  1  0.99763400  0.50209000  0.45036900  1
  W  W27  1  0.49940200  0.00003200  0.04507400  1
  O  O28  1  0.49723800  0.49958600  0.76597600  1
  O  O29  1  0.99421500  0.99949600  0.74447900  1
  O  O30  1  0.49958600  0.49723800  0.23402400  1
  O  O31  1  0.99949600  0.99421500  0.25552100  1
  O  O32  1  0.15077900  0.50910300  0.52722300  1
  O  O33  1  0.86984900  0.50766100  0.55535800  1
  O  O34  1  0.63805000  0.99101400  0.94807400  1
  O  O35  1  0.35558000  0.99282000  0.95258700  1
  O  O36  1  0.50910300  0.15077900  0.47277700  1
  O  O37  1  0.50766100  0.86984900  0.44464200  1
  O  O38  1  0.99101400  0.63805000  0.05192700  1
  O  O39  1  0.99282000  0.35558000  0.04741300  1
  O  O40  1  0.18715400  0.50080100  0.94959300  1
  O  O41  1  0.80277100  0.49978800  0.94013900  1
  O  O42  1  0.69844900  0.99437100  0.56464100  1
  O  O43  1  0.31217400  0.99775500  0.56808300  1
  O  O44  1  0.50080100  0.18715400  0.05040700  1
  O  O45  1  0.49978800  0.80277100  0.05986100  1
  O  O46  1  0.99437100  0.69844900  0.43535900  1
  O  O47  1  0.99775500  0.31217400  0.43191700  1
  O  O48  1  0.11967700  0.51432900  0.30727200  1
  O  O49  1  0.87781000  0.51332200  0.31138100  1
  O  O50  1  0.62516300  0.98721300  0.18008700  1
  O  O51  1  0.37248500  0.98655700  0.18071800  1
  O  O52  1  0.51432900  0.11967700  0.69272800  1
  O  O53  1  0.51332200  0.87781000  0.68862000  1
  O  O54  1  0.98721300  0.62516300  0.81991300  1
  O  O55  1  0.98655700  0.37248500  0.81928200  1
  O  O56  1  0.37882200  0.34311400  0.61412900  1
  O  O57  1  0.63539300  0.64043700  0.61886100  1
  O  O58  1  0.86667500  0.85630600  0.88380800  1
  O  O59  1  0.13064200  0.14370700  0.88326500  1
  O  O60  1  0.63533700  0.36021900  0.61869000  1
  O  O61  1  0.37961700  0.65834600  0.61354900  1
  O  O62  1  0.13018600  0.85456300  0.88503700  1
  O  O63  1  0.86488600  0.14108900  0.88183100  1
  O  O64  1  0.65834600  0.37961700  0.38645100  1
  O  O65  1  0.36021900  0.63533700  0.38131000  1
  O  O66  1  0.14108900  0.86488600  0.11816900  1
  O  O67  1  0.85456300  0.13018600  0.11496300  1
  O  O68  1  0.34311400  0.37882200  0.38587100  1
  O  O69  1  0.64043700  0.63539300  0.38113900  1
  O  O70  1  0.85630600  0.86667500  0.11619200  1
  O  O71  1  0.14370700  0.13064200  0.11673500  1
  O  O72  1  0.26018400  0.37265200  0.16624600  1
  O  O73  1  0.69920600  0.64962800  0.17649000  1
  O  O74  1  0.79621400  0.86014200  0.32750400  1
  O  O75  1  0.19474900  0.14122500  0.32711100  1
  O  O76  1  0.73867600  0.37310900  0.16538100  1
  O  O77  1  0.30134000  0.65020600  0.17728900  1
  O  O78  1  0.20367800  0.86073500  0.33179600  1
  O  O79  1  0.80498900  0.14217800  0.32413100  1
  O  O80  1  0.65020600  0.30134000  0.82271100  1
  O  O81  1  0.37310900  0.73867600  0.83461900  1
  O  O82  1  0.14217800  0.80498900  0.67586900  1
  O  O83  1  0.86073500  0.20367800  0.66820400  1
  O  O84  1  0.37265200  0.26018400  0.83375400  1
  O  O85  1  0.64962800  0.69920600  0.82351000  1
  O  O86  1  0.86014200  0.79621400  0.67249600  1
  O  O87  1  0.14122500  0.19474900  0.67288900  1
