# generated using pymatgen
data_NaNb2O4
_symmetry_space_group_name_H-M   'P 1'
_cell_length_a   3.00901798
_cell_length_b   3.00901798
_cell_length_c   11.60450500
_cell_angle_alpha   90.00000000
_cell_angle_beta   90.00000000
_cell_angle_gamma   119.99999946
_symmetry_Int_Tables_number   1
_chemical_formula_structural   NaNb2O4
_chemical_formula_sum   'Na1 Nb2 O4'
_cell_volume   90.99275582
_cell_formula_units_Z   1
loop_
 _symmetry_equiv_pos_site_id
 _symmetry_equiv_pos_as_xyz
  1  'x, y, z'
loop_
 _atom_site_type_symbol
 _atom_site_label
 _atom_site_symmetry_multiplicity
 _atom_site_fract_x
 _atom_site_fract_y
 _atom_site_fract_z
 _atom_site_occupancy
  Na  Na0  1  0.00000000  0.00000000  0.50000000  1
  Nb  Nb1  1  0.33333300  0.66666700  0.24536000  1
  Nb  Nb2  1  0.66666700  0.33333300  0.75464000  1
  O  O3  1  0.66666700  0.33333300  0.36005000  1
  O  O4  1  0.33333300  0.66666700  0.63995000  1
  O  O5  1  0.33333300  0.66666700  0.85307100  1
  O  O6  1  0.66666700  0.33333300  0.14692900  1
