# generated using pymatgen
data_Na5H7(Se2O9)2
_symmetry_space_group_name_H-M   'P 1'
_cell_length_a   11.27431839
_cell_length_b   11.27431839
_cell_length_c   7.24974539
_cell_angle_alpha   81.08972122
_cell_angle_beta   81.08972122
_cell_angle_gamma   73.24478521
_symmetry_Int_Tables_number   1
_chemical_formula_structural   Na5H7(Se2O9)2
_chemical_formula_sum   'Na10 H14 Se8 O36'
_cell_volume   865.80640792
_cell_formula_units_Z   2
loop_
 _symmetry_equiv_pos_site_id
 _symmetry_equiv_pos_as_xyz
  1  'x, y, z'
loop_
 _atom_site_type_symbol
 _atom_site_label
 _atom_site_symmetry_multiplicity
 _atom_site_fract_x
 _atom_site_fract_y
 _atom_site_fract_z
 _atom_site_occupancy
  Na  Na0  1  0.75288100  0.43309200  0.06241600  1
  Na  Na1  1  0.43309200  0.75288100  0.56241600  1
  Na  Na2  1  0.25033800  0.55741900  0.93072500  1
  Na  Na3  1  0.55741900  0.25033800  0.43072500  1
  Na  Na4  1  0.99974300  0.00084800  0.74995900  1
  Na  Na5  1  0.00084800  0.99974300  0.24995900  1
  Na  Na6  1  0.37396300  0.03484600  0.18763900  1
  Na  Na7  1  0.03484600  0.37396300  0.68763900  1
  Na  Na8  1  0.62483400  0.97232000  0.81266200  1
  Na  Na9  1  0.97232000  0.62483400  0.31266200  1
  H  H10  1  0.19626400  0.92235300  0.48913900  1
  H  H11  1  0.92235300  0.19626400  0.98913900  1
  H  H12  1  0.80297000  0.07707300  0.51211800  1
  H  H13  1  0.07707300  0.80297000  0.01211800  1
  H  H14  1  0.28799900  0.30040600  0.06826200  1
  H  H15  1  0.30040600  0.28799900  0.56826200  1
  H  H16  1  0.71772000  0.69602300  0.93409300  1
  H  H17  1  0.69602300  0.71772000  0.43409300  1
  H  H18  1  0.16117000  0.79685900  0.50784100  1
  H  H19  1  0.79685900  0.16117000  0.00784100  1
  H  H20  1  0.84106600  0.20043000  0.49167600  1
  H  H21  1  0.20043000  0.84106600  0.99167600  1
  H  H22  1  0.53282100  0.48484900  0.71919400  1
  H  H23  1  0.48484900  0.53282100  0.21919400  1
  Se  Se24  1  0.07869100  0.30001400  0.17425700  1
  Se  Se25  1  0.30001400  0.07869100  0.67425700  1
  Se  Se26  1  0.92194300  0.69945000  0.82546100  1
  Se  Se27  1  0.69945000  0.92194300  0.32546100  1
  Se  Se28  1  0.72928800  0.46823400  0.53539300  1
  Se  Se29  1  0.46823400  0.72928800  0.03539300  1
  Se  Se30  1  0.27742900  0.52770900  0.45180400  1
  Se  Se31  1  0.52770900  0.27742900  0.95180400  1
  O  O32  1  0.19762700  0.35920600  0.04285600  1
  O  O33  1  0.35920600  0.19762700  0.54285600  1
  O  O34  1  0.80401900  0.63791300  0.96133300  1
  O  O35  1  0.63791300  0.80401900  0.46133300  1
  O  O36  1  0.97307100  0.33035400  0.02257000  1
  O  O37  1  0.33035400  0.97307100  0.52257000  1
  O  O38  1  0.02855000  0.66911700  0.97473400  1
  O  O39  1  0.66911700  0.02855000  0.47473400  1
  O  O40  1  0.02273100  0.38200200  0.35366900  1
  O  O41  1  0.38200200  0.02273100  0.85366900  1
  O  O42  1  0.97426500  0.61702600  0.64656800  1
  O  O43  1  0.61702600  0.97426500  0.14656800  1
  O  O44  1  0.57584800  0.54381800  0.61546000  1
  O  O45  1  0.54381800  0.57584800  0.11546000  1
  O  O46  1  0.42249600  0.45887200  0.35435500  1
  O  O47  1  0.45887200  0.42249600  0.85435500  1
  O  O48  1  0.13891300  0.14904200  0.23120600  1
  O  O49  1  0.14904200  0.13891300  0.73120600  1
  O  O50  1  0.85937000  0.85007200  0.77040100  1
  O  O51  1  0.85007200  0.85937000  0.27040100  1
  O  O52  1  0.80619300  0.41039900  0.71937100  1
  O  O53  1  0.41039900  0.80619300  0.21937100  1
  O  O54  1  0.18920800  0.59099200  0.27991600  1
  O  O55  1  0.59099200  0.18920800  0.77991600  1
  O  O56  1  0.72830100  0.35808600  0.40756900  1
  O  O57  1  0.35808600  0.72830100  0.90756900  1
  O  O58  1  0.27831500  0.63561200  0.58580900  1
  O  O59  1  0.63561200  0.27831500  0.08580900  1
  O  O60  1  0.12453600  0.88777600  0.49213900  1
  O  O61  1  0.88777600  0.12453600  0.99213900  1
  O  O62  1  0.87624900  0.10960100  0.50848200  1
  O  O63  1  0.10960100  0.87624900  0.00848200  1
  O  O64  1  0.77306400  0.58474700  0.39884000  1
  O  O65  1  0.58474700  0.77306400  0.89884000  1
  O  O66  1  0.22953200  0.41303000  0.59458400  1
  O  O67  1  0.41303000  0.22953200  0.09458400  1
