# generated using pymatgen
data_Nd3Si(Mo2O7)2
_symmetry_space_group_name_H-M   'P 1'
_cell_length_a   6.16548400
_cell_length_b   10.68955500
_cell_length_c   18.06668800
_cell_angle_alpha   90.00000000
_cell_angle_beta   90.00000000
_cell_angle_gamma   90.00000000
_symmetry_Int_Tables_number   1
_chemical_formula_structural   Nd3Si(Mo2O7)2
_chemical_formula_sum   'Nd12 Si4 Mo16 O56'
_cell_volume   1190.70820378
_cell_formula_units_Z   4
loop_
 _symmetry_equiv_pos_site_id
 _symmetry_equiv_pos_as_xyz
  1  'x, y, z'
loop_
 _atom_site_type_symbol
 _atom_site_label
 _atom_site_symmetry_multiplicity
 _atom_site_fract_x
 _atom_site_fract_y
 _atom_site_fract_z
 _atom_site_occupancy
  Nd  Nd0  1  0.26070400  0.12600200  0.66595100  1
  Nd  Nd1  1  0.26070400  0.37399800  0.16595100  1
  Nd  Nd2  1  0.76070400  0.87399800  0.33404900  1
  Nd  Nd3  1  0.76070400  0.62600200  0.83404900  1
  Nd  Nd4  1  0.74006100  0.52359900  0.33822000  1
  Nd  Nd5  1  0.74006100  0.97640100  0.83822000  1
  Nd  Nd6  1  0.24006100  0.47640100  0.66178000  1
  Nd  Nd7  1  0.24006100  0.02359900  0.16178000  1
  Nd  Nd8  1  0.75785600  0.29769300  0.52768300  1
  Nd  Nd9  1  0.75785600  0.20230700  0.02768300  1
  Nd  Nd10  1  0.25785600  0.70230700  0.47231700  1
  Nd  Nd11  1  0.25785600  0.79769300  0.97231700  1
  Si  Si12  1  0.75553600  0.59926500  0.55300000  1
  Si  Si13  1  0.75553600  0.90073500  0.05300000  1
  Si  Si14  1  0.25553600  0.40073500  0.44700000  1
  Si  Si15  1  0.25553600  0.09926500  0.94700000  1
  Mo  Mo16  1  0.99189300  0.81863500  0.65625800  1
  Mo  Mo17  1  0.50304300  0.68288000  0.15420800  1
  Mo  Mo18  1  0.49189300  0.18136500  0.34374200  1
  Mo  Mo19  1  0.00304300  0.31712000  0.84579200  1
  Mo  Mo20  1  0.00304300  0.18288000  0.34579200  1
  Mo  Mo21  1  0.49189300  0.31863500  0.84374200  1
  Mo  Mo22  1  0.50304300  0.81712000  0.65420800  1
  Mo  Mo23  1  0.99189300  0.68136500  0.15625800  1
  Mo  Mo24  1  0.25114300  0.86151800  0.79867200  1
  Mo  Mo25  1  0.25114300  0.63848200  0.29867200  1
  Mo  Mo26  1  0.75114300  0.13848200  0.20132800  1
  Mo  Mo27  1  0.75114300  0.36151800  0.70132800  1
  Mo  Mo28  1  0.24701400  0.00679500  0.49405100  1
  Mo  Mo29  1  0.74701400  0.99320500  0.50594900  1
  Mo  Mo30  1  0.74701400  0.50679500  0.00594900  1
  Mo  Mo31  1  0.24701400  0.49320500  0.99405100  1
  O  O32  1  0.99668800  0.88966200  0.45612300  1
  O  O33  1  0.49737800  0.61437400  0.95957800  1
  O  O34  1  0.49668800  0.11033800  0.54387700  1
  O  O35  1  0.99737800  0.38562600  0.04042200  1
  O  O36  1  0.99737800  0.11437400  0.54042200  1
  O  O37  1  0.49668800  0.38966200  0.04387700  1
  O  O38  1  0.49737800  0.88562600  0.45957800  1
  O  O39  1  0.99668800  0.61033800  0.95612300  1
  O  O40  1  0.97884400  0.68402500  0.56947900  1
  O  O41  1  0.52547000  0.82658400  0.07068100  1
  O  O42  1  0.47884400  0.31597500  0.43052100  1
  O  O43  1  0.02547000  0.17341600  0.92931900  1
  O  O44  1  0.02547000  0.32658400  0.42931900  1
  O  O45  1  0.47884400  0.18402500  0.93052100  1
  O  O46  1  0.52547000  0.67341600  0.57068100  1
  O  O47  1  0.97884400  0.81597500  0.06947900  1
  O  O48  1  0.28082500  0.98119000  0.88996600  1
  O  O49  1  0.28082500  0.51881000  0.38996600  1
  O  O50  1  0.78082500  0.01881000  0.11003400  1
  O  O51  1  0.78082500  0.48119000  0.61003400  1
  O  O52  1  0.23909100  0.90866000  0.59611500  1
  O  O53  1  0.23909100  0.59134000  0.09611500  1
  O  O54  1  0.73909100  0.09134000  0.40388500  1
  O  O55  1  0.73909100  0.40866000  0.90388500  1
  O  O56  1  0.76262700  0.73228100  0.71405700  1
  O  O57  1  0.76262700  0.76771900  0.21405700  1
  O  O58  1  0.26262700  0.26771900  0.28594300  1
  O  O59  1  0.26262700  0.23228100  0.78594300  1
  O  O60  1  0.75309300  0.91462400  0.60373000  1
  O  O61  1  0.75309300  0.58537600  0.10373000  1
  O  O62  1  0.25309300  0.08537600  0.39627000  1
  O  O63  1  0.25309300  0.41462400  0.89627000  1
  O  O64  1  0.02272100  0.96181100  0.73443400  1
  O  O65  1  0.47192700  0.53498400  0.23708100  1
  O  O66  1  0.52272100  0.03818900  0.26556600  1
  O  O67  1  0.97192700  0.46501600  0.76291900  1
  O  O68  1  0.97192700  0.03498400  0.26291900  1
  O  O69  1  0.52272100  0.46181100  0.76556600  1
  O  O70  1  0.47192700  0.96501600  0.73708100  1
  O  O71  1  0.02272100  0.53818900  0.23443400  1
  O  O72  1  0.75068300  0.53652000  0.47092900  1
  O  O73  1  0.75068300  0.96348000  0.97092900  1
  O  O74  1  0.25068300  0.46348000  0.52907100  1
  O  O75  1  0.25068300  0.03652000  0.02907100  1
  O  O76  1  0.99354100  0.80203100  0.85534500  1
  O  O77  1  0.50672200  0.71015600  0.35060300  1
  O  O78  1  0.49354100  0.19796900  0.14465500  1
  O  O79  1  0.00672200  0.28984400  0.64939700  1
  O  O80  1  0.00672200  0.21015600  0.14939700  1
  O  O81  1  0.49354100  0.30203100  0.64465500  1
  O  O82  1  0.50672200  0.78984400  0.85060300  1
  O  O83  1  0.99354100  0.69796900  0.35534500  1
  O  O84  1  0.24193900  0.72195200  0.71105600  1
  O  O85  1  0.24193900  0.77804800  0.21105600  1
  O  O86  1  0.74193900  0.27804800  0.28894400  1
  O  O87  1  0.74193900  0.22195200  0.78894400  1
