# generated using pymatgen
data_Na8Fe6P6(O8F3)3
_symmetry_space_group_name_H-M   'P 1'
_cell_length_a   11.60797241
_cell_length_b   11.60797241
_cell_length_c   7.09170274
_cell_angle_alpha   81.07275770
_cell_angle_beta   81.07275770
_cell_angle_gamma   46.50070061
_symmetry_Int_Tables_number   1
_chemical_formula_structural   Na8Fe6P6(O8F3)3
_chemical_formula_sum   'Na8 Fe6 P6 O24 F9'
_cell_volume   683.19723010
_cell_formula_units_Z   1
loop_
 _symmetry_equiv_pos_site_id
 _symmetry_equiv_pos_as_xyz
  1  'x, y, z'
loop_
 _atom_site_type_symbol
 _atom_site_label
 _atom_site_symmetry_multiplicity
 _atom_site_fract_x
 _atom_site_fract_y
 _atom_site_fract_z
 _atom_site_occupancy
  Na  Na0  1  0.08537900  0.08537900  0.17357900  1
  Na  Na1  1  0.43161200  0.43161200  0.86057800  1
  Na  Na2  1  0.56838800  0.56838800  0.13942200  1
  Na  Na3  1  0.91462100  0.91462100  0.82642100  1
  Na  Na4  1  0.04673700  0.60410900  0.64722300  1
  Na  Na5  1  0.39589100  0.95326300  0.35277700  1
  Na  Na6  1  0.60410900  0.04673700  0.64722300  1
  Na  Na7  1  0.95326300  0.39589100  0.35277700  1
  Fe  Fe8  1  0.60545900  0.60545900  0.58457700  1
  Fe  Fe9  1  0.93657700  0.93657700  0.24972600  1
  Fe  Fe10  1  0.26961400  0.26961400  0.91671800  1
  Fe  Fe11  1  0.06342300  0.06342300  0.75027400  1
  Fe  Fe12  1  0.39454100  0.39454100  0.41542300  1
  Fe  Fe13  1  0.73038600  0.73038600  0.08328200  1
  P  P14  1  0.91710500  0.41679900  0.83595300  1
  P  P15  1  0.24837600  0.75162400  0.50000000  1
  P  P16  1  0.58320100  0.08289500  0.16404700  1
  P  P17  1  0.75162400  0.24837600  0.50000000  1
  P  P18  1  0.08289500  0.58320100  0.16404700  1
  P  P19  1  0.41679900  0.91710500  0.83595300  1
  O  O20  1  0.96129200  0.25645100  0.88691500  1
  O  O21  1  0.28237600  0.59630700  0.55439200  1
  O  O22  1  0.61052800  0.93099600  0.21087700  1
  O  O23  1  0.82030200  0.51614200  0.01365600  1
  O  O24  1  0.15426700  0.85309500  0.67598600  1
  O  O25  1  0.49705000  0.17859000  0.34430500  1
  O  O26  1  0.85309500  0.15426700  0.67598600  1
  O  O27  1  0.17859000  0.49705000  0.34430500  1
  O  O28  1  0.51614200  0.82030200  0.01365600  1
  O  O29  1  0.59630700  0.28237600  0.55439200  1
  O  O30  1  0.93099600  0.61052800  0.21087700  1
  O  O31  1  0.25645100  0.96129200  0.88691500  1
  O  O32  1  0.71762400  0.40369300  0.44560800  1
  O  O33  1  0.03870800  0.74354900  0.11308500  1
  O  O34  1  0.38947200  0.06900400  0.78912300  1
  O  O35  1  0.84573300  0.14690500  0.32401400  1
  O  O36  1  0.17969800  0.48385800  0.98634400  1
  O  O37  1  0.50295000  0.82141000  0.65569500  1
  O  O38  1  0.82141000  0.50295000  0.65569500  1
  O  O39  1  0.14690500  0.84573300  0.32401400  1
  O  O40  1  0.48385800  0.17969800  0.98634400  1
  O  O41  1  0.06900400  0.38947200  0.78912300  1
  O  O42  1  0.40369300  0.71762400  0.44560800  1
  O  O43  1  0.74354900  0.03870800  0.11308500  1
  F  F44  1  0.66471800  0.66471800  0.32933200  1
  F  F45  1  0.00000000  0.00000000  0.00000000  1
  F  F46  1  0.33528200  0.33528200  0.67066800  1
  F  F47  1  0.54612700  0.54612700  0.81710300  1
  F  F48  1  0.88218000  0.88218000  0.50226100  1
  F  F49  1  0.20545700  0.20545700  0.14838700  1
  F  F50  1  0.11782000  0.11782000  0.49773900  1
  F  F51  1  0.45387300  0.45387300  0.18289700  1
  F  F52  1  0.79454300  0.79454300  0.85161300  1
