# generated using pymatgen
data_NaP2W7O25
_symmetry_space_group_name_H-M   'P 1'
_cell_length_a   5.39623200
_cell_length_b   6.72902157
_cell_length_c   14.05424939
_cell_angle_alpha   95.89883981
_cell_angle_beta   100.79187086
_cell_angle_gamma   90.11924883
_symmetry_Int_Tables_number   1
_chemical_formula_structural   NaP2W7O25
_chemical_formula_sum   'Na1 P2 W7 O25'
_cell_volume   498.52994879
_cell_formula_units_Z   1
loop_
 _symmetry_equiv_pos_site_id
 _symmetry_equiv_pos_as_xyz
  1  'x, y, z'
loop_
 _atom_site_type_symbol
 _atom_site_label
 _atom_site_symmetry_multiplicity
 _atom_site_fract_x
 _atom_site_fract_y
 _atom_site_fract_z
 _atom_site_occupancy
  Na  Na0  1  0.25263300  0.33630400  0.47409500  1
  P  P1  1  0.81452800  0.20359300  0.58512700  1
  P  P2  1  0.18721100  0.79542100  0.41752700  1
  W  W3  1  0.55752700  0.69996400  0.11042100  1
  W  W4  1  0.44293500  0.31283400  0.88655100  1
  W  W5  1  0.99916100  0.00084400  0.99633900  1
  W  W6  1  0.10423500  0.39378000  0.22410300  1
  W  W7  1  0.88755000  0.61399800  0.76889600  1
  W  W8  1  0.66352600  0.08201900  0.33910900  1
  W  W9  1  0.33848500  0.92132800  0.66143600  1
  O  O10  1  0.18002700  0.58944200  0.35736800  1
  O  O11  1  0.82261700  0.40695600  0.64530000  1
  O  O12  1  0.81564700  0.82068600  0.06840900  1
  O  O13  1  0.18817800  0.17772300  0.93113100  1
  O  O14  1  0.42177300  0.26631200  0.29585100  1
  O  O15  1  0.57915200  0.72301600  0.71027100  1
  O  O16  1  0.72314900  0.24407200  0.47531100  1
  O  O17  1  0.26780300  0.75421100  0.52522600  1
  O  O18  1  0.93148900  0.22452900  0.30950600  1
  O  O19  1  0.06974500  0.76776600  0.69618600  1
  O  O20  1  0.29956500  0.56426500  0.17124700  1
  O  O21  1  0.70455900  0.42997500  0.83133800  1
  O  O22  1  0.29674200  0.86706300  0.04607400  1
  O  O23  1  0.69380800  0.13052800  0.95115200  1
  O  O24  1  0.06271600  0.19603400  0.12317500  1
  O  O25  1  0.93922200  0.80058100  0.87656600  1
  O  O26  1  0.80530300  0.51890900  0.18872700  1
  O  O27  1  0.19459200  0.46936300  0.81312700  1
  O  O28  1  0.60255100  0.90454900  0.23084000  1
  O  O29  1  0.39625200  0.10221700  0.77059800  1
  O  O30  1  0.08465200  0.12282300  0.59082900  1
  O  O31  1  0.92150400  0.88859800  0.40326700  1
  O  O32  1  0.62352500  0.05942400  0.60876900  1
  O  O33  1  0.37778000  0.94434500  0.39188900  1
  O  O34  1  0.49865900  0.49652700  0.99783800  1
