# generated using pymatgen
data_NdMnFeBiO6
_symmetry_space_group_name_H-M   'P 1'
_cell_length_a   3.97033567
_cell_length_b   7.44556200
_cell_length_c   9.28294109
_cell_angle_alpha   90.00000000
_cell_angle_beta   95.23984526
_cell_angle_gamma   90.00000000
_symmetry_Int_Tables_number   1
_chemical_formula_structural   NdMnFeBiO6
_chemical_formula_sum   'Nd2 Mn2 Fe2 Bi2 O12'
_cell_volume   273.26980150
_cell_formula_units_Z   2
loop_
 _symmetry_equiv_pos_site_id
 _symmetry_equiv_pos_as_xyz
  1  'x, y, z'
loop_
 _atom_site_type_symbol
 _atom_site_label
 _atom_site_symmetry_multiplicity
 _atom_site_fract_x
 _atom_site_fract_y
 _atom_site_fract_z
 _atom_site_occupancy
  Nd  Nd0  1  0.25606400  0.81120200  0.77265400  1
  Nd  Nd1  1  0.24393600  0.31120200  0.72734600  1
  Mn  Mn2  1  0.80854800  0.54290300  0.99280500  1
  Mn  Mn3  1  0.69145200  0.04290300  0.50719500  1
  Fe  Fe4  1  0.71813600  0.56172400  0.54429900  1
  Fe  Fe5  1  0.78186400  0.06172400  0.95570100  1
  Bi  Bi6  1  0.02903800  0.28216500  0.27895500  1
  Bi  Bi7  1  0.47096200  0.78216500  0.22104500  1
  O  O8  1  0.85910400  0.56963100  0.23521400  1
  O  O9  1  0.64089600  0.06963100  0.26478600  1
  O  O10  1  0.75354500  0.48366900  0.75569100  1
  O  O11  1  0.74645500  0.98366900  0.74430900  1
  O  O12  1  0.77908600  0.81247500  0.01043300  1
  O  O13  1  0.72091400  0.31247500  0.48956700  1
  O  O14  1  0.20623300  0.06047800  0.54973800  1
  O  O15  1  0.29376700  0.56047800  0.95026200  1
  O  O16  1  0.27869500  0.08297900  0.91583100  1
  O  O17  1  0.22130500  0.58297900  0.58416900  1
  O  O18  1  0.67370300  0.79277400  0.45371500  1
  O  O19  1  0.82629700  0.29277400  0.04628500  1
