# generated using pymatgen
data_NaTi3O6
_symmetry_space_group_name_H-M   'P 1'
_cell_length_a   10.83719700
_cell_length_b   8.90322700
_cell_length_c   11.01595173
_cell_angle_alpha   57.52926087
_cell_angle_beta   90.00000000
_cell_angle_gamma   90.00000000
_symmetry_Int_Tables_number   1
_chemical_formula_structural   NaTi3O6
_chemical_formula_sum   'Na8 Ti24 O48'
_cell_volume   896.71998530
_cell_formula_units_Z   8
loop_
 _symmetry_equiv_pos_site_id
 _symmetry_equiv_pos_as_xyz
  1  'x, y, z'
loop_
 _atom_site_type_symbol
 _atom_site_label
 _atom_site_symmetry_multiplicity
 _atom_site_fract_x
 _atom_site_fract_y
 _atom_site_fract_z
 _atom_site_occupancy
  Na  Na0  1  0.15250300  0.07323000  0.74166500  1
  Na  Na1  1  0.15513100  0.43692900  0.74325900  1
  Na  Na2  1  0.34749700  0.07323000  0.24166500  1
  Na  Na3  1  0.34486900  0.43692900  0.24325900  1
  Na  Na4  1  0.84749700  0.92677000  0.25833500  1
  Na  Na5  1  0.84486900  0.56307100  0.25674100  1
  Na  Na6  1  0.65513100  0.56307100  0.75674100  1
  Na  Na7  1  0.65250300  0.92677000  0.75833500  1
  Ti  Ti8  1  0.89571500  0.52521200  0.58225800  1
  Ti  Ti9  1  0.89475400  0.19776600  0.57773100  1
  Ti  Ti10  1  0.90207300  0.85993600  0.58971400  1
  Ti  Ti11  1  0.59792700  0.85993600  0.08971400  1
  Ti  Ti12  1  0.60428500  0.52521200  0.08225800  1
  Ti  Ti13  1  0.60524600  0.19776600  0.07773100  1
  Ti  Ti14  1  0.10428500  0.47478800  0.41774200  1
  Ti  Ti15  1  0.09792700  0.14006400  0.41028600  1
  Ti  Ti16  1  0.10524600  0.80223400  0.42226900  1
  Ti  Ti17  1  0.40207300  0.14006400  0.91028600  1
  Ti  Ti18  1  0.39475400  0.80223400  0.92226900  1
  Ti  Ti19  1  0.39571500  0.47478800  0.91774200  1
  Ti  Ti20  1  0.38838400  0.54933300  0.55153300  1
  Ti  Ti21  1  0.38845700  0.20484700  0.56150800  1
  Ti  Ti22  1  0.38472400  0.87388000  0.56911300  1
  Ti  Ti23  1  0.11527600  0.87388000  0.06911300  1
  Ti  Ti24  1  0.11161600  0.54933300  0.05153300  1
  Ti  Ti25  1  0.11154300  0.20484700  0.06150800  1
  Ti  Ti26  1  0.61161600  0.45066700  0.44846700  1
  Ti  Ti27  1  0.61527600  0.12612000  0.43088700  1
  Ti  Ti28  1  0.61154300  0.79515300  0.43849200  1
  Ti  Ti29  1  0.88472400  0.12612000  0.93088700  1
  Ti  Ti30  1  0.88845700  0.79515300  0.93849200  1
  Ti  Ti31  1  0.88838400  0.45066700  0.94846700  1
  O  O32  1  0.51761600  0.32594500  0.88832300  1
  O  O33  1  0.51851600  0.99018300  0.88930200  1
  O  O34  1  0.52107400  0.65882100  0.88713800  1
  O  O35  1  0.97892600  0.65882100  0.38713800  1
  O  O36  1  0.98238400  0.32594500  0.38832300  1
  O  O37  1  0.98148400  0.99018300  0.38930200  1
  O  O38  1  0.48238400  0.67405500  0.11167700  1
  O  O39  1  0.47892600  0.34117900  0.11286200  1
  O  O40  1  0.48148400  0.00981700  0.11069800  1
  O  O41  1  0.02107400  0.34117900  0.61286200  1
  O  O42  1  0.01851600  0.00981700  0.61069800  1
  O  O43  1  0.01761600  0.67405500  0.61167700  1
  O  O44  1  0.57164400  0.53361800  0.57482500  1
  O  O45  1  0.57222200  0.19897600  0.57502400  1
  O  O46  1  0.56869600  0.86441000  0.57876700  1
  O  O47  1  0.93130400  0.86441000  0.07876700  1
  O  O48  1  0.92835600  0.53361800  0.07482500  1
  O  O49  1  0.92777800  0.19897600  0.07502400  1
  O  O50  1  0.42835600  0.46638200  0.42517500  1
  O  O51  1  0.43130400  0.13559000  0.42123300  1
  O  O52  1  0.42777800  0.80102400  0.42497600  1
  O  O53  1  0.06869600  0.13559000  0.92123300  1
  O  O54  1  0.07222200  0.80102400  0.92497600  1
  O  O55  1  0.07164400  0.46638200  0.92517500  1
  O  O56  1  0.85728500  0.39066100  0.79464700  1
  O  O57  1  0.85884400  0.05299900  0.79104500  1
  O  O58  1  0.85382500  0.71862700  0.79610600  1
  O  O59  1  0.64617500  0.71862700  0.29610600  1
  O  O60  1  0.64271500  0.39066100  0.29464700  1
  O  O61  1  0.64115600  0.05299900  0.29104500  1
  O  O62  1  0.14271500  0.60933900  0.20535300  1
  O  O63  1  0.14617500  0.28137300  0.20389400  1
  O  O64  1  0.14115600  0.94700100  0.20895500  1
  O  O65  1  0.35382500  0.28137300  0.70389400  1
  O  O66  1  0.35884400  0.94700100  0.70895500  1
  O  O67  1  0.35728500  0.60933900  0.70535300  1
  O  O68  1  0.28163400  0.26483600  0.97564700  1
  O  O69  1  0.28024200  0.94083800  0.96831100  1
  O  O70  1  0.28456600  0.59125200  0.98742600  1
  O  O71  1  0.21543400  0.59125200  0.48742600  1
  O  O72  1  0.21836600  0.26483600  0.47564700  1
  O  O73  1  0.21975800  0.94083800  0.46831100  1
  O  O74  1  0.71836600  0.73516400  0.02435300  1
  O  O75  1  0.71543400  0.40874800  0.01257400  1
  O  O76  1  0.71975800  0.05916200  0.03168900  1
  O  O77  1  0.78456600  0.40874800  0.51257400  1
  O  O78  1  0.78024200  0.05916200  0.53168900  1
  O  O79  1  0.78163400  0.73516400  0.52435300  1
