# generated using pymatgen
data_Nd5Ti4GaO17
_symmetry_space_group_name_H-M   'P 1'
_cell_length_a   5.50858100
_cell_length_b   7.73641400
_cell_length_c   32.06560684
_cell_angle_alpha   82.95373753
_cell_angle_beta   90.00000000
_cell_angle_gamma   90.00000000
_symmetry_Int_Tables_number   1
_chemical_formula_structural   Nd5Ti4GaO17
_chemical_formula_sum   'Nd20 Ti16 Ga4 O68'
_cell_volume   1356.20835456
_cell_formula_units_Z   4
loop_
 _symmetry_equiv_pos_site_id
 _symmetry_equiv_pos_as_xyz
  1  'x, y, z'
loop_
 _atom_site_type_symbol
 _atom_site_label
 _atom_site_symmetry_multiplicity
 _atom_site_fract_x
 _atom_site_fract_y
 _atom_site_fract_z
 _atom_site_occupancy
  Nd  Nd0  1  0.23627100  0.78017900  0.91795800  1
  Nd  Nd1  1  0.72993700  0.21369800  0.58098500  1
  Nd  Nd2  1  0.27006300  0.21369800  0.08098500  1
  Nd  Nd3  1  0.76372900  0.78017900  0.41795800  1
  Nd  Nd4  1  0.25175000  0.30327000  0.90299300  1
  Nd  Nd5  1  0.74644400  0.70059900  0.59600000  1
  Nd  Nd6  1  0.25355600  0.70059900  0.09600000  1
  Nd  Nd7  1  0.74825000  0.30327000  0.40299300  1
  Nd  Nd8  1  0.76071600  0.74264900  0.00602300  1
  Nd  Nd9  1  0.26028400  0.26165300  0.49133100  1
  Nd  Nd10  1  0.73971600  0.26165300  0.99133100  1
  Nd  Nd11  1  0.23928400  0.74264900  0.50602300  1
  Nd  Nd12  1  0.12351000  0.14277000  0.72154600  1
  Nd  Nd13  1  0.63030500  0.85376000  0.77982800  1
  Nd  Nd14  1  0.36969500  0.85376000  0.27982800  1
  Nd  Nd15  1  0.87649000  0.14277000  0.22154600  1
  Nd  Nd16  1  0.18536400  0.64182800  0.70335000  1
  Nd  Nd17  1  0.70162000  0.35802500  0.80174700  1
  Nd  Nd18  1  0.29838000  0.35802500  0.30174700  1
  Nd  Nd19  1  0.81463600  0.64182800  0.20335000  1
  Ti  Ti20  1  0.74016400  0.04645100  0.90623400  1
  Ti  Ti21  1  0.23076000  0.95239100  0.59284100  1
  Ti  Ti22  1  0.76924000  0.95239100  0.09284100  1
  Ti  Ti23  1  0.25983600  0.04645100  0.40623400  1
  Ti  Ti24  1  0.19905100  0.59527300  0.82213800  1
  Ti  Ti25  1  0.68333100  0.40616200  0.67917900  1
  Ti  Ti26  1  0.31666900  0.40616200  0.17917900  1
  Ti  Ti27  1  0.80094900  0.59527300  0.32213800  1
  Ti  Ti28  1  0.20125500  0.08220600  0.82320200  1
  Ti  Ti29  1  0.69128700  0.92110300  0.67664800  1
  Ti  Ti30  1  0.30871300  0.92110300  0.17664800  1
  Ti  Ti31  1  0.79874500  0.08220600  0.32320200  1
  Ti  Ti32  1  0.25336100  0.00251600  0.99892800  1
  Ti  Ti33  1  0.74663900  0.00251600  0.49892800  1
  Ti  Ti34  1  0.23286800  0.45585300  0.59368900  1
  Ti  Ti35  1  0.76713200  0.45585300  0.09368900  1
  Ga  Ga36  1  0.25203900  0.49999500  0.99958100  1
  Ga  Ga37  1  0.74796100  0.49999500  0.49958100  1
  Ga  Ga38  1  0.73483700  0.54677700  0.90543400  1
  Ga  Ga39  1  0.26516300  0.54677700  0.40543400  1
  O  O40  1  0.33216000  0.75654800  0.99704900  1
  O  O41  1  0.83718000  0.24477500  0.50460200  1
  O  O42  1  0.16282000  0.24477500  0.00460200  1
  O  O43  1  0.66784000  0.75654800  0.49704900  1
  O  O44  1  0.46459900  0.48356400  0.94852700  1
  O  O45  1  0.96778600  0.51683400  0.55186300  1
  O  O46  1  0.03221400  0.51683400  0.05186300  1
  O  O47  1  0.53540100  0.48356400  0.44852700  1
  O  O48  1  0.40207600  0.59242200  0.77333600  1
  O  O49  1  0.89289400  0.40347500  0.72634200  1
  O  O50  1  0.10710600  0.40347500  0.22634200  1
  O  O51  1  0.59792400  0.59242200  0.27333600  1
  O  O52  1  0.53077000  0.03050800  0.03585400  1
  O  O53  1  0.03310800  0.97558600  0.46482300  1
  O  O54  1  0.96689200  0.97558600  0.96482300  1
  O  O55  1  0.46923000  0.03050800  0.53585400  1
  O  O56  1  0.41851100  0.13344200  0.77917500  1
  O  O57  1  0.91237100  0.87108300  0.72057100  1
  O  O58  1  0.08762900  0.87108300  0.22057100  1
  O  O59  1  0.58148900  0.13344200  0.27917500  1
  O  O60  1  0.66974300  0.79843700  0.91292200  1
  O  O61  1  0.17000000  0.20488700  0.58986400  1
  O  O62  1  0.83000000  0.20488700  0.08986400  1
  O  O63  1  0.33025700  0.79843700  0.41292200  1
  O  O64  1  0.39397300  0.37076400  0.70283200  1
  O  O65  1  0.91326300  0.63113900  0.79531000  1
  O  O66  1  0.08673700  0.63113900  0.29531000  1
  O  O67  1  0.60602700  0.37076400  0.20283200  1
  O  O68  1  0.53188800  0.43620600  0.03589300  1
  O  O69  1  0.03112000  0.56209500  0.46470700  1
  O  O70  1  0.96888000  0.56209500  0.96470700  1
  O  O71  1  0.46811200  0.43620600  0.53589300  1
  O  O72  1  0.13301400  0.33200200  0.82903900  1
  O  O73  1  0.64703100  0.66368500  0.67117700  1
  O  O74  1  0.35296900  0.66368500  0.17117700  1
  O  O75  1  0.86698600  0.33200200  0.32903900  1
  O  O76  1  0.03697700  0.87154500  0.63695600  1
  O  O77  1  0.53710800  0.12472600  0.86270900  1
  O  O78  1  0.46289200  0.12472600  0.36270900  1
  O  O79  1  0.96302300  0.87154500  0.13695600  1
  O  O80  1  0.82317300  0.28527300  0.91828800  1
  O  O81  1  0.32330200  0.71101800  0.58051900  1
  O  O82  1  0.67669800  0.71101800  0.08051900  1
  O  O83  1  0.17682700  0.28527300  0.41828800  1
  O  O84  1  0.55010800  0.42081200  0.61878200  1
  O  O85  1  0.05041400  0.58127600  0.88056400  1
  O  O86  1  0.94958600  0.58127600  0.38056400  1
  O  O87  1  0.44989200  0.42081200  0.11878200  1
  O  O88  1  0.46008200  0.06961400  0.95028200  1
  O  O89  1  0.96535800  0.93145900  0.55074300  1
  O  O90  1  0.03464200  0.93145900  0.05074300  1
  O  O91  1  0.53991800  0.06961400  0.45028200  1
  O  O92  1  0.04089100  0.49235000  0.63794800  1
  O  O93  1  0.52315900  0.50709200  0.85930800  1
  O  O94  1  0.47684100  0.50709200  0.35930800  1
  O  O95  1  0.95910900  0.49235000  0.13794800  1
  O  O96  1  0.42415200  0.91655400  0.71117200  1
  O  O97  1  0.93054900  0.07807300  0.78939800  1
  O  O98  1  0.06945100  0.07807300  0.28939800  1
  O  O99  1  0.57584800  0.91655400  0.21117200  1
  O  O100  1  0.29351300  0.83500100  0.82945800  1
  O  O101  1  0.78400400  0.16589300  0.67017700  1
  O  O102  1  0.21599600  0.16589300  0.17017700  1
  O  O103  1  0.70648700  0.83500100  0.32945800  1
  O  O104  1  0.54784200  0.96260800  0.61884500  1
  O  O105  1  0.05163900  0.03209700  0.88132800  1
  O  O106  1  0.94836100  0.03209700  0.38132800  1
  O  O107  1  0.45215800  0.96260800  0.11884500  1
