# generated using pymatgen
data_NaLa2TaTi2O12
_symmetry_space_group_name_H-M   'P 1'
_cell_length_a   3.88684100
_cell_length_b   3.88814801
_cell_length_c   17.31770942
_cell_angle_alpha   95.10170334
_cell_angle_beta   95.79105908
_cell_angle_gamma   89.95872444
_symmetry_Int_Tables_number   1
_chemical_formula_structural   NaLa2TaTi2O12
_chemical_formula_sum   'Na1 La2 Ta1 Ti2 O12'
_cell_volume   259.33965770
_cell_formula_units_Z   1
loop_
 _symmetry_equiv_pos_site_id
 _symmetry_equiv_pos_as_xyz
  1  'x, y, z'
loop_
 _atom_site_type_symbol
 _atom_site_label
 _atom_site_symmetry_multiplicity
 _atom_site_fract_x
 _atom_site_fract_y
 _atom_site_fract_z
 _atom_site_occupancy
  Na  Na0  1  0.29182600  0.88179300  0.58434000  1
  La  La1  1  0.43067600  0.43077800  0.86660500  1
  La  La2  1  0.55980300  0.55639400  0.12114100  1
  Ta  Ta3  1  0.11863000  0.10288200  0.25722000  1
  Ti  Ti4  1  0.00342800  0.99876600  0.00108200  1
  Ti  Ti5  1  0.87562500  0.88059800  0.74685600  1
  O  O6  1  0.14794500  0.13018500  0.35980100  1
  O  O7  1  0.82432100  0.84229400  0.64583100  1
  O  O8  1  0.05716200  0.03848300  0.11698600  1
  O  O9  1  0.95279600  0.94620600  0.89040600  1
  O  O10  1  0.11153100  0.59175600  0.22622600  1
  O  O11  1  0.60712200  0.09651600  0.22595300  1
  O  O12  1  0.89249000  0.39517400  0.77743300  1
  O  O13  1  0.39188200  0.89407500  0.77557800  1
  O  O14  1  0.43828600  0.36201200  0.49231700  1
  O  O15  1  0.64459300  0.55429900  0.46688900  1
  O  O16  1  0.01509400  0.49721400  0.00728200  1
  O  O17  1  0.50928800  0.99707500  0.00705500  1
