# generated using pymatgen
data_NaDy3Ti2(SbO7)2
_symmetry_space_group_name_H-M   'P 1'
_cell_length_a   7.26054329
_cell_length_b   7.26054329
_cell_length_c   7.21034199
_cell_angle_alpha   60.67994720
_cell_angle_beta   60.67994720
_cell_angle_gamma   60.88331198
_symmetry_Int_Tables_number   1
_chemical_formula_structural   NaDy3Ti2(SbO7)2
_chemical_formula_sum   'Na1 Dy3 Ti2 Sb2 O14'
_cell_volume   273.30115658
_cell_formula_units_Z   1
loop_
 _symmetry_equiv_pos_site_id
 _symmetry_equiv_pos_as_xyz
  1  'x, y, z'
loop_
 _atom_site_type_symbol
 _atom_site_label
 _atom_site_symmetry_multiplicity
 _atom_site_fract_x
 _atom_site_fract_y
 _atom_site_fract_z
 _atom_site_occupancy
  Na  Na0  1  0.00000000  0.00000000  0.00000000  1
  Dy  Dy1  1  0.00000000  0.00000000  0.50000000  1
  Dy  Dy2  1  0.50000000  0.00000000  0.00000000  1
  Dy  Dy3  1  0.00000000  0.50000000  0.00000000  1
  Ti  Ti4  1  0.50000000  0.50000000  0.50000000  1
  Ti  Ti5  1  0.50000000  0.50000000  0.00000000  1
  Sb  Sb6  1  0.00000000  0.50000000  0.50000000  1
  Sb  Sb7  1  0.50000000  0.00000000  0.50000000  1
  O  O8  1  0.57206200  0.57206200  0.18016600  1
  O  O9  1  0.16935500  0.16935500  0.57293000  1
  O  O10  1  0.17404800  0.57865800  0.57906400  1
  O  O11  1  0.56343300  0.17651800  0.17526200  1
  O  O12  1  0.17651800  0.56343300  0.17526200  1
  O  O13  1  0.57865800  0.17404800  0.57906400  1
  O  O14  1  0.42793800  0.42793800  0.81983400  1
  O  O15  1  0.83064500  0.83064500  0.42707000  1
  O  O16  1  0.82595200  0.42134200  0.42093600  1
  O  O17  1  0.43656700  0.82348200  0.82473800  1
  O  O18  1  0.82348200  0.43656700  0.82473800  1
  O  O19  1  0.42134200  0.82595200  0.42093600  1
  O  O20  1  0.86682200  0.86682200  0.86933700  1
  O  O21  1  0.13317800  0.13317800  0.13066300  1
