# generated using pymatgen
data_Rb2Cr(ICl)2
_symmetry_space_group_name_H-M   'P 1'
_cell_length_a   9.22255900
_cell_length_b   13.62880700
_cell_length_c   9.49409039
_cell_angle_alpha   90.00000000
_cell_angle_beta   60.94165327
_cell_angle_gamma   90.00000000
_symmetry_Int_Tables_number   1
_chemical_formula_structural   Rb2Cr(ICl)2
_chemical_formula_sum   'Rb4 Cr2 I4 Cl4'
_cell_volume   1043.12525747
_cell_formula_units_Z   2
loop_
 _symmetry_equiv_pos_site_id
 _symmetry_equiv_pos_as_xyz
  1  'x, y, z'
loop_
 _atom_site_type_symbol
 _atom_site_label
 _atom_site_symmetry_multiplicity
 _atom_site_fract_x
 _atom_site_fract_y
 _atom_site_fract_z
 _atom_site_occupancy
  Rb  Rb0  1  0.88414300  0.50000000  0.23171500  1
  Rb  Rb1  1  0.38414300  0.00000000  0.23171500  1
  Rb  Rb2  1  0.11585700  0.50000000  0.76828500  1
  Rb  Rb3  1  0.61585700  0.00000000  0.76828500  1
  Cr  Cr4  1  0.50000000  0.50000000  0.00000000  1
  Cr  Cr5  1  0.00000000  0.00000000  0.00000000  1
  I  I6  1  0.59589300  0.31068900  0.00000000  1
  I  I7  1  0.40410700  0.68931100  0.00000000  1
  I  I8  1  0.90410700  0.81068900  0.00000000  1
  I  I9  1  0.09589300  0.18931100  0.00000000  1
  Cl  Cl10  1  0.74483000  0.55488700  0.00000000  1
  Cl  Cl11  1  0.25517000  0.44511300  0.00000000  1
  Cl  Cl12  1  0.75517000  0.05488700  0.00000000  1
  Cl  Cl13  1  0.24483000  0.94511300  0.00000000  1
