# generated using pymatgen
data_NaB10Pb4Cl2O19
_symmetry_space_group_name_H-M   'P 1'
_cell_length_a   11.58458600
_cell_length_b   6.74442200
_cell_length_c   13.32417397
_cell_angle_alpha   59.80446424
_cell_angle_beta   90.00000000
_cell_angle_gamma   90.00000000
_symmetry_Int_Tables_number   1
_chemical_formula_structural   NaB10Pb4Cl2O19
_chemical_formula_sum   'Na2 B20 Pb8 Cl4 O38'
_cell_volume   899.78156866
_cell_formula_units_Z   2
loop_
 _symmetry_equiv_pos_site_id
 _symmetry_equiv_pos_as_xyz
  1  'x, y, z'
loop_
 _atom_site_type_symbol
 _atom_site_label
 _atom_site_symmetry_multiplicity
 _atom_site_fract_x
 _atom_site_fract_y
 _atom_site_fract_z
 _atom_site_occupancy
  Na  Na0  1  0.75438900  0.35170400  0.99395900  1
  Na  Na1  1  0.24561100  0.35170400  0.49395900  1
  B  B2  1  0.77183900  0.93427300  0.25376400  1
  B  B3  1  0.72912500  0.45183800  0.73872200  1
  B  B4  1  0.27087500  0.45183800  0.23872200  1
  B  B5  1  0.22816100  0.93427300  0.75376400  1
  B  B6  1  0.96216400  0.14039800  0.16092900  1
  B  B7  1  0.54138000  0.46932300  0.83484500  1
  B  B8  1  0.45862000  0.46932300  0.33484500  1
  B  B9  1  0.03783600  0.14039800  0.66092900  1
  B  B10  1  0.94820600  0.70590000  0.26758200  1
  B  B11  1  0.55414900  0.24295000  0.72910000  1
  B  B12  1  0.44585100  0.24295000  0.22910000  1
  B  B13  1  0.05179400  0.70590000  0.76758200  1
  B  B14  1  0.95137400  0.45938600  0.69157800  1
  B  B15  1  0.54874500  0.84273700  0.30554100  1
  B  B16  1  0.45125500  0.84273700  0.80554100  1
  B  B17  1  0.04862600  0.45938600  0.19157800  1
  B  B18  1  0.99791800  0.53579700  0.98843600  1
  B  B19  1  0.50497500  0.51646300  0.00924000  1
  B  B20  1  0.49502500  0.51646300  0.50924000  1
  B  B21  1  0.00208200  0.53579700  0.48843600  1
  Pb  Pb22  1  0.28154800  0.45233400  0.72523600  1
  Pb  Pb23  1  0.22118500  0.92652500  0.26581700  1
  Pb  Pb24  1  0.77881500  0.92652500  0.76581700  1
  Pb  Pb25  1  0.71845200  0.45233400  0.22523600  1
  Pb  Pb26  1  0.97042600  0.04576900  0.45383600  1
  Pb  Pb27  1  0.51021000  0.95946000  0.53724500  1
  Pb  Pb28  1  0.48979000  0.95946000  0.03724500  1
  Pb  Pb29  1  0.02957400  0.04576900  0.95383600  1
  Cl  Cl30  1  0.73529600  0.13056200  0.51467300  1
  Cl  Cl31  1  0.26470400  0.13056200  0.01467300  1
  Cl  Cl32  1  0.78896800  0.00057900  0.96873700  1
  Cl  Cl33  1  0.21103200  0.00057900  0.46873700  1
  O  O34  1  0.95651400  0.21495400  0.72051000  1
  O  O35  1  0.54202600  0.65754000  0.27671600  1
  O  O36  1  0.45797400  0.65754000  0.77671600  1
  O  O37  1  0.04348600  0.21495400  0.22051000  1
  O  O38  1  0.82004700  0.72669100  0.28217100  1
  O  O39  1  0.68176000  0.29889700  0.71031500  1
  O  O40  1  0.31824000  0.29889700  0.21031500  1
  O  O41  1  0.17995300  0.72669100  0.78217100  1
  O  O42  1  0.71711900  0.63764300  0.02546700  1
  O  O43  1  0.28288100  0.63764300  0.52546700  1
  O  O44  1  0.84073500  0.13158300  0.20312200  1
  O  O45  1  0.66075300  0.54836800  0.78926800  1
  O  O46  1  0.33924700  0.54836800  0.28926800  1
  O  O47  1  0.15926500  0.13158300  0.70312200  1
  O  O48  1  0.99475800  0.92195600  0.16921400  1
  O  O49  1  0.51155700  0.26205100  0.82916800  1
  O  O50  1  0.48844300  0.26205100  0.32916800  1
  O  O51  1  0.00524200  0.92195600  0.66921400  1
  O  O52  1  0.96241300  0.31107800  0.03201400  1
  O  O53  1  0.54516200  0.38439500  0.96354700  1
  O  O54  1  0.45483800  0.38439500  0.46354700  1
  O  O55  1  0.03758700  0.31107800  0.53201400  1
  O  O56  1  0.99203700  0.68989500  0.87190200  1
  O  O57  1  0.50737900  0.42980300  0.12699900  1
  O  O58  1  0.49262100  0.42980300  0.62699900  1
  O  O59  1  0.00796300  0.68989500  0.37190200  1
  O  O60  1  0.96823800  0.61224500  0.56192400  1
  O  O61  1  0.53813200  0.73474500  0.43667700  1
  O  O62  1  0.46186800  0.73474500  0.93667700  1
  O  O63  1  0.03176200  0.61224500  0.06192400  1
  O  O64  1  0.95746100  0.50380600  0.25497000  1
  O  O65  1  0.54514300  0.01205900  0.74588800  1
  O  O66  1  0.45485700  0.01205900  0.24588800  1
  O  O67  1  0.04253900  0.50380600  0.75497000  1
  O  O68  1  0.84091000  0.52000500  0.72198200  1
  O  O69  1  0.65877400  0.96928700  0.26790500  1
  O  O70  1  0.34122600  0.96928700  0.76790500  1
  O  O71  1  0.15909000  0.52000500  0.22198200  1
