# generated using pymatgen
data_NaU4V3O20
_symmetry_space_group_name_H-M   'P 1'
_cell_length_a   7.33532564
_cell_length_b   7.33532564
_cell_length_c   18.08441998
_cell_angle_alpha   78.43447669
_cell_angle_beta   78.43447669
_cell_angle_gamma   89.99990058
_symmetry_Int_Tables_number   1
_chemical_formula_structural   NaU4V3O20
_chemical_formula_sum   'Na2 U8 V6 O40'
_cell_volume   933.13604427
_cell_formula_units_Z   2
loop_
 _symmetry_equiv_pos_site_id
 _symmetry_equiv_pos_as_xyz
  1  'x, y, z'
loop_
 _atom_site_type_symbol
 _atom_site_label
 _atom_site_symmetry_multiplicity
 _atom_site_fract_x
 _atom_site_fract_y
 _atom_site_fract_z
 _atom_site_occupancy
  Na  Na0  1  0.00000000  0.00000000  0.50000000  1
  Na  Na1  1  0.00000000  0.00000000  0.00000000  1
  U  U2  1  0.09869600  0.34916200  0.30242900  1
  U  U3  1  0.34916200  0.09869600  0.80242900  1
  U  U4  1  0.90130400  0.65083800  0.69757100  1
  U  U5  1  0.65083800  0.90130400  0.19757100  1
  U  U6  1  0.47237400  0.22234700  0.55495800  1
  U  U7  1  0.22234700  0.47237400  0.05495800  1
  U  U8  1  0.52762600  0.77765300  0.44504200  1
  U  U9  1  0.77765300  0.52762600  0.94504200  1
  V  V10  1  0.12490800  0.87509200  0.25000000  1
  V  V11  1  0.87509200  0.12490800  0.75000000  1
  V  V12  1  0.56797400  0.31796900  0.36432600  1
  V  V13  1  0.31796900  0.56797400  0.86432600  1
  V  V14  1  0.43202600  0.68203100  0.63567400  1
  V  V15  1  0.68203100  0.43202600  0.13567400  1
  O  O16  1  0.09680100  0.04559400  0.30578900  1
  O  O17  1  0.04559400  0.09680100  0.80578900  1
  O  O18  1  0.64919700  0.09726600  0.80484800  1
  O  O19  1  0.09726600  0.64919700  0.30484800  1
  O  O20  1  0.90319900  0.95440600  0.69421100  1
  O  O21  1  0.95440600  0.90319900  0.19421100  1
  O  O22  1  0.35080300  0.90273400  0.19515200  1
  O  O23  1  0.90273400  0.35080300  0.69515200  1
  O  O24  1  0.04619900  0.28724100  0.40793600  1
  O  O25  1  0.28724100  0.04619900  0.90793600  1
  O  O26  1  0.95380100  0.71275900  0.59206400  1
  O  O27  1  0.71275900  0.95380100  0.09206400  1
  O  O28  1  0.15470000  0.40534000  0.19047300  1
  O  O29  1  0.40534000  0.15470000  0.69047300  1
  O  O30  1  0.84530000  0.59466000  0.80952700  1
  O  O31  1  0.59466000  0.84530000  0.30952700  1
  O  O32  1  0.53464200  0.10494100  0.43083900  1
  O  O33  1  0.10494100  0.53464200  0.93083900  1
  O  O34  1  0.46458500  0.53464600  0.93081200  1
  O  O35  1  0.53464600  0.46458500  0.43081200  1
  O  O36  1  0.46535800  0.89505900  0.56916100  1
  O  O37  1  0.89505900  0.46535800  0.06916100  1
  O  O38  1  0.53541500  0.46535400  0.06918800  1
  O  O39  1  0.46535400  0.53541500  0.56918800  1
  O  O40  1  0.72014900  0.21687300  0.55175400  1
  O  O41  1  0.22833500  0.21689500  0.55170100  1
  O  O42  1  0.21687300  0.72014900  0.05175400  1
  O  O43  1  0.21689500  0.22833500  0.05170100  1
  O  O44  1  0.27985100  0.78312700  0.44824600  1
  O  O45  1  0.77166500  0.78310500  0.44829900  1
  O  O46  1  0.78312700  0.27985100  0.94824600  1
  O  O47  1  0.78310500  0.77166500  0.94829900  1
  O  O48  1  0.79137600  0.34518400  0.30922900  1
  O  O49  1  0.39931700  0.34522200  0.30913000  1
  O  O50  1  0.34518400  0.79137600  0.80922900  1
  O  O51  1  0.34522200  0.39931700  0.80913000  1
  O  O52  1  0.20862400  0.65481600  0.69077100  1
  O  O53  1  0.60068300  0.65477800  0.69087000  1
  O  O54  1  0.65481600  0.20862400  0.19077100  1
  O  O55  1  0.65477800  0.60068300  0.19087000  1
