# generated using pymatgen
data_Na8ThU(MoO4)8
_symmetry_space_group_name_H-M   'P 1'
_cell_length_a   10.15674036
_cell_length_b   10.15674036
_cell_length_c   10.15674036
_cell_angle_alpha   111.31024402
_cell_angle_beta   111.31024402
_cell_angle_gamma   105.85265380
_symmetry_Int_Tables_number   1
_chemical_formula_structural   Na8ThU(MoO4)8
_chemical_formula_sum   'Na8 Th1 U1 Mo8 O32'
_cell_volume   804.17512606
_cell_formula_units_Z   1
loop_
 _symmetry_equiv_pos_site_id
 _symmetry_equiv_pos_as_xyz
  1  'x, y, z'
loop_
 _atom_site_type_symbol
 _atom_site_label
 _atom_site_symmetry_multiplicity
 _atom_site_fract_x
 _atom_site_fract_y
 _atom_site_fract_z
 _atom_site_occupancy
  Na  Na0  1  0.59513800  0.48500000  0.64998600  1
  Na  Na1  1  0.83501400  0.94515200  0.35001400  1
  Na  Na2  1  0.23423000  0.08425700  0.38815700  1
  Na  Na3  1  0.69610000  0.84607200  0.61184300  1
  Na  Na4  1  0.15392800  0.76577000  0.85002800  1
  Na  Na5  1  0.91574300  0.30390000  0.14997200  1
  Na  Na6  1  0.51500000  0.16498600  0.11013700  1
  Na  Na7  1  0.05484800  0.40486200  0.88986300  1
  Th  Th8  1  0.25000000  0.75000000  0.50000000  1
  U  U9  1  0.50000000  0.50000000  0.00000000  1
  Mo  Mo10  1  0.92668100  0.66593000  0.08779400  1
  Mo  Mo11  1  0.57813500  0.83888600  0.91220600  1
  Mo  Mo12  1  0.41941600  0.82676600  0.23722800  1
  Mo  Mo13  1  0.58953700  0.18218800  0.76277200  1
  Mo  Mo14  1  0.81781200  0.58058400  0.40735000  1
  Mo  Mo15  1  0.17323400  0.41046300  0.59265000  1
  Mo  Mo16  1  0.33407000  0.42186500  0.26075100  1
  Mo  Mo17  1  0.16111400  0.07331900  0.73924900  1
  O  O18  1  0.71113600  0.54172200  0.94420300  1
  O  O19  1  0.59751900  0.76693300  0.05579700  1
  O  O20  1  0.29279200  0.84561800  0.32573700  1
  O  O21  1  0.51988000  0.96705500  0.67426300  1
  O  O22  1  0.03294500  0.70720800  0.55282500  1
  O  O23  1  0.15438200  0.48012000  0.44717500  1
  O  O24  1  0.45827800  0.40248100  0.16941400  1
  O  O25  1  0.23306700  0.28886400  0.83058600  1
  O  O26  1  0.01527600  0.65135700  0.96507600  1
  O  O27  1  0.68628100  0.05019900  0.03492400  1
  O  O28  1  0.40444000  0.93393600  0.13332500  1
  O  O29  1  0.80061100  0.27111500  0.86667500  1
  O  O30  1  0.72888500  0.59556000  0.52949600  1
  O  O31  1  0.06606400  0.19938900  0.47050400  1
  O  O32  1  0.34864300  0.31371900  0.36391800  1
  O  O33  1  0.94980100  0.98472400  0.63608200  1
  O  O34  1  0.00602600  0.59847600  0.23173100  1
  O  O35  1  0.36674500  0.77429500  0.76826900  1
  O  O36  1  0.35442300  0.61533700  0.09038100  1
  O  O37  1  0.52495600  0.26404200  0.90961900  1
  O  O38  1  0.73595800  0.64557700  0.26091400  1
  O  O39  1  0.38466300  0.47504400  0.73908600  1
  O  O40  1  0.40152400  0.63325500  0.40755000  1
  O  O41  1  0.22570500  0.99397400  0.59245000  1
  O  O42  1  0.96905800  0.86689200  0.20194400  1
  O  O43  1  0.66494700  0.76711400  0.79805600  1
  O  O44  1  0.61879400  0.91722000  0.39869400  1
  O  O45  1  0.51852700  0.22010100  0.60130600  1
  O  O46  1  0.77989900  0.38120600  0.29842600  1
  O  O47  1  0.08278000  0.48147300  0.70157400  1
  O  O48  1  0.13310800  0.33505300  0.10216600  1
  O  O49  1  0.23288600  0.03094200  0.89783400  1
