# generated using pymatgen
data_Na3Zr2Si2PO12
_symmetry_space_group_name_H-M   'P 1'
_cell_length_a   9.16184344
_cell_length_b   9.16184344
_cell_length_c   9.26829295
_cell_angle_alpha   60.73008375
_cell_angle_beta   60.73008375
_cell_angle_gamma   60.17515210
_symmetry_Int_Tables_number   1
_chemical_formula_structural   Na3Zr2Si2PO12
_chemical_formula_sum   'Na6 Zr4 Si4 P2 O24'
_cell_volume   556.85207625
_cell_formula_units_Z   2
loop_
 _symmetry_equiv_pos_site_id
 _symmetry_equiv_pos_as_xyz
  1  'x, y, z'
loop_
 _atom_site_type_symbol
 _atom_site_label
 _atom_site_symmetry_multiplicity
 _atom_site_fract_x
 _atom_site_fract_y
 _atom_site_fract_z
 _atom_site_occupancy
  Na  Na0  1  0.38462900  0.61537100  0.00000000  1
  Na  Na1  1  0.60208900  0.39791100  0.50000000  1
  Na  Na2  1  0.24653300  0.08374900  0.56647300  1
  Na  Na3  1  0.91625100  0.75346700  0.43352700  1
  Na  Na4  1  0.00141700  0.47880500  0.23403100  1
  Na  Na5  1  0.52119500  0.99858300  0.76596900  1
  Zr  Zr6  1  0.14333300  0.65580000  0.80658300  1
  Zr  Zr7  1  0.34420000  0.85666700  0.19341700  1
  Zr  Zr8  1  0.85414200  0.34769600  0.69513400  1
  Zr  Zr9  1  0.65230400  0.14585800  0.30486600  1
  Si  Si10  1  0.05292800  0.94707200  0.00000000  1
  Si  Si11  1  0.95200800  0.04799200  0.50000000  1
  Si  Si12  1  0.25179200  0.46466100  0.49220500  1
  Si  Si13  1  0.53533900  0.74820800  0.50779500  1
  P  P14  1  0.74746200  0.53818900  0.01145700  1
  P  P15  1  0.46181100  0.25253800  0.98854300  1
  O  O16  1  0.00644800  0.11190200  0.82571800  1
  O  O17  1  0.88809800  0.99355200  0.17428200  1
  O  O18  1  0.99417900  0.88026100  0.67177000  1
  O  O19  1  0.11973900  0.00582100  0.32823000  1
  O  O20  1  0.28517900  0.41178100  0.98760100  1
  O  O21  1  0.58821900  0.71482100  0.01239900  1
  O  O22  1  0.72271500  0.58422000  0.52258400  1
  O  O23  1  0.41578000  0.27728500  0.47741600  1
  O  O24  1  0.92046700  0.55767000  0.97507700  1
  O  O25  1  0.44233000  0.07953300  0.02492300  1
  O  O26  1  0.06644500  0.43939900  0.53814900  1
  O  O27  1  0.56060100  0.93355500  0.46185100  1
  O  O28  1  0.76134200  0.48384400  0.86870200  1
  O  O29  1  0.51615600  0.23865800  0.13129800  1
  O  O30  1  0.24831700  0.51315300  0.64192200  1
  O  O31  1  0.48684700  0.75168300  0.35807800  1
  O  O32  1  0.07334800  0.75416500  0.00765700  1
  O  O33  1  0.24583500  0.92665200  0.99234300  1
  O  O34  1  0.93230800  0.23462400  0.50400200  1
  O  O35  1  0.76537600  0.06769200  0.49599800  1
  O  O36  1  0.70811200  0.39101200  0.19129700  1
  O  O37  1  0.60898800  0.29188800  0.80870300  1
  O  O38  1  0.26671200  0.63297300  0.30828400  1
  O  O39  1  0.36702700  0.73328800  0.69171600  1
