# generated using pymatgen
data_Na4TaAl3(PO4)6
_symmetry_space_group_name_H-M   'P 1'
_cell_length_a   8.57921400
_cell_length_b   8.58077738
_cell_length_c   8.73084391
_cell_angle_alpha   60.67592858
_cell_angle_beta   60.69166781
_cell_angle_gamma   60.06200678
_symmetry_Int_Tables_number   1
_chemical_formula_structural   Na4TaAl3(PO4)6
_chemical_formula_sum   'Na4 Ta1 Al3 P6 O24'
_cell_volume   459.34052313
_cell_formula_units_Z   1
loop_
 _symmetry_equiv_pos_site_id
 _symmetry_equiv_pos_as_xyz
  1  'x, y, z'
loop_
 _atom_site_type_symbol
 _atom_site_label
 _atom_site_symmetry_multiplicity
 _atom_site_fract_x
 _atom_site_fract_y
 _atom_site_fract_z
 _atom_site_occupancy
  Na  Na0  1  0.38756300  0.74597300  0.75421500  1
  Na  Na1  1  0.75116500  0.11066300  0.75248600  1
  Na  Na2  1  0.49003000  0.50103400  0.49165700  1
  Na  Na3  1  0.00563200  0.01789500  0.98975700  1
  Ta  Ta4  1  0.86129600  0.85768600  0.42240900  1
  Al  Al5  1  0.64382300  0.64164900  0.07101800  1
  Al  Al6  1  0.14848400  0.15318000  0.55592900  1
  Al  Al7  1  0.34886800  0.35264900  0.93987500  1
  P  P8  1  0.03885500  0.74287900  0.76065600  1
  P  P9  1  0.75348200  0.45287900  0.75946400  1
  P  P10  1  0.45274700  0.04009400  0.75831000  1
  P  P11  1  0.26470300  0.52763200  0.24225400  1
  P  P12  1  0.52589800  0.96364400  0.24672100  1
  P  P13  1  0.96221400  0.26344200  0.25036000  1
  O  O14  1  0.71741000  0.49191800  0.92720700  1
  O  O15  1  0.48926900  0.86242600  0.92436600  1
  O  O16  1  0.85956300  0.72163700  0.92481800  1
  O  O17  1  0.98728600  0.21151800  0.43468900  1
  O  O18  1  0.21713300  0.36496100  0.41687600  1
  O  O19  1  0.36498800  0.99295900  0.42725800  1
  O  O20  1  0.29527800  0.51071900  0.06213500  1
  O  O21  1  0.50485800  0.13306600  0.06988800  1
  O  O22  1  0.13398800  0.28989800  0.07988700  1
  O  O23  1  0.00633700  0.78288400  0.58064100  1
  O  O24  1  0.78266900  0.63126000  0.58216000  1
  O  O25  1  0.63170100  0.00683300  0.58145600  1
  O  O26  1  0.77737600  0.43053000  0.23785200  1
  O  O27  1  0.43046300  0.55713300  0.23340900  1
  O  O28  1  0.55453800  0.77879800  0.23530000  1
  O  O29  1  0.92658600  0.27192000  0.73595300  1
  O  O30  1  0.27629300  0.06243600  0.73286400  1
  O  O31  1  0.06494700  0.92006800  0.74033000  1
  O  O32  1  0.22560000  0.57419800  0.76709800  1
  O  O33  1  0.58057400  0.43267400  0.76337500  1
  O  O34  1  0.43678700  0.22247600  0.76681200  1
  O  O35  1  0.08453800  0.71734100  0.25789400  1
  O  O36  1  0.71601500  0.93926900  0.26071100  1
  O  O37  1  0.93854100  0.08427900  0.26191000  1
