# generated using pymatgen
data_Na4Si5Sn2O17
_symmetry_space_group_name_H-M   'P 1'
_cell_length_a   10.88510401
_cell_length_b   10.88510401
_cell_length_c   13.97379262
_cell_angle_alpha   70.51752840
_cell_angle_beta   70.51752840
_cell_angle_gamma   28.16479252
_symmetry_Int_Tables_number   1
_chemical_formula_structural   Na4Si5Sn2O17
_chemical_formula_sum   'Na8 Si10 Sn4 O34'
_cell_volume   733.84852839
_cell_formula_units_Z   2
loop_
 _symmetry_equiv_pos_site_id
 _symmetry_equiv_pos_as_xyz
  1  'x, y, z'
loop_
 _atom_site_type_symbol
 _atom_site_label
 _atom_site_symmetry_multiplicity
 _atom_site_fract_x
 _atom_site_fract_y
 _atom_site_fract_z
 _atom_site_occupancy
  Na  Na0  1  0.76841900  0.79375900  0.91394000  1
  Na  Na1  1  0.20624100  0.23158100  0.08606000  1
  Na  Na2  1  0.23151400  0.20729800  0.58514700  1
  Na  Na3  1  0.79270200  0.76848600  0.41485300  1
  Na  Na4  1  0.30601200  0.76425100  0.82776300  1
  Na  Na5  1  0.23574900  0.69398800  0.17223700  1
  Na  Na6  1  0.69374500  0.23813100  0.67172700  1
  Na  Na7  1  0.76186900  0.30625500  0.32827300  1
  Si  Si8  1  0.38244300  0.38500700  0.94805300  1
  Si  Si9  1  0.61499300  0.61755700  0.05194700  1
  Si  Si10  1  0.61974800  0.61457300  0.55069600  1
  Si  Si11  1  0.38542700  0.38025200  0.44930400  1
  Si  Si12  1  0.75237700  0.24762300  0.00000000  1
  Si  Si13  1  0.25075200  0.74924800  0.50000000  1
  Si  Si14  1  0.31667900  0.33883100  0.77418900  1
  Si  Si15  1  0.66116900  0.68332100  0.22581100  1
  Si  Si16  1  0.68187500  0.66166600  0.72553200  1
  Si  Si17  1  0.33833400  0.31812500  0.27446800  1
  Sn  Sn18  1  0.83751400  0.84734100  0.11270900  1
  Sn  Sn19  1  0.15265900  0.16248600  0.88729100  1
  Sn  Sn20  1  0.15828100  0.15687300  0.38876400  1
  Sn  Sn21  1  0.84312700  0.84171900  0.61123600  1
  O  O22  1  0.64604100  0.58092600  0.17071300  1
  O  O23  1  0.41907400  0.35395900  0.82928700  1
  O  O24  1  0.35490600  0.42000900  0.32894300  1
  O  O25  1  0.57999100  0.64509400  0.67105700  1
  O  O26  1  0.52515900  0.13367000  0.02291300  1
  O  O27  1  0.86633000  0.47484100  0.97708700  1
  O  O28  1  0.47303300  0.86852800  0.47691400  1
  O  O29  1  0.13147200  0.52696700  0.52308600  1
  O  O30  1  0.34150900  0.93344400  0.02412000  1
  O  O31  1  0.06655600  0.65849100  0.97588000  1
  O  O32  1  0.65977900  0.06589300  0.47586000  1
  O  O33  1  0.93410700  0.34022100  0.52414000  1
  O  O34  1  0.86684300  0.02164000  0.08367600  1
  O  O35  1  0.97836000  0.13315700  0.91632400  1
  O  O36  1  0.13283800  0.97786600  0.41665600  1
  O  O37  1  0.02213400  0.86716200  0.58334400  1
  O  O38  1  0.52133300  0.40351800  0.94222600  1
  O  O39  1  0.59648200  0.47866700  0.05777400  1
  O  O40  1  0.48054000  0.59559400  0.55760900  1
  O  O41  1  0.40440600  0.51946000  0.44239100  1
  O  O42  1  0.34107300  0.17357700  0.86030700  1
  O  O43  1  0.82642300  0.65892700  0.13969300  1
  O  O44  1  0.65727300  0.82695000  0.63990000  1
  O  O45  1  0.17305000  0.34272700  0.36010000  1
  O  O46  1  0.47637800  0.80843000  0.82667500  1
  O  O47  1  0.19157000  0.52362200  0.17332500  1
  O  O48  1  0.52228600  0.19270100  0.67346600  1
  O  O49  1  0.80729900  0.47771400  0.32653400  1
  O  O50  1  0.36735500  0.98674700  0.25155100  1
  O  O51  1  0.01325300  0.63264500  0.74844900  1
  O  O52  1  0.63181200  0.01390400  0.24910700  1
  O  O53  1  0.98609600  0.36818800  0.75089300  1
  O  O54  1  0.10855800  0.98674900  0.21244900  1
  O  O55  1  0.01325100  0.89144200  0.78755100  1
