# generated using pymatgen
data_Na4Br(ClO4)3
_symmetry_space_group_name_H-M   'P 1'
_cell_length_a   6.72602839
_cell_length_b   6.72602839
_cell_length_c   6.72602866
_cell_angle_alpha   90.59809426
_cell_angle_beta   90.59809426
_cell_angle_gamma   90.59810016
_symmetry_Int_Tables_number   1
_chemical_formula_structural   Na4Br(ClO4)3
_chemical_formula_sum   'Na4 Br1 Cl3 O12'
_cell_volume   304.23180634
_cell_formula_units_Z   1
loop_
 _symmetry_equiv_pos_site_id
 _symmetry_equiv_pos_as_xyz
  1  'x, y, z'
loop_
 _atom_site_type_symbol
 _atom_site_label
 _atom_site_symmetry_multiplicity
 _atom_site_fract_x
 _atom_site_fract_y
 _atom_site_fract_z
 _atom_site_occupancy
  Na  Na0  1  0.06846600  0.06846600  0.06846600  1
  Na  Na1  1  0.57278100  0.92823200  0.43056400  1
  Na  Na2  1  0.92823200  0.43056400  0.57278100  1
  Na  Na3  1  0.43056400  0.57278100  0.92823200  1
  Br  Br4  1  0.40983700  0.40983700  0.40983700  1
  Cl  Cl5  1  0.91974900  0.58123700  0.08155900  1
  Cl  Cl6  1  0.58123700  0.08155900  0.91974900  1
  Cl  Cl7  1  0.08155900  0.91974900  0.58123700  1
  O  O8  1  0.50762100  0.60727800  0.29067300  1
  O  O9  1  0.60727800  0.29067300  0.50762100  1
  O  O10  1  0.29067300  0.50762100  0.60727800  1
  O  O11  1  0.00522200  0.40687400  0.19366200  1
  O  O12  1  0.09427700  0.69574700  0.99938600  1
  O  O13  1  0.80427200  0.49581500  0.90674900  1
  O  O14  1  0.49581500  0.90674900  0.80427200  1
  O  O15  1  0.40687400  0.19366200  0.00522200  1
  O  O16  1  0.69574700  0.99938600  0.09427700  1
  O  O17  1  0.99938600  0.09427700  0.69574700  1
  O  O18  1  0.90674900  0.80427200  0.49581500  1
  O  O19  1  0.19366200  0.00522200  0.40687400  1
