# generated using pymatgen
data_Na3W2(ClO)4
_symmetry_space_group_name_H-M   'P 1'
_cell_length_a   8.03693408
_cell_length_b   8.03693408
_cell_length_c   5.61394200
_cell_angle_alpha   90.00000000
_cell_angle_beta   90.00000000
_cell_angle_gamma   138.48909380
_symmetry_Int_Tables_number   1
_chemical_formula_structural   Na3W2(ClO)4
_chemical_formula_sum   'Na3 W2 Cl4 O4'
_cell_volume   240.32930263
_cell_formula_units_Z   1
loop_
 _symmetry_equiv_pos_site_id
 _symmetry_equiv_pos_as_xyz
  1  'x, y, z'
loop_
 _atom_site_type_symbol
 _atom_site_label
 _atom_site_symmetry_multiplicity
 _atom_site_fract_x
 _atom_site_fract_y
 _atom_site_fract_z
 _atom_site_occupancy
  Na  Na0  1  0.86838600  0.13161400  0.50000000  1
  Na  Na1  1  0.12993400  0.87006600  0.50000000  1
  Na  Na2  1  0.62793100  0.37206900  0.00000000  1
  W  W3  1  0.49643500  0.50356500  0.50000000  1
  W  W4  1  0.99719400  0.00280600  0.00000000  1
  Cl  Cl5  1  0.66643000  0.33357000  0.50000000  1
  Cl  Cl6  1  0.16442000  0.83558000  0.00000000  1
  Cl  Cl7  1  0.83520000  0.16480000  0.00000000  1
  Cl  Cl8  1  0.33311600  0.66688400  0.50000000  1
  O  O9  1  0.24781000  0.24228300  0.75368400  1
  O  O10  1  0.75771700  0.75219000  0.24631600  1
  O  O11  1  0.75771700  0.75219000  0.75368400  1
  O  O12  1  0.24781000  0.24228300  0.24631600  1
