# generated using pymatgen
data_Na5Ca7Zr2TiMnSi8(O8F)4
_symmetry_space_group_name_H-M   'P 1'
_cell_length_a   7.27491100
_cell_length_b   10.16318847
_cell_length_c   11.56149026
_cell_angle_alpha   111.91570055
_cell_angle_beta   90.08641829
_cell_angle_gamma   100.44994987
_symmetry_Int_Tables_number   1
_chemical_formula_structural   Na5Ca7Zr2TiMnSi8(O8F)4
_chemical_formula_sum   'Na5 Ca7 Zr2 Ti1 Mn1 Si8 O32 F4'
_cell_volume   777.63924216
_cell_formula_units_Z   1
loop_
 _symmetry_equiv_pos_site_id
 _symmetry_equiv_pos_as_xyz
  1  'x, y, z'
loop_
 _atom_site_type_symbol
 _atom_site_label
 _atom_site_symmetry_multiplicity
 _atom_site_fract_x
 _atom_site_fract_y
 _atom_site_fract_z
 _atom_site_occupancy
  Na  Na0  1  0.40883000  0.64271500  0.71022000  1
  Na  Na1  1  0.59117000  0.35728500  0.28978000  1
  Na  Na2  1  0.75427900  0.00374500  0.74609200  1
  Na  Na3  1  0.24572100  0.99625500  0.25390800  1
  Na  Na4  1  0.50000000  0.00000000  0.50000000  1
  Ca  Ca5  1  0.41231600  0.63353800  0.21031400  1
  Ca  Ca6  1  0.58768400  0.36646200  0.78968600  1
  Ca  Ca7  1  0.23021900  0.99368300  0.74194900  1
  Ca  Ca8  1  0.76978100  0.00631700  0.25805100  1
  Ca  Ca9  1  0.91098100  0.63943500  0.21620000  1
  Ca  Ca10  1  0.08901900  0.36056500  0.78380000  1
  Ca  Ca11  1  0.50000000  0.00000000  0.00000000  1
  Zr  Zr12  1  0.91409500  0.65176400  0.72409700  1
  Zr  Zr13  1  0.08590500  0.34823600  0.27590300  1
  Ti  Ti14  1  0.00000000  0.00000000  0.50000000  1
  Mn  Mn15  1  0.00000000  0.00000000  0.00000000  1
  Si  Si16  1  0.65325500  0.71762100  0.98653200  1
  Si  Si17  1  0.34674500  0.28237900  0.01346800  1
  Si  Si18  1  0.20483300  0.72195900  0.98941900  1
  Si  Si19  1  0.79516700  0.27804100  0.01058100  1
  Si  Si20  1  0.20688000  0.70763000  0.49075400  1
  Si  Si21  1  0.79312000  0.29237000  0.50924600  1
  Si  Si22  1  0.65402300  0.70751200  0.48763800  1
  Si  Si23  1  0.34597700  0.29248800  0.51236200  1
  O  O24  1  0.14173600  0.59126100  0.34764200  1
  O  O25  1  0.85826400  0.40873900  0.65235800  1
  O  O26  1  0.66113400  0.60792900  0.34221800  1
  O  O27  1  0.33886600  0.39207100  0.65778200  1
  O  O28  1  0.12303400  0.65987000  0.60330300  1
  O  O29  1  0.87696600  0.34013000  0.39669700  1
  O  O30  1  0.69579900  0.62086400  0.84463800  1
  O  O31  1  0.30420100  0.37913600  0.15536200  1
  O  O32  1  0.77701700  0.87309100  0.52319600  1
  O  O33  1  0.22298300  0.12690900  0.47680400  1
  O  O34  1  0.71029700  0.64965200  0.59510400  1
  O  O35  1  0.28970300  0.35034800  0.40489600  1
  O  O36  1  0.16973500  0.87046800  0.51864000  1
  O  O37  1  0.83026500  0.12953200  0.48136000  1
  O  O38  1  0.17173500  0.89078600  0.03567800  1
  O  O39  1  0.82826500  0.10921400  0.96432200  1
  O  O40  1  0.97418200  0.87120500  0.82464800  1
  O  O41  1  0.02581800  0.12879500  0.17535200  1
  O  O42  1  0.16311500  0.65684100  0.09616700  1
  O  O43  1  0.83688500  0.34315900  0.90383300  1
  O  O44  1  0.66461400  0.64545200  0.08842900  1
  O  O45  1  0.33538600  0.35454800  0.91157100  1
  O  O46  1  0.43792100  0.75062000  0.97520400  1
  O  O47  1  0.56207900  0.24938000  0.02479600  1
  O  O48  1  0.11003900  0.62101600  0.84856100  1
  O  O49  1  0.88996100  0.37898400  0.15143900  1
  O  O50  1  0.77644100  0.88589600  0.03741300  1
  O  O51  1  0.22355900  0.11410400  0.96258700  1
  O  O52  1  0.96303900  0.89154000  0.32364100  1
  O  O53  1  0.03696100  0.10846000  0.67635900  1
  O  O54  1  0.43672800  0.73485100  0.50891400  1
  O  O55  1  0.56327200  0.26514900  0.49108600  1
  F  F56  1  0.48865600  0.87942100  0.29154100  1
  F  F57  1  0.51134400  0.12057900  0.70845900  1
  F  F58  1  0.46068200  0.89456500  0.79330900  1
  F  F59  1  0.53931800  0.10543500  0.20669100  1
