# generated using pymatgen
data_Na3BrCl2
_symmetry_space_group_name_H-M   'P 1'
_cell_length_a   9.21416985
_cell_length_b   9.21416985
_cell_length_c   9.21416985
_cell_angle_alpha   154.07087393
_cell_angle_beta   154.07087393
_cell_angle_gamma   36.99659889
_symmetry_Int_Tables_number   1
_chemical_formula_structural   Na3BrCl2
_chemical_formula_sum   'Na3 Br1 Cl2'
_cell_volume   149.36036665
_cell_formula_units_Z   1
loop_
 _symmetry_equiv_pos_site_id
 _symmetry_equiv_pos_as_xyz
  1  'x, y, z'
loop_
 _atom_site_type_symbol
 _atom_site_label
 _atom_site_symmetry_multiplicity
 _atom_site_fract_x
 _atom_site_fract_y
 _atom_site_fract_z
 _atom_site_occupancy
  Na  Na0  1  0.67018100  0.67018100  0.00000000  1
  Na  Na1  1  0.00000000  0.00000000  0.00000000  1
  Na  Na2  1  0.32981900  0.32981900  0.00000000  1
  Br  Br3  1  0.50000000  0.50000000  0.00000000  1
  Cl  Cl4  1  0.83244600  0.83244600  0.00000000  1
  Cl  Cl5  1  0.16755400  0.16755400  0.00000000  1
