# generated using pymatgen
data_Na3DyTi2Nb2O12
_symmetry_space_group_name_H-M   'P 1'
_cell_length_a   5.44187900
_cell_length_b   5.58962323
_cell_length_c   7.76308357
_cell_angle_alpha   89.87243552
_cell_angle_beta   89.96477266
_cell_angle_gamma   89.21379144
_symmetry_Int_Tables_number   1
_chemical_formula_structural   Na3DyTi2Nb2O12
_chemical_formula_sum   'Na3 Dy1 Ti2 Nb2 O12'
_cell_volume   236.11503297
_cell_formula_units_Z   1
loop_
 _symmetry_equiv_pos_site_id
 _symmetry_equiv_pos_as_xyz
  1  'x, y, z'
loop_
 _atom_site_type_symbol
 _atom_site_label
 _atom_site_symmetry_multiplicity
 _atom_site_fract_x
 _atom_site_fract_y
 _atom_site_fract_z
 _atom_site_occupancy
  Na  Na0  1  0.49031100  0.52908700  0.74869200  1
  Na  Na1  1  0.00373700  0.02054900  0.74974800  1
  Na  Na2  1  0.50870700  0.46395200  0.25004600  1
  Dy  Dy3  1  0.99046100  0.93649400  0.25018800  1
  Ti  Ti4  1  0.48880000  0.98229900  0.00725400  1
  Ti  Ti5  1  0.00385700  0.47630700  0.49302900  1
  Nb  Nb6  1  0.49386000  0.99217700  0.51185200  1
  Nb  Nb7  1  0.00312500  0.47761000  0.98849200  1
  O  O8  1  0.20559100  0.80297500  0.97526700  1
  O  O9  1  0.29112700  0.30119400  0.53756600  1
  O  O10  1  0.80473300  0.21115000  0.44666500  1
  O  O11  1  0.72002100  0.73522900  0.05265200  1
  O  O12  1  0.80255200  0.20869100  0.05429800  1
  O  O13  1  0.72408200  0.73221600  0.44786600  1
  O  O14  1  0.20330100  0.80134800  0.52623600  1
  O  O15  1  0.29811900  0.29673300  0.96007900  1
  O  O16  1  0.56989300  0.98440900  0.75327400  1
  O  O17  1  0.91846400  0.48841800  0.74718100  1
  O  O18  1  0.40164500  0.02819300  0.24634700  1
  O  O19  1  0.07761700  0.53097000  0.25326800  1
