# generated using pymatgen
data_Na3Si34
_symmetry_space_group_name_H-M   'P 1'
_cell_length_a   10.42710423
_cell_length_b   10.42710423
_cell_length_c   10.42710418
_cell_angle_alpha   59.91427691
_cell_angle_beta   59.91427691
_cell_angle_gamma   59.91427140
_symmetry_Int_Tables_number   1
_chemical_formula_structural   Na3Si34
_chemical_formula_sum   'Na3 Si34'
_cell_volume   800.07513548
_cell_formula_units_Z   1
loop_
 _symmetry_equiv_pos_site_id
 _symmetry_equiv_pos_as_xyz
  1  'x, y, z'
loop_
 _atom_site_type_symbol
 _atom_site_label
 _atom_site_symmetry_multiplicity
 _atom_site_fract_x
 _atom_site_fract_y
 _atom_site_fract_z
 _atom_site_occupancy
  Na  Na0  1  0.37502700  0.37502700  0.37502700  1
  Na  Na1  1  0.62497300  0.62497300  0.62497300  1
  Na  Na2  1  0.00000000  0.00000000  0.00000000  1
  Si  Si3  1  0.21763400  0.21763400  0.21763400  1
  Si  Si4  1  0.84698100  0.21790800  0.21790800  1
  Si  Si5  1  0.21790800  0.21790800  0.84698100  1
  Si  Si6  1  0.21790800  0.84698100  0.21790800  1
  Si  Si7  1  0.78236600  0.78236600  0.78236600  1
  Si  Si8  1  0.15301900  0.78209200  0.78209200  1
  Si  Si9  1  0.78209200  0.78209200  0.15301900  1
  Si  Si10  1  0.78209200  0.15301900  0.78209200  1
  Si  Si11  1  0.12542200  0.12542200  0.12542200  1
  Si  Si12  1  0.87457800  0.87457800  0.87457800  1
  Si  Si13  1  0.37074400  0.99436300  0.37074400  1
  Si  Si14  1  0.76325800  0.37101500  0.99480600  1
  Si  Si15  1  0.99480600  0.37101500  0.76325800  1
  Si  Si16  1  0.37118200  0.76345100  0.37118200  1
  Si  Si17  1  0.37101500  0.99480600  0.76325800  1
  Si  Si18  1  0.99436300  0.37074400  0.37074400  1
  Si  Si19  1  0.76345100  0.37118200  0.37118200  1
  Si  Si20  1  0.37101500  0.76325800  0.99480600  1
  Si  Si21  1  0.76325800  0.99480600  0.37101500  1
  Si  Si22  1  0.37118200  0.37118200  0.76345100  1
  Si  Si23  1  0.37074400  0.37074400  0.99436300  1
  Si  Si24  1  0.99480600  0.76325800  0.37101500  1
  Si  Si25  1  0.62925600  0.00563700  0.62925600  1
  Si  Si26  1  0.23674200  0.62898500  0.00519400  1
  Si  Si27  1  0.00519400  0.62898500  0.23674200  1
  Si  Si28  1  0.62881800  0.23654900  0.62881800  1
  Si  Si29  1  0.62898500  0.00519400  0.23674200  1
  Si  Si30  1  0.00563700  0.62925600  0.62925600  1
  Si  Si31  1  0.23654900  0.62881800  0.62881800  1
  Si  Si32  1  0.62898500  0.23674200  0.00519400  1
  Si  Si33  1  0.23674200  0.00519400  0.62898500  1
  Si  Si34  1  0.62881800  0.62881800  0.23654900  1
  Si  Si35  1  0.62925600  0.62925600  0.00563700  1
  Si  Si36  1  0.00519400  0.23674200  0.62898500  1
