# generated using pymatgen
data_Na2ThF6
_symmetry_space_group_name_H-M   'P 1'
_cell_length_a   6.78901566
_cell_length_b   6.78901566
_cell_length_c   6.78901566
_cell_angle_alpha   144.70595765
_cell_angle_beta   130.89651026
_cell_angle_gamma   61.90775719
_symmetry_Int_Tables_number   1
_chemical_formula_structural   Na2ThF6
_chemical_formula_sum   'Na2 Th1 F6'
_cell_volume   135.20817990
_cell_formula_units_Z   1
loop_
 _symmetry_equiv_pos_site_id
 _symmetry_equiv_pos_as_xyz
  1  'x, y, z'
loop_
 _atom_site_type_symbol
 _atom_site_label
 _atom_site_symmetry_multiplicity
 _atom_site_fract_x
 _atom_site_fract_y
 _atom_site_fract_z
 _atom_site_occupancy
  Na  Na0  1  0.67289400  0.67289400  0.00000000  1
  Na  Na1  1  0.32710600  0.32710600  0.00000000  1
  Th  Th2  1  0.00000000  0.00000000  0.00000000  1
  F  F3  1  0.77183500  0.50000000  0.27183500  1
  F  F4  1  0.39924500  0.15566000  0.24358500  1
  F  F5  1  0.08792400  0.84434000  0.24358500  1
  F  F6  1  0.22816500  0.50000000  0.72816500  1
  F  F7  1  0.91207600  0.15566000  0.75641500  1
  F  F8  1  0.60075500  0.84434000  0.75641500  1
