# generated using pymatgen
data_Na4(Fe2O3)5
_symmetry_space_group_name_H-M   'P 1'
_cell_length_a   5.32300200
_cell_length_b   8.14546092
_cell_length_c   8.55296725
_cell_angle_alpha   109.48729120
_cell_angle_beta   90.08356256
_cell_angle_gamma   108.84823362
_symmetry_Int_Tables_number   1
_chemical_formula_structural   Na4(Fe2O3)5
_chemical_formula_sum   'Na4 Fe10 O15'
_cell_volume   328.36323009
_cell_formula_units_Z   1
loop_
 _symmetry_equiv_pos_site_id
 _symmetry_equiv_pos_as_xyz
  1  'x, y, z'
loop_
 _atom_site_type_symbol
 _atom_site_label
 _atom_site_symmetry_multiplicity
 _atom_site_fract_x
 _atom_site_fract_y
 _atom_site_fract_z
 _atom_site_occupancy
  Na  Na0  1  0.80783800  0.60678000  0.49910700  1
  Na  Na1  1  0.59250100  0.18729200  0.49800900  1
  Na  Na2  1  0.40749900  0.81270800  0.50199100  1
  Na  Na3  1  0.19216200  0.39322000  0.50089300  1
  Fe  Fe4  1  0.20205600  0.73568300  0.83837400  1
  Fe  Fe5  1  0.00514900  0.32667500  0.82586200  1
  Fe  Fe6  1  0.80147400  0.93221100  0.82880000  1
  Fe  Fe7  1  0.60944500  0.53304000  0.83286400  1
  Fe  Fe8  1  0.39146300  0.12954500  0.83249800  1
  Fe  Fe9  1  0.99485100  0.67332500  0.17413800  1
  Fe  Fe10  1  0.79794400  0.26431700  0.16162600  1
  Fe  Fe11  1  0.60853700  0.87045500  0.16750200  1
  Fe  Fe12  1  0.39055500  0.46696000  0.16713600  1
  Fe  Fe13  1  0.19852600  0.06778900  0.17120000  1
  O  O14  1  0.28164100  0.91585300  0.28777600  1
  O  O15  1  0.68294300  0.69754200  0.28681800  1
  O  O16  1  0.47074800  0.31583100  0.29062400  1
  O  O17  1  0.90375500  0.12488500  0.29148000  1
  O  O18  1  0.10731400  0.53315700  0.29610500  1
  O  O19  1  0.31705700  0.30245800  0.71318200  1
  O  O20  1  0.71835900  0.08414700  0.71222400  1
  O  O21  1  0.52925200  0.68416900  0.70937600  1
  O  O22  1  0.89268600  0.46684300  0.70389500  1
  O  O23  1  0.09624500  0.87511500  0.70852000  1
  O  O24  1  0.10525300  0.20213200  0.99720500  1
  O  O25  1  0.50000000  0.00000000  0.00000000  1
  O  O26  1  0.28893200  0.58381700  0.99691800  1
  O  O27  1  0.71106800  0.41618300  0.00308200  1
  O  O28  1  0.89474700  0.79786800  0.00279500  1
