# generated using pymatgen
data_Na3Nb6Bi5O24
_symmetry_space_group_name_H-M   'P 1'
_cell_length_a   5.55924400
_cell_length_b   5.61125563
_cell_length_c   16.84774708
_cell_angle_alpha   99.50784884
_cell_angle_beta   89.96475753
_cell_angle_gamma   90.34822331
_symmetry_Int_Tables_number   1
_chemical_formula_structural   Na3Nb6Bi5O24
_chemical_formula_sum   'Na3 Nb6 Bi5 O24'
_cell_volume   518.32517517
_cell_formula_units_Z   1
loop_
 _symmetry_equiv_pos_site_id
 _symmetry_equiv_pos_as_xyz
  1  'x, y, z'
loop_
 _atom_site_type_symbol
 _atom_site_label
 _atom_site_symmetry_multiplicity
 _atom_site_fract_x
 _atom_site_fract_y
 _atom_site_fract_z
 _atom_site_occupancy
  Na  Na0  1  0.49156800  0.58026300  0.13317500  1
  Na  Na1  1  0.50595300  0.44574200  0.87818900  1
  Na  Na2  1  0.00720100  0.07788000  0.13273200  1
  Nb  Nb3  1  0.50319900  0.90313700  0.75254900  1
  Nb  Nb4  1  0.50065600  0.14999200  0.24910700  1
  Nb  Nb5  1  0.00897400  0.39241700  0.75106500  1
  Nb  Nb6  1  0.00200300  0.64931900  0.24926100  1
  Nb  Nb7  1  0.50467700  0.01771200  0.00563800  1
  Nb  Nb8  1  0.99498600  0.51002500  0.00654600  1
  Bi  Bi9  1  0.01125200  0.90438000  0.87474000  1
  Bi  Bi10  1  0.46419600  0.74953800  0.42286100  1
  Bi  Bi11  1  0.53416700  0.32441600  0.57416200  1
  Bi  Bi12  1  0.03555800  0.24802400  0.42257400  1
  Bi  Bi13  1  0.96583800  0.82252000  0.57385700  1
  O  O14  1  0.23912600  0.27845400  0.01622400  1
  O  O15  1  0.75070400  0.26356200  0.97417800  1
  O  O16  1  0.25487300  0.78226300  0.01598300  1
  O  O17  1  0.75114200  0.76805200  0.97573100  1
  O  O18  1  0.57864100  0.85648100  0.64143900  1
  O  O19  1  0.42262800  0.22146300  0.36048600  1
  O  O20  1  0.91403200  0.36429000  0.64175300  1
  O  O21  1  0.07604500  0.72166100  0.36060600  1
  O  O22  1  0.24938300  0.54068800  0.50184800  1
  O  O23  1  0.74871300  0.03873800  0.49700300  1
  O  O24  1  0.24776700  0.03932900  0.50154600  1
  O  O25  1  0.74992600  0.53840300  0.49626200  1
  O  O26  1  0.41646800  0.98852500  0.87901600  1
  O  O27  1  0.57371200  0.10727600  0.11664600  1
  O  O28  1  0.07842900  0.51246700  0.87738900  1
  O  O29  1  0.92032800  0.60168300  0.11626400  1
  O  O30  1  0.22131900  0.38531300  0.22091400  1
  O  O31  1  0.79073600  0.15081800  0.78077000  1
  O  O32  1  0.27530700  0.88483300  0.22045700  1
  O  O33  1  0.71829700  0.66129600  0.78223600  1
  O  O34  1  0.30141100  0.21788700  0.74173600  1
  O  O35  1  0.71207800  0.46214800  0.25463800  1
  O  O36  1  0.19349800  0.72730000  0.74626300  1
  O  O37  1  0.78520900  0.96170600  0.25415400  1
