# generated using pymatgen
data_Na4Ca7MnSi12(HO9)4
_symmetry_space_group_name_H-M   'P 1'
_cell_length_a   7.06763300
_cell_length_b   8.04745564
_cell_length_c   14.15240036
_cell_angle_alpha   95.03102860
_cell_angle_beta   90.72080722
_cell_angle_gamma   102.48771814
_symmetry_Int_Tables_number   1
_chemical_formula_structural   Na4Ca7MnSi12(HO9)4
_chemical_formula_sum   'Na4 Ca7 Mn1 Si12 H4 O36'
_cell_volume   782.45594424
_cell_formula_units_Z   1
loop_
 _symmetry_equiv_pos_site_id
 _symmetry_equiv_pos_as_xyz
  1  'x, y, z'
loop_
 _atom_site_type_symbol
 _atom_site_label
 _atom_site_symmetry_multiplicity
 _atom_site_fract_x
 _atom_site_fract_y
 _atom_site_fract_z
 _atom_site_occupancy
  Na  Na0  1  0.25100900  0.55198800  0.17040200  1
  Na  Na1  1  0.25272700  0.55103000  0.67109300  1
  Na  Na2  1  0.74721200  0.44897000  0.32893500  1
  Na  Na3  1  0.74720600  0.44888400  0.82908500  1
  Ca  Ca4  1  0.59502300  0.85303000  0.07179700  1
  Ca  Ca5  1  0.59384200  0.85279500  0.57181500  1
  Ca  Ca6  1  0.40618700  0.14730700  0.42808900  1
  Ca  Ca7  1  0.40509900  0.14625000  0.92890200  1
  Ca  Ca8  1  0.08438100  0.84835600  0.57010400  1
  Ca  Ca9  1  0.91570500  0.15147200  0.42976600  1
  Ca  Ca10  1  0.91636000  0.15061000  0.93057500  1
  Mn  Mn11  1  0.08447100  0.84620400  0.07112700  1
  Si  Si12  1  0.95572000  0.21070000  0.17332500  1
  Si  Si13  1  0.95403600  0.21316400  0.67366600  1
  Si  Si14  1  0.04580200  0.78737800  0.32430200  1
  Si  Si15  1  0.04561000  0.78647500  0.82773600  1
  Si  Si16  1  0.40290100  0.21945200  0.16775100  1
  Si  Si17  1  0.40360200  0.21987700  0.66836300  1
  Si  Si18  1  0.59618200  0.78007600  0.33173000  1
  Si  Si19  1  0.59628700  0.78034000  0.83204300  1
  Si  Si20  1  0.74055300  0.45236400  0.07247000  1
  Si  Si21  1  0.73726700  0.45058300  0.57240700  1
  Si  Si22  1  0.26253500  0.54975500  0.42731800  1
  Si  Si23  1  0.26023400  0.55132400  0.92834400  1
  H  H24  1  0.64757800  0.16970800  0.26619800  1
  H  H25  1  0.64754500  0.16961700  0.76650100  1
  H  H26  1  0.35243500  0.83065200  0.23246500  1
  H  H27  1  0.35221700  0.83044200  0.73382500  1
  O  O28  1  0.79965100  0.65674200  0.06367100  1
  O  O29  1  0.78990500  0.65349400  0.56297500  1
  O  O30  1  0.20986300  0.34685800  0.43695100  1
  O  O31  1  0.21063000  0.34830300  0.93795100  1
  O  O32  1  0.28477400  0.67597500  0.02746500  1
  O  O33  1  0.29264400  0.67055200  0.52710500  1
  O  O34  1  0.70713700  0.32943800  0.47277700  1
  O  O35  1  0.70767000  0.33060100  0.97300900  1
  O  O36  1  0.19335800  0.26505900  0.19443200  1
  O  O37  1  0.19242300  0.26349700  0.69401300  1
  O  O38  1  0.80698900  0.73631000  0.30577300  1
  O  O39  1  0.80737500  0.73671200  0.80617300  1
  O  O40  1  0.53460700  0.40167000  0.13368200  1
  O  O41  1  0.53354800  0.40152200  0.63448600  1
  O  O42  1  0.46664300  0.59848800  0.36558200  1
  O  O43  1  0.46592400  0.59974600  0.86710500  1
  O  O44  1  0.90934400  0.39290400  0.13918900  1
  O  O45  1  0.90925300  0.39571700  0.63954300  1
  O  O46  1  0.09182100  0.60551300  0.35942000  1
  O  O47  1  0.08996800  0.60264600  0.85925300  1
  O  O48  1  0.84581600  0.17481200  0.27157400  1
  O  O49  1  0.84613400  0.17549700  0.77207100  1
  O  O50  1  0.15053200  0.82442800  0.22438700  1
  O  O51  1  0.15387200  0.82580800  0.72920800  1
  O  O52  1  0.38373800  0.06128100  0.08658800  1
  O  O53  1  0.38852000  0.06374000  0.58644200  1
  O  O54  1  0.61138700  0.93631400  0.41352400  1
  O  O55  1  0.61147200  0.93677400  0.91364700  1
  O  O56  1  0.90291400  0.05447800  0.08907600  1
  O  O57  1  0.89651800  0.05953400  0.58871200  1
  O  O58  1  0.10434400  0.94015400  0.40979600  1
  O  O59  1  0.10280400  0.93708800  0.91448200  1
  O  O60  1  0.50172000  0.19127800  0.26998700  1
  O  O61  1  0.50155000  0.19121300  0.77048400  1
  O  O62  1  0.49735600  0.80869400  0.22963100  1
  O  O63  1  0.49807100  0.80835500  0.72970100  1
