# generated using pymatgen
data_Na2Ti12O25
_symmetry_space_group_name_H-M   'P 1'
_cell_length_a   3.75608500
_cell_length_b   9.38460300
_cell_length_c   14.63912470
_cell_angle_alpha   74.21613330
_cell_angle_beta   90.00000000
_cell_angle_gamma   90.00000000
_symmetry_Int_Tables_number   1
_chemical_formula_structural   Na2Ti12O25
_chemical_formula_sum   'Na2 Ti12 O25'
_cell_volume   496.56314937
_cell_formula_units_Z   1
loop_
 _symmetry_equiv_pos_site_id
 _symmetry_equiv_pos_as_xyz
  1  'x, y, z'
loop_
 _atom_site_type_symbol
 _atom_site_label
 _atom_site_symmetry_multiplicity
 _atom_site_fract_x
 _atom_site_fract_y
 _atom_site_fract_z
 _atom_site_occupancy
  Na  Na0  1  0.50000000  0.29446700  0.95819800  1
  Na  Na1  1  0.50000000  0.70553300  0.04180200  1
  Ti  Ti2  1  0.50000000  0.36101800  0.59269800  1
  Ti  Ti3  1  0.50000000  0.63898200  0.40730200  1
  Ti  Ti4  1  0.00000000  0.99030700  0.87586200  1
  Ti  Ti5  1  0.00000000  0.00969300  0.12413800  1
  Ti  Ti6  1  0.50000000  0.31935300  0.35378700  1
  Ti  Ti7  1  0.50000000  0.68064700  0.64621300  1
  Ti  Ti8  1  0.50000000  0.03186100  0.29592200  1
  Ti  Ti9  1  0.50000000  0.96813900  0.70407800  1
  Ti  Ti10  1  0.00000000  0.39438400  0.75748500  1
  Ti  Ti11  1  0.00000000  0.60561600  0.24251500  1
  Ti  Ti12  1  0.00000000  0.68483600  0.82355900  1
  Ti  Ti13  1  0.00000000  0.31516400  0.17644100  1
  O  O14  1  0.00000000  0.47958100  0.86449200  1
  O  O15  1  0.00000000  0.52041900  0.13550800  1
  O  O16  1  0.00000000  0.37329100  0.62141200  1
  O  O17  1  0.00000000  0.62670900  0.37858800  1
  O  O18  1  0.50000000  0.28327500  0.21632100  1
  O  O19  1  0.50000000  0.71672500  0.78367900  1
  O  O20  1  0.50000000  0.15827600  0.63615400  1
  O  O21  1  0.50000000  0.84172400  0.36384600  1
  O  O22  1  0.00000000  0.76114700  0.92434500  1
  O  O23  1  0.00000000  0.23885300  0.07565500  1
  O  O24  1  0.50000000  0.01067100  0.15613700  1
  O  O25  1  0.50000000  0.98932900  0.84386300  1
  O  O26  1  0.50000000  0.43184100  0.72136000  1
  O  O27  1  0.50000000  0.56815900  0.27864000  1
  O  O28  1  0.50000000  0.39310800  0.46103600  1
  O  O29  1  0.50000000  0.60689200  0.53896400  1
  O  O30  1  0.00000000  0.92872500  0.74240700  1
  O  O31  1  0.00000000  0.07127500  0.25759300  1
  O  O32  1  0.50000000  0.12231500  0.39530000  1
  O  O33  1  0.50000000  0.87768500  0.60470000  1
  O  O34  1  0.00000000  0.20668700  0.82611700  1
  O  O35  1  0.00000000  0.79331300  0.17388300  1
  O  O36  1  0.00000000  0.64243500  0.68289300  1
  O  O37  1  0.00000000  0.35756500  0.31710700  1
  O  O38  1  0.00000000  0.00000000  0.00000000  1
