# generated using pymatgen
data_Na2ScIn(SiO3)4
_symmetry_space_group_name_H-M   'P 1'
_cell_length_a   6.80580482
_cell_length_b   6.80580482
_cell_length_c   5.42202543
_cell_angle_alpha   77.35294403
_cell_angle_beta   77.35294403
_cell_angle_gamma   85.13256952
_symmetry_Int_Tables_number   1
_chemical_formula_structural   Na2ScIn(SiO3)4
_chemical_formula_sum   'Na2 Sc1 In1 Si4 O12'
_cell_volume   238.92392478
_cell_formula_units_Z   1
loop_
 _symmetry_equiv_pos_site_id
 _symmetry_equiv_pos_as_xyz
  1  'x, y, z'
loop_
 _atom_site_type_symbol
 _atom_site_label
 _atom_site_symmetry_multiplicity
 _atom_site_fract_x
 _atom_site_fract_y
 _atom_site_fract_z
 _atom_site_occupancy
  Na  Na0  1  0.30300200  0.69699800  0.50000000  1
  Na  Na1  1  0.69662900  0.30337100  0.00000000  1
  Sc  Sc2  1  0.89145500  0.10854500  0.50000000  1
  In  In3  1  0.10427600  0.89572400  0.00000000  1
  Si  Si4  1  0.79614200  0.62165500  0.49582900  1
  Si  Si5  1  0.37834500  0.20385800  0.50417100  1
  Si  Si6  1  0.20530400  0.37663600  0.00479800  1
  Si  Si7  1  0.62336400  0.79469600  0.99520200  1
  O  O8  1  0.88474800  0.39268900  0.56039600  1
  O  O9  1  0.60731100  0.11525200  0.43960400  1
  O  O10  1  0.11167800  0.60108500  0.93338400  1
  O  O11  1  0.39891500  0.88832200  0.06661600  1
  O  O12  1  0.66215600  0.64082100  0.26799100  1
  O  O13  1  0.35917900  0.33784400  0.73200900  1
  O  O14  1  0.34092600  0.35844300  0.23123400  1
  O  O15  1  0.64155700  0.65907400  0.76876600  1
  O  O16  1  0.95842800  0.80250700  0.40391900  1
  O  O17  1  0.19749300  0.04157200  0.59608100  1
  O  O18  1  0.03830000  0.19920700  0.10631400  1
  O  O19  1  0.80079300  0.96170000  0.89368600  1
