# generated using pymatgen
data_Na2UI6
_symmetry_space_group_name_H-M   'P 1'
_cell_length_a   10.16172528
_cell_length_b   9.46689600
_cell_length_c   8.04570251
_cell_angle_alpha   70.40257412
_cell_angle_beta   61.36092839
_cell_angle_gamma   48.23649749
_symmetry_Int_Tables_number   1
_chemical_formula_structural   Na2UI6
_chemical_formula_sum   'Na2 U1 I6'
_cell_volume   506.53771066
_cell_formula_units_Z   1
loop_
 _symmetry_equiv_pos_site_id
 _symmetry_equiv_pos_as_xyz
  1  'x, y, z'
loop_
 _atom_site_type_symbol
 _atom_site_label
 _atom_site_symmetry_multiplicity
 _atom_site_fract_x
 _atom_site_fract_y
 _atom_site_fract_z
 _atom_site_occupancy
  Na  Na0  1  0.00000000  0.00000000  0.50000000  1
  Na  Na1  1  0.50000000  0.50000000  0.00000000  1
  U  U2  1  0.00000000  0.00000000  0.00000000  1
  I  I3  1  0.05023100  0.69407000  0.30593000  1
  I  I4  1  0.30593000  0.94976900  0.05023100  1
  I  I5  1  0.69828700  0.30171300  0.30171300  1
  I  I6  1  0.94976900  0.30593000  0.69407000  1
  I  I7  1  0.69407000  0.05023100  0.94976900  1
  I  I8  1  0.30171300  0.69828700  0.69828700  1
