# generated using pymatgen
data_Na3H5(CO4)2
_symmetry_space_group_name_H-M   'P 1'
_cell_length_a   3.66847600
_cell_length_b   10.49069043
_cell_length_c   10.27161141
_cell_angle_alpha   106.42909805
_cell_angle_beta   79.71331650
_cell_angle_gamma   90.00000000
_symmetry_Int_Tables_number   1
_chemical_formula_structural   Na3H5(CO4)2
_chemical_formula_sum   'Na6 H10 C4 O16'
_cell_volume   372.53238203
_cell_formula_units_Z   2
loop_
 _symmetry_equiv_pos_site_id
 _symmetry_equiv_pos_as_xyz
  1  'x, y, z'
loop_
 _atom_site_type_symbol
 _atom_site_label
 _atom_site_symmetry_multiplicity
 _atom_site_fract_x
 _atom_site_fract_y
 _atom_site_fract_z
 _atom_site_occupancy
  Na  Na0  1  0.24961800  0.75000000  0.00000000  1
  Na  Na1  1  0.74352900  0.25000000  0.00000000  1
  Na  Na2  1  0.67806500  0.93023600  0.29661600  1
  Na  Na3  1  0.97468000  0.56976400  0.70338400  1
  Na  Na4  1  0.32558000  0.08013200  0.69877700  1
  Na  Na5  1  0.02435700  0.41986800  0.30122300  1
  H  H6  1  0.21852000  0.75909300  0.37750700  1
  H  H7  1  0.59602700  0.74090700  0.62249300  1
  H  H8  1  0.77512100  0.24459700  0.62345500  1
  H  H9  1  0.39857600  0.25540300  0.37654500  1
  H  H10  1  0.00756100  0.86711400  0.51269400  1
  H  H11  1  0.52025500  0.63288600  0.48730600  1
  H  H12  1  0.98592600  0.13654600  0.48571900  1
  H  H13  1  0.47164500  0.36345400  0.51428100  1
  H  H14  1  0.98571800  0.50115500  0.01629200  1
  H  H15  1  0.00201000  0.99884500  0.98370800  1
  C  C16  1  0.63579300  0.60688400  0.18925100  1
  C  C17  1  0.82504400  0.89311600  0.81074900  1
  C  C18  1  0.35425200  0.39599600  0.81857600  1
  C  C19  1  0.17282700  0.10400400  0.18142400  1
  O  O20  1  0.67537900  0.70806300  0.14445000  1
  O  O21  1  0.81982900  0.79193700  0.85555000  1
  O  O22  1  0.32426100  0.29305000  0.86274600  1
  O  O23  1  0.18700700  0.20695000  0.13725400  1
  O  O24  1  0.43046400  0.60513600  0.30436200  1
  O  O25  1  0.73482600  0.89486400  0.69563800  1
  O  O26  1  0.54761200  0.39239000  0.69789600  1
  O  O27  1  0.24550800  0.10761000  0.30210400  1
  O  O28  1  0.11971000  0.85416300  0.41510100  1
  O  O29  1  0.53481100  0.64583700  0.58489900  1
  O  O30  1  0.88204200  0.14985200  0.58415900  1
  O  O31  1  0.46620200  0.35014800  0.41584100  1
  O  O32  1  0.81950700  0.49087900  0.11433300  1
  O  O33  1  0.93384000  0.00912100  0.88566700  1
  O  O34  1  0.18461000  0.51075100  0.89467800  1
  O  O35  1  0.07928800  0.98924900  0.10532200  1
