# generated using pymatgen
data_Na4Al3Si7(HO3)8
_symmetry_space_group_name_H-M   'P 1'
_cell_length_a   6.64436200
_cell_length_b   9.89953602
_cell_length_c   9.96953405
_cell_angle_alpha   84.11066460
_cell_angle_beta   109.40761820
_cell_angle_gamma   109.48724163
_symmetry_Int_Tables_number   1
_chemical_formula_structural   Na4Al3Si7(HO3)8
_chemical_formula_sum   'Na4 Al3 Si7 H8 O24'
_cell_volume   583.04086694
_cell_formula_units_Z   1
loop_
 _symmetry_equiv_pos_site_id
 _symmetry_equiv_pos_as_xyz
  1  'x, y, z'
loop_
 _atom_site_type_symbol
 _atom_site_label
 _atom_site_symmetry_multiplicity
 _atom_site_fract_x
 _atom_site_fract_y
 _atom_site_fract_z
 _atom_site_occupancy
  Na  Na0  1  0.55726700  0.93471400  0.44564500  1
  Na  Na1  1  0.18962100  0.05794400  0.56276400  1
  Na  Na2  1  0.37466100  0.56198300  0.93932500  1
  Na  Na3  1  0.87569200  0.44286000  0.05832700  1
  Al  Al4  1  0.31785000  0.57604400  0.31338000  1
  Al  Al5  1  0.42264300  0.41969400  0.68613500  1
  Al  Al6  1  0.48920900  0.92357200  0.81281800  1
  Si  Si7  1  0.32192400  0.81201400  0.07806000  1
  Si  Si8  1  0.42968000  0.19031500  0.92194800  1
  Si  Si9  1  0.26136900  0.68862800  0.57950300  1
  Si  Si10  1  0.99253900  0.31037000  0.41631700  1
  Si  Si11  1  0.75252400  0.49721300  0.49982000  1
  Si  Si12  1  0.00146400  0.00121300  0.00010900  1
  Si  Si13  1  0.74554100  0.07744700  0.18171200  1
  H  H14  1  0.71038700  0.60605500  0.20802000  1
  H  H15  1  0.89456300  0.39293100  0.79194700  1
  H  H16  1  0.85541100  0.89361100  0.70640600  1
  H  H17  1  0.26048800  0.10947900  0.29480400  1
  H  H18  1  0.85407600  0.70501000  0.11381100  1
  H  H19  1  0.03656600  0.29635500  0.88869100  1
  H  H20  1  0.89983900  0.79571800  0.60916000  1
  H  H21  1  0.49674900  0.20621500  0.39262300  1
  O  O22  1  0.26605500  0.65080000  0.14147500  1
  O  O23  1  0.47621400  0.35446000  0.86430600  1
  O  O24  1  0.36022800  0.85436500  0.63809600  1
  O  O25  1  0.86017900  0.14489500  0.34496400  1
  O  O26  1  0.57708500  0.54403000  0.36132700  1
  O  O27  1  0.66547200  0.44940500  0.63714300  1
  O  O28  1  0.78220200  0.95251500  0.86019100  1
  O  O29  1  0.94435700  0.04802000  0.13589300  1
  O  O30  1  0.54749400  0.92609000  0.19322800  1
  O  O31  1  0.42159900  0.08331000  0.80611900  1
  O  O32  1  0.36722700  0.58072200  0.69482500  1
  O  O33  1  0.08947500  0.41608600  0.30065100  1
  O  O34  1  0.10361800  0.86756000  0.05785500  1
  O  O35  1  0.19386900  0.14293300  0.96448500  1
  O  O36  1  0.98474600  0.63583300  0.54726300  1
  O  O37  1  0.79802600  0.35720700  0.45087400  1
  O  O38  1  0.73774100  0.61254800  0.11559500  1
  O  O39  1  0.00900300  0.38870000  0.88445500  1
  O  O40  1  0.87541500  0.88779400  0.61344500  1
  O  O41  1  0.37737200  0.11312500  0.38730200  1
  O  O42  1  0.31904600  0.69542900  0.43194800  1
  O  O43  1  0.18636100  0.29778800  0.56383500  1
  O  O44  1  0.36919000  0.80471400  0.93026700  1
  O  O45  1  0.64036400  0.19228400  0.07313400  1
