# generated using pymatgen
data_Na3Nb7P4O29
_symmetry_space_group_name_H-M   'P 1'
_cell_length_a   16.90944198
_cell_length_b   16.90944198
_cell_length_c   13.48888405
_cell_angle_alpha   82.40803707
_cell_angle_beta   82.40803707
_cell_angle_gamma   18.57820135
_symmetry_Int_Tables_number   1
_chemical_formula_structural   Na3Nb7P4O29
_chemical_formula_sum   'Na6 Nb14 P8 O58'
_cell_volume   1217.73159474
_cell_formula_units_Z   2
loop_
 _symmetry_equiv_pos_site_id
 _symmetry_equiv_pos_as_xyz
  1  'x, y, z'
loop_
 _atom_site_type_symbol
 _atom_site_label
 _atom_site_symmetry_multiplicity
 _atom_site_fract_x
 _atom_site_fract_y
 _atom_site_fract_z
 _atom_site_occupancy
  Na  Na0  1  0.37708100  0.35826600  0.61192400  1
  Na  Na1  1  0.64173400  0.62291900  0.38807600  1
  Na  Na2  1  0.62365100  0.64104600  0.88444200  1
  Na  Na3  1  0.35895400  0.37634900  0.11555800  1
  Na  Na4  1  0.10799700  0.08635000  0.15109800  1
  Na  Na5  1  0.91365000  0.89200300  0.84890200  1
  Nb  Nb6  1  0.18273300  0.18160000  0.27461000  1
  Nb  Nb7  1  0.81840000  0.81726700  0.72539000  1
  Nb  Nb8  1  0.82197900  0.81661000  0.22961000  1
  Nb  Nb9  1  0.18339000  0.17802100  0.77039000  1
  Nb  Nb10  1  0.25458900  0.29040500  0.57121500  1
  Nb  Nb11  1  0.70959500  0.74541100  0.42878500  1
  Nb  Nb12  1  0.75192400  0.70201200  0.92787400  1
  Nb  Nb13  1  0.29798800  0.24807600  0.07212600  1
  Nb  Nb14  1  0.45419800  0.45125100  0.43023400  1
  Nb  Nb15  1  0.54874900  0.54580200  0.56976600  1
  Nb  Nb16  1  0.55011900  0.54065900  0.07324900  1
  Nb  Nb17  1  0.45934100  0.44988100  0.92675100  1
  Nb  Nb18  1  0.99851900  0.99668600  0.25364100  1
  Nb  Nb19  1  0.00331400  0.00148100  0.74635900  1
  P  P20  1  0.33761100  0.36586900  0.37013700  1
  P  P21  1  0.63413100  0.66238900  0.62986300  1
  P  P22  1  0.66324200  0.63373300  0.12917200  1
  P  P23  1  0.36626700  0.33675800  0.87082800  1
  P  P24  1  0.07981400  0.07658600  0.40275300  1
  P  P25  1  0.92341400  0.92018600  0.59724700  1
  P  P26  1  0.91912700  0.92352200  0.09645500  1
  P  P27  1  0.07647800  0.08087300  0.90354500  1
  O  O28  1  0.37600400  0.41832400  0.38831400  1
  O  O29  1  0.58167600  0.62399600  0.61168600  1
  O  O30  1  0.62511500  0.58085900  0.11237500  1
  O  O31  1  0.41914100  0.37488500  0.88762500  1
  O  O32  1  0.92125100  0.47384000  0.33623000  1
  O  O33  1  0.52616000  0.07874900  0.66377000  1
  O  O34  1  0.07185000  0.53312300  0.16395100  1
  O  O35  1  0.46687700  0.92815000  0.83604900  1
  O  O36  1  0.07831100  0.16283200  0.34340700  1
  O  O37  1  0.83716800  0.92168900  0.65659300  1
  O  O38  1  0.92169400  0.83634900  0.15470500  1
  O  O39  1  0.16365100  0.07830600  0.84529500  1
  O  O40  1  0.38219000  0.27098300  0.47119000  1
  O  O41  1  0.72901700  0.61781000  0.52881000  1
  O  O42  1  0.61428200  0.73268700  0.02904100  1
  O  O43  1  0.26731300  0.38571800  0.97095900  1
  O  O44  1  0.29037300  0.16738400  0.17946200  1
  O  O45  1  0.83261600  0.70962700  0.82053800  1
  O  O46  1  0.70868600  0.83257700  0.32193200  1
  O  O47  1  0.16742300  0.29131400  0.67806800  1
  O  O48  1  0.72713700  0.13058400  0.51752100  1
  O  O49  1  0.86941600  0.27286300  0.48247900  1
  O  O50  1  0.26888800  0.87539100  0.98521400  1
  O  O51  1  0.12460900  0.73111200  0.01478600  1
  O  O52  1  0.42350600  0.96213700  0.37312800  1
  O  O53  1  0.03786300  0.57649400  0.62687200  1
  O  O54  1  0.57538300  0.03837900  0.12779700  1
  O  O55  1  0.96162100  0.42461700  0.87220300  1
  O  O56  1  0.18612400  0.66304800  0.55242900  1
  O  O57  1  0.33695200  0.81387600  0.44757100  1
  O  O58  1  0.81294300  0.33883600  0.94723600  1
  O  O59  1  0.66116400  0.18705700  0.05276400  1
  O  O60  1  0.18346200  0.75930300  0.35589800  1
  O  O61  1  0.24069700  0.81653800  0.64410200  1
  O  O62  1  0.82419100  0.23682700  0.14400700  1
  O  O63  1  0.76317300  0.17580900  0.85599300  1
  O  O64  1  0.68333000  0.26473600  0.32284400  1
  O  O65  1  0.73526400  0.31667000  0.67715600  1
  O  O66  1  0.30984400  0.74502500  0.17586400  1
  O  O67  1  0.25497500  0.69015600  0.82413600  1
  O  O68  1  0.47101100  0.83119600  0.21064000  1
  O  O69  1  0.16880400  0.52898900  0.78936000  1
  O  O70  1  0.52297900  0.17268200  0.28806300  1
  O  O71  1  0.82731800  0.47702100  0.71193700  1
  O  O72  1  0.93572000  0.38125500  0.16141600  1
  O  O73  1  0.61874500  0.06428000  0.83858400  1
  O  O74  1  0.06653700  0.61418500  0.33761200  1
  O  O75  1  0.38581500  0.93346300  0.66238800  1
  O  O76  1  0.03822400  0.46517200  0.47598200  1
  O  O77  1  0.53482800  0.96177600  0.52401800  1
  O  O78  1  0.96187100  0.53444100  0.02302300  1
  O  O79  1  0.46555900  0.03812900  0.97697700  1
  O  O80  1  0.02028200  0.07445400  0.32641800  1
  O  O81  1  0.92554600  0.97971800  0.67358200  1
  O  O82  1  0.98206000  0.92475900  0.17006100  1
  O  O83  1  0.07524100  0.01794000  0.82993900  1
  O  O84  1  0.51392400  0.48607600  0.50000000  1
  O  O85  1  0.48420900  0.51579100  0.00000000  1
