# generated using pymatgen
data_MnNiP2O7
_symmetry_space_group_name_H-M   'P 1'
_cell_length_a   4.54777589
_cell_length_b   6.59872199
_cell_length_c   8.48160140
_cell_angle_alpha   89.86783471
_cell_angle_beta   90.07423701
_cell_angle_gamma   102.68753363
_symmetry_Int_Tables_number   1
_chemical_formula_structural   MnNiP2O7
_chemical_formula_sum   'Mn2 Ni2 P4 O14'
_cell_volume   248.31295875
_cell_formula_units_Z   2
loop_
 _symmetry_equiv_pos_site_id
 _symmetry_equiv_pos_as_xyz
  1  'x, y, z'
loop_
 _atom_site_type_symbol
 _atom_site_label
 _atom_site_symmetry_multiplicity
 _atom_site_fract_x
 _atom_site_fract_y
 _atom_site_fract_z
 _atom_site_occupancy
  Mn  Mn0  1  0.53837100  0.71366800  0.69879100  1
  Mn  Mn1  1  0.53825800  0.21373500  0.19846700  1
  Ni  Ni2  1  0.53802600  0.71326800  0.32147000  1
  Ni  Ni3  1  0.53847400  0.21353800  0.82136700  1
  P  P4  1  0.12995400  0.49811700  0.99848300  1
  P  P5  1  0.12997100  0.99808500  0.49851000  1
  P  P6  1  0.94645900  0.92916400  0.99811600  1
  P  P7  1  0.94646000  0.42914800  0.49812300  1
  O  O8  1  0.03797300  0.71363000  0.95901400  1
  O  O9  1  0.03805800  0.21363500  0.45901600  1
  O  O10  1  0.30288600  0.50926300  0.15390100  1
  O  O11  1  0.30289700  0.00926100  0.65395100  1
  O  O12  1  0.77342700  0.41779100  0.65317200  1
  O  O13  1  0.77336000  0.91772800  0.15312300  1
  O  O14  1  0.32380600  0.46981400  0.85441100  1
  O  O15  1  0.32406900  0.96996800  0.35449400  1
  O  O16  1  0.75315700  0.45713800  0.35315500  1
  O  O17  1  0.75324600  0.95719500  0.85311000  1
  O  O18  1  0.25017700  0.08646900  0.00516000  1
  O  O19  1  0.25015200  0.58648500  0.50519700  1
  O  O20  1  0.82699900  0.33948100  0.00446300  1
  O  O21  1  0.82701800  0.83941700  0.50450300  1
