# generated using pymatgen
data_Na2MgZn5(AsO4)6
_symmetry_space_group_name_H-M   'P 1'
_cell_length_a   8.70132208
_cell_length_b   8.70132208
_cell_length_c   6.90025293
_cell_angle_alpha   74.02197487
_cell_angle_beta   74.02197487
_cell_angle_gamma   90.64954819
_symmetry_Int_Tables_number   1
_chemical_formula_structural   Na2MgZn5(AsO4)6
_chemical_formula_sum   'Na2 Mg1 Zn5 As6 O24'
_cell_volume   480.70278167
_cell_formula_units_Z   1
loop_
 _symmetry_equiv_pos_site_id
 _symmetry_equiv_pos_as_xyz
  1  'x, y, z'
loop_
 _atom_site_type_symbol
 _atom_site_label
 _atom_site_symmetry_multiplicity
 _atom_site_fract_x
 _atom_site_fract_y
 _atom_site_fract_z
 _atom_site_occupancy
  Na  Na0  1  0.00941100  0.99058900  0.50000000  1
  Na  Na1  1  0.99065800  0.00934200  0.00000000  1
  Mg  Mg2  1  0.71722300  0.28277700  0.50000000  1
  Zn  Zn3  1  0.04994100  0.36722500  0.62818400  1
  Zn  Zn4  1  0.63277500  0.95005900  0.37181600  1
  Zn  Zn5  1  0.94917800  0.63243600  0.87219100  1
  Zn  Zn6  1  0.36756400  0.05082200  0.12780900  1
  Zn  Zn7  1  0.28356200  0.71643800  0.00000000  1
  As  As8  1  0.88950700  0.66218300  0.36497000  1
  As  As9  1  0.33781700  0.11049300  0.63503000  1
  As  As10  1  0.11041200  0.33873500  0.13549000  1
  As  As11  1  0.66126500  0.88958800  0.86451000  1
  As  As12  1  0.31135500  0.68864500  0.50000000  1
  As  As13  1  0.68925500  0.31074500  0.00000000  1
  O  O14  1  0.97882600  0.59997400  0.56622900  1
  O  O15  1  0.40002600  0.02117400  0.43377100  1
  O  O16  1  0.02176500  0.40022800  0.93382600  1
  O  O17  1  0.59977200  0.97823500  0.06617400  1
  O  O18  1  0.19781400  0.73221500  0.72539800  1
  O  O19  1  0.26778500  0.80218600  0.27460200  1
  O  O20  1  0.80126400  0.26810100  0.77412700  1
  O  O21  1  0.73189900  0.19873600  0.22587300  1
  O  O22  1  0.27705000  0.48742900  0.51656400  1
  O  O23  1  0.51257100  0.72295000  0.48343600  1
  O  O24  1  0.72317900  0.51226700  0.98358900  1
  O  O25  1  0.48773300  0.27682100  0.01641100  1
  O  O26  1  0.14226500  0.15097900  0.65424800  1
  O  O27  1  0.84902100  0.85773500  0.34575200  1
  O  O28  1  0.85680400  0.84857600  0.84555000  1
  O  O29  1  0.15142400  0.14319600  0.15445000  1
  O  O30  1  0.97345200  0.32815800  0.37641700  1
  O  O31  1  0.67184200  0.02654800  0.62358300  1
  O  O32  1  0.02562700  0.67143300  0.12314100  1
  O  O33  1  0.32856700  0.97437300  0.87685900  1
  O  O34  1  0.72368800  0.53308900  0.41386900  1
  O  O35  1  0.46691100  0.27631200  0.58613100  1
  O  O36  1  0.27832900  0.46753800  0.08427600  1
  O  O37  1  0.53246200  0.72167100  0.91572400  1
