# generated using pymatgen
data_Na3Zn2CuH8S4O17
_symmetry_space_group_name_H-M   'P 1'
_cell_length_a   7.58532208
_cell_length_b   7.88897019
_cell_length_c   14.28122600
_cell_angle_alpha   90.00000000
_cell_angle_beta   90.00000000
_cell_angle_gamma   100.89560508
_symmetry_Int_Tables_number   1
_chemical_formula_structural   Na3Zn2CuH8S4O17
_chemical_formula_sum   'Na6 Zn4 Cu2 H16 S8 O34'
_cell_volume   839.18840428
_cell_formula_units_Z   2
loop_
 _symmetry_equiv_pos_site_id
 _symmetry_equiv_pos_as_xyz
  1  'x, y, z'
loop_
 _atom_site_type_symbol
 _atom_site_label
 _atom_site_symmetry_multiplicity
 _atom_site_fract_x
 _atom_site_fract_y
 _atom_site_fract_z
 _atom_site_occupancy
  Na  Na0  1  0.60808000  0.29266100  0.74876700  1
  Na  Na1  1  0.39192000  0.70733900  0.24876700  1
  Na  Na2  1  0.06491600  0.32901800  0.61000300  1
  Na  Na3  1  0.93508400  0.67098200  0.11000300  1
  Na  Na4  1  0.96833200  0.68860900  0.40018400  1
  Na  Na5  1  0.03166800  0.31139100  0.90018400  1
  Zn  Zn6  1  0.25733500  0.83535100  0.61229400  1
  Zn  Zn7  1  0.74266500  0.16464900  0.11229400  1
  Zn  Zn8  1  0.74499400  0.16622000  0.38881500  1
  Zn  Zn9  1  0.25500600  0.83378000  0.88881500  1
  Cu  Cu10  1  0.78992800  0.77688600  0.74928100  1
  Cu  Cu11  1  0.21007200  0.22311400  0.24928100  1
  H  H12  1  0.19639500  0.06057300  0.47946500  1
  H  H13  1  0.80360500  0.93942700  0.97946500  1
  H  H14  1  0.80057500  0.93878500  0.51971800  1
  H  H15  1  0.19942500  0.06121500  0.01971800  1
  H  H16  1  0.31412900  0.94337400  0.43140600  1
  H  H17  1  0.68587100  0.05662600  0.93140600  1
  H  H18  1  0.68693400  0.05817800  0.56912500  1
  H  H19  1  0.31306600  0.94182200  0.06912500  1
  H  H20  1  0.35495300  0.62683300  0.48478100  1
  H  H21  1  0.64504700  0.37316700  0.98478100  1
  H  H22  1  0.64702100  0.37431600  0.51438700  1
  H  H23  1  0.35297900  0.62568400  0.01438700  1
  H  H24  1  0.54111900  0.69882600  0.53797900  1
  H  H25  1  0.45888100  0.30117400  0.03797900  1
  H  H26  1  0.46084900  0.30250800  0.46141200  1
  H  H27  1  0.53915100  0.69749200  0.96141200  1
  S  S28  1  0.84100100  0.63419600  0.61730500  1
  S  S29  1  0.15899900  0.36580400  0.11730500  1
  S  S30  1  0.15882400  0.36581100  0.38110800  1
  S  S31  1  0.84117600  0.63418900  0.88110800  1
  S  S32  1  0.00859000  0.02186300  0.75060700  1
  S  S33  1  0.99141000  0.97813700  0.25060700  1
  S  S34  1  0.53969200  0.89994300  0.75036200  1
  S  S35  1  0.46030800  0.10005700  0.25036200  1
  O  O36  1  0.22135900  0.28313300  0.46874000  1
  O  O37  1  0.77864100  0.71686700  0.96874000  1
  O  O38  1  0.77642500  0.71548200  0.52948400  1
  O  O39  1  0.22357500  0.28451800  0.02948400  1
  O  O40  1  0.12547200  0.02812400  0.66354400  1
  O  O41  1  0.87452800  0.97187600  0.16354400  1
  O  O42  1  0.87425000  0.97145900  0.33764400  1
  O  O43  1  0.12575000  0.02854100  0.83764400  1
  O  O44  1  0.04138400  0.63404200  0.60198700  1
  O  O45  1  0.95861600  0.36595800  0.10198700  1
  O  O46  1  0.95933000  0.37121200  0.39513200  1
  O  O47  1  0.04067000  0.62878800  0.89513200  1
  O  O48  1  0.52977500  0.01044100  0.66317200  1
  O  O49  1  0.47022500  0.98955900  0.16317200  1
  O  O50  1  0.46867100  0.98808300  0.33692700  1
  O  O51  1  0.53132900  0.01191700  0.83692700  1
  O  O52  1  0.40842900  0.68132700  0.54376600  1
  O  O53  1  0.59157100  0.31867300  0.04376600  1
  O  O54  1  0.59331800  0.32487600  0.45421400  1
  O  O55  1  0.40668200  0.67512400  0.95421400  1
  O  O56  1  0.35537300  0.77445800  0.75078900  1
  O  O57  1  0.64462700  0.22554200  0.25078900  1
  O  O58  1  0.21720000  0.93927300  0.47876100  1
  O  O59  1  0.78280000  0.06072700  0.97876100  1
  O  O60  1  0.78114300  0.06037200  0.52059000  1
  O  O61  1  0.21885700  0.93962800  0.02059000  1
  O  O62  1  0.93174500  0.18372300  0.75100600  1
  O  O63  1  0.06825500  0.81627700  0.25100600  1
  O  O64  1  0.75337300  0.44510700  0.61774300  1
  O  O65  1  0.24662700  0.55489300  0.11774300  1
  O  O66  1  0.25110000  0.55422700  0.38072800  1
  O  O67  1  0.74890000  0.44577300  0.88072800  1
  O  O68  1  0.32819300  0.37062500  0.70497200  1
  O  O69  1  0.67180700  0.62937500  0.20497200  1
