# generated using pymatgen
data_Na2W3SeO14
_symmetry_space_group_name_H-M   'P 1'
_cell_length_a   7.35334191
_cell_length_b   7.39838960
_cell_length_c   12.50970175
_cell_angle_alpha   89.78031818
_cell_angle_beta   90.44204905
_cell_angle_gamma   119.79878520
_symmetry_Int_Tables_number   1
_chemical_formula_structural   Na2W3SeO14
_chemical_formula_sum   'Na4 W6 Se2 O28'
_cell_volume   590.55944085
_cell_formula_units_Z   2
loop_
 _symmetry_equiv_pos_site_id
 _symmetry_equiv_pos_as_xyz
  1  'x, y, z'
loop_
 _atom_site_type_symbol
 _atom_site_label
 _atom_site_symmetry_multiplicity
 _atom_site_fract_x
 _atom_site_fract_y
 _atom_site_fract_z
 _atom_site_occupancy
  Na  Na0  1  0.49404500  0.00448000  0.24519700  1
  Na  Na1  1  0.50490200  0.50069100  0.24565700  1
  Na  Na2  1  0.48956400  0.99552000  0.74519700  1
  Na  Na3  1  0.00421100  0.49930900  0.74565700  1
  W  W4  1  0.82393000  0.16391400  0.50292500  1
  W  W5  1  0.33689300  0.17411200  0.50465700  1
  W  W6  1  0.83371200  0.66183300  0.50299700  1
  W  W7  1  0.66001600  0.83608600  0.00292500  1
  W  W8  1  0.16278200  0.82588800  0.00465700  1
  W  W9  1  0.17187900  0.33816700  0.00299700  1
  Se  Se10  1  0.00445900  0.99658500  0.73126300  1
  Se  Se11  1  0.00787500  0.00341500  0.23126300  1
  O  O12  1  0.75321300  0.87565400  0.49511300  1
  O  O13  1  0.11752500  0.24265400  0.49355900  1
  O  O14  1  0.12440100  0.87829500  0.49251600  1
  O  O15  1  0.87755800  0.12434600  0.99511300  1
  O  O16  1  0.87487100  0.75734600  0.99355900  1
  O  O17  1  0.24610600  0.12170500  0.99251600  1
  O  O18  1  0.54255600  0.09155600  0.55034200  1
  O  O19  1  0.54326700  0.45726100  0.54445700  1
  O  O20  1  0.90940300  0.45273500  0.54559500  1
  O  O21  1  0.45099900  0.90844400  0.05034200  1
  O  O22  1  0.08600500  0.54273900  0.04445700  1
  O  O23  1  0.45666700  0.54726500  0.04559500  1
  O  O24  1  0.33273000  0.66734000  0.34187100  1
  O  O25  1  0.66539100  0.33266000  0.84187100  1
  O  O26  1  0.25131300  0.11903600  0.67223400  1
  O  O27  1  0.88897700  0.75128500  0.67262400  1
  O  O28  1  0.87403500  0.11972500  0.67513500  1
  O  O29  1  0.13227700  0.88096400  0.17223400  1
  O  O30  1  0.13769200  0.24871500  0.17262400  1
  O  O31  1  0.75431100  0.88027500  0.17513500  1
  O  O32  1  0.69744100  0.34981800  0.15484000  1
  O  O33  1  0.34762300  0.65018200  0.65484000  1
  O  O34  1  0.77987500  0.18639500  0.36617600  1
  O  O35  1  0.39379700  0.19909700  0.36479300  1
  O  O36  1  0.79484000  0.60416000  0.36495100  1
  O  O37  1  0.59347900  0.81360500  0.86617600  1
  O  O38  1  0.19470000  0.80090300  0.86479300  1
  O  O39  1  0.19068000  0.39584000  0.86495100  1
