# generated using pymatgen
data_Mn6BiPO12
_symmetry_space_group_name_H-M   'P 1'
_cell_length_a   6.95860248
_cell_length_b   6.95860248
_cell_length_c   6.95860248
_cell_angle_alpha   60.00000000
_cell_angle_beta   60.00000000
_cell_angle_gamma   60.00000000
_symmetry_Int_Tables_number   1
_chemical_formula_structural   Mn6BiPO12
_chemical_formula_sum   'Mn6 Bi1 P1 O12'
_cell_volume   238.25997090
_cell_formula_units_Z   1
loop_
 _symmetry_equiv_pos_site_id
 _symmetry_equiv_pos_as_xyz
  1  'x, y, z'
loop_
 _atom_site_type_symbol
 _atom_site_label
 _atom_site_symmetry_multiplicity
 _atom_site_fract_x
 _atom_site_fract_y
 _atom_site_fract_z
 _atom_site_occupancy
  Mn  Mn0  1  0.99603500  0.99603500  0.50396500  1
  Mn  Mn1  1  0.50396500  0.99603500  0.50396500  1
  Mn  Mn2  1  0.99603500  0.50396500  0.50396500  1
  Mn  Mn3  1  0.50396500  0.50396500  0.99603500  1
  Mn  Mn4  1  0.99603500  0.50396500  0.99603500  1
  Mn  Mn5  1  0.50396500  0.99603500  0.99603500  1
  Bi  Bi6  1  0.00000000  0.00000000  0.00000000  1
  P  P7  1  0.50000000  0.50000000  0.50000000  1
  O  O8  1  0.85755400  0.85755400  0.42733900  1
  O  O9  1  0.85755400  0.42733900  0.85755400  1
  O  O10  1  0.42733900  0.85755400  0.85755400  1
  O  O11  1  0.85755400  0.85755400  0.85755400  1
  O  O12  1  0.14560100  0.14560100  0.56319800  1
  O  O13  1  0.14560100  0.56319800  0.14560100  1
  O  O14  1  0.56319800  0.14560100  0.14560100  1
  O  O15  1  0.14560100  0.14560100  0.14560100  1
  O  O16  1  0.59079700  0.59079700  0.22760900  1
  O  O17  1  0.59079700  0.22760900  0.59079700  1
  O  O18  1  0.22760900  0.59079700  0.59079700  1
  O  O19  1  0.59079700  0.59079700  0.59079700  1
