# generated using pymatgen
data_Na2Mn(SiO3)2
_symmetry_space_group_name_H-M   'P 1'
_cell_length_a   7.46322200
_cell_length_b   10.43616100
_cell_length_c   10.45303400
_cell_angle_alpha   90.00000000
_cell_angle_beta   90.00000000
_cell_angle_gamma   90.00000000
_symmetry_Int_Tables_number   1
_chemical_formula_structural   Na2Mn(SiO3)2
_chemical_formula_sum   'Na12 Mn6 Si12 O36'
_cell_volume   814.15949790
_cell_formula_units_Z   6
loop_
 _symmetry_equiv_pos_site_id
 _symmetry_equiv_pos_as_xyz
  1  'x, y, z'
loop_
 _atom_site_type_symbol
 _atom_site_label
 _atom_site_symmetry_multiplicity
 _atom_site_fract_x
 _atom_site_fract_y
 _atom_site_fract_z
 _atom_site_occupancy
  Na  Na0  1  0.27234700  0.26393700  0.98235800  1
  Na  Na1  1  0.27234700  0.73606300  0.98235800  1
  Na  Na2  1  0.72765300  0.23606300  0.48235800  1
  Na  Na3  1  0.72765300  0.76393700  0.48235800  1
  Na  Na4  1  0.76970500  0.23838600  0.01126900  1
  Na  Na5  1  0.76970500  0.76161400  0.01126900  1
  Na  Na6  1  0.23029500  0.26161400  0.51126900  1
  Na  Na7  1  0.23029500  0.73838600  0.51126900  1
  Na  Na8  1  0.75168600  0.50000000  0.25217600  1
  Na  Na9  1  0.24831400  0.00000000  0.75217600  1
  Na  Na10  1  0.23595300  0.00000000  0.24738100  1
  Na  Na11  1  0.76404700  0.50000000  0.74738100  1
  Mn  Mn12  1  0.74817600  0.00000000  0.24748500  1
  Mn  Mn13  1  0.25182400  0.50000000  0.74748500  1
  Mn  Mn14  1  0.01587600  0.00000000  0.01015400  1
  Mn  Mn15  1  0.98412400  0.50000000  0.51015400  1
  Mn  Mn16  1  0.51861000  0.50000000  0.98350400  1
  Mn  Mn17  1  0.48139000  0.00000000  0.48350400  1
  Si  Si18  1  0.50047900  0.00000000  0.96829100  1
  Si  Si19  1  0.49952100  0.50000000  0.46829100  1
  Si  Si20  1  0.03059600  0.27289100  0.24143000  1
  Si  Si21  1  0.03059600  0.72710900  0.24143000  1
  Si  Si22  1  0.96940400  0.22710900  0.74143000  1
  Si  Si23  1  0.96940400  0.77289100  0.74143000  1
  Si  Si24  1  0.46680400  0.27238400  0.25473800  1
  Si  Si25  1  0.46680400  0.72761600  0.25473800  1
  Si  Si26  1  0.53319600  0.22761600  0.75473800  1
  Si  Si27  1  0.53319600  0.77238400  0.75473800  1
  Si  Si28  1  0.00081300  0.50000000  0.02816300  1
  Si  Si29  1  0.99918700  0.00000000  0.52816300  1
  O  O30  1  0.69390400  0.00000000  0.03837200  1
  O  O31  1  0.30609600  0.50000000  0.53837200  1
  O  O32  1  0.95925300  0.33750700  0.37356600  1
  O  O33  1  0.95925300  0.66249300  0.37356600  1
  O  O34  1  0.04074700  0.16249300  0.87356600  1
  O  O35  1  0.04074700  0.83750700  0.87356600  1
  O  O36  1  0.80641600  0.00000000  0.45705500  1
  O  O37  1  0.19358400  0.50000000  0.95705500  1
  O  O38  1  0.51015200  0.37357200  0.37274400  1
  O  O39  1  0.51015200  0.62642800  0.37274400  1
  O  O40  1  0.48984800  0.12642800  0.87274400  1
  O  O41  1  0.48984800  0.87357200  0.87274400  1
  O  O42  1  0.54461900  0.13732800  0.30847700  1
  O  O43  1  0.54461900  0.86267200  0.30847700  1
  O  O44  1  0.45538100  0.36267200  0.80847700  1
  O  O45  1  0.45538100  0.63732800  0.80847700  1
  O  O46  1  0.95352200  0.13698400  0.18886100  1
  O  O47  1  0.95352200  0.86301600  0.18886100  1
  O  O48  1  0.04647800  0.36301600  0.68886100  1
  O  O49  1  0.04647800  0.63698400  0.68886100  1
  O  O50  1  0.30928300  0.00000000  0.04188600  1
  O  O51  1  0.69071700  0.50000000  0.54188600  1
  O  O52  1  0.24817300  0.25321700  0.25070200  1
  O  O53  1  0.24817300  0.74678300  0.25070200  1
  O  O54  1  0.75182700  0.24678300  0.75070200  1
  O  O55  1  0.75182700  0.75321700  0.75070200  1
  O  O56  1  0.53440200  0.33473600  0.12071300  1
  O  O57  1  0.53440200  0.66526400  0.12071300  1
  O  O58  1  0.46559800  0.16526400  0.62071300  1
  O  O59  1  0.46559800  0.83473600  0.62071300  1
  O  O60  1  0.98999900  0.37279200  0.12240700  1
  O  O61  1  0.98999900  0.62720800  0.12240700  1
  O  O62  1  0.01000100  0.12720800  0.62240700  1
  O  O63  1  0.01000100  0.87279200  0.62240700  1
  O  O64  1  0.19092800  0.00000000  0.45530700  1
  O  O65  1  0.80907200  0.50000000  0.95530700  1
