# generated using pymatgen
data_Na(FeO2)2
_symmetry_space_group_name_H-M   'P 1'
_cell_length_a   3.03797500
_cell_length_b   5.12655403
_cell_length_c   5.86140604
_cell_angle_alpha   106.16027362
_cell_angle_beta   90.85384673
_cell_angle_gamma   91.48078663
_symmetry_Int_Tables_number   1
_chemical_formula_structural   Na(FeO2)2
_chemical_formula_sum   'Na1 Fe2 O4'
_cell_volume   87.62800361
_cell_formula_units_Z   1
loop_
 _symmetry_equiv_pos_site_id
 _symmetry_equiv_pos_as_xyz
  1  'x, y, z'
loop_
 _atom_site_type_symbol
 _atom_site_label
 _atom_site_symmetry_multiplicity
 _atom_site_fract_x
 _atom_site_fract_y
 _atom_site_fract_z
 _atom_site_occupancy
  Na  Na0  1  0.00000000  0.50000000  0.50000000  1
  Fe  Fe1  1  0.50000000  0.50000000  0.00000000  1
  Fe  Fe2  1  0.00000000  0.00000000  0.00000000  1
  O  O3  1  0.03282100  0.28123700  0.81543300  1
  O  O4  1  0.49081800  0.75782700  0.81524100  1
  O  O5  1  0.96717900  0.71876300  0.18456700  1
  O  O6  1  0.50918200  0.24217300  0.18475900  1
