# generated using pymatgen
data_Pr4(MoO2)9
_symmetry_space_group_name_H-M   'P 1'
_cell_length_a   11.94623395
_cell_length_b   11.80155811
_cell_length_c   18.50908081
_cell_angle_alpha   89.99999995
_cell_angle_beta   71.05159954
_cell_angle_gamma   119.60018448
_symmetry_Int_Tables_number   1
_chemical_formula_structural   Pr4(MoO2)9
_chemical_formula_sum   'Pr20 Mo45 O90'
_cell_volume   2104.77101877
_cell_formula_units_Z   5
loop_
 _symmetry_equiv_pos_site_id
 _symmetry_equiv_pos_as_xyz
  1  'x, y, z'
loop_
 _atom_site_type_symbol
 _atom_site_label
 _atom_site_symmetry_multiplicity
 _atom_site_fract_x
 _atom_site_fract_y
 _atom_site_fract_z
 _atom_site_occupancy
  Pr  Pr0  1  0.02947522  0.84802234  0.13503732  1
  Pr  Pr1  1  0.68817679  0.84408839  0.13604382  1
  Pr  Pr2  1  0.02947522  0.18145288  0.13503732  1
  Pr  Pr3  1  0.95050101  0.47525051  0.22236145  1
  Pr  Pr4  1  0.30174672  0.82589537  0.22248420  1
  Pr  Pr5  1  0.30174672  0.47585135  0.22248420  1
  Pr  Pr6  1  0.43089105  0.71544553  0.85012763  1
  Pr  Pr7  1  0.29189553  0.14594777  0.22638377  1
  Pr  Pr8  1  0.62382879  0.47938678  0.22895474  1
  Pr  Pr9  1  0.62382879  0.14444201  0.22895474  1
  Pr  Pr10  1  0.89388147  0.44694074  0.66570807  1
  Pr  Pr11  1  0.64829372  0.49030652  0.84734819  1
  Pr  Pr12  1  0.99430471  0.49715235  0.84450957  1
  Pr  Pr13  1  0.64829372  0.15798720  0.84734819  1
  Pr  Pr14  1  0.32774274  0.66387137  0.67609277  1
  Pr  Pr15  1  0.66738145  0.00196731  0.67061353  1
  Pr  Pr16  1  0.66738145  0.66541414  0.67061353  1
  Pr  Pr17  1  0.60148169  0.30074084  0.41839350  1
  Pr  Pr18  1  0.27723691  0.97333912  0.41808395  1
  Pr  Pr19  1  0.27723691  0.30389779  0.41808395  1
  Mo  Mo20  1  0.23983875  0.37055180  0.89119690  1
  Mo  Mo21  1  0.23983875  0.86928696  0.89119690  1
  Mo  Mo22  1  0.74023453  0.87011727  0.89102549  1
  Mo  Mo23  1  0.59274699  0.29637350  0.61952897  1
  Mo  Mo24  1  0.08365730  0.78880134  0.61891585  1
  Mo  Mo25  1  0.08365730  0.29485596  0.61891585  1
  Mo  Mo26  1  0.23743770  0.11871885  0.89353313  1
  Mo  Mo27  1  0.98621819  0.86705084  0.89529496  1
  Mo  Mo28  1  0.98621819  0.11916735  0.89529496  1
  Mo  Mo29  1  0.09252667  0.04626333  0.61447310  1
  Mo  Mo30  1  0.34257589  0.30500751  0.61167026  1
  Mo  Mo31  1  0.34257589  0.03756838  0.61167026  1
  Mo  Mo32  1  0.93161453  0.85453082  0.47590021  1
  Mo  Mo33  1  0.44423802  0.59715499  0.47357267  1
  Mo  Mo34  1  0.67444454  0.08206957  0.47396548  1
  Mo  Mo35  1  0.67444454  0.59237497  0.47396548  1
  Mo  Mo36  1  0.44423802  0.84708303  0.47357267  1
  Mo  Mo37  1  0.93161453  0.07708371  0.47590021  1
  Mo  Mo38  1  0.94106744  0.21297116  0.32994941  1
  Mo  Mo39  1  0.94106744  0.72809628  0.32994941  1
  Mo  Mo40  1  0.45945326  0.72972663  0.32949886  1
  Mo  Mo41  1  0.41156540  0.07941699  0.75376790  1
  Mo  Mo42  1  0.91183521  0.83081737  0.75587242  1
  Mo  Mo43  1  0.16357378  0.33188900  0.75515100  1
  Mo  Mo44  1  0.16357378  0.83168479  0.75515100  1
  Mo  Mo45  1  0.91183521  0.08101784  0.75587242  1
  Mo  Mo46  1  0.41156540  0.33214841  0.75376790  1
  Mo  Mo47  1  0.38286641  0.07955706  0.03700219  1
  Mo  Mo48  1  0.65269593  0.57964067  0.03840950  1
  Mo  Mo49  1  0.88576631  0.30523806  0.03842175  1
  Mo  Mo50  1  0.88576631  0.58052825  0.03842175  1
  Mo  Mo51  1  0.65269593  0.07305526  0.03840950  1
  Mo  Mo52  1  0.38286641  0.30330935  0.03700219  1
  Mo  Mo53  1  0.92908354  0.58631004  0.47994905  1
  Mo  Mo54  1  0.19096840  0.59548420  0.48079831  1
  Mo  Mo55  1  0.92908354  0.34277350  0.47994905  1
  Mo  Mo56  1  0.68139397  0.84069699  0.47922637  1
  Mo  Mo57  1  0.39626183  0.82128187  0.03365431  1
  Mo  Mo58  1  0.39626183  0.57497996  0.03365431  1
  Mo  Mo59  1  0.13718522  0.56859261  0.03269875  1
  Mo  Mo60  1  0.15590809  0.07795405  0.75584303  1
  Mo  Mo61  1  0.94620415  0.97310207  0.33142804  1
  Mo  Mo62  1  0.69354903  0.72146316  0.33318954  1
  Mo  Mo63  1  0.69354903  0.97208587  0.33318954  1
  Mo  Mo64  1  0.63905541  0.31952770  0.03708660  1
  O  O65  1  0.20969275  0.49006989  0.81659214  1
  O  O66  1  0.46095001  0.97331172  0.81746857  1
  O  O67  1  0.69627692  0.71845913  0.81794633  1
  O  O68  1  0.69627692  0.97781780  0.81794633  1
  O  O69  1  0.46095001  0.48763829  0.81746857  1
  O  O70  1  0.20969275  0.71962287  0.81659214  1
  O  O71  1  0.82006902  0.91003451  0.26793192  1
  O  O72  1  0.94888946  0.23037782  0.82555305  1
  O  O73  1  0.45565957  0.22782978  0.82463087  1
  O  O74  1  0.94888946  0.71851164  0.82555305  1
  O  O75  1  0.31058562  0.15529281  0.54237668  1
  O  O76  1  0.52476184  0.01867194  0.97318369  1
  O  O77  1  0.52476184  0.50608990  0.97318369  1
  O  O78  1  0.00035672  0.50017836  0.97147362  1
  O  O79  1  0.58611928  0.92098914  0.25505332  1
  O  O80  1  0.07798532  0.15911803  0.25481228  1
  O  O81  1  0.82426267  0.66816014  0.25557243  1
  O  O82  1  0.82426267  0.15610253  0.25557243  1
  O  O83  1  0.07798532  0.91886729  0.25481228  1
  O  O84  1  0.58611928  0.66513015  0.25505332  1
  O  O85  1  0.36931140  0.01919406  0.27738495  1
  O  O86  1  0.36931140  0.35011734  0.27738495  1
  O  O87  1  0.70423957  0.35211979  0.27738484  1
  O  O88  1  0.92230831  0.96115416  0.11867393  1
  O  O89  1  0.52683595  0.76341798  0.71360897  1
  O  O90  1  0.51549547  0.88513827  0.10663209  1
  O  O91  1  0.26797421  0.38399039  0.10532614  1
  O  O92  1  0.00118301  0.62767581  0.10739002  1
  O  O93  1  0.00118301  0.37350720  0.10739002  1
  O  O94  1  0.26797421  0.88398382  0.10532614  1
  O  O95  1  0.51549547  0.63035721  0.10663209  1
  O  O96  1  0.86734877  0.18963379  0.69119888  1
  O  O97  1  0.62825887  0.44171368  0.69337720  1
  O  O98  1  0.11720112  0.67572337  0.69343781  1
  O  O99  1  0.11720112  0.44147775  0.69343781  1
  O  O100  1  0.62825887  0.18654518  0.69337720  1
  O  O101  1  0.86734877  0.67771498  0.69119888  1
  O  O102  1  0.06345965  0.53172983  0.41541480  1
  O  O103  1  0.77631764  0.26261252  0.96044344  1
  O  O104  1  0.53369500  0.26684750  0.95495659  1
  O  O105  1  0.77631764  0.51370512  0.96044344  1
  O  O106  1  0.29958438  0.40160884  0.53911719  1
  O  O107  1  0.55596340  0.15982257  0.53906714  1
  O  O108  1  0.06623096  0.90573770  0.53813485  1
  O  O109  1  0.06623096  0.16049326  0.53813485  1
  O  O110  1  0.55596340  0.39614083  0.53906714  1
  O  O111  1  0.29958438  0.89797554  0.53911719  1
  O  O112  1  0.41102902  0.20551451  0.38314509  1
  O  O113  1  0.50679320  0.12991203  0.11461810  1
  O  O114  1  0.50679320  0.37688118  0.11461810  1
  O  O115  1  0.75297757  0.37648878  0.11326284  1
  O  O116  1  0.02895545  0.01447773  0.95990539  1
  O  O117  1  0.81042114  0.27508138  0.40536555  1
  O  O118  1  0.05337433  0.77854221  0.40814371  1
  O  O119  1  0.32215234  0.53479009  0.40274291  1
  O  O120  1  0.32215234  0.78736225  0.40274291  1
  O  O121  1  0.05337433  0.27483212  0.40814371  1
  O  O122  1  0.81042114  0.53533977  0.40536555  1
  O  O123  1  0.77664534  0.00831700  0.96751238  1
  O  O124  1  0.26682360  0.25637629  0.96560559  1
  O  O125  1  0.02547488  0.76760453  0.96695393  1
  O  O126  1  0.02547488  0.25787035  0.96695393  1
  O  O127  1  0.26682360  0.01044731  0.96560559  1
  O  O128  1  0.77664534  0.76832835  0.96751238  1
  O  O129  1  0.26050523  0.63025261  0.10337724  1
  O  O130  1  0.38133516  0.92882276  0.68490716  1
  O  O131  1  0.87313156  0.93656578  0.68334929  1
  O  O132  1  0.38133516  0.45251240  0.68490716  1
  O  O133  1  0.55567256  0.04186524  0.39737876  1
  O  O134  1  0.08663612  0.04331806  0.39654109  1
  O  O135  1  0.55567256  0.51380733  0.39737876  1
  O  O136  1  0.79874922  0.39937461  0.80115041  1
  O  O137  1  0.23104525  0.11552263  0.11365008  1
  O  O138  1  0.76456477  0.64628728  0.11216947  1
  O  O139  1  0.76456477  0.11827749  0.11216947  1
  O  O140  1  0.78837583  0.89418792  0.55883864  1
  O  O141  1  0.55429043  0.65557381  0.55417996  1
  O  O142  1  0.55429043  0.89871661  0.55417996  1
  O  O143  1  0.35017964  0.67508982  0.25722589  1
  O  O144  1  0.06822572  0.39177347  0.25617168  1
  O  O145  1  0.06822572  0.67645225  0.25617168  1
  O  O146  1  0.52052690  0.76026345  0.95520415  1
  O  O147  1  0.28380124  0.52442990  0.95812858  1
  O  O148  1  0.28380124  0.75937134  0.95812858  1
  O  O149  1  0.80652397  0.40326199  0.55841373  1
  O  O150  1  0.04022640  0.63621235  0.55495586  1
  O  O151  1  0.04022640  0.40401405  0.55495586  1
  O  O152  1  0.32186480  0.66093240  0.54799753  1
  O  O153  1  0.79964674  0.14379456  0.54250212  1
  O  O154  1  0.79964674  0.65585218  0.54250212  1
