# generated using pymatgen
data_Na(CoO2)2
_symmetry_space_group_name_H-M   'P 1'
_cell_length_a   2.98498543
_cell_length_b   5.09287276
_cell_length_c   5.94013391
_cell_angle_alpha   109.30807652
_cell_angle_beta   92.56069154
_cell_angle_gamma   86.31372565
_symmetry_Int_Tables_number   1
_chemical_formula_structural   Na(CoO2)2
_chemical_formula_sum   'Na1 Co2 O4'
_cell_volume   85.02105070
_cell_formula_units_Z   1
loop_
 _symmetry_equiv_pos_site_id
 _symmetry_equiv_pos_as_xyz
  1  'x, y, z'
loop_
 _atom_site_type_symbol
 _atom_site_label
 _atom_site_symmetry_multiplicity
 _atom_site_fract_x
 _atom_site_fract_y
 _atom_site_fract_z
 _atom_site_occupancy
  Na  Na0  1  0.99841000  0.84400200  0.49802900  1
  Co  Co1  1  0.48653200  0.49393200  0.98141000  1
  Co  Co2  1  0.00442500  0.01168200  0.02074400  1
  O  O3  1  0.93138700  0.41493900  0.17776500  1
  O  O4  1  0.49780100  0.88162700  0.18625700  1
  O  O5  1  0.05396800  0.59616400  0.80559400  1
  O  O6  1  0.49097700  0.10015300  0.82120000  1
