# generated using pymatgen
data_Na2Ca2(SiO3)3
_symmetry_space_group_name_H-M   'P 1'
_cell_length_a   7.59475172
_cell_length_b   7.59475172
_cell_length_c   7.59475105
_cell_angle_alpha   88.78987393
_cell_angle_beta   88.78987393
_cell_angle_gamma   88.78987726
_symmetry_Int_Tables_number   1
_chemical_formula_structural   Na2Ca2(SiO3)3
_chemical_formula_sum   'Na4 Ca4 Si6 O18'
_cell_volume   437.77812143
_cell_formula_units_Z   2
loop_
 _symmetry_equiv_pos_site_id
 _symmetry_equiv_pos_as_xyz
  1  'x, y, z'
loop_
 _atom_site_type_symbol
 _atom_site_label
 _atom_site_symmetry_multiplicity
 _atom_site_fract_x
 _atom_site_fract_y
 _atom_site_fract_z
 _atom_site_occupancy
  Na  Na0  1  0.48543200  0.48543200  0.01858600  1
  Na  Na1  1  0.01858600  0.48543200  0.48543200  1
  Na  Na2  1  0.48543200  0.01858600  0.48543200  1
  Na  Na3  1  0.75458500  0.75458500  0.75458500  1
  Ca  Ca4  1  0.01169300  0.01169300  0.46657100  1
  Ca  Ca5  1  0.46657100  0.01169300  0.01169300  1
  Ca  Ca6  1  0.01169300  0.46657100  0.01169300  1
  Ca  Ca7  1  0.99776200  0.99776200  0.99776200  1
  Si  Si8  1  0.71940300  0.71940300  0.25938600  1
  Si  Si9  1  0.25938600  0.71940300  0.71940300  1
  Si  Si10  1  0.71940300  0.25938600  0.71940300  1
  Si  Si11  1  0.28406300  0.28406300  0.73834200  1
  Si  Si12  1  0.73834200  0.28406300  0.28406300  1
  Si  Si13  1  0.28406300  0.73834200  0.28406300  1
  O  O14  1  0.79663300  0.79663300  0.43699300  1
  O  O15  1  0.43699300  0.79663300  0.79663300  1
  O  O16  1  0.79663300  0.43699300  0.79663300  1
  O  O17  1  0.20663700  0.20663700  0.56261200  1
  O  O18  1  0.56261200  0.20663700  0.20663700  1
  O  O19  1  0.20663700  0.56261200  0.20663700  1
  O  O20  1  0.79185900  0.79185900  0.07242800  1
  O  O21  1  0.07242800  0.79185900  0.79185900  1
  O  O22  1  0.79185900  0.07242800  0.79185900  1
  O  O23  1  0.20953800  0.20953800  0.92609600  1
  O  O24  1  0.92609600  0.20953800  0.20953800  1
  O  O25  1  0.20953800  0.92609600  0.20953800  1
  O  O26  1  0.25010400  0.75189800  0.50086000  1
  O  O27  1  0.50086000  0.25010400  0.75189800  1
  O  O28  1  0.75189800  0.50086000  0.25010400  1
  O  O29  1  0.50086000  0.75189800  0.25010400  1
  O  O30  1  0.25010400  0.50086000  0.75189800  1
  O  O31  1  0.75189800  0.25010400  0.50086000  1
