# generated using pymatgen
data_Na2AlGe7O16
_symmetry_space_group_name_H-M   'P 1'
_cell_length_a   7.54428488
_cell_length_b   7.98643088
_cell_length_c   8.08352743
_cell_angle_alpha   114.89288257
_cell_angle_beta   100.09816466
_cell_angle_gamma   107.57735505
_symmetry_Int_Tables_number   1
_chemical_formula_structural   Na2AlGe7O16
_chemical_formula_sum   'Na2 Al1 Ge7 O16'
_cell_volume   394.57067539
_cell_formula_units_Z   1
loop_
 _symmetry_equiv_pos_site_id
 _symmetry_equiv_pos_as_xyz
  1  'x, y, z'
loop_
 _atom_site_type_symbol
 _atom_site_label
 _atom_site_symmetry_multiplicity
 _atom_site_fract_x
 _atom_site_fract_y
 _atom_site_fract_z
 _atom_site_occupancy
  Na  Na0  1  0.12672300  0.28575500  0.25727100  1
  Na  Na1  1  0.87789600  0.71808000  0.74035100  1
  Al  Al2  1  0.21009400  0.16955600  0.85269000  1
  Ge  Ge3  1  0.31048500  0.79928700  0.59122800  1
  Ge  Ge4  1  0.68832300  0.20568800  0.41568300  1
  Ge  Ge5  1  0.35525300  0.54521600  0.80006700  1
  Ge  Ge6  1  0.63512700  0.44238400  0.19296800  1
  Ge  Ge7  1  0.78723200  0.82752000  0.14669800  1
  Ge  Ge8  1  0.23021800  0.81304300  0.19123800  1
  Ge  Ge9  1  0.77324800  0.18349900  0.81173800  1
  O  O10  1  0.24323300  0.64456700  0.97143300  1
  O  O11  1  0.75834600  0.35839000  0.02849000  1
  O  O12  1  0.18586300  0.91615200  0.73006600  1
  O  O13  1  0.81700900  0.08724500  0.26938300  1
  O  O14  1  0.37740800  0.30946400  0.09686400  1
  O  O15  1  0.62137500  0.68990200  0.89828200  1
  O  O16  1  0.27169900  0.56439800  0.58941900  1
  O  O17  1  0.73131400  0.43846700  0.41062400  1
  O  O18  1  0.28494500  0.28904800  0.72192100  1
  O  O19  1  0.71447500  0.71098000  0.28323800  1
  O  O20  1  0.42889500  0.05980900  0.32781800  1
  O  O21  1  0.56976600  0.94045700  0.67121000  1
  O  O22  1  0.19582600  0.69508200  0.33552200  1
  O  O23  1  0.80505400  0.30478200  0.66913600  1
  O  O24  1  0.97813900  0.13795400  0.88395300  1
  O  O25  1  0.02205500  0.86327500  0.11271100  1
