# generated using pymatgen
data_Mo3C2
_symmetry_space_group_name_H-M   'P 1'
_cell_length_a   3.04410949
_cell_length_b   3.04410949
_cell_length_c   7.35794000
_cell_angle_alpha   90.00000000
_cell_angle_beta   90.00000000
_cell_angle_gamma   119.99998886
_symmetry_Int_Tables_number   1
_chemical_formula_structural   Mo3C2
_chemical_formula_sum   'Mo3 C2'
_cell_volume   59.04830829
_cell_formula_units_Z   1
loop_
 _symmetry_equiv_pos_site_id
 _symmetry_equiv_pos_as_xyz
  1  'x, y, z'
loop_
 _atom_site_type_symbol
 _atom_site_label
 _atom_site_symmetry_multiplicity
 _atom_site_fract_x
 _atom_site_fract_y
 _atom_site_fract_z
 _atom_site_occupancy
  Mo  Mo0  1  0.33333300  0.66666700  0.16145700  1
  Mo  Mo1  1  0.66666700  0.33333300  0.83854300  1
  Mo  Mo2  1  0.00000000  0.00000000  0.50000000  1
  C  C3  1  0.33333300  0.66666700  0.68083500  1
  C  C4  1  0.66666700  0.33333300  0.31916500  1
