# generated using pymatgen
data_Na2Al2(GeO4)3
_symmetry_space_group_name_H-M   'P 1'
_cell_length_a   13.27507296
_cell_length_b   10.03237813
_cell_length_c   10.00720633
_cell_angle_alpha   82.97273949
_cell_angle_beta   48.59501587
_cell_angle_gamma   48.43224464
_symmetry_Int_Tables_number   1
_chemical_formula_structural   Na2Al2(GeO4)3
_chemical_formula_sum   'Na4 Al4 Ge6 O24'
_cell_volume   617.61445308
_cell_formula_units_Z   2
loop_
 _symmetry_equiv_pos_site_id
 _symmetry_equiv_pos_as_xyz
  1  'x, y, z'
loop_
 _atom_site_type_symbol
 _atom_site_label
 _atom_site_symmetry_multiplicity
 _atom_site_fract_x
 _atom_site_fract_y
 _atom_site_fract_z
 _atom_site_occupancy
  Na  Na0  1  0.81334000  0.62607300  0.12446300  1
  Na  Na1  1  0.43612400  0.12446300  0.62607300  1
  Na  Na2  1  0.12553700  0.81387600  0.43666000  1
  Na  Na3  1  0.62392700  0.43666000  0.81387600  1
  Al  Al4  1  0.56241000  0.50591000  0.24304900  1
  Al  Al5  1  0.68863100  0.24304900  0.50591000  1
  Al  Al6  1  0.74409000  0.68759000  0.56136900  1
  Al  Al7  1  0.00695100  0.56136900  0.68759000  1
  Ge  Ge8  1  0.56694500  0.73742800  0.00232100  1
  Ge  Ge9  1  0.69330600  0.00232100  0.73742800  1
  Ge  Ge10  1  0.24767900  0.55669400  0.68305500  1
  Ge  Ge11  1  0.51257200  0.68305500  0.55669400  1
  Ge  Ge12  1  0.25210500  0.24789500  0.24789500  1
  Ge  Ge13  1  0.00210500  0.99789500  0.99789500  1
  O  O14  1  0.49754600  0.62684700  0.12645700  1
  O  O15  1  0.74915000  0.12645700  0.62684700  1
  O  O16  1  0.12354300  0.50085000  0.75245400  1
  O  O17  1  0.62315300  0.75245400  0.50085000  1
  O  O18  1  0.25268100  0.64009900  0.12795000  1
  O  O19  1  0.97927000  0.12795000  0.64009900  1
  O  O20  1  0.12205000  0.27073000  0.99731900  1
  O  O21  1  0.60990100  0.99731900  0.27073000  1
  O  O22  1  0.02368300  0.44819500  0.32298300  1
  O  O23  1  0.04782900  0.79530600  0.92640900  1
  O  O24  1  0.20514000  0.32298300  0.44819500  1
  O  O25  1  0.23045700  0.92640900  0.79530600  1
  O  O26  1  0.32359100  0.01954300  0.20217100  1
  O  O27  1  0.80180500  0.22631700  0.04486000  1
  O  O28  1  0.45469400  0.20217100  0.01954300  1
  O  O29  1  0.92701700  0.04486000  0.22631700  1
  O  O30  1  0.66105700  0.91960700  0.63913900  1
  O  O31  1  0.47066800  0.32981900  0.61005100  1
  O  O32  1  0.78019700  0.63913900  0.91960700  1
  O  O33  1  0.58946100  0.61005100  0.32981900  1
  O  O34  1  0.63994900  0.66053900  0.77933200  1
  O  O35  1  0.33039300  0.58894300  0.46980300  1
  O  O36  1  0.92018100  0.77933200  0.66053900  1
  O  O37  1  0.61086100  0.46980300  0.58894300  1
