# generated using pymatgen
data_Mo2W2C3
_symmetry_space_group_name_H-M   'P 1'
_cell_length_a   2.94898300
_cell_length_b   5.17455712
_cell_length_c   6.06358412
_cell_angle_alpha   115.49325590
_cell_angle_beta   75.92619773
_cell_angle_gamma   90.00000000
_symmetry_Int_Tables_number   1
_chemical_formula_structural   Mo2W2C3
_chemical_formula_sum   'Mo2 W2 C3'
_cell_volume   80.43153816
_cell_formula_units_Z   1
loop_
 _symmetry_equiv_pos_site_id
 _symmetry_equiv_pos_as_xyz
  1  'x, y, z'
loop_
 _atom_site_type_symbol
 _atom_site_label
 _atom_site_symmetry_multiplicity
 _atom_site_fract_x
 _atom_site_fract_y
 _atom_site_fract_z
 _atom_site_occupancy
  Mo  Mo0  1  0.12314500  0.71020600  0.75370900  1
  Mo  Mo1  1  0.87685500  0.28979400  0.24629100  1
  W  W2  1  0.37652900  0.79015300  0.24694300  1
  W  W3  1  0.62347100  0.20984700  0.75305700  1
  C  C4  1  0.00000000  0.50000000  0.00000000  1
  C  C5  1  0.74557700  0.75695600  0.50884600  1
  C  C6  1  0.25442300  0.24304400  0.49115400  1
