# generated using pymatgen
data_MgSi2
_symmetry_space_group_name_H-M   'P 1'
_cell_length_a   11.89893882
_cell_length_b   11.89893882
_cell_length_c   5.32569960
_cell_angle_alpha   77.20395976
_cell_angle_beta   77.20395976
_cell_angle_gamma   17.45341763
_symmetry_Int_Tables_number   1
_chemical_formula_structural   MgSi2
_chemical_formula_sum   'Mg4 Si8'
_cell_volume   220.40800366
_cell_formula_units_Z   4
loop_
 _symmetry_equiv_pos_site_id
 _symmetry_equiv_pos_as_xyz
  1  'x, y, z'
loop_
 _atom_site_type_symbol
 _atom_site_label
 _atom_site_symmetry_multiplicity
 _atom_site_fract_x
 _atom_site_fract_y
 _atom_site_fract_z
 _atom_site_occupancy
  Mg  Mg0  1  0.06657200  0.06657200  0.73354500  1
  Mg  Mg1  1  0.68274300  0.68274300  0.38611300  1
  Mg  Mg2  1  0.32360600  0.32360600  0.99286600  1
  Mg  Mg3  1  0.50589900  0.50589900  0.29357000  1
  Si  Si4  1  0.74466400  0.74466400  0.84606400  1
  Si  Si5  1  0.63996500  0.63996500  0.93375300  1
  Si  Si6  1  0.91665800  0.91665800  0.64097000  1
  Si  Si7  1  0.91569000  0.91569000  0.14331000  1
  Si  Si8  1  0.10122100  0.10122100  0.20957300  1
  Si  Si9  1  0.26097000  0.26097000  0.55177900  1
  Si  Si10  1  0.36518400  0.36518400  0.43753500  1
  Si  Si11  1  0.47026300  0.47026300  0.83116100  1
