# generated using pymatgen
data_Mn2SbTe
_symmetry_space_group_name_H-M   'P 1'
_cell_length_a   4.15825795
_cell_length_b   4.15825795
_cell_length_c   5.70795100
_cell_angle_alpha   90.00000000
_cell_angle_beta   90.00000000
_cell_angle_gamma   119.99999913
_symmetry_Int_Tables_number   1
_chemical_formula_structural   Mn2SbTe
_chemical_formula_sum   'Mn2 Sb1 Te1'
_cell_volume   85.47394002
_cell_formula_units_Z   1
loop_
 _symmetry_equiv_pos_site_id
 _symmetry_equiv_pos_as_xyz
  1  'x, y, z'
loop_
 _atom_site_type_symbol
 _atom_site_label
 _atom_site_symmetry_multiplicity
 _atom_site_fract_x
 _atom_site_fract_y
 _atom_site_fract_z
 _atom_site_occupancy
  Mn  Mn0  1  0.00000000  0.00000000  0.74221800  1
  Mn  Mn1  1  0.00000000  0.00000000  0.25778200  1
  Sb  Sb2  1  0.66666700  0.33333300  0.50000000  1
  Te  Te3  1  0.33333300  0.66666700  0.00000000  1
