# generated using pymatgen
data_MnZn4O5
_symmetry_space_group_name_H-M   'P 1'
_cell_length_a   3.32234317
_cell_length_b   27.03758010
_cell_length_c   5.72533445
_cell_angle_alpha   83.86734733
_cell_angle_beta   89.97993241
_cell_angle_gamma   86.45111174
_symmetry_Int_Tables_number   1
_chemical_formula_structural   MnZn4O5
_chemical_formula_sum   'Mn4 Zn16 O20'
_cell_volume   510.36206474
_cell_formula_units_Z   4
loop_
 _symmetry_equiv_pos_site_id
 _symmetry_equiv_pos_as_xyz
  1  'x, y, z'
loop_
 _atom_site_type_symbol
 _atom_site_label
 _atom_site_symmetry_multiplicity
 _atom_site_fract_x
 _atom_site_fract_y
 _atom_site_fract_z
 _atom_site_occupancy
  Mn  Mn0  1  0.45159400  0.09817400  0.11706900  1
  Mn  Mn1  1  0.34880600  0.30112200  0.01576100  1
  Mn  Mn2  1  0.95173100  0.09817500  0.61708400  1
  Mn  Mn3  1  0.84866300  0.30111500  0.51578900  1
  Zn  Zn4  1  0.24928200  0.50117200  0.91661200  1
  Zn  Zn5  1  0.74928300  0.50117200  0.41661400  1
  Zn  Zn6  1  0.15011200  0.69949000  0.81736600  1
  Zn  Zn7  1  0.65005100  0.69949100  0.31734700  1
  Zn  Zn8  1  0.05076300  0.89779600  0.71808800  1
  Zn  Zn9  1  0.55076400  0.89779700  0.21808600  1
  Zn  Zn10  1  0.90068300  0.19960900  0.23328400  1
  Zn  Zn11  1  0.40067900  0.19961600  0.73328700  1
  Zn  Zn12  1  0.79798900  0.40285700  0.13153600  1
  Zn  Zn13  1  0.29798600  0.40285500  0.63154100  1
  Zn  Zn14  1  0.70038200  0.60010900  0.03293300  1
  Zn  Zn15  1  0.20038300  0.60010900  0.53293400  1
  Zn  Zn16  1  0.60028300  0.79881600  0.93358800  1
  Zn  Zn17  1  0.10028200  0.79881100  0.43359700  1
  Zn  Zn18  1  0.50179800  0.99619600  0.83472800  1
  Zn  Zn19  1  0.00180000  0.99619500  0.33475300  1
  O  O20  1  0.48972000  0.01982900  0.15690700  1
  O  O21  1  0.98971500  0.01983800  0.65690200  1
  O  O22  1  0.38913200  0.22282100  0.05551800  1
  O  O23  1  0.88913000  0.22282500  0.55551100  1
  O  O24  1  0.28647800  0.42613300  0.95398500  1
  O  O25  1  0.78647000  0.42613400  0.45398900  1
  O  O26  1  0.18948400  0.62403800  0.85511000  1
  O  O27  1  0.68948000  0.62403900  0.35510200  1
  O  O28  1  0.08853400  0.82263900  0.75587700  1
  O  O29  1  0.58852400  0.82263900  0.25588100  1
  O  O30  1  0.93877400  0.12537100  0.27109400  1
  O  O31  1  0.43887000  0.12537800  0.77111500  1
  O  O32  1  0.83520900  0.32831100  0.16983300  1
  O  O33  1  0.33513700  0.32832000  0.66985400  1
  O  O34  1  0.73735500  0.52474800  0.07080900  1
  O  O35  1  0.23735200  0.52474800  0.57081200  1
  O  O36  1  0.63809600  0.72347400  0.97104600  1
  O  O37  1  0.13804300  0.72345900  0.47108100  1
  O  O38  1  0.53859200  0.92129100  0.87178800  1
  O  O39  1  0.03859100  0.92129100  0.37179000  1
