# generated using pymatgen
data_MnO2
_symmetry_space_group_name_H-M   'P 1'
_cell_length_a   16.81995724
_cell_length_b   14.59050775
_cell_length_c   8.87091576
_cell_angle_alpha   88.08173519
_cell_angle_beta   60.10796147
_cell_angle_gamma   31.81030334
_symmetry_Int_Tables_number   1
_chemical_formula_structural   MnO2
_chemical_formula_sum   'Mn2 O4'
_cell_volume   518.41639661
_cell_formula_units_Z   2
loop_
 _symmetry_equiv_pos_site_id
 _symmetry_equiv_pos_as_xyz
  1  'x, y, z'
loop_
 _atom_site_type_symbol
 _atom_site_label
 _atom_site_symmetry_multiplicity
 _atom_site_fract_x
 _atom_site_fract_y
 _atom_site_fract_z
 _atom_site_occupancy
  Mn  Mn0  1  0.49996900  0.00003100  0.00003100  1
  Mn  Mn1  1  0.24996900  0.75003100  0.75003100  1
  O  O2  1  0.46173700  0.11219400  0.88777500  1
  O  O3  1  0.13780600  0.78826300  0.71170500  1
  O  O4  1  0.53829500  0.88777500  0.11219400  1
  O  O5  1  0.36222500  0.71170500  0.78826300  1
