# generated using pymatgen
data_MnV(CrTe2)2
_symmetry_space_group_name_H-M   'P 1'
_cell_length_a   4.14472200
_cell_length_b   6.11019300
_cell_length_c   7.10423612
_cell_angle_alpha   89.51921455
_cell_angle_beta   90.00000000
_cell_angle_gamma   90.00000000
_symmetry_Int_Tables_number   1
_chemical_formula_structural   MnV(CrTe2)2
_chemical_formula_sum   'Mn1 V1 Cr2 Te4'
_cell_volume   179.90881025
_cell_formula_units_Z   1
loop_
 _symmetry_equiv_pos_site_id
 _symmetry_equiv_pos_as_xyz
  1  'x, y, z'
loop_
 _atom_site_type_symbol
 _atom_site_label
 _atom_site_symmetry_multiplicity
 _atom_site_fract_x
 _atom_site_fract_y
 _atom_site_fract_z
 _atom_site_occupancy
  Mn  Mn0  1  0.50000000  0.50000000  0.50000000  1
  V  V1  1  0.00000000  0.50000000  0.00000000  1
  Cr  Cr2  1  0.00000000  0.00000000  0.00000000  1
  Cr  Cr3  1  0.50000000  0.00000000  0.50000000  1
  Te  Te4  1  0.50000000  0.75033300  0.83639200  1
  Te  Te5  1  0.00000000  0.75088000  0.33071800  1
  Te  Te6  1  0.00000000  0.24912000  0.66928200  1
  Te  Te7  1  0.50000000  0.24966700  0.16360800  1
