# generated using pymatgen
data_MnHg4S5
_symmetry_space_group_name_H-M   'P 1'
_cell_length_a   15.13147512
_cell_length_b   15.13147512
_cell_length_c   15.13147512
_cell_angle_alpha   164.10658609
_cell_angle_beta   164.10658609
_cell_angle_gamma   22.54994583
_symmetry_Int_Tables_number   1
_chemical_formula_structural   MnHg4S5
_chemical_formula_sum   'Mn1 Hg4 S5'
_cell_volume   259.76617235
_cell_formula_units_Z   1
loop_
 _symmetry_equiv_pos_site_id
 _symmetry_equiv_pos_as_xyz
  1  'x, y, z'
loop_
 _atom_site_type_symbol
 _atom_site_label
 _atom_site_symmetry_multiplicity
 _atom_site_fract_x
 _atom_site_fract_y
 _atom_site_fract_z
 _atom_site_occupancy
  Mn  Mn0  1  0.50000000  0.50000000  0.00000000  1
  Hg  Hg1  1  0.90354700  0.90354700  0.00000000  1
  Hg  Hg2  1  0.30053100  0.30053100  0.00000000  1
  Hg  Hg3  1  0.69946900  0.69946900  0.00000000  1
  Hg  Hg4  1  0.09645300  0.09645300  0.00000000  1
  S  S5  1  0.25000000  0.75000000  0.50000000  1
  S  S6  1  0.64815900  0.14815900  0.50000000  1
  S  S7  1  0.04280300  0.54280300  0.50000000  1
  S  S8  1  0.45719700  0.95719700  0.50000000  1
  S  S9  1  0.85184100  0.35184100  0.50000000  1
