# generated using pymatgen
data_MnCdTe2
_symmetry_space_group_name_H-M   'P 1'
_cell_length_a   7.89923688
_cell_length_b   7.89923688
_cell_length_c   7.89923684
_cell_angle_alpha   33.87104295
_cell_angle_beta   33.87104295
_cell_angle_gamma   33.87104573
_symmetry_Int_Tables_number   1
_chemical_formula_structural   MnCdTe2
_chemical_formula_sum   'Mn1 Cd1 Te2'
_cell_volume   136.43986992
_cell_formula_units_Z   1
loop_
 _symmetry_equiv_pos_site_id
 _symmetry_equiv_pos_as_xyz
  1  'x, y, z'
loop_
 _atom_site_type_symbol
 _atom_site_label
 _atom_site_symmetry_multiplicity
 _atom_site_fract_x
 _atom_site_fract_y
 _atom_site_fract_z
 _atom_site_occupancy
  Mn  Mn0  1  0.49895100  0.49895100  0.49895100  1
  Cd  Cd1  1  0.00080300  0.00080300  0.00080300  1
  Te  Te2  1  0.12923200  0.12923200  0.12923200  1
  Te  Te3  1  0.62101400  0.62101400  0.62101400  1
