# generated using pymatgen
data_MnCd2S3
_symmetry_space_group_name_H-M   'P 1'
_cell_length_a   7.86909608
_cell_length_b   7.86909608
_cell_length_c   9.80618884
_cell_angle_alpha   75.42762003
_cell_angle_beta   75.42762003
_cell_angle_gamma   30.45446627
_symmetry_Int_Tables_number   1
_chemical_formula_structural   MnCd2S3
_chemical_formula_sum   'Mn2 Cd4 S6'
_cell_volume   297.12664094
_cell_formula_units_Z   2
loop_
 _symmetry_equiv_pos_site_id
 _symmetry_equiv_pos_as_xyz
  1  'x, y, z'
loop_
 _atom_site_type_symbol
 _atom_site_label
 _atom_site_symmetry_multiplicity
 _atom_site_fract_x
 _atom_site_fract_y
 _atom_site_fract_z
 _atom_site_occupancy
  Mn  Mn0  1  0.90452200  0.90452200  0.56812800  1
  Mn  Mn1  1  0.56866100  0.56866100  0.23952000  1
  Cd  Cd2  1  0.84797700  0.84797700  0.18219100  1
  Cd  Cd3  1  0.51212800  0.51212800  0.84733200  1
  Cd  Cd4  1  0.17993100  0.17993100  0.51041400  1
  Cd  Cd5  1  0.23783200  0.23783200  0.90272600  1
  S  S6  1  0.71589000  0.71589000  0.06447500  1
  S  S7  1  0.38965100  0.38965100  0.70897200  1
  S  S8  1  0.05074900  0.05074900  0.38323200  1
  S  S9  1  0.11054000  0.11054000  0.77667200  1
  S  S10  1  0.78280500  0.78280500  0.45043400  1
  S  S11  1  0.44960300  0.44960300  0.11590500  1
