# generated using pymatgen
data_MnAu4
_symmetry_space_group_name_H-M   'P 1'
_cell_length_a   11.52099890
_cell_length_b   11.52099890
_cell_length_c   11.52099834
_cell_angle_alpha   14.95659041
_cell_angle_beta   14.95659041
_cell_angle_gamma   14.95659080
_symmetry_Int_Tables_number   1
_chemical_formula_structural   MnAu4
_chemical_formula_sum   'Mn1 Au4'
_cell_volume   88.71412234
_cell_formula_units_Z   1
loop_
 _symmetry_equiv_pos_site_id
 _symmetry_equiv_pos_as_xyz
  1  'x, y, z'
loop_
 _atom_site_type_symbol
 _atom_site_label
 _atom_site_symmetry_multiplicity
 _atom_site_fract_x
 _atom_site_fract_y
 _atom_site_fract_z
 _atom_site_occupancy
  Mn  Mn0  1  0.00000000  0.00000000  0.00000000  1
  Au  Au1  1  0.60545700  0.60545700  0.60545700  1
  Au  Au2  1  0.20171200  0.20171200  0.20171200  1
  Au  Au3  1  0.79828800  0.79828800  0.79828800  1
  Au  Au4  1  0.39454300  0.39454300  0.39454300  1
