# generated using pymatgen
data_Na2CO6
_symmetry_space_group_name_H-M   'P 1'
_cell_length_a   8.73930786
_cell_length_b   8.73930786
_cell_length_c   9.46310935
_cell_angle_alpha   89.59702747
_cell_angle_beta   89.59702747
_cell_angle_gamma   133.25605273
_symmetry_Int_Tables_number   1
_chemical_formula_structural   Na2CO6
_chemical_formula_sum   'Na8 C4 O24'
_cell_volume   526.29486828
_cell_formula_units_Z   4
loop_
 _symmetry_equiv_pos_site_id
 _symmetry_equiv_pos_as_xyz
  1  'x, y, z'
loop_
 _atom_site_type_symbol
 _atom_site_label
 _atom_site_symmetry_multiplicity
 _atom_site_fract_x
 _atom_site_fract_y
 _atom_site_fract_z
 _atom_site_occupancy
  Na  Na0  1  0.77868100  0.27805400  0.24761600  1
  Na  Na1  1  0.77714500  0.27667100  0.74225200  1
  Na  Na2  1  0.27667100  0.77714500  0.24225200  1
  Na  Na3  1  0.27805400  0.77868100  0.74761600  1
  Na  Na4  1  0.51996300  0.51999100  0.50081500  1
  Na  Na5  1  0.02550000  0.01953200  0.50229100  1
  Na  Na6  1  0.01953200  0.02550000  0.00229100  1
  Na  Na7  1  0.51999100  0.51996300  0.00081500  1
  C  C8  1  0.36188300  0.18255500  0.24964700  1
  C  C9  1  0.68487000  0.86015200  0.74958100  1
  C  C10  1  0.86015200  0.68487000  0.24958100  1
  C  C11  1  0.18255500  0.36188300  0.74964700  1
  O  O12  1  0.44015600  0.11055000  0.30089900  1
  O  O13  1  0.61540800  0.93951200  0.69516400  1
  O  O14  1  0.93951200  0.61540800  0.19516400  1
  O  O15  1  0.11055000  0.44015600  0.80089900  1
  O  O16  1  0.34454600  0.18741500  0.11447600  1
  O  O17  1  0.69259000  0.84949200  0.88523000  1
  O  O18  1  0.84949200  0.69259000  0.38523000  1
  O  O19  1  0.18741500  0.34454600  0.61447600  1
  O  O20  1  0.48601100  0.24252700  0.65535100  1
  O  O21  1  0.73427100  0.97623400  0.34592800  1
  O  O22  1  0.97623400  0.73427100  0.84592800  1
  O  O23  1  0.24252700  0.48601100  0.15535100  1
  O  O24  1  0.32995200  0.06174400  0.60846900  1
  O  O25  1  0.54999700  0.82636400  0.39237800  1
  O  O26  1  0.82636400  0.54999700  0.89237800  1
  O  O27  1  0.06174400  0.32995200  0.10846900  1
  O  O28  1  0.30102400  0.24865900  0.33285400  1
  O  O29  1  0.74506300  0.79202600  0.66780100  1
  O  O30  1  0.79202600  0.74506300  0.16780100  1
  O  O31  1  0.24865900  0.30102400  0.83285400  1
  O  O32  1  0.46455600  0.02343900  0.95686100  1
  O  O33  1  0.02343900  0.46455600  0.45686100  1
  O  O34  1  0.63164500  0.09382400  0.01538700  1
  O  O35  1  0.09382400  0.63164500  0.51538700  1
