# generated using pymatgen
data_Mn7Sb4
_symmetry_space_group_name_H-M   'P 1'
_cell_length_a   4.44247011
_cell_length_b   4.44247011
_cell_length_c   10.90603800
_cell_angle_alpha   90.00000000
_cell_angle_beta   90.00000000
_cell_angle_gamma   120.00000161
_symmetry_Int_Tables_number   1
_chemical_formula_structural   Mn7Sb4
_chemical_formula_sum   'Mn7 Sb4'
_cell_volume   186.40032263
_cell_formula_units_Z   1
loop_
 _symmetry_equiv_pos_site_id
 _symmetry_equiv_pos_as_xyz
  1  'x, y, z'
loop_
 _atom_site_type_symbol
 _atom_site_label
 _atom_site_symmetry_multiplicity
 _atom_site_fract_x
 _atom_site_fract_y
 _atom_site_fract_z
 _atom_site_occupancy
  Mn  Mn0  1  0.66666700  0.33333300  0.87423200  1
  Mn  Mn1  1  0.66666700  0.33333300  0.37452500  1
  Mn  Mn2  1  0.66666700  0.33333300  0.12576800  1
  Mn  Mn3  1  0.66666700  0.33333300  0.62547500  1
  Mn  Mn4  1  0.33333300  0.66666700  0.50000000  1
  Mn  Mn5  1  0.00000000  0.00000000  0.74352600  1
  Mn  Mn6  1  0.00000000  0.00000000  0.25647400  1
  Sb  Sb7  1  0.33333300  0.66666700  0.75897100  1
  Sb  Sb8  1  0.33333300  0.66666700  0.24102900  1
  Sb  Sb9  1  0.00000000  0.00000000  0.00000000  1
  Sb  Sb10  1  0.00000000  0.00000000  0.50000000  1
