# generated using pymatgen
data_MnCd4S5
_symmetry_space_group_name_H-M   'P 1'
_cell_length_a   12.93289130
_cell_length_b   12.93289130
_cell_length_c   9.86549161
_cell_angle_alpha   75.20210669
_cell_angle_beta   75.20210669
_cell_angle_gamma   18.56771722
_symmetry_Int_Tables_number   1
_chemical_formula_structural   MnCd4S5
_chemical_formula_sum   'Mn2 Cd8 S10'
_cell_volume   507.53211906
_cell_formula_units_Z   2
loop_
 _symmetry_equiv_pos_site_id
 _symmetry_equiv_pos_as_xyz
  1  'x, y, z'
loop_
 _atom_site_type_symbol
 _atom_site_label
 _atom_site_symmetry_multiplicity
 _atom_site_fract_x
 _atom_site_fract_y
 _atom_site_fract_z
 _atom_site_occupancy
  Mn  Mn0  1  0.13058600  0.13058600  0.27716000  1
  Mn  Mn1  1  0.33032300  0.33032300  0.67617400  1
  Cd  Cd2  1  0.16425900  0.16425900  0.84527800  1
  Cd  Cd3  1  0.36272000  0.36272000  0.24658200  1
  Cd  Cd4  1  0.56382200  0.56382200  0.63871000  1
  Cd  Cd5  1  0.76154300  0.76154300  0.04333900  1
  Cd  Cd6  1  0.96254700  0.96254700  0.44750100  1
  Cd  Cd7  1  0.53180900  0.53180900  0.07715800  1
  Cd  Cd8  1  0.73038200  0.73038200  0.47302200  1
  Cd  Cd9  1  0.92844700  0.92844700  0.87253600  1
  S  S10  1  0.09059100  0.09059100  0.08021300  1
  S  S11  1  0.28881200  0.28881200  0.48077700  1
  S  S12  1  0.48784000  0.48784000  0.86892700  1
  S  S13  1  0.68274000  0.68274000  0.27060000  1
  S  S14  1  0.88196500  0.88196500  0.66984000  1
  S  S15  1  0.65429300  0.65429300  0.70417000  1
  S  S16  1  0.85313700  0.85313700  0.10495700  1
  S  S17  1  0.05757000  0.05757000  0.49182500  1
  S  S18  1  0.25844600  0.25844600  0.89303600  1
  S  S19  1  0.45467500  0.45467500  0.30419500  1
