# generated using pymatgen
data_Na2CaPb3(CO3)5
_symmetry_space_group_name_H-M   'P 1'
_cell_length_a   10.70660430
_cell_length_b   10.70660430
_cell_length_c   6.71898968
_cell_angle_alpha   89.52781845
_cell_angle_beta   89.52781845
_cell_angle_gamma   120.28721894
_symmetry_Int_Tables_number   1
_chemical_formula_structural   Na2CaPb3(CO3)5
_chemical_formula_sum   'Na4 Ca2 Pb6 C10 O30'
_cell_volume   664.98885607
_cell_formula_units_Z   2
loop_
 _symmetry_equiv_pos_site_id
 _symmetry_equiv_pos_as_xyz
  1  'x, y, z'
loop_
 _atom_site_type_symbol
 _atom_site_label
 _atom_site_symmetry_multiplicity
 _atom_site_fract_x
 _atom_site_fract_y
 _atom_site_fract_z
 _atom_site_occupancy
  Na  Na0  1  0.47709800  0.52396200  0.18179300  1
  Na  Na1  1  0.47620900  0.95111900  0.18072300  1
  Na  Na2  1  0.52396200  0.47709800  0.68179300  1
  Na  Na3  1  0.95111900  0.47620900  0.68072300  1
  Ca  Ca4  1  0.04593300  0.52307900  0.17480700  1
  Ca  Ca5  1  0.52307900  0.04593300  0.67480700  1
  Pb  Pb6  1  0.15152600  0.84167800  0.49817600  1
  Pb  Pb7  1  0.16338700  0.31606400  0.50598100  1
  Pb  Pb8  1  0.68286100  0.83256100  0.49659400  1
  Pb  Pb9  1  0.84167800  0.15152600  0.99817600  1
  Pb  Pb10  1  0.83256100  0.68286100  0.99659400  1
  Pb  Pb11  1  0.31606400  0.16338700  0.00598100  1
  C  C12  1  0.66844200  0.33263700  0.99717900  1
  C  C13  1  0.33263700  0.66844200  0.49717900  1
  C  C14  1  0.00017700  0.00071900  0.65340500  1
  C  C15  1  0.00071900  0.00017700  0.15340500  1
  C  C16  1  0.20585500  0.79531000  0.94971500  1
  C  C17  1  0.20349700  0.40928500  0.95157500  1
  C  C18  1  0.59044500  0.79681700  0.94964800  1
  C  C19  1  0.79531000  0.20585500  0.44971500  1
  C  C20  1  0.79681700  0.59044500  0.44964800  1
  C  C21  1  0.40928500  0.20349700  0.45157500  1
  O  O22  1  0.08576200  0.38855100  0.86336400  1
  O  O23  1  0.61825300  0.70689000  0.85409700  1
  O  O24  1  0.29930300  0.91359400  0.85485600  1
  O  O25  1  0.08827700  0.69989900  0.86113100  1
  O  O26  1  0.61307200  0.91512200  0.85402100  1
  O  O27  1  0.29334300  0.38139100  0.85723200  1
  O  O28  1  0.91512200  0.61307200  0.35402100  1
  O  O29  1  0.38139100  0.29334300  0.35723200  1
  O  O30  1  0.69989900  0.08827700  0.36113100  1
  O  O31  1  0.91359400  0.29930300  0.35485600  1
  O  O32  1  0.38855100  0.08576200  0.36336400  1
  O  O33  1  0.70689000  0.61825300  0.35409700  1
  O  O34  1  0.59849800  0.40239000  0.00126600  1
  O  O35  1  0.59782900  0.19135500  0.98576900  1
  O  O36  1  0.80949700  0.40282300  0.00531200  1
  O  O37  1  0.40239000  0.59849800  0.50126600  1
  O  O38  1  0.40282300  0.80949700  0.50531200  1
  O  O39  1  0.19135500  0.59782900  0.48576900  1
  O  O40  1  0.07056900  0.93024300  0.15286700  1
  O  O41  1  0.07086000  0.14090700  0.14954500  1
  O  O42  1  0.85977300  0.92982800  0.14839400  1
  O  O43  1  0.93024300  0.07056900  0.65286700  1
  O  O44  1  0.92982800  0.85977300  0.64839400  1
  O  O45  1  0.14090700  0.07086000  0.64954500  1
  O  O46  1  0.22894400  0.77108900  0.12953500  1
  O  O47  1  0.22871800  0.45834700  0.12963200  1
  O  O48  1  0.54392800  0.77228400  0.12818300  1
  O  O49  1  0.77108900  0.22894400  0.62953500  1
  O  O50  1  0.77228400  0.54392800  0.62818300  1
  O  O51  1  0.45834700  0.22871800  0.62963200  1
