# generated using pymatgen
data_MnV4Fe(Pb2O9)2
_symmetry_space_group_name_H-M   'P 1'
_cell_length_a   6.07593449
_cell_length_b   7.98810860
_cell_length_c   8.97704884
_cell_angle_alpha   112.70465889
_cell_angle_beta   89.79557036
_cell_angle_gamma   89.07748174
_symmetry_Int_Tables_number   1
_chemical_formula_structural   MnV4Fe(Pb2O9)2
_chemical_formula_sum   'Mn1 V4 Fe1 Pb4 O18'
_cell_volume   401.86431443
_cell_formula_units_Z   1
loop_
 _symmetry_equiv_pos_site_id
 _symmetry_equiv_pos_as_xyz
  1  'x, y, z'
loop_
 _atom_site_type_symbol
 _atom_site_label
 _atom_site_symmetry_multiplicity
 _atom_site_fract_x
 _atom_site_fract_y
 _atom_site_fract_z
 _atom_site_occupancy
  Mn  Mn0  1  0.50000000  0.00000000  0.00000000  1
  V  V1  1  0.24971900  0.03540200  0.33477800  1
  V  V2  1  0.75028100  0.96459800  0.66522200  1
  V  V3  1  0.25622200  0.43276200  0.17481300  1
  V  V4  1  0.74377800  0.56723800  0.82518700  1
  Fe  Fe5  1  0.00000000  0.00000000  0.00000000  1
  Pb  Pb6  1  0.24618300  0.68298900  0.61201300  1
  Pb  Pb7  1  0.75381700  0.31701100  0.38798700  1
  Pb  Pb8  1  0.24857600  0.28335400  0.74535400  1
  Pb  Pb9  1  0.75142400  0.71664600  0.25464600  1
  O  O10  1  0.25055800  0.52512300  0.03619800  1
  O  O11  1  0.74944200  0.47487700  0.96380200  1
  O  O12  1  0.24796500  0.26358000  0.45363600  1
  O  O13  1  0.75203500  0.73642000  0.54636400  1
  O  O14  1  0.50981200  0.02092600  0.79255800  1
  O  O15  1  0.00709400  0.98554400  0.21324900  1
  O  O16  1  0.49018800  0.97907400  0.20744200  1
  O  O17  1  0.99290600  0.01445600  0.78675100  1
  O  O18  1  0.25360500  0.91946200  0.45726400  1
  O  O19  1  0.74639500  0.08053800  0.54273600  1
  O  O20  1  0.25035700  0.84453100  0.92492600  1
  O  O21  1  0.74964300  0.15546900  0.07507400  1
  O  O22  1  0.26346500  0.18548300  0.06825300  1
  O  O23  1  0.73653500  0.81451700  0.93174700  1
  O  O24  1  0.48608500  0.50910100  0.29771500  1
  O  O25  1  0.98155800  0.49824000  0.70437000  1
  O  O26  1  0.51391500  0.49089900  0.70228500  1
  O  O27  1  0.01844200  0.50176000  0.29563000  1
