# generated using pymatgen
data_Mn2InCu4Sn
_symmetry_space_group_name_H-M   'P 1'
_cell_length_a   7.60355081
_cell_length_b   7.60355081
_cell_length_c   7.60355088
_cell_angle_alpha   33.53217547
_cell_angle_beta   33.53217547
_cell_angle_gamma   33.53217148
_symmetry_Int_Tables_number   1
_chemical_formula_structural   Mn2InCu4Sn
_chemical_formula_sum   'Mn2 In1 Cu4 Sn1'
_cell_volume   119.47851168
_cell_formula_units_Z   1
loop_
 _symmetry_equiv_pos_site_id
 _symmetry_equiv_pos_as_xyz
  1  'x, y, z'
loop_
 _atom_site_type_symbol
 _atom_site_label
 _atom_site_symmetry_multiplicity
 _atom_site_fract_x
 _atom_site_fract_y
 _atom_site_fract_z
 _atom_site_occupancy
  Mn  Mn0  1  0.25017700  0.25017700  0.25017700  1
  Mn  Mn1  1  0.74982300  0.74982300  0.74982300  1
  In  In2  1  0.00000000  0.00000000  0.00000000  1
  Cu  Cu3  1  0.62506500  0.62506500  0.62506500  1
  Cu  Cu4  1  0.12495500  0.12495500  0.12495500  1
  Cu  Cu5  1  0.87504500  0.87504500  0.87504500  1
  Cu  Cu6  1  0.37493500  0.37493500  0.37493500  1
  Sn  Sn7  1  0.50000000  0.50000000  0.50000000  1
