# generated using pymatgen
data_Na3Mg2Mn4Be6Si9(SnO13)3
_symmetry_space_group_name_H-M   'P 1'
_cell_length_a   6.91375108
_cell_length_b   13.43394400
_cell_length_c   18.01978443
_cell_angle_alpha   111.88565079
_cell_angle_beta   78.95558323
_cell_angle_gamma   90.00000000
_symmetry_Int_Tables_number   1
_chemical_formula_structural   Na3Mg2Mn4Be6Si9(SnO13)3
_chemical_formula_sum   'Na6 Mg4 Mn8 Be12 Si18 Sn6 O78'
_cell_volume   1519.58094174
_cell_formula_units_Z   2
loop_
 _symmetry_equiv_pos_site_id
 _symmetry_equiv_pos_as_xyz
  1  'x, y, z'
loop_
 _atom_site_type_symbol
 _atom_site_label
 _atom_site_symmetry_multiplicity
 _atom_site_fract_x
 _atom_site_fract_y
 _atom_site_fract_z
 _atom_site_occupancy
  Na  Na0  1  0.49919500  0.50043700  0.00139300  1
  Na  Na1  1  0.83377500  0.16730900  0.33372300  1
  Na  Na2  1  0.16690300  0.83371900  0.66709900  1
  Na  Na3  1  0.49955800  0.00025200  0.99961000  1
  Na  Na4  1  0.83413800  0.66571100  0.33194000  1
  Na  Na5  1  0.16643100  0.33328700  0.66623500  1
  Mg  Mg6  1  0.66666700  0.71268100  0.16666700  1
  Mg  Mg7  1  0.00030900  0.38032000  0.50008300  1
  Mg  Mg8  1  0.33302400  0.04690400  0.83325000  1
  Mg  Mg9  1  0.16666700  0.45392800  0.16666700  1
  Mn  Mn10  1  0.49999400  0.12170600  0.49994900  1
  Mn  Mn11  1  0.83333900  0.78842300  0.83338400  1
  Mn  Mn12  1  0.83384500  0.54584400  0.83367800  1
  Mn  Mn13  1  0.16666700  0.21477800  0.16666700  1
  Mn  Mn14  1  0.49948800  0.87883300  0.49965500  1
  Mn  Mn15  1  0.33402300  0.28627600  0.83406800  1
  Mn  Mn16  1  0.66666700  0.95251000  0.16666700  1
  Mn  Mn17  1  0.99931000  0.61887500  0.49926500  1
  Be  Be18  1  0.56965300  0.20451900  0.91279500  1
  Be  Be19  1  0.90467200  0.87065600  0.24546600  1
  Be  Be20  1  0.23567300  0.53800200  0.57933500  1
  Be  Be21  1  0.51497400  0.70774300  0.91326500  1
  Be  Be22  1  0.85142300  0.37624600  0.24610700  1
  Be  Be23  1  0.18160200  0.04107800  0.57994900  1
  Be  Be24  1  0.42866100  0.79185600  0.08786700  1
  Be  Be25  1  0.76368000  0.45839200  0.42053800  1
  Be  Be26  1  0.09766100  0.12533400  0.75399900  1
  Be  Be27  1  0.48191000  0.29680500  0.08722600  1
  Be  Be28  1  0.81835900  0.96114400  0.42006800  1
  Be  Be29  1  0.15173200  0.62779700  0.75338500  1
  Si  Si30  1  0.33297200  0.50153400  0.83379500  1
  Si  Si31  1  0.66666700  0.16833600  0.16666700  1
  Si  Si32  1  0.00036100  0.83440500  0.49953800  1
  Si  Si33  1  0.83382800  0.33133200  0.83361400  1
  Si  Si34  1  0.16666700  0.99812700  0.16666700  1
  Si  Si35  1  0.49950500  0.66438400  0.49971900  1
  Si  Si36  1  0.16666700  0.66687700  0.16666700  1
  Si  Si37  1  0.50000100  0.33608000  0.50001600  1
  Si  Si38  1  0.83333200  0.00273100  0.83331700  1
  Si  Si39  1  0.66666700  0.49990300  0.16666700  1
  Si  Si40  1  0.99994600  0.16738400  0.50002800  1
  Si  Si41  1  0.33338700  0.83402300  0.83330500  1
  Si  Si42  1  0.86510400  0.75033800  0.00078700  1
  Si  Si43  1  0.19845800  0.41699700  0.33316800  1
  Si  Si44  1  0.53148500  0.08324100  0.66733700  1
  Si  Si45  1  0.13487500  0.25049500  0.00016500  1
  Si  Si46  1  0.46822900  0.91621800  0.33254600  1
  Si  Si47  1  0.80184900  0.58257200  0.66599700  1
  Sn  Sn48  1  0.99921500  0.50066700  0.00170000  1
  Sn  Sn49  1  0.33156200  0.16723800  0.33382800  1
  Sn  Sn50  1  0.66535600  0.83349000  0.66711200  1
  Sn  Sn51  1  0.00177100  0.00007600  0.99950500  1
  Sn  Sn52  1  0.33411800  0.66563400  0.33163300  1
  Sn  Sn53  1  0.66797800  0.33304600  0.66622200  1
  O  O54  1  0.37209600  0.71832100  0.14339700  1
  O  O55  1  0.70626200  0.38590100  0.47692600  1
  O  O56  1  0.03960200  0.05240000  0.81007100  1
  O  O57  1  0.48484800  0.42511300  0.14340000  1
  O  O58  1  0.82203600  0.09014800  0.47513700  1
  O  O59  1  0.15527600  0.75685500  0.80852700  1
  O  O60  1  0.15435000  0.55220800  0.80793900  1
  O  O61  1  0.48675400  0.21898500  0.14130200  1
  O  O62  1  0.82053500  0.88599500  0.47507500  1
  O  O63  1  0.03818400  0.25523700  0.80819200  1
  O  O64  1  0.37067800  0.92191800  0.14149800  1
  O  O65  1  0.70454400  0.58858900  0.47463700  1
  O  O66  1  0.62878900  0.28061800  0.85869600  1
  O  O67  1  0.96265500  0.94708700  0.19183500  1
  O  O68  1  0.29515000  0.61371200  0.52514200  1
  O  O69  1  0.51279800  0.57758500  0.85825800  1
  O  O70  1  0.84657900  0.24435000  0.19203100  1
  O  O71  1  0.17898400  0.91093600  0.52539500  1
  O  O72  1  0.84848500  0.44838000  0.18993300  1
  O  O73  1  0.17805800  0.11499500  0.52480700  1
  O  O74  1  0.51129700  0.78167700  0.85819600  1
  O  O75  1  0.96123700  0.74159100  0.18993600  1
  O  O76  1  0.29373100  0.40899600  0.52326300  1
  O  O77  1  0.62707100  0.07564100  0.85640700  1
  O  O78  1  0.99116900  0.85107700  0.00021800  1
  O  O79  1  0.32582700  0.51812700  0.33505200  1
  O  O80  1  0.65760300  0.18411800  0.66684400  1
  O  O81  1  0.00857300  0.14990300  0.00122700  1
  O  O82  1  0.34146200  0.81647800  0.33468100  1
  O  O83  1  0.67356000  0.48306800  0.66822900  1
  O  O84  1  0.00750600  0.34974000  0.99828100  1
  O  O85  1  0.34216400  0.01752600  0.33311500  1
  O  O86  1  0.67573100  0.68394100  0.66649000  1
  O  O87  1  0.99187100  0.64846300  0.99865200  1
  O  O88  1  0.32476000  0.31534300  0.33210600  1
  O  O89  1  0.65977400  0.98150600  0.66510500  1
  O  O90  1  0.16821400  0.54554000  0.09166700  1
  O  O91  1  0.50253600  0.21463300  0.42431100  1
  O  O92  1  0.83604200  0.88115500  0.75765800  1
  O  O93  1  0.74009300  0.54613900  0.09163100  1
  O  O94  1  0.07456000  0.21319700  0.42519200  1
  O  O95  1  0.40811100  0.87970100  0.75838900  1
  O  O96  1  0.40777700  0.38050700  0.75830700  1
  O  O97  1  0.74110200  0.04754400  0.09130600  1
  O  O98  1  0.07558100  0.71476500  0.42389700  1
  O  O99  1  0.83461400  0.37529400  0.75758900  1
  O  O100  1  0.16772700  0.04257500  0.09096900  1
  O  O101  1  0.50048100  0.70895300  0.42417700  1
  O  O102  1  0.83285200  0.45144300  0.90915600  1
  O  O103  1  0.16560700  0.11827300  0.24236500  1
  O  O104  1  0.49871900  0.78437100  0.57574400  1
  O  O105  1  0.25775200  0.45753500  0.90943600  1
  O  O106  1  0.59223200  0.12290500  0.24202800  1
  O  O107  1  0.92555600  0.78886600  0.57502600  1
  O  O108  1  0.59324100  0.62117500  0.24170300  1
  O  O109  1  0.92522200  0.28797800  0.57494400  1
  O  O110  1  0.25877300  0.95467200  0.90814100  1
  O  O111  1  0.16512000  0.62054000  0.24166700  1
  O  O112  1  0.49729100  0.29016200  0.57567500  1
  O  O113  1  0.83079700  0.95698900  0.90902200  1
  O  O114  1  0.76397600  0.71075600  0.91806800  1
  O  O115  1  0.09866500  0.37943400  0.25092100  1
  O  O116  1  0.43093000  0.04356600  0.58446900  1
  O  O117  1  0.31679800  0.20635200  0.91707000  1
  O  O118  1  0.64999300  0.87286100  0.25000800  1
  O  O119  1  0.98313200  0.53862800  0.58390600  1
  O  O120  1  0.23466900  0.29518000  0.08241300  1
  O  O121  1  0.56935700  0.95935300  0.41526500  1
  O  O122  1  0.90240300  0.62576400  0.74886400  1
  O  O123  1  0.68334100  0.78952000  0.08332600  1
  O  O124  1  0.01653500  0.45594900  0.41626300  1
  O  O125  1  0.35020100  0.12138900  0.74942700  1
  O  O126  1  0.38642400  0.74886700  0.00039900  1
  O  O127  1  0.72087800  0.41578200  0.33339800  1
  O  O128  1  0.05259000  0.08239200  0.66696800  1
  O  O129  1  0.61245500  0.24905000  0.99993500  1
  O  O130  1  0.94690900  0.91513500  0.33293400  1
  O  O131  1  0.28074400  0.58209100  0.66636600  1
