# generated using pymatgen
data_Mn3CrTe4
_symmetry_space_group_name_H-M   'P 1'
_cell_length_a   4.21624724
_cell_length_b   4.21624724
_cell_length_c   12.06115100
_cell_angle_alpha   90.00000000
_cell_angle_beta   90.00000000
_cell_angle_gamma   119.99998809
_symmetry_Int_Tables_number   1
_chemical_formula_structural   Mn3CrTe4
_chemical_formula_sum   'Mn3 Cr1 Te4'
_cell_volume   185.68275811
_cell_formula_units_Z   1
loop_
 _symmetry_equiv_pos_site_id
 _symmetry_equiv_pos_as_xyz
  1  'x, y, z'
loop_
 _atom_site_type_symbol
 _atom_site_label
 _atom_site_symmetry_multiplicity
 _atom_site_fract_x
 _atom_site_fract_y
 _atom_site_fract_z
 _atom_site_occupancy
  Mn  Mn0  1  0.00000000  0.00000000  0.50000000  1
  Mn  Mn1  1  0.00000000  0.00000000  0.25525600  1
  Mn  Mn2  1  0.00000000  0.00000000  0.74474400  1
  Cr  Cr3  1  0.00000000  0.00000000  0.00000000  1
  Te  Te4  1  0.33333300  0.66666700  0.87735200  1
  Te  Te5  1  0.33333300  0.66666700  0.37409800  1
  Te  Te6  1  0.66666700  0.33333300  0.12264800  1
  Te  Te7  1  0.66666700  0.33333300  0.62590200  1
