# generated using pymatgen
data_MgZnO2
_symmetry_space_group_name_H-M   'P 1'
_cell_length_a   3.30570121
_cell_length_b   3.30570121
_cell_length_c   5.20910000
_cell_angle_alpha   90.00000000
_cell_angle_beta   90.00000000
_cell_angle_gamma   119.99998424
_symmetry_Int_Tables_number   1
_chemical_formula_structural   MgZnO2
_chemical_formula_sum   'Mg1 Zn1 O2'
_cell_volume   49.29701121
_cell_formula_units_Z   1
loop_
 _symmetry_equiv_pos_site_id
 _symmetry_equiv_pos_as_xyz
  1  'x, y, z'
loop_
 _atom_site_type_symbol
 _atom_site_label
 _atom_site_symmetry_multiplicity
 _atom_site_fract_x
 _atom_site_fract_y
 _atom_site_fract_z
 _atom_site_occupancy
  Mg  Mg0  1  0.33333300  0.66666700  0.49674000  1
  Zn  Zn1  1  0.66666700  0.33333300  0.00318400  1
  O  O2  1  0.33333300  0.66666700  0.88273200  1
  O  O3  1  0.66666700  0.33333300  0.38934400  1
