# generated using pymatgen
data_Na2Ca4ZrNbSi4O17F
_symmetry_space_group_name_H-M   'P 1'
_cell_length_a   10.46150300
_cell_length_b   7.43161700
_cell_length_c   11.07844020
_cell_angle_alpha   69.87298117
_cell_angle_beta   90.00000000
_cell_angle_gamma   90.00000000
_symmetry_Int_Tables_number   1
_chemical_formula_structural   Na2Ca4ZrNbSi4O17F
_chemical_formula_sum   'Na4 Ca8 Zr2 Nb2 Si8 O34 F2'
_cell_volume   808.70513924
_cell_formula_units_Z   2
loop_
 _symmetry_equiv_pos_site_id
 _symmetry_equiv_pos_as_xyz
  1  'x, y, z'
loop_
 _atom_site_type_symbol
 _atom_site_label
 _atom_site_symmetry_multiplicity
 _atom_site_fract_x
 _atom_site_fract_y
 _atom_site_fract_z
 _atom_site_occupancy
  Na  Na0  1  0.42177900  0.95749900  0.36183500  1
  Na  Na1  1  0.92177900  0.04250100  0.63816500  1
  Na  Na2  1  0.56863800  0.30057300  0.12596400  1
  Na  Na3  1  0.06863800  0.69942700  0.87403600  1
  Ca  Ca4  1  0.22138300  0.29952800  0.15854700  1
  Ca  Ca5  1  0.72138300  0.70047200  0.84145300  1
  Ca  Ca6  1  0.19048700  0.80235400  0.14989900  1
  Ca  Ca7  1  0.69048700  0.19764600  0.85010100  1
  Ca  Ca8  1  0.42696800  0.43327300  0.36731200  1
  Ca  Ca9  1  0.92696800  0.56672700  0.63268800  1
  Ca  Ca10  1  0.80577500  0.95567700  0.34936500  1
  Ca  Ca11  1  0.30577500  0.04432300  0.65063500  1
  Zr  Zr12  1  0.80917300  0.45864800  0.34960400  1
  Zr  Zr13  1  0.30917300  0.54135200  0.65039600  1
  Nb  Nb14  1  0.55763800  0.79452900  0.11681300  1
  Nb  Nb15  1  0.05763800  0.20547100  0.88318700  1
  Si  Si16  1  0.12484800  0.37201600  0.43057700  1
  Si  Si17  1  0.62484800  0.62798400  0.56942300  1
  Si  Si18  1  0.87841500  0.80438800  0.07662700  1
  Si  Si19  1  0.37841500  0.19561200  0.92337300  1
  Si  Si20  1  0.12503000  0.93547200  0.43427100  1
  Si  Si21  1  0.62503000  0.06452800  0.56572900  1
  Si  Si22  1  0.87401300  0.38253100  0.07053400  1
  Si  Si23  1  0.37401300  0.61746900  0.92946600  1
  O  O24  1  0.00286500  0.93768300  0.01590200  1
  O  O25  1  0.50286500  0.06231700  0.98409800  1
  O  O26  1  0.00789600  0.31218500  0.01792800  1
  O  O27  1  0.50789600  0.68781500  0.98207200  1
  O  O28  1  0.98073200  0.85986300  0.47054200  1
  O  O29  1  0.48073200  0.14013700  0.52945800  1
  O  O30  1  0.97682800  0.40827800  0.46615100  1
  O  O31  1  0.47682800  0.59172200  0.53384900  1
  O  O32  1  0.90099100  0.61429100  0.03474200  1
  O  O33  1  0.40099100  0.38570900  0.96525800  1
  O  O34  1  0.73991600  0.89188400  0.01471600  1
  O  O35  1  0.23991600  0.10811600  0.98528400  1
  O  O36  1  0.16875200  0.97581900  0.28736200  1
  O  O37  1  0.66875200  0.02418100  0.71263800  1
  O  O38  1  0.14276000  0.13605400  0.47155400  1
  O  O39  1  0.64276000  0.86394600  0.52844600  1
  O  O40  1  0.40083000  0.26793800  0.24986500  1
  O  O41  1  0.90083000  0.73206200  0.75013500  1
  O  O42  1  0.88006500  0.73838000  0.23367000  1
  O  O43  1  0.38006500  0.26162000  0.76633000  1
  O  O44  1  0.73486900  0.58917200  0.47328400  1
  O  O45  1  0.23486900  0.41082800  0.52671600  1
  O  O46  1  0.74794300  0.35581100  0.99585100  1
  O  O47  1  0.24794300  0.64418900  0.00414900  1
  O  O48  1  0.64126200  0.56747300  0.23004700  1
  O  O49  1  0.14126200  0.43252700  0.76995300  1
  O  O50  1  0.16346800  0.48723600  0.28370200  1
  O  O51  1  0.66346800  0.51276400  0.71629800  1
  O  O52  1  0.86332200  0.29156500  0.22894700  1
  O  O53  1  0.36332200  0.70843500  0.77105300  1
  O  O54  1  0.73105700  0.19895000  0.46024000  1
  O  O55  1  0.23105700  0.80105000  0.53976000  1
  O  O56  1  0.41008600  0.76298200  0.21216000  1
  O  O57  1  0.91008600  0.23701800  0.78784000  1
  F  F58  1  0.62621100  0.96212500  0.22729500  1
  F  F59  1  0.12621100  0.03787500  0.77270500  1
