# generated using pymatgen
data_Mn3Zn9(PO4)8
_symmetry_space_group_name_H-M   'P 1'
_cell_length_a   5.12652600
_cell_length_b   11.58555722
_cell_length_c   11.59284797
_cell_angle_alpha   96.86762605
_cell_angle_beta   93.18361435
_cell_angle_gamma   93.45128502
_symmetry_Int_Tables_number   1
_chemical_formula_structural   Mn3Zn9(PO4)8
_chemical_formula_sum   'Mn3 Zn9 P8 O32'
_cell_volume   680.99305553
_cell_formula_units_Z   1
loop_
 _symmetry_equiv_pos_site_id
 _symmetry_equiv_pos_as_xyz
  1  'x, y, z'
loop_
 _atom_site_type_symbol
 _atom_site_label
 _atom_site_symmetry_multiplicity
 _atom_site_fract_x
 _atom_site_fract_y
 _atom_site_fract_z
 _atom_site_occupancy
  Mn  Mn0  1  0.00000000  0.50000000  0.00000000  1
  Mn  Mn1  1  0.50000000  0.00000000  0.00000000  1
  Mn  Mn2  1  0.50000000  0.50000000  0.50000000  1
  Zn  Zn3  1  0.42059200  0.12122100  0.75705200  1
  Zn  Zn4  1  0.42113600  0.62153900  0.25739000  1
  Zn  Zn5  1  0.92156500  0.75797000  0.62141100  1
  Zn  Zn6  1  0.92074400  0.25728400  0.12162600  1
  Zn  Zn7  1  0.57940800  0.87877900  0.24294800  1
  Zn  Zn8  1  0.57886400  0.37846100  0.74261000  1
  Zn  Zn9  1  0.07843500  0.24203000  0.37858900  1
  Zn  Zn10  1  0.07925600  0.74271600  0.87837400  1
  Zn  Zn11  1  0.00000000  0.00000000  0.50000000  1
  P  P12  1  0.46863300  0.80485400  0.49634200  1
  P  P13  1  0.46623500  0.30306600  0.99669700  1
  P  P14  1  0.96597300  0.99674600  0.80216900  1
  P  P15  1  0.96629100  0.49676900  0.30321000  1
  P  P16  1  0.53136700  0.19514600  0.50365800  1
  P  P17  1  0.53376500  0.69693400  0.00330300  1
  P  P18  1  0.03402700  0.00325400  0.19783100  1
  P  P19  1  0.03370900  0.50323100  0.69679000  1
  O  O20  1  0.56749600  0.69541200  0.54961600  1
  O  O21  1  0.56773400  0.19396000  0.04953200  1
  O  O22  1  0.06756600  0.04907500  0.69227300  1
  O  O23  1  0.06801000  0.54959100  0.19402400  1
  O  O24  1  0.43250400  0.30458800  0.45038400  1
  O  O25  1  0.43226600  0.80604000  0.95046800  1
  O  O26  1  0.93243400  0.95092500  0.30772700  1
  O  O27  1  0.93199000  0.45040900  0.80597600  1
  O  O28  1  0.45343500  0.77906000  0.36047900  1
  O  O29  1  0.45294700  0.27882700  0.86061700  1
  O  O30  1  0.95264000  0.86037500  0.77876600  1
  O  O31  1  0.95284300  0.36039400  0.27901800  1
  O  O32  1  0.54656500  0.22094000  0.63952100  1
  O  O33  1  0.54705300  0.72117300  0.13938300  1
  O  O34  1  0.04736000  0.13962500  0.22123400  1
  O  O35  1  0.04715700  0.63960600  0.72098200  1
  O  O36  1  0.18986900  0.83256700  0.53352600  1
  O  O37  1  0.18767700  0.33019300  0.03358300  1
  O  O38  1  0.68780900  0.03357900  0.83005900  1
  O  O39  1  0.68764400  0.53354300  0.33031700  1
  O  O40  1  0.81013100  0.16743300  0.46647400  1
  O  O41  1  0.81232300  0.66980700  0.96641700  1
  O  O42  1  0.31219100  0.96642100  0.16994100  1
  O  O43  1  0.31235600  0.46645700  0.66968300  1
  O  O44  1  0.67136200  0.90705700  0.53956400  1
  O  O45  1  0.66444700  0.40547300  0.04076200  1
  O  O46  1  0.16413400  0.04081900  0.90437800  1
  O  O47  1  0.16437900  0.54066900  0.40535900  1
  O  O48  1  0.32863800  0.09294300  0.46043600  1
  O  O49  1  0.33555300  0.59452700  0.95923800  1
  O  O50  1  0.83586600  0.95918100  0.09562200  1
  O  O51  1  0.83562100  0.45933100  0.59464100  1
