# generated using pymatgen
data_Na2Ca2Zr2MnFeSi4O17F
_symmetry_space_group_name_H-M   'P 1'
_cell_length_a   7.25282600
_cell_length_b   10.00445076
_cell_length_c   10.99071344
_cell_angle_alpha   90.39964389
_cell_angle_beta   108.33817020
_cell_angle_gamma   90.09840759
_symmetry_Int_Tables_number   1
_chemical_formula_structural   Na2Ca2Zr2MnFeSi4O17F
_chemical_formula_sum   'Na4 Ca4 Zr4 Mn2 Fe2 Si8 O34 F2'
_cell_volume   756.96749435
_cell_formula_units_Z   2
loop_
 _symmetry_equiv_pos_site_id
 _symmetry_equiv_pos_as_xyz
  1  'x, y, z'
loop_
 _atom_site_type_symbol
 _atom_site_label
 _atom_site_symmetry_multiplicity
 _atom_site_fract_x
 _atom_site_fract_y
 _atom_site_fract_z
 _atom_site_occupancy
  Na  Na0  1  0.66210600  0.88420900  0.07006800  1
  Na  Na1  1  0.34242700  0.38534900  0.42724100  1
  Na  Na2  1  0.34396800  0.11400500  0.92869400  1
  Na  Na3  1  0.65661400  0.61721200  0.56797800  1
  Ca  Ca4  1  0.48069400  0.60633200  0.20383200  1
  Ca  Ca5  1  0.52555700  0.10778400  0.30398200  1
  Ca  Ca6  1  0.52711500  0.39126600  0.80484000  1
  Ca  Ca7  1  0.48298600  0.89641600  0.70411100  1
  Zr  Zr8  1  0.97663200  0.60045200  0.20934100  1
  Zr  Zr9  1  0.02315100  0.10380700  0.29242500  1
  Zr  Zr10  1  0.02178000  0.39477100  0.79094500  1
  Zr  Zr11  1  0.97664600  0.90005000  0.71188400  1
  Mn  Mn12  1  0.84620900  0.11652500  0.93988700  1
  Mn  Mn13  1  0.13705300  0.62417500  0.55837100  1
  Fe  Fe14  1  0.13488500  0.87442200  0.05800300  1
  Fe  Fe15  1  0.83913300  0.39049700  0.43838300  1
  Si  Si16  1  0.78262500  0.83115700  0.37993400  1
  Si  Si17  1  0.21456000  0.32614800  0.11905800  1
  Si  Si18  1  0.21633900  0.17201400  0.61928200  1
  Si  Si19  1  0.78266800  0.66986700  0.87960700  1
  Si  Si20  1  0.33245700  0.83071900  0.38394300  1
  Si  Si21  1  0.66750300  0.33004700  0.11690600  1
  Si  Si22  1  0.66853900  0.16990300  0.61597400  1
  Si  Si23  1  0.33233900  0.67133400  0.88545800  1
  O  O24  1  0.78789700  0.73676300  0.25882400  1
  O  O25  1  0.22255500  0.23541200  0.24458400  1
  O  O26  1  0.22273900  0.26484300  0.74496700  1
  O  O27  1  0.78541000  0.76238500  0.75722400  1
  O  O28  1  0.03195300  0.51030200  0.37939400  1
  O  O29  1  0.96010700  0.01880200  0.12145900  1
  O  O30  1  0.95312200  0.47137600  0.61549800  1
  O  O31  1  0.03114100  0.98824100  0.88332900  1
  O  O32  1  0.82564900  0.98570700  0.34962800  1
  O  O33  1  0.17287800  0.48100300  0.14933400  1
  O  O34  1  0.17583000  0.01809000  0.65419600  1
  O  O35  1  0.82615100  0.51532500  0.84769900  1
  O  O36  1  0.54999400  0.82825800  0.36633900  1
  O  O37  1  0.44054700  0.32119000  0.11672900  1
  O  O38  1  0.44419000  0.17676800  0.62083000  1
  O  O39  1  0.55052200  0.67190700  0.86856400  1
  O  O40  1  0.34138500  0.74164600  0.01955300  1
  O  O41  1  0.67346100  0.23890900  0.48478800  1
  O  O42  1  0.67156100  0.25870900  0.98475200  1
  O  O43  1  0.34387700  0.76120100  0.51824700  1
  O  O44  1  0.27454400  0.98999500  0.37608100  1
  O  O45  1  0.72170900  0.48904000  0.12003700  1
  O  O46  1  0.72478600  0.01082700  0.62238800  1
  O  O47  1  0.27117200  0.51228000  0.87349600  1
  O  O48  1  0.20315800  0.74816100  0.25547500  1
  O  O49  1  0.79206900  0.25310300  0.24902900  1
  O  O50  1  0.79173500  0.25105800  0.74651500  1
  O  O51  1  0.20448300  0.75389100  0.75752400  1
  O  O52  1  0.90987200  0.72103100  0.02126000  1
  O  O53  1  0.08252100  0.22641400  0.48071700  1
  O  O54  1  0.07575900  0.26806600  0.98069700  1
  O  O55  1  0.90880600  0.77967000  0.52178000  1
  O  O56  1  0.61720800  0.49277400  0.38086800  1
  O  O57  1  0.62989100  0.00909100  0.88384400  1
  F  F58  1  0.40327300  0.00278000  0.11608700  1
  F  F59  1  0.40406100  0.49651900  0.61812000  1
