# generated using pymatgen
data_Mo3H20C8S13N2
_symmetry_space_group_name_H-M   'P 1'
_cell_length_a   11.56905157
_cell_length_b   11.56905157
_cell_length_c   5.95855093
_cell_angle_alpha   89.87399374
_cell_angle_beta   89.87399374
_cell_angle_gamma   120.16773505
_symmetry_Int_Tables_number   1
_chemical_formula_structural   Mo3H20C8S13N2
_chemical_formula_sum   'Mo3 H20 C8 S13 N2'
_cell_volume   689.48694251
_cell_formula_units_Z   1
loop_
 _symmetry_equiv_pos_site_id
 _symmetry_equiv_pos_as_xyz
  1  'x, y, z'
loop_
 _atom_site_type_symbol
 _atom_site_label
 _atom_site_symmetry_multiplicity
 _atom_site_fract_x
 _atom_site_fract_y
 _atom_site_fract_z
 _atom_site_occupancy
  Mo  Mo0  1  0.86175300  0.86175300  0.01629600  1
  Mo  Mo1  1  0.13762100  0.00006000  0.01592500  1
  Mo  Mo2  1  0.00006000  0.13762100  0.01592500  1
  H  H3  1  0.75112900  0.20782500  0.48568500  1
  H  H4  1  0.79381900  0.54392900  0.49410000  1
  H  H5  1  0.45803700  0.24870000  0.48912700  1
  H  H6  1  0.24870000  0.45803700  0.48912700  1
  H  H7  1  0.54392900  0.79381900  0.49410000  1
  H  H8  1  0.20782500  0.75112900  0.48568500  1
  H  H9  1  0.57091200  0.12355500  0.47655200  1
  H  H10  1  0.87836500  0.44990000  0.48196100  1
  H  H11  1  0.55179300  0.42896000  0.47246300  1
  H  H12  1  0.42896000  0.55179300  0.47246300  1
  H  H13  1  0.44990000  0.87836500  0.48196100  1
  H  H14  1  0.12355500  0.57091200  0.47655200  1
  H  H15  1  0.65778900  0.20674400  0.72972300  1
  H  H16  1  0.79290200  0.44901800  0.73736000  1
  H  H17  1  0.55133000  0.34637400  0.72908600  1
  H  H18  1  0.34637400  0.55133000  0.72908600  1
  H  H19  1  0.44901800  0.79290200  0.73736000  1
  H  H20  1  0.20674400  0.65778900  0.72972300  1
  H  H21  1  0.57287000  0.24528800  0.17423900  1
  H  H22  1  0.24528800  0.57287000  0.17423900  1
  C  C23  1  0.67101600  0.33742400  0.21077700  1
  C  C24  1  0.33742400  0.67101600  0.21077700  1
  C  C25  1  0.66150200  0.20822600  0.54513600  1
  C  C26  1  0.79310700  0.45374400  0.55304900  1
  C  C27  1  0.54766700  0.33966400  0.54487900  1
  C  C28  1  0.33966400  0.54766700  0.54487900  1
  C  C29  1  0.45374400  0.79310700  0.55304900  1
  C  C30  1  0.20822600  0.66150200  0.54513600  1
  S  S31  1  0.69252900  0.69252900  0.26306500  1
  S  S32  1  0.30387400  0.99771900  0.26319900  1
  S  S33  1  0.99771900  0.30387400  0.26319900  1
  S  S34  1  0.65222200  0.65222200  0.93341600  1
  S  S35  1  0.34675600  0.00004900  0.93157800  1
  S  S36  1  0.00004900  0.34675600  0.93157800  1
  S  S37  1  0.25131900  0.25131900  0.03641300  1
  S  S38  1  0.74919400  0.99951600  0.03762400  1
  S  S39  1  0.99951600  0.74919400  0.03762400  1
  S  S40  1  0.16695100  0.16695100  0.73694100  1
  S  S41  1  0.83405700  0.00014000  0.73770300  1
  S  S42  1  0.00014000  0.83405700  0.73770300  1
  S  S43  1  0.99925500  0.99925500  0.31379400  1
  N  N44  1  0.66893600  0.33542100  0.46377400  1
  N  N45  1  0.33542100  0.66893600  0.46377400  1
