# generated using pymatgen
data_MgTi2MnO6
_symmetry_space_group_name_H-M   'P 1'
_cell_length_a   5.15145617
_cell_length_b   5.15146111
_cell_length_c   9.93023167
_cell_angle_alpha   74.99007193
_cell_angle_beta   89.98026804
_cell_angle_gamma   120.00058700
_symmetry_Int_Tables_number   1
_chemical_formula_structural   MgTi2MnO6
_chemical_formula_sum   'Mg2 Ti4 Mn2 O12'
_cell_volume   217.75865668
_cell_formula_units_Z   2
loop_
 _symmetry_equiv_pos_site_id
 _symmetry_equiv_pos_as_xyz
  1  'x, y, z'
loop_
 _atom_site_type_symbol
 _atom_site_label
 _atom_site_symmetry_multiplicity
 _atom_site_fract_x
 _atom_site_fract_y
 _atom_site_fract_z
 _atom_site_occupancy
  Mg  Mg0  1  0.32228400  0.64452400  0.03302300  1
  Mg  Mg1  1  0.82228100  0.64453500  0.53300700  1
  Ti  Ti2  1  0.57284600  0.14579900  0.28137800  1
  Ti  Ti3  1  0.07284000  0.14581800  0.78137400  1
  Ti  Ti4  1  0.92773800  0.85532900  0.21656700  1
  Ti  Ti5  1  0.42773700  0.85532000  0.71656700  1
  Mn  Mn6  1  0.67916300  0.35842000  0.96172600  1
  Mn  Mn7  1  0.17908800  0.35840100  0.46164600  1
  O  O8  1  0.30304300  0.22621100  0.13330600  1
  O  O9  1  0.80304300  0.22622000  0.63330700  1
  O  O10  1  0.92330100  0.56389500  0.13290300  1
  O  O11  1  0.42330600  0.56388900  0.63290600  1
  O  O12  1  0.64098500  0.94412000  0.13299900  1
  O  O13  1  0.14097200  0.94410500  0.63300000  1
  O  O14  1  0.19340000  0.78792100  0.36936000  1
  O  O15  1  0.69334500  0.78791200  0.86933600  1
  O  O16  1  0.59465600  0.43738800  0.36938600  1
  O  O17  1  0.09467100  0.43740000  0.86938000  1
  O  O18  1  0.84263800  0.03637200  0.36943200  1
  O  O19  1  0.34266400  0.03642200  0.86940100  1
