# generated using pymatgen
data_MnInCu
_symmetry_space_group_name_H-M   'P 1'
_cell_length_a   5.51849588
_cell_length_b   5.46516861
_cell_length_c   7.90605200
_cell_angle_alpha   90.00000000
_cell_angle_beta   90.00000000
_cell_angle_gamma   119.66382550
_symmetry_Int_Tables_number   1
_chemical_formula_structural   MnInCu
_chemical_formula_sum   'Mn4 In4 Cu4'
_cell_volume   207.19335448
_cell_formula_units_Z   4
loop_
 _symmetry_equiv_pos_site_id
 _symmetry_equiv_pos_as_xyz
  1  'x, y, z'
loop_
 _atom_site_type_symbol
 _atom_site_label
 _atom_site_symmetry_multiplicity
 _atom_site_fract_x
 _atom_site_fract_y
 _atom_site_fract_z
 _atom_site_occupancy
  Mn  Mn0  1  0.66731100  0.33368500  0.57593900  1
  Mn  Mn1  1  0.30009500  0.65008300  0.45132400  1
  Mn  Mn2  1  0.30009500  0.65008300  0.04867600  1
  Mn  Mn3  1  0.66731100  0.33368500  0.92406100  1
  In  In4  1  0.65224300  0.82593500  0.75000000  1
  In  In5  1  0.83031200  0.66377600  0.25000000  1
  In  In6  1  0.83078000  0.16710800  0.25000000  1
  In  In7  1  0.34492300  0.17216000  0.25000000  1
  Cu  Cu8  1  0.03718300  0.01860900  0.51612400  1
  Cu  Cu9  1  0.03718300  0.01860900  0.98387600  1
  Cu  Cu10  1  0.16625300  0.35284100  0.75000000  1
  Cu  Cu11  1  0.16631100  0.81342800  0.75000000  1
