# generated using pymatgen
data_MgZrSi2O7
_symmetry_space_group_name_H-M   'P 1'
_cell_length_a   6.62699437
_cell_length_b   6.62699437
_cell_length_c   6.62699437
_cell_angle_alpha   120.81728044
_cell_angle_beta   118.77618471
_cell_angle_gamma   90.36146455
_symmetry_Int_Tables_number   1
_chemical_formula_structural   MgZrSi2O7
_chemical_formula_sum   'Mg2 Zr2 Si4 O14'
_cell_volume   206.34159050
_cell_formula_units_Z   2
loop_
 _symmetry_equiv_pos_site_id
 _symmetry_equiv_pos_as_xyz
  1  'x, y, z'
loop_
 _atom_site_type_symbol
 _atom_site_label
 _atom_site_symmetry_multiplicity
 _atom_site_fract_x
 _atom_site_fract_y
 _atom_site_fract_z
 _atom_site_occupancy
  Mg  Mg0  1  0.50000000  0.00000000  0.00000000  1
  Mg  Mg1  1  0.50000000  0.50000000  0.50000000  1
  Zr  Zr2  1  0.50000000  0.00000000  0.50000000  1
  Zr  Zr3  1  0.00000000  0.00000000  0.00000000  1
  Si  Si4  1  0.00000000  0.50000000  0.00000000  1
  Si  Si5  1  0.00000000  0.00000000  0.50000000  1
  Si  Si6  1  0.00000000  0.50000000  0.50000000  1
  Si  Si7  1  0.50000000  0.50000000  0.00000000  1
  O  O8  1  0.92580300  0.17580300  0.75000000  1
  O  O9  1  0.32479100  0.57479100  0.75000000  1
  O  O10  1  0.93479500  0.58148000  0.76079900  1
  O  O11  1  0.32068100  0.17399500  0.73920100  1
  O  O12  1  0.93479500  0.17399500  0.35331400  1
  O  O13  1  0.32068100  0.58148100  0.14668600  1
  O  O14  1  0.07419700  0.82419700  0.25000000  1
  O  O15  1  0.67520900  0.42520900  0.25000000  1
  O  O16  1  0.06520500  0.41852000  0.23920100  1
  O  O17  1  0.67931900  0.82600500  0.26079900  1
  O  O18  1  0.06520500  0.82600500  0.64668600  1
  O  O19  1  0.67931900  0.41851900  0.85331400  1
  O  O20  1  0.62313700  0.87313700  0.75000000  1
  O  O21  1  0.37686300  0.12686300  0.25000000  1
