# generated using pymatgen
data_MnFe2P2O11
_symmetry_space_group_name_H-M   'P 1'
_cell_length_a   7.92090200
_cell_length_b   9.54619800
_cell_length_c   9.67398700
_cell_angle_alpha   90.00000000
_cell_angle_beta   90.00000000
_cell_angle_gamma   90.00000000
_symmetry_Int_Tables_number   1
_chemical_formula_structural   MnFe2P2O11
_chemical_formula_sum   'Mn4 Fe8 P8 O44'
_cell_volume   731.49367870
_cell_formula_units_Z   4
loop_
 _symmetry_equiv_pos_site_id
 _symmetry_equiv_pos_as_xyz
  1  'x, y, z'
loop_
 _atom_site_type_symbol
 _atom_site_label
 _atom_site_symmetry_multiplicity
 _atom_site_fract_x
 _atom_site_fract_y
 _atom_site_fract_z
 _atom_site_occupancy
  Mn  Mn0  1  0.35997700  0.38333300  0.79241700  1
  Mn  Mn1  1  0.85997700  0.61666700  0.20758300  1
  Mn  Mn2  1  0.85997700  0.11666700  0.29241700  1
  Mn  Mn3  1  0.35997700  0.88333300  0.70758300  1
  Fe  Fe4  1  0.99881000  0.50208100  0.75123500  1
  Fe  Fe5  1  0.49881000  0.99791900  0.25123500  1
  Fe  Fe6  1  0.49881000  0.49791900  0.24876500  1
  Fe  Fe7  1  0.99881000  0.00208100  0.74876500  1
  Fe  Fe8  1  0.13749200  0.87988400  0.20813100  1
  Fe  Fe9  1  0.63749200  0.12011600  0.79186900  1
  Fe  Fe10  1  0.63749200  0.62011600  0.70813100  1
  Fe  Fe11  1  0.13749200  0.37988400  0.29186900  1
  P  P12  1  0.71543900  0.39241600  0.96175200  1
  P  P13  1  0.78471300  0.89280600  0.04307900  1
  P  P14  1  0.21543900  0.60758400  0.03824800  1
  P  P15  1  0.28471300  0.10719400  0.95692100  1
  P  P16  1  0.28471300  0.60719400  0.54307900  1
  P  P17  1  0.21543900  0.10758400  0.46175200  1
  P  P18  1  0.78471300  0.39280600  0.45692100  1
  P  P19  1  0.71543900  0.89241600  0.53824800  1
  O  O20  1  0.58256900  0.47075500  0.86657800  1
  O  O21  1  0.91277800  0.97509700  0.14027900  1
  O  O22  1  0.08256900  0.52924500  0.13342200  1
  O  O23  1  0.41277800  0.02490300  0.85972100  1
  O  O24  1  0.41277800  0.52490300  0.64027900  1
  O  O25  1  0.08256900  0.02924500  0.36657800  1
  O  O26  1  0.91277800  0.47509700  0.35972100  1
  O  O27  1  0.58256900  0.97075500  0.63342200  1
  O  O28  1  0.67477700  0.23428500  0.96205500  1
  O  O29  1  0.83139800  0.73446200  0.04996700  1
  O  O30  1  0.17477700  0.76571500  0.03794500  1
  O  O31  1  0.33139800  0.26553800  0.95003300  1
  O  O32  1  0.33139800  0.76553800  0.54996700  1
  O  O33  1  0.17477700  0.26571500  0.46205500  1
  O  O34  1  0.83139800  0.23446200  0.45003300  1
  O  O35  1  0.67477700  0.73428500  0.53794500  1
  O  O36  1  0.85729900  0.14949200  0.72060600  1
  O  O37  1  0.65036300  0.65455300  0.27520500  1
  O  O38  1  0.35729900  0.85050800  0.27939400  1
  O  O39  1  0.15036300  0.34544700  0.72479500  1
  O  O40  1  0.15036300  0.84544700  0.77520500  1
  O  O41  1  0.35729900  0.35050800  0.22060600  1
  O  O42  1  0.65036300  0.15455300  0.22479500  1
  O  O43  1  0.85729900  0.64949200  0.77939400  1
  O  O44  1  0.48931900  0.25589100  0.70492200  1
  O  O45  1  0.98931900  0.74410900  0.29507800  1
  O  O46  1  0.48931900  0.75589100  0.79507800  1
  O  O47  1  0.98931900  0.24410900  0.20492200  1
  O  O48  1  0.70940500  0.45361400  0.11130700  1
  O  O49  1  0.79682800  0.94317600  0.89162800  1
  O  O50  1  0.20940500  0.54638600  0.88869300  1
  O  O51  1  0.29682800  0.05682400  0.10837200  1
  O  O52  1  0.29682800  0.55682400  0.39162800  1
  O  O53  1  0.20940500  0.04638600  0.61130700  1
  O  O54  1  0.79682800  0.44317600  0.60837200  1
  O  O55  1  0.70940500  0.95361400  0.38869300  1
  O  O56  1  0.89550300  0.41194200  0.90446800  1
  O  O57  1  0.60333000  0.91362200  0.09443900  1
  O  O58  1  0.39550300  0.58805800  0.09553200  1
  O  O59  1  0.10333000  0.08637800  0.90556100  1
  O  O60  1  0.10333000  0.58637800  0.59443900  1
  O  O61  1  0.39550300  0.08805800  0.40446800  1
  O  O62  1  0.60333000  0.41362200  0.40556100  1
  O  O63  1  0.89550300  0.91194200  0.59553200  1
