# generated using pymatgen
data_Mn3Fe3Ge2
_symmetry_space_group_name_H-M   'P 1'
_cell_length_a   5.17709990
_cell_length_b   5.17709990
_cell_length_c   4.13829700
_cell_angle_alpha   90.00000000
_cell_angle_beta   90.00000000
_cell_angle_gamma   119.99999869
_symmetry_Int_Tables_number   1
_chemical_formula_structural   Mn3Fe3Ge2
_chemical_formula_sum   'Mn3 Fe3 Ge2'
_cell_volume   96.05619607
_cell_formula_units_Z   1
loop_
 _symmetry_equiv_pos_site_id
 _symmetry_equiv_pos_as_xyz
  1  'x, y, z'
loop_
 _atom_site_type_symbol
 _atom_site_label
 _atom_site_symmetry_multiplicity
 _atom_site_fract_x
 _atom_site_fract_y
 _atom_site_fract_z
 _atom_site_occupancy
  Mn  Mn0  1  0.98666500  0.49333300  0.00000000  1
  Mn  Mn1  1  0.50666700  0.49333300  0.00000000  1
  Mn  Mn2  1  0.50666700  0.01333500  0.00000000  1
  Fe  Fe3  1  0.34588200  0.17294100  0.50000000  1
  Fe  Fe4  1  0.82705900  0.17294100  0.50000000  1
  Fe  Fe5  1  0.82705900  0.65411800  0.50000000  1
  Ge  Ge6  1  0.33333300  0.66666700  0.50000000  1
  Ge  Ge7  1  0.00000000  0.00000000  0.00000000  1
