# generated using pymatgen
data_Mn(CuS)2
_symmetry_space_group_name_H-M   'P 1'
_cell_length_a   7.73341898
_cell_length_b   7.73341898
_cell_length_c   7.73341898
_cell_angle_alpha   60.00000000
_cell_angle_beta   60.00000000
_cell_angle_gamma   60.00000000
_symmetry_Int_Tables_number   1
_chemical_formula_structural   Mn(CuS)2
_chemical_formula_sum   'Mn4 Cu8 S8'
_cell_volume   327.03905669
_cell_formula_units_Z   4
loop_
 _symmetry_equiv_pos_site_id
 _symmetry_equiv_pos_as_xyz
  1  'x, y, z'
loop_
 _atom_site_type_symbol
 _atom_site_label
 _atom_site_symmetry_multiplicity
 _atom_site_fract_x
 _atom_site_fract_y
 _atom_site_fract_z
 _atom_site_occupancy
  Mn  Mn0  1  0.60174900  0.13275000  0.13275000  1
  Mn  Mn1  1  0.13275000  0.60174900  0.13275000  1
  Mn  Mn2  1  0.13275000  0.13275000  0.60174900  1
  Mn  Mn3  1  0.13275000  0.13275000  0.13275000  1
  Cu  Cu4  1  0.26106100  0.26106100  0.73893900  1
  Cu  Cu5  1  0.73893900  0.73893900  0.26106100  1
  Cu  Cu6  1  0.26106100  0.73893900  0.26106100  1
  Cu  Cu7  1  0.73893900  0.26106100  0.73893900  1
  Cu  Cu8  1  0.73893900  0.26106100  0.26106100  1
  Cu  Cu9  1  0.26106100  0.73893900  0.73893900  1
  Cu  Cu10  1  0.75000000  0.75000000  0.75000000  1
  Cu  Cu11  1  0.50000000  0.50000000  0.50000000  1
  S  S12  1  0.37488000  0.87504000  0.87504000  1
  S  S13  1  0.87504000  0.37488000  0.87504000  1
  S  S14  1  0.87504000  0.87504000  0.37488000  1
  S  S15  1  0.87504000  0.87504000  0.87504000  1
  S  S16  1  0.88884400  0.37038500  0.37038500  1
  S  S17  1  0.37038500  0.88884400  0.37038500  1
  S  S18  1  0.37038500  0.37038500  0.88884400  1
  S  S19  1  0.37038500  0.37038500  0.37038500  1
