# generated using pymatgen
data_Na15Y2C9SClO30F
_symmetry_space_group_name_H-M   'P 1'
_cell_length_a   8.90181171
_cell_length_b   8.90181171
_cell_length_c   10.82982700
_cell_angle_alpha   90.00000000
_cell_angle_beta   90.00000000
_cell_angle_gamma   119.99999786
_symmetry_Int_Tables_number   1
_chemical_formula_structural   Na15Y2C9SClO30F
_chemical_formula_sum   'Na15 Y2 C9 S1 Cl1 O30 F1'
_cell_volume   743.20559114
_cell_formula_units_Z   1
loop_
 _symmetry_equiv_pos_site_id
 _symmetry_equiv_pos_as_xyz
  1  'x, y, z'
loop_
 _atom_site_type_symbol
 _atom_site_label
 _atom_site_symmetry_multiplicity
 _atom_site_fract_x
 _atom_site_fract_y
 _atom_site_fract_z
 _atom_site_occupancy
  Na  Na0  1  0.33333300  0.66666700  0.80088400  1
  Na  Na1  1  0.33333300  0.66666700  0.20041800  1
  Na  Na2  1  0.00000000  0.00000000  0.49978600  1
  Na  Na3  1  0.90544300  0.55967900  0.73373100  1
  Na  Na4  1  0.65423600  0.09455700  0.73373100  1
  Na  Na5  1  0.44032100  0.34576400  0.73373100  1
  Na  Na6  1  0.91221900  0.56310600  0.25836900  1
  Na  Na7  1  0.65088700  0.08778100  0.25836900  1
  Na  Na8  1  0.43689400  0.34911300  0.25836900  1
  Na  Na9  1  0.12774500  0.68189600  0.50090200  1
  Na  Na10  1  0.55415000  0.87225500  0.50090200  1
  Na  Na11  1  0.31810400  0.44585000  0.50090200  1
  Na  Na12  1  0.97578700  0.35868200  0.99792800  1
  Na  Na13  1  0.38289500  0.02421300  0.99792800  1
  Na  Na14  1  0.64131800  0.61710500  0.99792800  1
  Y  Y15  1  0.00000000  0.00000000  0.82220000  1
  Y  Y16  1  0.00000000  0.00000000  0.17687500  1
  C  C17  1  0.25039900  0.93436200  0.29914700  1
  C  C18  1  0.68396200  0.74960100  0.29914700  1
  C  C19  1  0.06563800  0.31603800  0.29914700  1
  C  C20  1  0.24594700  0.92993200  0.70130100  1
  C  C21  1  0.68398600  0.75405300  0.70130100  1
  C  C22  1  0.07006800  0.31601400  0.70130100  1
  C  C23  1  0.64351200  0.92831100  0.00007500  1
  C  C24  1  0.28479800  0.35648800  0.00007500  1
  C  C25  1  0.07168900  0.71520200  0.00007500  1
  S  S26  1  0.66666700  0.33333300  0.45559400  1
  Cl  Cl27  1  0.66666700  0.33333300  0.05078500  1
  O  O28  1  0.80992500  0.97109300  0.00126100  1
  O  O29  1  0.16116700  0.19007500  0.00126100  1
  O  O30  1  0.02890700  0.83883300  0.00126100  1
  O  O31  1  0.49042200  0.30284400  0.48496000  1
  O  O32  1  0.81242200  0.50957800  0.48496000  1
  O  O33  1  0.69715600  0.18757800  0.48496000  1
  O  O34  1  0.75368500  0.70584600  0.20964900  1
  O  O35  1  0.95216100  0.24631500  0.20964900  1
  O  O36  1  0.29415400  0.04783900  0.20964900  1
  O  O37  1  0.75299000  0.71503900  0.79388800  1
  O  O38  1  0.96204900  0.24701000  0.79388800  1
  O  O39  1  0.28496100  0.03795100  0.79388800  1
  O  O40  1  0.33943000  0.43843100  0.10278900  1
  O  O41  1  0.09900100  0.66057000  0.10278900  1
  O  O42  1  0.56156900  0.90099900  0.10278900  1
  O  O43  1  0.34585800  0.43357300  0.89657700  1
  O  O44  1  0.08771500  0.65414200  0.89657700  1
  O  O45  1  0.56642700  0.91228500  0.89657700  1
  O  O46  1  0.53473400  0.64341700  0.34504300  1
  O  O47  1  0.10868300  0.46526600  0.34504300  1
  O  O48  1  0.35658300  0.89131700  0.34504300  1
  O  O49  1  0.53496400  0.64692500  0.65573400  1
  O  O50  1  0.11196200  0.46503600  0.65573400  1
  O  O51  1  0.35307500  0.88803800  0.65573400  1
  O  O52  1  0.77424900  0.91054900  0.33858100  1
  O  O53  1  0.13630000  0.22575100  0.33858100  1
  O  O54  1  0.08945100  0.86370000  0.33858100  1
  O  O55  1  0.77560500  0.91327300  0.65802100  1
  O  O56  1  0.13766800  0.22439500  0.65802100  1
  O  O57  1  0.08672700  0.86233200  0.65802100  1
  F  F58  1  0.66666700  0.33333300  0.70629000  1
