# generated using pymatgen
data_Na10Sn4Au13
_symmetry_space_group_name_H-M   'P 1'
_cell_length_a   13.28114458
_cell_length_b   13.28114458
_cell_length_c   13.28114458
_cell_angle_alpha   109.83208688
_cell_angle_beta   109.43521817
_cell_angle_gamma   109.14708745
_symmetry_Int_Tables_number   1
_chemical_formula_structural   Na10Sn4Au13
_chemical_formula_sum   'Na30 Sn12 Au39'
_cell_volume   1803.30407778
_cell_formula_units_Z   3
loop_
 _symmetry_equiv_pos_site_id
 _symmetry_equiv_pos_as_xyz
  1  'x, y, z'
loop_
 _atom_site_type_symbol
 _atom_site_label
 _atom_site_symmetry_multiplicity
 _atom_site_fract_x
 _atom_site_fract_y
 _atom_site_fract_z
 _atom_site_occupancy
  Na  Na0  1  0.99992000  0.62060300  0.99950100  1
  Na  Na1  1  0.37889900  0.37939700  0.37931700  1
  Na  Na2  1  0.00008000  0.99958200  0.62068300  1
  Na  Na3  1  0.62110100  0.00041800  0.00049900  1
  Na  Na4  1  0.00008000  0.37939700  0.00049900  1
  Na  Na5  1  0.62110100  0.62060300  0.62068300  1
  Na  Na6  1  0.99992000  0.00041800  0.37931700  1
  Na  Na7  1  0.37889900  0.99958200  0.99950100  1
  Na  Na8  1  0.88033700  0.57672300  0.69638600  1
  Na  Na9  1  0.11966300  0.42327700  0.30361400  1
  Na  Na10  1  0.11966300  0.81604900  0.69638600  1
  Na  Na11  1  0.88033700  0.18395100  0.30361400  1
  Na  Na12  1  0.17509200  0.29812500  0.87696700  1
  Na  Na13  1  0.82490800  0.70187500  0.12303300  1
  Na  Na14  1  0.42115700  0.29812500  0.12303300  1
  Na  Na15  1  0.57884300  0.70187500  0.87696700  1
  Na  Na16  1  0.29803400  0.12333500  0.42136800  1
  Na  Na17  1  0.70196600  0.87666500  0.57863200  1
  Na  Na18  1  0.29803400  0.87666500  0.17469900  1
  Na  Na19  1  0.70196600  0.12333500  0.82530100  1
  Na  Na20  1  0.70705800  0.50000000  0.20705800  1
  Na  Na21  1  0.29294200  0.50000000  0.79294200  1
  Na  Na22  1  0.50000000  0.79920900  0.29920900  1
  Na  Na23  1  0.50000000  0.20079100  0.70079100  1
  Na  Na24  1  0.18691200  0.68691200  0.50000000  1
  Na  Na25  1  0.81308800  0.31308800  0.50000000  1
  Na  Na26  1  0.50000000  0.60208600  0.10208600  1
  Na  Na27  1  0.50000000  0.39791400  0.89791400  1
  Na  Na28  1  0.39610100  0.89610100  0.50000000  1
  Na  Na29  1  0.60389900  0.10389900  0.50000000  1
  Sn  Sn30  1  0.69040100  0.50356100  0.81316000  1
  Sn  Sn31  1  0.30959900  0.49643900  0.18684000  1
  Sn  Sn32  1  0.30959900  0.12275900  0.81316000  1
  Sn  Sn33  1  0.69040100  0.87724100  0.18684000  1
  Sn  Sn34  1  0.87570300  0.18642700  0.68927600  1
  Sn  Sn35  1  0.12429700  0.81357300  0.31072400  1
  Sn  Sn36  1  0.49715200  0.18642700  0.31072400  1
  Sn  Sn37  1  0.50284800  0.81357300  0.68927600  1
  Sn  Sn38  1  0.18463200  0.31621700  0.50084900  1
  Sn  Sn39  1  0.81536800  0.68378300  0.49915100  1
  Sn  Sn40  1  0.18463200  0.68378300  0.86841400  1
  Sn  Sn41  1  0.81536800  0.31621700  0.13158600  1
  Au  Au42  1  0.75106100  0.41004300  0.96939300  1
  Au  Au43  1  0.55935000  0.58995700  0.34101900  1
  Au  Au44  1  0.24893900  0.21833100  0.65898100  1
  Au  Au45  1  0.44065000  0.78166900  0.03060700  1
  Au  Au46  1  0.78277500  0.03195400  0.44138900  1
  Au  Au47  1  0.21722500  0.65861400  0.24917900  1
  Au  Au48  1  0.59056500  0.34138600  0.55861100  1
  Au  Au49  1  0.40943500  0.96804600  0.75082100  1
  Au  Au50  1  0.34263900  0.56019000  0.59206700  1
  Au  Au51  1  0.96812200  0.75057100  0.40793300  1
  Au  Au52  1  0.03187800  0.43981000  0.78244900  1
  Au  Au53  1  0.65736100  0.24942900  0.21755100  1
  Au  Au54  1  0.24893900  0.58995700  0.03060700  1
  Au  Au55  1  0.44065000  0.41004300  0.65898100  1
  Au  Au56  1  0.75106100  0.78166900  0.34101900  1
  Au  Au57  1  0.55935000  0.21833100  0.96939300  1
  Au  Au58  1  0.21722500  0.96804600  0.55861100  1
  Au  Au59  1  0.78277500  0.34138600  0.75082100  1
  Au  Au60  1  0.40943500  0.65861400  0.44138900  1
  Au  Au61  1  0.59056500  0.03195400  0.24917900  1
  Au  Au62  1  0.65736100  0.43981000  0.40793300  1
  Au  Au63  1  0.03187800  0.24942900  0.59206700  1
  Au  Au64  1  0.96812200  0.56019000  0.21755100  1
  Au  Au65  1  0.34263900  0.75057100  0.78244900  1
  Au  Au66  1  0.00000000  0.00000000  0.00000000  1
  Au  Au67  1  0.84094900  0.74297400  0.90202500  1
  Au  Au68  1  0.15905100  0.25702600  0.09797500  1
  Au  Au69  1  0.15905100  0.06107600  0.90202500  1
  Au  Au70  1  0.84094900  0.93892400  0.09797500  1
  Au  Au71  1  0.93668500  0.09638600  0.84029900  1
  Au  Au72  1  0.06331500  0.90361400  0.15970100  1
  Au  Au73  1  0.25608700  0.09638600  0.15970100  1
  Au  Au74  1  0.74391300  0.90361400  0.84029900  1
  Au  Au75  1  0.09683100  0.16237200  0.25920300  1
  Au  Au76  1  0.90316900  0.83762800  0.74079700  1
  Au  Au77  1  0.09683100  0.83762800  0.93445900  1
  Au  Au78  1  0.90316900  0.16237200  0.06554100  1
  Au  Au79  1  0.90889900  0.50000000  0.40889900  1
  Au  Au80  1  0.09110100  0.50000000  0.59110100  1
