# generated using pymatgen
data_MnZn4(IO3)10
_symmetry_space_group_name_H-M   'P 1'
_cell_length_a   5.30504100
_cell_length_b   9.57409430
_cell_length_c   27.94536028
_cell_angle_alpha   90.45955205
_cell_angle_beta   90.04647983
_cell_angle_gamma   90.06573332
_symmetry_Int_Tables_number   1
_chemical_formula_structural   MnZn4(IO3)10
_chemical_formula_sum   'Mn2 Zn8 I20 O60'
_cell_volume   1419.32468803
_cell_formula_units_Z   2
loop_
 _symmetry_equiv_pos_site_id
 _symmetry_equiv_pos_as_xyz
  1  'x, y, z'
loop_
 _atom_site_type_symbol
 _atom_site_label
 _atom_site_symmetry_multiplicity
 _atom_site_fract_x
 _atom_site_fract_y
 _atom_site_fract_z
 _atom_site_occupancy
  Mn  Mn0  1  0.84225400  0.25524700  0.65351700  1
  Mn  Mn1  1  0.84310500  0.25528300  0.45300000  1
  Zn  Zn2  1  0.33421700  0.74572500  0.94684400  1
  Zn  Zn3  1  0.33169900  0.74570200  0.74704100  1
  Zn  Zn4  1  0.33056300  0.74558400  0.54674100  1
  Zn  Zn5  1  0.33307400  0.74554000  0.34653400  1
  Zn  Zn6  1  0.33425000  0.74569200  0.14681600  1
  Zn  Zn7  1  0.83480400  0.25454700  0.85334400  1
  Zn  Zn8  1  0.83523000  0.25475000  0.25289700  1
  Zn  Zn9  1  0.83425800  0.25433900  0.05316200  1
  I  I10  1  0.74204800  0.60002000  0.84614300  1
  I  I11  1  0.73960500  0.60432100  0.64625000  1
  I  I12  1  0.73940200  0.60424900  0.44604800  1
  I  I13  1  0.74188600  0.59999800  0.24593600  1
  I  I14  1  0.74158900  0.59988900  0.04600800  1
  I  I15  1  0.24167600  0.40024900  0.95403900  1
  I  I16  1  0.24522300  0.40139500  0.75531500  1
  I  I17  1  0.24796600  0.40265200  0.55410900  1
  I  I18  1  0.24463400  0.40139300  0.35280700  1
  I  I19  1  0.24177100  0.40023500  0.15400700  1
  I  I20  1  0.26409100  0.93281800  0.84770000  1
  I  I21  1  0.26645700  0.93025900  0.64758800  1
  I  I22  1  0.26680500  0.93033800  0.44723900  1
  I  I23  1  0.26427400  0.93296700  0.24733800  1
  I  I24  1  0.26441500  0.93310500  0.04751500  1
  I  I25  1  0.76448000  0.06694700  0.95252800  1
  I  I26  1  0.76237100  0.06430600  0.75345700  1
  I  I27  1  0.75925400  0.06299900  0.55228300  1
  I  I28  1  0.76133400  0.06562000  0.35133100  1
  I  I29  1  0.76435800  0.06699400  0.15246400  1
  O  O30  1  0.55107600  0.72428000  0.88175800  1
  O  O31  1  0.54929900  0.72976100  0.68167300  1
  O  O32  1  0.55011300  0.72979000  0.48151100  1
  O  O33  1  0.55195400  0.72424600  0.28157900  1
  O  O34  1  0.55144500  0.72420100  0.08170700  1
  O  O35  1  0.05139100  0.27568800  0.91832300  1
  O  O36  1  0.05714500  0.27621800  0.71984300  1
  O  O37  1  0.05679500  0.27672400  0.51952800  1
  O  O38  1  0.05096800  0.27616600  0.31804200  1
  O  O39  1  0.05141300  0.27575200  0.11827400  1
  O  O40  1  0.05413500  0.07872400  0.83110300  1
  O  O41  1  0.05791200  0.07602100  0.63076200  1
  O  O42  1  0.05869900  0.07612400  0.43060100  1
  O  O43  1  0.05480600  0.07889800  0.23095900  1
  O  O44  1  0.05441200  0.07885100  0.03107400  1
  O  O45  1  0.55434100  0.92110700  0.96895300  1
  O  O46  1  0.55368600  0.91844700  0.77050300  1
  O  O47  1  0.55384800  0.91620200  0.56985200  1
  O  O48  1  0.55454300  0.91884600  0.36827700  1
  O  O49  1  0.55434200  0.92114200  0.16893200  1
  O  O50  1  0.62386400  0.43347200  0.86983600  1
  O  O51  1  0.61915700  0.43934400  0.67050100  1
  O  O52  1  0.61938500  0.43921600  0.47045800  1
  O  O53  1  0.62404400  0.43339300  0.26979000  1
  O  O54  1  0.62410500  0.43330300  0.06981700  1
  O  O55  1  0.12401700  0.56663900  0.93019100  1
  O  O56  1  0.12519000  0.56637600  0.73062700  1
  O  O57  1  0.12526900  0.56745200  0.52959900  1
  O  O58  1  0.12407400  0.56763800  0.32918300  1
  O  O59  1  0.12405800  0.56660800  0.13018300  1
  O  O60  1  0.11826900  0.80248100  0.80727200  1
  O  O61  1  0.11876400  0.79987000  0.60731900  1
  O  O62  1  0.11939700  0.79973700  0.40702900  1
  O  O63  1  0.11894100  0.80234900  0.20696800  1
  O  O64  1  0.11948900  0.80254300  0.00706500  1
  O  O65  1  0.61960900  0.19738900  0.99293000  1
  O  O66  1  0.61926300  0.19658100  0.79339200  1
  O  O67  1  0.61342300  0.19475500  0.59177500  1
  O  O68  1  0.61382200  0.19577100  0.39118200  1
  O  O69  1  0.61962700  0.19759800  0.19277400  1
  O  O70  1  0.56216500  0.60250700  0.98938300  1
  O  O71  1  0.56238800  0.60239900  0.78948800  1
  O  O72  1  0.56269400  0.60408500  0.58931200  1
  O  O73  1  0.56233400  0.60413200  0.38915600  1
  O  O74  1  0.56206300  0.60243700  0.18933100  1
  O  O75  1  0.06232400  0.39926900  0.81157300  1
  O  O76  1  0.06892200  0.40128200  0.61065800  1
  O  O77  1  0.06892200  0.39951500  0.40967500  1
  O  O78  1  0.06233300  0.39754300  0.21060300  1
  O  O79  1  0.06224800  0.39750700  0.01060900  1
  O  O80  1  0.10631100  0.87849900  0.90333000  1
  O  O81  1  0.10632200  0.87786900  0.70330100  1
  O  O82  1  0.10652900  0.87838100  0.50305800  1
  O  O83  1  0.10646600  0.87898700  0.30308600  1
  O  O84  1  0.10700800  0.87867500  0.10319800  1
  O  O85  1  0.60697800  0.12134400  0.89682000  1
  O  O86  1  0.60264700  0.11741200  0.69790900  1
  O  O87  1  0.60174600  0.11497300  0.49635900  1
  O  O88  1  0.60599200  0.11905700  0.29526800  1
  O  O89  1  0.60692700  0.12126000  0.09673600  1
