# generated using pymatgen
data_MgCr8Fe3O16
_symmetry_space_group_name_H-M   'P 1'
_cell_length_a   6.05259646
_cell_length_b   8.51046900
_cell_length_c   6.05259646
_cell_angle_alpha   90.00000000
_cell_angle_beta   90.00000000
_cell_angle_gamma   90.00000000
_symmetry_Int_Tables_number   1
_chemical_formula_structural   MgCr8Fe3O16
_chemical_formula_sum   'Mg1 Cr8 Fe3 O16'
_cell_volume   311.77187367
_cell_formula_units_Z   1
loop_
 _symmetry_equiv_pos_site_id
 _symmetry_equiv_pos_as_xyz
  1  'x, y, z'
loop_
 _atom_site_type_symbol
 _atom_site_label
 _atom_site_symmetry_multiplicity
 _atom_site_fract_x
 _atom_site_fract_y
 _atom_site_fract_z
 _atom_site_occupancy
  Mg  Mg0  1  0.25000000  0.12500000  0.00000000  1
  Cr  Cr1  1  0.75000000  0.24981700  0.75092400  1
  Cr  Cr2  1  0.25000000  0.75030000  0.24981800  1
  Cr  Cr3  1  0.75000000  0.24981700  0.24907600  1
  Cr  Cr4  1  0.25000000  0.75030000  0.75018200  1
  Cr  Cr5  1  0.49981800  0.49970000  0.00000000  1
  Cr  Cr6  1  0.00092400  0.00018300  0.50000000  1
  Cr  Cr7  1  0.00018200  0.49970000  0.00000000  1
  Cr  Cr8  1  0.49907600  0.00018300  0.50000000  1
  Fe  Fe9  1  0.75000000  0.62500000  0.50000000  1
  Fe  Fe10  1  0.75000000  0.87504600  0.00000000  1
  Fe  Fe11  1  0.25000000  0.37495400  0.50000000  1
  O  O12  1  0.75000000  0.48734400  0.22359900  1
  O  O13  1  0.25000000  0.98903400  0.72734400  1
  O  O14  1  0.75000000  0.48734400  0.77640100  1
  O  O15  1  0.25000000  0.98903400  0.27265600  1
  O  O16  1  0.97734400  0.26096600  0.00000000  1
  O  O17  1  0.47359900  0.76265600  0.50000000  1
  O  O18  1  0.52265600  0.26096600  0.00000000  1
  O  O19  1  0.02640100  0.76265600  0.50000000  1
  O  O20  1  0.25000000  0.51210200  0.77660300  1
  O  O21  1  0.75000000  0.01183500  0.27676300  1
  O  O22  1  0.25000000  0.51210200  0.22339700  1
  O  O23  1  0.75000000  0.01183500  0.72323700  1
  O  O24  1  0.02660300  0.73789800  0.00000000  1
  O  O25  1  0.52676300  0.23816500  0.50000000  1
  O  O26  1  0.47339700  0.73789800  0.00000000  1
  O  O27  1  0.97323700  0.23816500  0.50000000  1
