# generated using pymatgen
data_Mg2ZnO3
_symmetry_space_group_name_H-M   'P 1'
_cell_length_a   3.03299859
_cell_length_b   3.03299859
_cell_length_c   7.40331600
_cell_angle_alpha   90.00000000
_cell_angle_beta   90.00000000
_cell_angle_gamma   120.00001289
_symmetry_Int_Tables_number   1
_chemical_formula_structural   Mg2ZnO3
_chemical_formula_sum   'Mg2 Zn1 O3'
_cell_volume   58.97952620
_cell_formula_units_Z   1
loop_
 _symmetry_equiv_pos_site_id
 _symmetry_equiv_pos_as_xyz
  1  'x, y, z'
loop_
 _atom_site_type_symbol
 _atom_site_label
 _atom_site_symmetry_multiplicity
 _atom_site_fract_x
 _atom_site_fract_y
 _atom_site_fract_z
 _atom_site_occupancy
  Mg  Mg0  1  0.33333300  0.66666700  0.66580000  1
  Mg  Mg1  1  0.66666700  0.33333300  0.33420000  1
  Zn  Zn2  1  0.00000000  0.00000000  0.00000000  1
  O  O3  1  0.33333300  0.66666700  0.17261900  1
  O  O4  1  0.66666700  0.33333300  0.82738100  1
  O  O5  1  0.00000000  0.00000000  0.50000000  1
