# generated using pymatgen
data_Mn3(Co2Ge3)2
_symmetry_space_group_name_H-M   'P 1'
_cell_length_a   5.05611704
_cell_length_b   5.05611704
_cell_length_c   7.85442100
_cell_angle_alpha   90.00000000
_cell_angle_beta   90.00000000
_cell_angle_gamma   119.52463941
_symmetry_Int_Tables_number   1
_chemical_formula_structural   Mn3(Co2Ge3)2
_chemical_formula_sum   'Mn3 Co4 Ge6'
_cell_volume   174.71873228
_cell_formula_units_Z   1
loop_
 _symmetry_equiv_pos_site_id
 _symmetry_equiv_pos_as_xyz
  1  'x, y, z'
loop_
 _atom_site_type_symbol
 _atom_site_label
 _atom_site_symmetry_multiplicity
 _atom_site_fract_x
 _atom_site_fract_y
 _atom_site_fract_z
 _atom_site_occupancy
  Mn  Mn0  1  0.00000000  0.00000000  0.00131200  1
  Mn  Mn1  1  0.00000000  0.50000000  0.24884300  1
  Mn  Mn2  1  0.50000000  0.00000000  0.24884300  1
  Co  Co3  1  0.50000000  0.50000000  0.24883600  1
  Co  Co4  1  0.00000000  0.50000000  0.74991300  1
  Co  Co5  1  0.50000000  0.00000000  0.74991300  1
  Co  Co6  1  0.50000000  0.50000000  0.74954300  1
  Ge  Ge7  1  0.33456200  0.66543800  0.99261100  1
  Ge  Ge8  1  0.66543800  0.33456200  0.99261100  1
  Ge  Ge9  1  0.00000000  0.00000000  0.33314500  1
  Ge  Ge10  1  0.00000000  0.00000000  0.66969300  1
  Ge  Ge11  1  0.33454500  0.66545500  0.50733000  1
  Ge  Ge12  1  0.66545500  0.33454500  0.50733000  1
