# generated using pymatgen
data_Na26(Ge3Au8)5
_symmetry_space_group_name_H-M   'P 1'
_cell_length_a   12.87821771
_cell_length_b   12.87821771
_cell_length_c   12.87821771
_cell_angle_alpha   110.27708935
_cell_angle_beta   109.28899757
_cell_angle_gamma   108.85088252
_symmetry_Int_Tables_number   1
_chemical_formula_structural   Na26(Ge3Au8)5
_chemical_formula_sum   'Na26 Ge15 Au40'
_cell_volume   1643.89697845
_cell_formula_units_Z   1
loop_
 _symmetry_equiv_pos_site_id
 _symmetry_equiv_pos_as_xyz
  1  'x, y, z'
loop_
 _atom_site_type_symbol
 _atom_site_label
 _atom_site_symmetry_multiplicity
 _atom_site_fract_x
 _atom_site_fract_y
 _atom_site_fract_z
 _atom_site_occupancy
  Na  Na0  1  0.11929200  0.11932800  0.61898400  1
  Na  Na1  1  0.50027200  0.50049700  0.38108400  1
  Na  Na2  1  0.88070800  0.49969200  0.00003600  1
  Na  Na3  1  0.49972800  0.88081200  0.00022600  1
  Na  Na4  1  0.88058700  0.88081200  0.38108400  1
  Na  Na5  1  0.49965600  0.49969200  0.61898400  1
  Na  Na6  1  0.11941300  0.50049700  0.00022600  1
  Na  Na7  1  0.50034400  0.11932800  0.00003600  1
  Na  Na8  1  0.80300400  0.30446600  0.50146200  1
  Na  Na9  1  0.19699600  0.69845800  0.50146200  1
  Na  Na10  1  0.00000000  0.80083200  0.80083200  1
  Na  Na11  1  0.00000000  0.19570300  0.19570300  1
  Na  Na12  1  0.69071200  0.99999000  0.69070200  1
  Na  Na13  1  0.30928800  0.99999000  0.30927800  1
  Na  Na14  1  0.38670400  0.19053100  0.57723500  1
  Na  Na15  1  0.61364600  0.80939500  0.42304000  1
  Na  Na16  1  0.61329600  0.19053100  0.80382600  1
  Na  Na17  1  0.38635400  0.80939500  0.19574900  1
  Na  Na18  1  0.92117800  0.61522900  0.30822800  1
  Na  Na19  1  0.07882200  0.38705000  0.69405100  1
  Na  Na20  1  0.69299900  0.38705000  0.30822800  1
  Na  Na21  1  0.30700100  0.61522900  0.69405100  1
  Na  Na22  1  0.19418800  0.30989900  0.11571000  1
  Na  Na23  1  0.80606300  0.69043300  0.88436900  1
  Na  Na24  1  0.19393700  0.07830600  0.88436900  1
  Na  Na25  1  0.80581200  0.92152200  0.11571000  1
  Ge  Ge26  1  0.19362100  0.30199800  0.49562000  1
  Ge  Ge27  1  0.80888800  0.69781000  0.50669800  1
  Ge  Ge28  1  0.80637900  0.30199800  0.10837700  1
  Ge  Ge29  1  0.19111200  0.69781000  0.88892300  1
  Ge  Ge30  1  0.00508900  0.80575300  0.19925600  1
  Ge  Ge31  1  0.99491100  0.19416700  0.80066400  1
  Ge  Ge32  1  0.39350300  0.19416700  0.19925600  1
  Ge  Ge33  1  0.60649700  0.80575300  0.80066400  1
  Ge  Ge34  1  0.29999900  0.60888100  0.30888200  1
  Ge  Ge35  1  0.69921500  0.38995000  0.69073400  1
  Ge  Ge36  1  0.30078500  0.99151900  0.69073400  1
  Ge  Ge37  1  0.70000100  0.00888400  0.30888200  1
  Ge  Ge38  1  0.00000000  0.40479600  0.40479600  1
  Ge  Ge39  1  0.90620100  0.99997100  0.90617200  1
  Ge  Ge40  1  0.09379900  0.99997100  0.09377000  1
  Au  Au41  1  0.33566400  0.39742300  0.73308700  1
  Au  Au42  1  0.66532400  0.60364600  0.26896900  1
  Au  Au43  1  0.66433600  0.39742300  0.06176000  1
  Au  Au44  1  0.33467600  0.60364600  0.93832200  1
  Au  Au45  1  0.76826100  0.66575200  0.10299000  1
  Au  Au46  1  0.23173900  0.33472900  0.89749100  1
  Au  Au47  1  0.43723800  0.33472900  0.10299000  1
  Au  Au48  1  0.56276200  0.66575200  0.89749100  1
  Au  Au49  1  0.39656400  0.56239600  0.16583200  1
  Au  Au50  1  0.60332200  0.43744800  0.83412600  1
  Au  Au51  1  0.39667800  0.23080300  0.83412600  1
  Au  Au52  1  0.60343600  0.76926800  0.16583200  1
  Au  Au53  1  0.50000000  0.50064000  0.00064000  1
  Au  Au54  1  0.95302700  0.16893500  0.41063000  1
  Au  Au55  1  0.75626200  0.54309800  0.59167500  1
  Au  Au56  1  0.04697300  0.45760300  0.21590800  1
  Au  Au57  1  0.24373800  0.83541200  0.78683600  1
  Au  Au58  1  0.09209200  0.76155700  0.04424100  1
  Au  Au59  1  0.90790800  0.95214800  0.66946400  1
  Au  Au60  1  0.28212600  0.23910200  0.33030700  1
  Au  Au61  1  0.71787400  0.04818100  0.95697600  1
  Au  Au62  1  0.45741800  0.71164300  0.54865700  1
  Au  Au63  1  0.83657000  0.28749300  0.74595900  1
  Au  Au64  1  0.16343000  0.90938900  0.45092300  1
  Au  Au65  1  0.54258200  0.09123900  0.25422500  1
  Au  Au66  1  0.04857600  0.83541200  0.59167500  1
  Au  Au67  1  0.24169500  0.45760300  0.41063000  1
  Au  Au68  1  0.95142400  0.54309800  0.78683600  1
  Au  Au69  1  0.75830500  0.16893500  0.21590800  1
  Au  Au70  1  0.90879500  0.23910200  0.95697600  1
  Au  Au71  1  0.09120500  0.04818100  0.33030700  1
  Au  Au72  1  0.71731600  0.76155700  0.66946400  1
  Au  Au73  1  0.28268400  0.95214800  0.04424100  1
  Au  Au74  1  0.54153400  0.28749300  0.45092300  1
  Au  Au75  1  0.16298600  0.71164300  0.25422500  1
  Au  Au76  1  0.83701400  0.09123900  0.54865700  1
  Au  Au77  1  0.45846600  0.90938900  0.74595900  1
  Au  Au78  1  0.59160800  0.09094800  0.49934000  1
  Au  Au79  1  0.40839200  0.90773200  0.49934000  1
  Au  Au80  1  0.00000000  0.57805800  0.57805800  1
