# generated using pymatgen
data_MnFe4(BiO3)5
_symmetry_space_group_name_H-M   'P 1'
_cell_length_a   5.74543400
_cell_length_b   9.78822823
_cell_length_c   12.51967236
_cell_angle_alpha   97.82975966
_cell_angle_beta   101.83543343
_cell_angle_gamma   106.06142537
_symmetry_Int_Tables_number   1
_chemical_formula_structural   MnFe4(BiO3)5
_chemical_formula_sum   'Mn2 Fe8 Bi10 O30'
_cell_volume   648.12112069
_cell_formula_units_Z   2
loop_
 _symmetry_equiv_pos_site_id
 _symmetry_equiv_pos_as_xyz
  1  'x, y, z'
loop_
 _atom_site_type_symbol
 _atom_site_label
 _atom_site_symmetry_multiplicity
 _atom_site_fract_x
 _atom_site_fract_y
 _atom_site_fract_z
 _atom_site_occupancy
  Mn  Mn0  1  0.61281500  0.94329600  0.16716200  1
  Mn  Mn1  1  0.11203200  0.44428600  0.66776300  1
  Fe  Fe2  1  0.20547800  0.34369500  0.96404900  1
  Fe  Fe3  1  0.80884200  0.74456800  0.76557000  1
  Fe  Fe4  1  0.40351700  0.14434500  0.56519700  1
  Fe  Fe5  1  0.00573600  0.54387900  0.36538400  1
  Fe  Fe6  1  0.50252700  0.04285800  0.86530000  1
  Fe  Fe7  1  0.70522400  0.84363700  0.46508900  1
  Fe  Fe8  1  0.31120300  0.24639000  0.26641900  1
  Fe  Fe9  1  0.90219100  0.64397400  0.06502500  1
  Bi  Bi10  1  0.29349500  0.69993300  0.90105900  1
  Bi  Bi11  1  0.88734500  0.09980500  0.69799500  1
  Bi  Bi12  1  0.49684700  0.50158800  0.49850900  1
  Bi  Bi13  1  0.09803400  0.90433000  0.30022400  1
  Bi  Bi14  1  0.69155600  0.29906700  0.09801000  1
  Bi  Bi15  1  0.99374200  0.00081900  0.99830000  1
  Bi  Bi16  1  0.59937800  0.40101700  0.79628100  1
  Bi  Bi17  1  0.19311800  0.79993000  0.59834800  1
  Bi  Bi18  1  0.79648400  0.20109400  0.39947700  1
  Bi  Bi19  1  0.38500700  0.59893000  0.19516300  1
  O  O20  1  0.10051200  0.96823300  0.49322000  1
  O  O21  1  0.70551600  0.36819300  0.29667100  1
  O  O22  1  0.28059800  0.75811200  0.09142000  1
  O  O23  1  0.90272100  0.16729900  0.89695200  1
  O  O24  1  0.52015000  0.56965900  0.69499400  1
  O  O25  1  0.02697100  0.63888700  0.23590100  1
  O  O26  1  0.63125900  0.04002700  0.03783700  1
  O  O27  1  0.21840900  0.43880100  0.83177400  1
  O  O28  1  0.83549500  0.84044200  0.63612000  1
  O  O29  1  0.43796200  0.23960400  0.43651500  1
  O  O30  1  0.46041900  0.06888600  0.24551300  1
  O  O31  1  0.04780500  0.46465900  0.04669800  1
  O  O32  1  0.65822700  0.87090000  0.84914100  1
  O  O33  1  0.24430500  0.27126700  0.64602100  1
  O  O34  1  0.85257200  0.66964800  0.44733900  1
  O  O35  1  0.67305600  0.85046700  0.30351300  1
  O  O36  1  0.27596800  0.24795000  0.10534700  1
  O  O37  1  0.87589800  0.64722200  0.90425800  1
  O  O38  1  0.46668800  0.04338800  0.70416600  1
  O  O39  1  0.07448600  0.45021600  0.50834000  1
  O  O40  1  0.83014900  0.82934500  0.11389600  1
  O  O41  1  0.44032800  0.22896600  0.91453600  1
  O  O42  1  0.04821300  0.62972700  0.71408100  1
  O  O43  1  0.64086000  0.02743800  0.51471100  1
  O  O44  1  0.24179300  0.43004700  0.31629500  1
  O  O45  1  0.99079200  0.10357200  0.26158100  1
  O  O46  1  0.56705100  0.49877200  0.05311600  1
  O  O47  1  0.17319700  0.89759900  0.85759600  1
  O  O48  1  0.74919900  0.29025600  0.65873700  1
  O  O49  1  0.37323000  0.69857800  0.45658400  1
