# generated using pymatgen
data_Mg4CuNi
_symmetry_space_group_name_H-M   'P 1'
_cell_length_a   5.27576344
_cell_length_b   5.27576344
_cell_length_c   13.22987400
_cell_angle_alpha   90.00000000
_cell_angle_beta   90.00000000
_cell_angle_gamma   119.99999296
_symmetry_Int_Tables_number   1
_chemical_formula_structural   Mg4CuNi
_chemical_formula_sum   'Mg12 Cu3 Ni3'
_cell_volume   318.90182032
_cell_formula_units_Z   3
loop_
 _symmetry_equiv_pos_site_id
 _symmetry_equiv_pos_as_xyz
  1  'x, y, z'
loop_
 _atom_site_type_symbol
 _atom_site_label
 _atom_site_symmetry_multiplicity
 _atom_site_fract_x
 _atom_site_fract_y
 _atom_site_fract_z
 _atom_site_occupancy
  Mg  Mg0  1  0.16098900  0.83901100  0.33333300  1
  Mg  Mg1  1  0.16098900  0.32197800  0.00000000  1
  Mg  Mg2  1  0.67802200  0.83901100  0.66666700  1
  Mg  Mg3  1  0.83901100  0.16098900  0.33333300  1
  Mg  Mg4  1  0.83901100  0.67802200  0.00000000  1
  Mg  Mg5  1  0.32197800  0.16098900  0.66666700  1
  Mg  Mg6  1  0.50000000  0.50000000  0.21705800  1
  Mg  Mg7  1  0.50000000  0.00000000  0.88372500  1
  Mg  Mg8  1  0.00000000  0.50000000  0.55039200  1
  Mg  Mg9  1  0.50000000  0.50000000  0.44960800  1
  Mg  Mg10  1  0.00000000  0.50000000  0.78294200  1
  Mg  Mg11  1  0.50000000  0.00000000  0.11627500  1
  Cu  Cu12  1  0.50000000  0.50000000  0.83333300  1
  Cu  Cu13  1  0.50000000  0.00000000  0.50000000  1
  Cu  Cu14  1  0.00000000  0.50000000  0.16666700  1
  Ni  Ni15  1  0.00000000  0.00000000  0.83333300  1
  Ni  Ni16  1  0.00000000  0.00000000  0.50000000  1
  Ni  Ni17  1  0.00000000  0.00000000  0.16666700  1
