# generated using pymatgen
data_Mg2Al2SiO9
_symmetry_space_group_name_H-M   'P 1'
_cell_length_a   13.98852800
_cell_length_b   5.46780100
_cell_length_c   5.46965074
_cell_angle_alpha   61.08370012
_cell_angle_beta   90.00000000
_cell_angle_gamma   90.00000000
_symmetry_Int_Tables_number   1
_chemical_formula_structural   Mg2Al2SiO9
_chemical_formula_sum   'Mg4 Al4 Si2 O18'
_cell_volume   366.19687972
_cell_formula_units_Z   2
loop_
 _symmetry_equiv_pos_site_id
 _symmetry_equiv_pos_as_xyz
  1  'x, y, z'
loop_
 _atom_site_type_symbol
 _atom_site_label
 _atom_site_symmetry_multiplicity
 _atom_site_fract_x
 _atom_site_fract_y
 _atom_site_fract_z
 _atom_site_occupancy
  Mg  Mg0  1  0.48986100  0.98472000  0.33604800  1
  Mg  Mg1  1  0.49048600  0.33231900  0.67475100  1
  Mg  Mg2  1  0.98986100  0.01528000  0.66395200  1
  Mg  Mg3  1  0.99048600  0.66768100  0.32524900  1
  Al  Al4  1  0.49705000  0.68025300  0.98486100  1
  Al  Al5  1  0.99705000  0.31974700  0.01513900  1
  Al  Al6  1  0.19672700  0.33415100  0.32859000  1
  Al  Al7  1  0.69672700  0.66584900  0.67141000  1
  Si  Si8  1  0.19576100  0.00511000  0.99764400  1
  Si  Si9  1  0.69576100  0.99489000  0.00235600  1
  O  O10  1  0.43617900  0.97758500  0.68976700  1
  O  O11  1  0.43763100  0.64721900  0.30620100  1
  O  O12  1  0.43830300  0.35261900  0.02209900  1
  O  O13  1  0.93617900  0.02241500  0.31023300  1
  O  O14  1  0.93763100  0.35278100  0.69379900  1
  O  O15  1  0.93830300  0.64738100  0.97790100  1
  O  O16  1  0.05704000  0.62538000  0.70795900  1
  O  O17  1  0.55704000  0.37462000  0.29204100  1
  O  O18  1  0.07585200  0.01693200  0.00422900  1
  O  O19  1  0.57585200  0.98306800  0.99577100  1
  O  O20  1  0.23231300  0.15928300  0.67722600  1
  O  O21  1  0.22999600  0.68248300  0.16019000  1
  O  O22  1  0.24160300  0.16080400  0.15817900  1
  O  O23  1  0.73231300  0.84071700  0.32277400  1
  O  O24  1  0.72999600  0.31751700  0.83981000  1
  O  O25  1  0.74160300  0.83919600  0.84182100  1
  O  O26  1  0.06819900  0.32418200  0.31382600  1
  O  O27  1  0.56819900  0.67581800  0.68617400  1
