# generated using pymatgen
data_Mg5Mn3Zn4(SiO6)4
_symmetry_space_group_name_H-M   'P 1'
_cell_length_a   5.16252288
_cell_length_b   5.16252288
_cell_length_c   18.23781480
_cell_angle_alpha   89.77027087
_cell_angle_beta   90.22972913
_cell_angle_gamma   108.25807368
_symmetry_Int_Tables_number   1
_chemical_formula_structural   Mg5Mn3Zn4(SiO6)4
_chemical_formula_sum   'Mg5 Mn3 Zn4 Si4 O24'
_cell_volume   461.59098364
_cell_formula_units_Z   1
loop_
 _symmetry_equiv_pos_site_id
 _symmetry_equiv_pos_as_xyz
  1  'x, y, z'
loop_
 _atom_site_type_symbol
 _atom_site_label
 _atom_site_symmetry_multiplicity
 _atom_site_fract_x
 _atom_site_fract_y
 _atom_site_fract_z
 _atom_site_occupancy
  Mg  Mg0  1  0.99501500  0.49229000  0.99839700  1
  Mg  Mg1  1  0.50771000  0.00498500  0.99839700  1
  Mg  Mg2  1  0.00026700  0.49954200  0.49999500  1
  Mg  Mg3  1  0.50045800  0.99973300  0.49999500  1
  Mg  Mg4  1  0.00268100  0.99731900  0.10287100  1
  Mn  Mn5  1  0.98378300  0.01621700  0.91112300  1
  Mn  Mn6  1  0.48318500  0.51681500  0.58347000  1
  Mn  Mn7  1  0.51727400  0.48272600  0.41671300  1
  Zn  Zn8  1  0.15471900  0.35274500  0.25224800  1
  Zn  Zn9  1  0.34963600  0.15115300  0.74924500  1
  Zn  Zn10  1  0.84884700  0.65036400  0.74924500  1
  Zn  Zn11  1  0.64725500  0.84528100  0.25224800  1
  Si  Si12  1  0.64209400  0.35790600  0.15407600  1
  Si  Si13  1  0.35748100  0.64251900  0.84681400  1
  Si  Si14  1  0.85623100  0.14376900  0.65258300  1
  Si  Si15  1  0.14277200  0.85722800  0.34840400  1
  O  O16  1  0.81258500  0.80282200  0.99272300  1
  O  O17  1  0.29579700  0.29576800  0.50021200  1
  O  O18  1  0.19717800  0.18741500  0.99272300  1
  O  O19  1  0.70423300  0.70420300  0.50021200  1
  O  O20  1  0.23089000  0.76911000  0.06738700  1
  O  O21  1  0.77124900  0.22875100  0.92266400  1
  O  O22  1  0.27131900  0.72868100  0.57365400  1
  O  O23  1  0.72917800  0.27082200  0.42677500  1
  O  O24  1  0.75047100  0.24952900  0.07857300  1
  O  O25  1  0.24345100  0.75654900  0.91960400  1
  O  O26  1  0.73936900  0.26063100  0.57932400  1
  O  O27  1  0.26081400  0.73918600  0.42131800  1
  O  O28  1  0.74844100  0.69240100  0.16131600  1
  O  O29  1  0.69833000  0.75674900  0.84225600  1
  O  O30  1  0.19712300  0.25749700  0.65625100  1
  O  O31  1  0.25898000  0.19832100  0.34539800  1
  O  O32  1  0.24325100  0.30167000  0.84225600  1
  O  O33  1  0.30759900  0.25155900  0.16131600  1
  O  O34  1  0.80167900  0.74102000  0.34539800  1
  O  O35  1  0.74250300  0.80287700  0.65625100  1
  O  O36  1  0.77153900  0.22846100  0.22330400  1
  O  O37  1  0.23763700  0.76236300  0.77441100  1
  O  O38  1  0.73842500  0.26157500  0.72507700  1
  O  O39  1  0.25855300  0.74144700  0.27577300  1
