# generated using pymatgen
data_Mn7Si3O14
_symmetry_space_group_name_H-M   'P 1'
_cell_length_a   4.90408600
_cell_length_b   10.61707161
_cell_length_c   11.30194418
_cell_angle_alpha   104.17488553
_cell_angle_beta   90.00000000
_cell_angle_gamma   90.00000000
_symmetry_Int_Tables_number   1
_chemical_formula_structural   Mn7Si3O14
_chemical_formula_sum   'Mn14 Si6 O28'
_cell_volume   570.54176205
_cell_formula_units_Z   2
loop_
 _symmetry_equiv_pos_site_id
 _symmetry_equiv_pos_as_xyz
  1  'x, y, z'
loop_
 _atom_site_type_symbol
 _atom_site_label
 _atom_site_symmetry_multiplicity
 _atom_site_fract_x
 _atom_site_fract_y
 _atom_site_fract_z
 _atom_site_occupancy
  Mn  Mn0  1  0.48557200  0.42156800  0.70484100  1
  Mn  Mn1  1  0.98557200  0.07843200  0.29515900  1
  Mn  Mn2  1  0.49513800  0.57771300  0.29930600  1
  Mn  Mn3  1  0.99513800  0.92228700  0.70069400  1
  Mn  Mn4  1  0.52432900  0.17717800  0.84781600  1
  Mn  Mn5  1  0.02432900  0.32282200  0.15218400  1
  Mn  Mn6  1  0.47581900  0.81805300  0.14592500  1
  Mn  Mn7  1  0.97581900  0.68194700  0.85407500  1
  Mn  Mn8  1  0.49314200  0.49721900  0.00321100  1
  Mn  Mn9  1  0.99314200  0.00278100  0.99678900  1
  Mn  Mn10  1  0.97303800  0.15881200  0.59151100  1
  Mn  Mn11  1  0.47303800  0.34118800  0.40848900  1
  Mn  Mn12  1  0.00499400  0.82688000  0.42557800  1
  Mn  Mn13  1  0.50499400  0.67312000  0.57442200  1
  Si  Si14  1  0.07038600  0.36631700  0.85736800  1
  Si  Si15  1  0.57038600  0.13368300  0.14263200  1
  Si  Si16  1  0.91780100  0.63131400  0.14832600  1
  Si  Si17  1  0.41780100  0.86868600  0.85167400  1
  Si  Si18  1  0.90941700  0.47933900  0.55814400  1
  Si  Si19  1  0.40941700  0.02066100  0.44185600  1
  O  O20  1  0.24645000  0.98229300  0.55461100  1
  O  O21  1  0.74645000  0.51770700  0.44538900  1
  O  O22  1  0.74169900  0.02108300  0.43712300  1
  O  O23  1  0.24169900  0.47891700  0.56287700  1
  O  O24  1  0.27193500  0.01004300  0.84544400  1
  O  O25  1  0.77193500  0.48995700  0.15455600  1
  O  O26  1  0.70644300  0.98896900  0.14366300  1
  O  O27  1  0.20644300  0.51103100  0.85633700  1
  O  O28  1  0.79124600  0.08075600  0.71740400  1
  O  O29  1  0.29124600  0.41924400  0.28259600  1
  O  O30  1  0.26766200  0.92107800  0.31682300  1
  O  O31  1  0.76766200  0.57892200  0.68317700  1
  O  O32  1  0.77605200  0.33329300  0.55892400  1
  O  O33  1  0.27605200  0.16670700  0.44107600  1
  O  O34  1  0.30002500  0.69335700  0.43130900  1
  O  O35  1  0.80002500  0.80664300  0.56869100  1
  O  O36  1  0.70869900  0.16950600  0.02173500  1
  O  O37  1  0.20869900  0.33049400  0.97826500  1
  O  O38  1  0.27914900  0.83302800  0.97255400  1
  O  O39  1  0.77914900  0.66697200  0.02744600  1
  O  O40  1  0.22010100  0.26855800  0.73777000  1
  O  O41  1  0.72010100  0.23144200  0.26223000  1
  O  O42  1  0.76846600  0.72736400  0.26946600  1
  O  O43  1  0.26846600  0.77263600  0.73053400  1
  O  O44  1  0.73815500  0.36836300  0.85414000  1
  O  O45  1  0.23815500  0.13163700  0.14586000  1
  O  O46  1  0.24868100  0.63370200  0.14783900  1
  O  O47  1  0.74868100  0.86629800  0.85216100  1
