# generated using pymatgen
data_Mg2Al2SiO9
_symmetry_space_group_name_H-M   'P 1'
_cell_length_a   5.45745700
_cell_length_b   5.46186044
_cell_length_c   14.39210787
_cell_angle_alpha   90.20021623
_cell_angle_beta   100.78590822
_cell_angle_gamma   118.76066711
_symmetry_Int_Tables_number   1
_chemical_formula_structural   Mg2Al2SiO9
_chemical_formula_sum   'Mg4 Al4 Si2 O18'
_cell_volume   367.24588912
_cell_formula_units_Z   2
loop_
 _symmetry_equiv_pos_site_id
 _symmetry_equiv_pos_as_xyz
  1  'x, y, z'
loop_
 _atom_site_type_symbol
 _atom_site_label
 _atom_site_symmetry_multiplicity
 _atom_site_fract_x
 _atom_site_fract_y
 _atom_site_fract_z
 _atom_site_occupancy
  Mg  Mg0  1  0.15705200  0.74903500  0.25554400  1
  Mg  Mg1  1  0.50383000  0.40899200  0.25544400  1
  Mg  Mg2  1  0.18598600  0.92319800  0.75590600  1
  Mg  Mg3  1  0.83687700  0.26098000  0.75571900  1
  Al  Al4  1  0.64277700  0.32503100  0.96147900  1
  Al  Al5  1  0.97240500  0.48280800  0.46166200  1
  Al  Al6  1  0.85386200  0.10383500  0.26335800  1
  Al  Al7  1  0.49560200  0.57140100  0.76337400  1
  Si  Si8  1  0.31244600  0.65444400  0.96181800  1
  Si  Si9  1  0.30191600  0.15082800  0.46140400  1
  O  O10  1  0.89821300  0.42565400  0.33405500  1
  O  O11  1  0.47974400  0.49083100  0.00707900  1
  O  O12  1  0.50928300  0.98816300  0.99576500  1
  O  O13  1  0.01340200  0.52514400  0.99672700  1
  O  O14  1  0.54799300  0.29687900  0.83408600  1
  O  O15  1  0.24378400  0.60696900  0.84201200  1
  O  O16  1  0.19321800  0.34431800  0.50718800  1
  O  O17  1  0.15101700  0.84266100  0.49671100  1
  O  O18  1  0.64735400  0.30465900  0.49603900  1
  O  O19  1  0.21204900  0.12082300  0.34167000  1
  O  O20  1  0.15771700  0.26005100  0.70144300  1
  O  O21  1  0.49027200  0.87386700  0.70438300  1
  O  O22  1  0.78458300  0.59283600  0.70403600  1
  O  O23  1  0.11273400  0.37738800  0.20224200  1
  O  O24  1  0.78539000  0.76386100  0.20497200  1
  O  O25  1  0.48853700  0.04426300  0.20298500  1
  O  O26  1  0.58912400  0.81491300  0.32251600  1
  O  O27  1  0.84083500  0.90016600  0.82238400  1
