# generated using pymatgen
data_MgAl2P3NO12
_symmetry_space_group_name_H-M   'P 1'
_cell_length_a   9.33629811
_cell_length_b   9.33629811
_cell_length_c   9.20067300
_cell_angle_alpha   90.00000000
_cell_angle_beta   90.00000000
_cell_angle_gamma   90.95903443
_symmetry_Int_Tables_number   1
_chemical_formula_structural   MgAl2P3NO12
_chemical_formula_sum   'Mg2 Al4 P6 N2 O24'
_cell_volume   801.87777171
_cell_formula_units_Z   2
loop_
 _symmetry_equiv_pos_site_id
 _symmetry_equiv_pos_as_xyz
  1  'x, y, z'
loop_
 _atom_site_type_symbol
 _atom_site_label
 _atom_site_symmetry_multiplicity
 _atom_site_fract_x
 _atom_site_fract_y
 _atom_site_fract_z
 _atom_site_occupancy
  Mg  Mg0  1  0.50488400  0.24427900  0.75000000  1
  Mg  Mg1  1  0.75572100  0.49511600  0.25000000  1
  Al  Al2  1  0.00302500  0.99697500  0.50000000  1
  Al  Al3  1  0.24404700  0.50383300  0.25000000  1
  Al  Al4  1  0.00302500  0.99697500  0.00000000  1
  Al  Al5  1  0.49616700  0.75595300  0.75000000  1
  P  P6  1  0.00809900  0.24391900  0.25000000  1
  P  P7  1  0.75608100  0.99190100  0.75000000  1
  P  P8  1  0.48910700  0.51089300  0.50000000  1
  P  P9  1  0.24636500  0.99319000  0.75000000  1
  P  P10  1  0.48910700  0.51089300  0.00000000  1
  P  P11  1  0.00681000  0.75363500  0.25000000  1
  N  N12  1  0.49998500  0.00011000  0.25000000  1
  N  N13  1  0.99989000  0.50001500  0.75000000  1
  O  O14  1  0.15173100  0.98346600  0.88677100  1
  O  O15  1  0.48389200  0.64458700  0.90204500  1
  O  O16  1  0.13786300  0.65571600  0.25000000  1
  O  O17  1  0.85089800  0.98364900  0.61193800  1
  O  O18  1  0.48389200  0.64458700  0.59795500  1
  O  O19  1  0.86952700  0.66546700  0.25000000  1
  O  O20  1  0.85089800  0.98364900  0.88806200  1
  O  O21  1  0.49094600  0.37362800  0.91150400  1
  O  O22  1  0.87231000  0.32968000  0.25000000  1
  O  O23  1  0.15173100  0.98346600  0.61322900  1
  O  O24  1  0.49094600  0.37362800  0.58849600  1
  O  O25  1  0.14190800  0.34454300  0.25000000  1
  O  O26  1  0.01653400  0.84826900  0.38677100  1
  O  O27  1  0.35541300  0.51610800  0.40204500  1
  O  O28  1  0.34428400  0.86213700  0.75000000  1
  O  O29  1  0.01635100  0.14910200  0.11193800  1
  O  O30  1  0.35541300  0.51610800  0.09795500  1
  O  O31  1  0.33453300  0.13047300  0.75000000  1
  O  O32  1  0.01635100  0.14910200  0.38806200  1
  O  O33  1  0.62637200  0.50905400  0.41150400  1
  O  O34  1  0.67032000  0.12769000  0.75000000  1
  O  O35  1  0.01653400  0.84826900  0.11322900  1
  O  O36  1  0.62637200  0.50905400  0.08849600  1
  O  O37  1  0.65545700  0.85809200  0.75000000  1
