# generated using pymatgen
data_MgAl8Fe3(PO5)8
_symmetry_space_group_name_H-M   'P 1'
_cell_length_a   7.19291228
_cell_length_b   12.46477611
_cell_length_c   7.42005680
_cell_angle_alpha   90.00866740
_cell_angle_beta   89.74890345
_cell_angle_gamma   91.54898947
_symmetry_Int_Tables_number   1
_chemical_formula_structural   MgAl8Fe3(PO5)8
_chemical_formula_sum   'Mg1 Al8 Fe3 P8 O40'
_cell_volume   665.01826702
_cell_formula_units_Z   1
loop_
 _symmetry_equiv_pos_site_id
 _symmetry_equiv_pos_as_xyz
  1  'x, y, z'
loop_
 _atom_site_type_symbol
 _atom_site_label
 _atom_site_symmetry_multiplicity
 _atom_site_fract_x
 _atom_site_fract_y
 _atom_site_fract_z
 _atom_site_occupancy
  Mg  Mg0  1  0.25000000  0.25000000  0.50000000  1
  Al  Al1  1  0.37454100  0.11167200  0.77046400  1
  Al  Al2  1  0.87640800  0.61363500  0.77299200  1
  Al  Al3  1  0.86319600  0.13319400  0.26763100  1
  Al  Al4  1  0.37293900  0.63532000  0.27251000  1
  Al  Al5  1  0.12545900  0.38832800  0.22953600  1
  Al  Al6  1  0.62359200  0.88636500  0.22700800  1
  Al  Al7  1  0.63680400  0.36680600  0.73236900  1
  Al  Al8  1  0.12706100  0.86468000  0.72749000  1
  Fe  Fe9  1  0.75000000  0.75000000  0.50000000  1
  Fe  Fe10  1  0.00147600  0.99992600  0.00218700  1
  Fe  Fe11  1  0.49852400  0.50007400  0.99781300  1
  P  P12  1  0.74765300  0.00315000  0.62030200  1
  P  P13  1  0.24630000  0.50142300  0.61638800  1
  P  P14  1  0.49540700  0.24574800  0.11843600  1
  P  P15  1  0.00153600  0.74611000  0.11995200  1
  P  P16  1  0.75234700  0.49685000  0.37969800  1
  P  P17  1  0.25370000  0.99857700  0.38361200  1
  P  P18  1  0.00459300  0.25425200  0.88156400  1
  P  P19  1  0.49846400  0.75389000  0.88004800  1
  O  O20  1  0.47877800  0.24794600  0.67373300  1
  O  O21  1  0.96989100  0.74795700  0.66406200  1
  O  O22  1  0.78034500  0.00118900  0.16136700  1
  O  O23  1  0.28083200  0.50357800  0.16143800  1
  O  O24  1  0.02122200  0.25205400  0.32626700  1
  O  O25  1  0.53010900  0.75204300  0.33593800  1
  O  O26  1  0.71965500  0.49881100  0.83863300  1
  O  O27  1  0.21916800  0.99642200  0.83856200  1
  O  O28  1  0.15801300  0.20998100  0.75348500  1
  O  O29  1  0.64724000  0.70750800  0.74832900  1
  O  O30  1  0.10628300  0.04572400  0.25167200  1
  O  O31  1  0.60194000  0.54284700  0.25022600  1
  O  O32  1  0.34198700  0.29001900  0.24651500  1
  O  O33  1  0.85276000  0.79249200  0.25167100  1
  O  O34  1  0.39371700  0.45427600  0.74832800  1
  O  O35  1  0.89806000  0.95715300  0.74977400  1
  O  O36  1  0.18746100  0.40720600  0.49044200  1
  O  O37  1  0.69230300  0.90613000  0.49533500  1
  O  O38  1  0.55692200  0.34318000  0.99569500  1
  O  O39  1  0.05671800  0.84327800  0.99510200  1
  O  O40  1  0.31253900  0.09279400  0.50955800  1
  O  O41  1  0.80769700  0.59387000  0.50466500  1
  O  O42  1  0.94307800  0.15682000  0.00430500  1
  O  O43  1  0.44328200  0.65672200  0.00489800  1
  O  O44  1  0.84400300  0.28834900  0.76296400  1
  O  O45  1  0.33561800  0.78816900  0.76559100  1
  O  O46  1  0.91388500  0.46331100  0.26248000  1
  O  O47  1  0.41451300  0.96149900  0.26657000  1
  O  O48  1  0.65599700  0.21165100  0.23703600  1
  O  O49  1  0.16438200  0.71183100  0.23440900  1
  O  O50  1  0.58611500  0.03668900  0.73752000  1
  O  O51  1  0.08548700  0.53850100  0.73343000  1
  O  O52  1  0.82513900  0.09460500  0.50339900  1
  O  O53  1  0.32972300  0.59381600  0.50523300  1
  O  O54  1  0.42025700  0.15408400  0.00380700  1
  O  O55  1  0.92086300  0.65561000  0.00549700  1
  O  O56  1  0.67486100  0.40539500  0.49660100  1
  O  O57  1  0.17027700  0.90618400  0.49476700  1
  O  O58  1  0.07974300  0.34591600  0.99619300  1
  O  O59  1  0.57913700  0.84439000  0.99450300  1
