# generated using pymatgen
data_LuGaCoO4
_symmetry_space_group_name_H-M   'P 1'
_cell_length_a   8.66734966
_cell_length_b   8.66734966
_cell_length_c   8.66734971
_cell_angle_alpha   22.78709086
_cell_angle_beta   22.78709086
_cell_angle_gamma   22.78708914
_symmetry_Int_Tables_number   1
_chemical_formula_structural   LuGaCoO4
_chemical_formula_sum   'Lu1 Ga1 Co1 O4'
_cell_volume   85.70114625
_cell_formula_units_Z   1
loop_
 _symmetry_equiv_pos_site_id
 _symmetry_equiv_pos_as_xyz
  1  'x, y, z'
loop_
 _atom_site_type_symbol
 _atom_site_label
 _atom_site_symmetry_multiplicity
 _atom_site_fract_x
 _atom_site_fract_y
 _atom_site_fract_z
 _atom_site_occupancy
  Lu  Lu0  1  0.99851600  0.99851600  0.99851600  1
  Ga  Ga1  1  0.21371900  0.21371900  0.21371900  1
  Co  Co2  1  0.78423400  0.78423400  0.78423400  1
  O  O3  1  0.70523600  0.70523600  0.70523600  1
  O  O4  1  0.28998200  0.28998200  0.28998200  1
  O  O5  1  0.87825800  0.87825800  0.87825800  1
  O  O6  1  0.13645400  0.13645400  0.13645400  1
