# generated using pymatgen
data_LuTh(BRh)8
_symmetry_space_group_name_H-M   'P 1'
_cell_length_a   5.35091500
_cell_length_b   5.35091500
_cell_length_c   7.52492900
_cell_angle_alpha   90.00000000
_cell_angle_beta   90.00000000
_cell_angle_gamma   90.00000000
_symmetry_Int_Tables_number   1
_chemical_formula_structural   LuTh(BRh)8
_chemical_formula_sum   'Lu1 Th1 B8 Rh8'
_cell_volume   215.45595942
_cell_formula_units_Z   1
loop_
 _symmetry_equiv_pos_site_id
 _symmetry_equiv_pos_as_xyz
  1  'x, y, z'
loop_
 _atom_site_type_symbol
 _atom_site_label
 _atom_site_symmetry_multiplicity
 _atom_site_fract_x
 _atom_site_fract_y
 _atom_site_fract_z
 _atom_site_occupancy
  Lu  Lu0  1  0.50000000  0.50000000  0.00000000  1
  Th  Th1  1  0.00000000  0.00000000  0.50000000  1
  B  B2  1  0.33117100  0.00000000  0.14885000  1
  B  B3  1  0.66882900  0.00000000  0.14885000  1
  B  B4  1  0.50000000  0.83346400  0.65088700  1
  B  B5  1  0.50000000  0.16653600  0.65088700  1
  B  B6  1  0.16653600  0.50000000  0.34911300  1
  B  B7  1  0.83346400  0.50000000  0.34911300  1
  B  B8  1  0.00000000  0.66882900  0.85115000  1
  B  B9  1  0.00000000  0.33117100  0.85115000  1
  Rh  Rh10  1  0.74951300  0.00000000  0.85855200  1
  Rh  Rh11  1  0.25048700  0.00000000  0.85855200  1
  Rh  Rh12  1  0.50000000  0.25134300  0.35016900  1
  Rh  Rh13  1  0.50000000  0.74865700  0.35016900  1
  Rh  Rh14  1  0.74865700  0.50000000  0.64983100  1
  Rh  Rh15  1  0.25134300  0.50000000  0.64983100  1
  Rh  Rh16  1  0.00000000  0.25048700  0.14144800  1
  Rh  Rh17  1  0.00000000  0.74951300  0.14144800  1
