# generated using pymatgen
data_LuCuGe
_symmetry_space_group_name_H-M   'P 1'
_cell_length_a   4.31468627
_cell_length_b   4.31468627
_cell_length_c   7.15950500
_cell_angle_alpha   90.00000000
_cell_angle_beta   90.00000000
_cell_angle_gamma   120.00000418
_symmetry_Int_Tables_number   1
_chemical_formula_structural   LuCuGe
_chemical_formula_sum   'Lu2 Cu2 Ge2'
_cell_volume   115.42823530
_cell_formula_units_Z   2
loop_
 _symmetry_equiv_pos_site_id
 _symmetry_equiv_pos_as_xyz
  1  'x, y, z'
loop_
 _atom_site_type_symbol
 _atom_site_label
 _atom_site_symmetry_multiplicity
 _atom_site_fract_x
 _atom_site_fract_y
 _atom_site_fract_z
 _atom_site_occupancy
  Lu  Lu0  1  0.00000000  0.00000000  0.22872000  1
  Lu  Lu1  1  0.00000000  0.00000000  0.77128000  1
  Cu  Cu2  1  0.33333300  0.66666700  0.02114900  1
  Cu  Cu3  1  0.66666700  0.33333300  0.97885100  1
  Ge  Ge4  1  0.66666700  0.33333300  0.54771500  1
  Ge  Ge5  1  0.33333300  0.66666700  0.45228500  1
