# generated using pymatgen
data_Li7Mn2N3
_symmetry_space_group_name_H-M   'P 1'
_cell_length_a   3.83368700
_cell_length_b   6.48839174
_cell_length_c   6.48553321
_cell_angle_alpha   59.98542191
_cell_angle_beta   90.00000000
_cell_angle_gamma   90.00000000
_symmetry_Int_Tables_number   1
_chemical_formula_structural   Li7Mn2N3
_chemical_formula_sum   'Li7 Mn2 N3'
_cell_volume   139.69028973
_cell_formula_units_Z   1
loop_
 _symmetry_equiv_pos_site_id
 _symmetry_equiv_pos_as_xyz
  1  'x, y, z'
loop_
 _atom_site_type_symbol
 _atom_site_label
 _atom_site_symmetry_multiplicity
 _atom_site_fract_x
 _atom_site_fract_y
 _atom_site_fract_z
 _atom_site_occupancy
  Li  Li0  1  0.00000000  0.32746500  0.00005600  1
  Li  Li1  1  0.00000000  0.67284400  0.32719000  1
  Li  Li2  1  0.00000000  0.00003700  0.67285400  1
  Li  Li3  1  0.00000000  0.32711000  0.67285400  1
  Li  Li4  1  0.00000000  0.67247700  0.00005600  1
  Li  Li5  1  0.00000000  0.99996700  0.32719000  1
  Li  Li6  1  0.50000000  0.99998500  0.00003100  1
  Mn  Mn7  1  0.50000000  0.33340100  0.33319700  1
  Mn  Mn8  1  0.50000000  0.66664000  0.66672100  1
  N  N9  1  0.00000000  0.99998800  0.00002400  1
  N  N10  1  0.00000000  0.33320800  0.33358200  1
  N  N11  1  0.00000000  0.66677800  0.66644600  1
