# generated using pymatgen
data_Mg9Si4(HO9)2
_symmetry_space_group_name_H-M   'P 1'
_cell_length_a   4.81917500
_cell_length_b   10.36622586
_cell_length_c   13.89962821
_cell_angle_alpha   101.60375927
_cell_angle_beta   90.00000000
_cell_angle_gamma   90.00000000
_symmetry_Int_Tables_number   1
_chemical_formula_structural   Mg9Si4(HO9)2
_chemical_formula_sum   'Mg18 Si8 H4 O36'
_cell_volume   680.18727287
_cell_formula_units_Z   2
loop_
 _symmetry_equiv_pos_site_id
 _symmetry_equiv_pos_as_xyz
  1  'x, y, z'
loop_
 _atom_site_type_symbol
 _atom_site_label
 _atom_site_symmetry_multiplicity
 _atom_site_fract_x
 _atom_site_fract_y
 _atom_site_fract_z
 _atom_site_occupancy
  Mg  Mg0  1  0.48681300  0.64239700  0.17468000  1
  Mg  Mg1  1  0.51318700  0.35760300  0.82532000  1
  Mg  Mg2  1  0.98681300  0.85760300  0.82532000  1
  Mg  Mg3  1  0.01318700  0.14239700  0.17468000  1
  Mg  Mg4  1  0.99089700  0.75102700  0.38764300  1
  Mg  Mg5  1  0.00910300  0.24897300  0.61235700  1
  Mg  Mg6  1  0.49089700  0.74897300  0.61235700  1
  Mg  Mg7  1  0.50910300  0.25102700  0.38764300  1
  Mg  Mg8  1  0.99935100  0.44791600  0.27426500  1
  Mg  Mg9  1  0.00064900  0.55208400  0.72573500  1
  Mg  Mg10  1  0.49935100  0.05208400  0.72573500  1
  Mg  Mg11  1  0.50064900  0.94791600  0.27426500  1
  Mg  Mg12  1  0.00000000  0.50000000  0.50000000  1
  Mg  Mg13  1  0.50000000  0.00000000  0.50000000  1
  Mg  Mg14  1  0.98230800  0.37682400  0.04359700  1
  Mg  Mg15  1  0.01769200  0.62317600  0.95640300  1
  Mg  Mg16  1  0.48230800  0.12317600  0.95640300  1
  Mg  Mg17  1  0.51769200  0.87682400  0.04359700  1
  Si  Si18  1  0.43001800  0.67811600  0.83378400  1
  Si  Si19  1  0.56998200  0.32188400  0.16621600  1
  Si  Si20  1  0.93001800  0.82188400  0.16621600  1
  Si  Si21  1  0.06998200  0.17811600  0.83378400  1
  Si  Si22  1  0.42473300  0.56634000  0.39091800  1
  Si  Si23  1  0.57526700  0.43366000  0.60908200  1
  Si  Si24  1  0.92473300  0.93366000  0.60908200  1
  Si  Si25  1  0.07526700  0.06634000  0.39091800  1
  H  H26  1  0.37748700  0.47760700  0.02708800  1
  H  H27  1  0.62251300  0.52239300  0.97291200  1
  H  H28  1  0.87748700  0.02239300  0.97291200  1
  H  H29  1  0.12251300  0.97760700  0.02708800  1
  O  O30  1  0.22396800  0.91959700  0.38718100  1
  O  O31  1  0.77603200  0.08040300  0.61281900  1
  O  O32  1  0.72396800  0.58040300  0.61281900  1
  O  O33  1  0.27603200  0.41959700  0.38718100  1
  O  O34  1  0.76376900  0.56512300  0.38855300  1
  O  O35  1  0.23623100  0.43487700  0.61144700  1
  O  O36  1  0.26376900  0.93487700  0.61144700  1
  O  O37  1  0.73623100  0.06512300  0.38855300  1
  O  O38  1  0.24273600  0.54263600  0.05821300  1
  O  O39  1  0.75726400  0.45736400  0.94178700  1
  O  O40  1  0.74273600  0.95736400  0.94178700  1
  O  O41  1  0.25726400  0.04263600  0.05821300  1
  O  O42  1  0.27390800  0.61413100  0.29660200  1
  O  O43  1  0.72609200  0.38586900  0.70339800  1
  O  O44  1  0.77390800  0.88586900  0.70339800  1
  O  O45  1  0.22609200  0.11413100  0.29660200  1
  O  O46  1  0.27695500  0.65794400  0.48859600  1
  O  O47  1  0.72304500  0.34205600  0.51140400  1
  O  O48  1  0.77695500  0.84205600  0.51140400  1
  O  O49  1  0.22304500  0.15794400  0.48859600  1
  O  O50  1  0.78399300  0.72537400  0.06977200  1
  O  O51  1  0.21600700  0.27462600  0.93022800  1
  O  O52  1  0.28399300  0.77462600  0.93022800  1
  O  O53  1  0.71600700  0.22537400  0.06977200  1
  O  O54  1  0.71323200  0.46787500  0.16430000  1
  O  O55  1  0.28676800  0.53212500  0.83570000  1
  O  O56  1  0.21323200  0.03212500  0.83570000  1
  O  O57  1  0.78676800  0.96787500  0.16430000  1
  O  O58  1  0.26910900  0.82160600  0.16461000  1
  O  O59  1  0.73089100  0.17839400  0.83539000  1
  O  O60  1  0.76910900  0.67839400  0.83539000  1
  O  O61  1  0.23089100  0.32160600  0.16461000  1
  O  O62  1  0.77746900  0.77931200  0.26227200  1
  O  O63  1  0.22253100  0.22068800  0.73772800  1
  O  O64  1  0.27746900  0.72068800  0.73772800  1
  O  O65  1  0.72253100  0.27931200  0.26227200  1
