# generated using pymatgen
data_MgAlSi4O15
_symmetry_space_group_name_H-M   'P 1'
_cell_length_a   11.14199199
_cell_length_b   11.14199199
_cell_length_c   5.28421297
_cell_angle_alpha   84.20412286
_cell_angle_beta   84.20412286
_cell_angle_gamma   104.74299667
_symmetry_Int_Tables_number   1
_chemical_formula_structural   MgAlSi4O15
_chemical_formula_sum   'Mg2 Al2 Si8 O30'
_cell_volume   625.66748650
_cell_formula_units_Z   2
loop_
 _symmetry_equiv_pos_site_id
 _symmetry_equiv_pos_as_xyz
  1  'x, y, z'
loop_
 _atom_site_type_symbol
 _atom_site_label
 _atom_site_symmetry_multiplicity
 _atom_site_fract_x
 _atom_site_fract_y
 _atom_site_fract_z
 _atom_site_occupancy
  Mg  Mg0  1  0.11107100  0.88892900  0.50000000  1
  Mg  Mg1  1  0.88892900  0.11107100  0.50000000  1
  Al  Al2  1  0.16545900  0.83454100  0.00000000  1
  Al  Al3  1  0.83454100  0.16545900  0.00000000  1
  Si  Si4  1  0.29416800  0.11463300  0.11226400  1
  Si  Si5  1  0.11463300  0.29416800  0.11226400  1
  Si  Si6  1  0.70583200  0.88536700  0.88773600  1
  Si  Si7  1  0.88536700  0.70583200  0.88773600  1
  Si  Si8  1  0.37885100  0.04172500  0.61533500  1
  Si  Si9  1  0.04172500  0.37885100  0.61533500  1
  Si  Si10  1  0.62114900  0.95827500  0.38466500  1
  Si  Si11  1  0.95827500  0.62114900  0.38466500  1
  O  O12  1  0.38283700  0.61716300  0.50000000  1
  O  O13  1  0.61716300  0.38283700  0.50000000  1
  O  O14  1  0.19887600  0.97259400  0.15874100  1
  O  O15  1  0.97259400  0.19887600  0.15874100  1
  O  O16  1  0.80112400  0.02740600  0.84125900  1
  O  O17  1  0.02740600  0.80112400  0.84125900  1
  O  O18  1  0.25935200  0.91727900  0.69506000  1
  O  O19  1  0.91727900  0.25935200  0.69506000  1
  O  O20  1  0.74064800  0.08272100  0.30494000  1
  O  O21  1  0.08272100  0.74064800  0.30494000  1
  O  O22  1  0.40854800  0.59145200  0.00000000  1
  O  O23  1  0.59145200  0.40854800  0.00000000  1
  O  O24  1  0.50000000  0.00000000  0.50000000  1
  O  O25  1  0.00000000  0.50000000  0.50000000  1
  O  O26  1  0.04212400  0.04212400  0.55670500  1
  O  O27  1  0.95787600  0.95787600  0.44329500  1
  O  O28  1  0.22114800  0.22114800  0.04442500  1
  O  O29  1  0.77885200  0.77885200  0.95557500  1
  O  O30  1  0.39969500  0.11522500  0.86927500  1
  O  O31  1  0.11522500  0.39969500  0.86927500  1
  O  O32  1  0.60030500  0.88477500  0.13072500  1
  O  O33  1  0.88477500  0.60030500  0.13072500  1
  O  O34  1  0.35046200  0.13641500  0.38302400  1
  O  O35  1  0.13641500  0.35046200  0.38302400  1
  O  O36  1  0.64953800  0.86358500  0.61697600  1
  O  O37  1  0.86358500  0.64953800  0.61697600  1
  O  O38  1  0.32174300  0.75449500  0.05872700  1
  O  O39  1  0.75449500  0.32174300  0.05872700  1
  O  O40  1  0.67825700  0.24550500  0.94127300  1
  O  O41  1  0.24550500  0.67825700  0.94127300  1
