# generated using pymatgen
data_Mg3Al7(Si2O11)2
_symmetry_space_group_name_H-M   'P 1'
_cell_length_a   6.79968900
_cell_length_b   10.68113494
_cell_length_c   10.68113494
_cell_angle_alpha   99.12501959
_cell_angle_beta   90.00000000
_cell_angle_gamma   90.00000000
_symmetry_Int_Tables_number   1
_chemical_formula_structural   Mg3Al7(Si2O11)2
_chemical_formula_sum   'Mg6 Al14 Si8 O44'
_cell_volume   765.93626044
_cell_formula_units_Z   2
loop_
 _symmetry_equiv_pos_site_id
 _symmetry_equiv_pos_as_xyz
  1  'x, y, z'
loop_
 _atom_site_type_symbol
 _atom_site_label
 _atom_site_symmetry_multiplicity
 _atom_site_fract_x
 _atom_site_fract_y
 _atom_site_fract_z
 _atom_site_occupancy
  Mg  Mg0  1  0.25000000  0.64729400  0.64729400  1
  Mg  Mg1  1  0.75000000  0.35093600  0.35093600  1
  Mg  Mg2  1  0.25000000  0.01634200  0.25937100  1
  Mg  Mg3  1  0.75000000  0.74930100  0.98677500  1
  Mg  Mg4  1  0.75000000  0.98677500  0.74930100  1
  Mg  Mg5  1  0.25000000  0.25937100  0.01634200  1
  Al  Al6  1  0.25000000  0.82783800  0.45535300  1
  Al  Al7  1  0.75000000  0.54739900  0.17378700  1
  Al  Al8  1  0.75000000  0.17378700  0.54739900  1
  Al  Al9  1  0.25000000  0.45535300  0.82783800  1
  Al  Al10  1  0.49956000  0.40162900  0.59466000  1
  Al  Al11  1  0.00044000  0.40162900  0.59466000  1
  Al  Al12  1  0.49956000  0.59466000  0.40162900  1
  Al  Al13  1  0.00044000  0.59466000  0.40162900  1
  Al  Al14  1  0.49877800  0.78509900  0.21055500  1
  Al  Al15  1  0.00122200  0.78509900  0.21055500  1
  Al  Al16  1  0.49877800  0.21055500  0.78509900  1
  Al  Al17  1  0.00122200  0.21055500  0.78509900  1
  Al  Al18  1  0.25000000  0.14919600  0.51794200  1
  Al  Al19  1  0.25000000  0.51794200  0.14919600  1
  Si  Si20  1  0.25000000  0.94961800  0.75542900  1
  Si  Si21  1  0.75000000  0.24459400  0.04810000  1
  Si  Si22  1  0.75000000  0.04810000  0.24459400  1
  Si  Si23  1  0.25000000  0.75542900  0.94961800  1
  Si  Si24  1  0.25000000  0.34078900  0.34078900  1
  Si  Si25  1  0.75000000  0.65532100  0.65532100  1
  Si  Si26  1  0.75000000  0.48923100  0.84982900  1
  Si  Si27  1  0.75000000  0.84982900  0.48923100  1
  O  O28  1  0.55221500  0.95886900  0.24164500  1
  O  O29  1  0.44827400  0.75637900  0.03731600  1
  O  O30  1  0.94778500  0.95886900  0.24164500  1
  O  O31  1  0.05172600  0.75637900  0.03731600  1
  O  O32  1  0.44827400  0.03731600  0.75637900  1
  O  O33  1  0.55221500  0.24164500  0.95886900  1
  O  O34  1  0.05172600  0.03731600  0.75637900  1
  O  O35  1  0.94778500  0.24164500  0.95886900  1
  O  O36  1  0.25000000  0.99196000  0.46267700  1
  O  O37  1  0.75000000  0.53191600  0.99910300  1
  O  O38  1  0.75000000  0.99910300  0.53191600  1
  O  O39  1  0.25000000  0.46267700  0.99196000  1
  O  O40  1  0.25000000  0.09451000  0.09451000  1
  O  O41  1  0.75000000  0.90257100  0.90257100  1
  O  O42  1  0.25000000  0.64584900  0.44823000  1
  O  O43  1  0.75000000  0.54987800  0.35921700  1
  O  O44  1  0.75000000  0.35921700  0.54987800  1
  O  O45  1  0.25000000  0.44823000  0.64584900  1
  O  O46  1  0.54970500  0.58893100  0.58893100  1
  O  O47  1  0.44662700  0.41259900  0.41259900  1
  O  O48  1  0.95029500  0.58893100  0.58893100  1
  O  O49  1  0.05337300  0.41259900  0.41259900  1
  O  O50  1  0.25000000  0.81322100  0.27180300  1
  O  O51  1  0.75000000  0.72968300  0.17958700  1
  O  O52  1  0.75000000  0.17958700  0.72968300  1
  O  O53  1  0.25000000  0.27180300  0.81322100  1
  O  O54  1  0.25000000  0.19614200  0.36334400  1
  O  O55  1  0.75000000  0.63501200  0.80366900  1
  O  O56  1  0.75000000  0.80366900  0.63501200  1
  O  O57  1  0.25000000  0.36334400  0.19614200  1
  O  O58  1  0.25000000  0.87920500  0.87920500  1
  O  O59  1  0.75000000  0.12293400  0.12293400  1
  O  O60  1  0.54990000  0.78145400  0.41938700  1
  O  O61  1  0.46663600  0.59130200  0.22312600  1
  O  O62  1  0.95010000  0.78145400  0.41938700  1
  O  O63  1  0.03336400  0.59130200  0.22312600  1
  O  O64  1  0.46663600  0.22312600  0.59130200  1
  O  O65  1  0.54990000  0.41938700  0.78145400  1
  O  O66  1  0.03336400  0.22312600  0.59130200  1
  O  O67  1  0.95010000  0.41938700  0.78145400  1
  O  O68  1  0.25000000  0.83226900  0.63286100  1
  O  O69  1  0.75000000  0.36948500  0.16452000  1
  O  O70  1  0.75000000  0.16452000  0.36948500  1
  O  O71  1  0.25000000  0.63286100  0.83226900  1
