# generated using pymatgen
data_LaZnAgP2
_symmetry_space_group_name_H-M   'P 1'
_cell_length_a   4.22923616
_cell_length_b   4.22923616
_cell_length_c   6.86538700
_cell_angle_alpha   90.00000000
_cell_angle_beta   90.00000000
_cell_angle_gamma   120.00000251
_symmetry_Int_Tables_number   1
_chemical_formula_structural   LaZnAgP2
_chemical_formula_sum   'La1 Zn1 Ag1 P2'
_cell_volume   106.34559799
_cell_formula_units_Z   1
loop_
 _symmetry_equiv_pos_site_id
 _symmetry_equiv_pos_as_xyz
  1  'x, y, z'
loop_
 _atom_site_type_symbol
 _atom_site_label
 _atom_site_symmetry_multiplicity
 _atom_site_fract_x
 _atom_site_fract_y
 _atom_site_fract_z
 _atom_site_occupancy
  La  La0  1  0.66666700  0.33333300  0.01250100  1
  Zn  Zn1  1  0.33333300  0.66666700  0.62527300  1
  Ag  Ag2  1  0.00000000  0.00000000  0.36139100  1
  P  P3  1  0.00000000  0.00000000  0.74676400  1
  P  P4  1  0.33333300  0.66666700  0.25407200  1
