# generated using pymatgen
data_LaZnAgAs2
_symmetry_space_group_name_H-M   'P 1'
_cell_length_a   4.37580227
_cell_length_b   4.37580227
_cell_length_c   7.02856500
_cell_angle_alpha   90.00000000
_cell_angle_beta   90.00000000
_cell_angle_gamma   120.00000401
_symmetry_Int_Tables_number   1
_chemical_formula_structural   LaZnAgAs2
_chemical_formula_sum   'La1 Zn1 Ag1 As2'
_cell_volume   116.55010180
_cell_formula_units_Z   1
loop_
 _symmetry_equiv_pos_site_id
 _symmetry_equiv_pos_as_xyz
  1  'x, y, z'
loop_
 _atom_site_type_symbol
 _atom_site_label
 _atom_site_symmetry_multiplicity
 _atom_site_fract_x
 _atom_site_fract_y
 _atom_site_fract_z
 _atom_site_occupancy
  La  La0  1  0.33333300  0.66666700  0.98627100  1
  Zn  Zn1  1  0.00000000  0.00000000  0.37544500  1
  Ag  Ag2  1  0.66666700  0.33333300  0.63796100  1
  As  As3  1  0.66666700  0.33333300  0.24989100  1
  As  As4  1  0.00000000  0.00000000  0.75043200  1
