# generated using pymatgen
data_LaTiNO2
_symmetry_space_group_name_H-M   'P 1'
_cell_length_a   5.59143847
_cell_length_b   5.59143847
_cell_length_c   5.59143847
_cell_angle_alpha   119.40306596
_cell_angle_beta   119.18423774
_cell_angle_gamma   91.22795004
_symmetry_Int_Tables_number   1
_chemical_formula_structural   LaTiNO2
_chemical_formula_sum   'La2 Ti2 N2 O4'
_cell_volume   124.89870304
_cell_formula_units_Z   2
loop_
 _symmetry_equiv_pos_site_id
 _symmetry_equiv_pos_as_xyz
  1  'x, y, z'
loop_
 _atom_site_type_symbol
 _atom_site_label
 _atom_site_symmetry_multiplicity
 _atom_site_fract_x
 _atom_site_fract_y
 _atom_site_fract_z
 _atom_site_occupancy
  La  La0  1  0.99099700  0.75000000  0.74099700  1
  La  La1  1  0.50900300  0.25000000  0.75900300  1
  Ti  Ti2  1  0.25000000  0.52027100  0.27027100  1
  Ti  Ti3  1  0.75000000  0.97972900  0.22972900  1
  N  N4  1  0.96120200  0.71120200  0.25000000  1
  N  N5  1  0.53879800  0.78879800  0.75000000  1
  O  O6  1  0.42001000  0.75000000  0.17001000  1
  O  O7  1  0.07999000  0.25000000  0.32999000  1
  O  O8  1  0.95274500  0.20274500  0.75000000  1
  O  O9  1  0.54725500  0.29725500  0.25000000  1
