# generated using pymatgen
data_Mg3V6Cd2Cu3PbO24
_symmetry_space_group_name_H-M   'P 1'
_cell_length_a   7.09541288
_cell_length_b   9.00277617
_cell_length_c   9.01567629
_cell_angle_alpha   92.07996957
_cell_angle_beta   105.43787431
_cell_angle_gamma   105.91756963
_symmetry_Int_Tables_number   1
_chemical_formula_structural   Mg3V6Cd2Cu3PbO24
_chemical_formula_sum   'Mg3 V6 Cd2 Cu3 Pb1 O24'
_cell_volume   530.11902623
_cell_formula_units_Z   1
loop_
 _symmetry_equiv_pos_site_id
 _symmetry_equiv_pos_as_xyz
  1  'x, y, z'
loop_
 _atom_site_type_symbol
 _atom_site_label
 _atom_site_symmetry_multiplicity
 _atom_site_fract_x
 _atom_site_fract_y
 _atom_site_fract_z
 _atom_site_occupancy
  Mg  Mg0  1  0.13097000  0.05697700  0.38009300  1
  Mg  Mg1  1  0.62225700  0.37440500  0.05470200  1
  Mg  Mg2  1  0.87950800  0.94485200  0.62830000  1
  V  V3  1  0.87414600  0.65449900  0.87565300  1
  V  V4  1  0.62857500  0.12396700  0.34582400  1
  V  V5  1  0.12932400  0.34812600  0.12352400  1
  V  V6  1  0.36790000  0.87038100  0.65603000  1
  V  V7  1  0.74833300  0.71745700  0.28082400  1
  V  V8  1  0.25226900  0.28343200  0.72271000  1
  Cd  Cd9  1  0.25029500  0.74622200  0.25357500  1
  Cd  Cd10  1  0.74931300  0.26430400  0.73496600  1
  Cu  Cu11  1  0.25059700  0.48662300  0.51223000  1
  Cu  Cu12  1  0.75031600  0.51461500  0.48583600  1
  Cu  Cu13  1  0.35870200  0.61314400  0.93650400  1
  Pb  Pb14  1  0.74739300  0.98211500  0.00662800  1
  O  O15  1  0.10798100  0.65599300  0.00144300  1
  O  O16  1  0.38900100  0.00269300  0.34696900  1
  O  O17  1  0.88487900  0.33078500  0.00213500  1
  O  O18  1  0.61283800  0.99632900  0.67149900  1
  O  O19  1  0.68786500  0.59384700  0.96921800  1
  O  O20  1  0.82403500  0.03545300  0.40498700  1
  O  O21  1  0.32451200  0.40905900  0.02884400  1
  O  O22  1  0.17550900  0.96195300  0.59806900  1
  O  O23  1  0.75548000  0.73428200  0.47828700  1
  O  O24  1  0.74074800  0.51969600  0.26616500  1
  O  O25  1  0.24121700  0.27071200  0.52376700  1
  O  O26  1  0.26654400  0.48680100  0.73178400  1
  O  O27  1  0.88109500  0.84142900  0.82929900  1
  O  O28  1  0.61726000  0.17371700  0.16240000  1
  O  O29  1  0.10863800  0.16563600  0.17936300  1
  O  O30  1  0.39197400  0.81247700  0.84032300  1
  O  O31  1  0.96679400  0.83821400  0.24580800  1
  O  O32  1  0.53288100  0.75415000  0.16060600  1
  O  O33  1  0.02635400  0.16975800  0.74892800  1
  O  O34  1  0.47432200  0.25157600  0.83277500  1
  O  O35  1  0.81193500  0.52243000  0.70628900  1
  O  O36  1  0.68982400  0.29282400  0.47573400  1
  O  O37  1  0.19354500  0.48058800  0.29076300  1
  O  O38  1  0.30487300  0.70720100  0.51842800  1
