# generated using pymatgen
data_LaY
_symmetry_space_group_name_H-M   'P 1'
_cell_length_a   17.85438954
_cell_length_b   17.85438954
_cell_length_c   17.85438913
_cell_angle_alpha   11.85217895
_cell_angle_beta   11.85217895
_cell_angle_gamma   11.85218099
_symmetry_Int_Tables_number   1
_chemical_formula_structural   LaY
_chemical_formula_sum   'La3 Y3'
_cell_volume   208.66960686
_cell_formula_units_Z   3
loop_
 _symmetry_equiv_pos_site_id
 _symmetry_equiv_pos_as_xyz
  1  'x, y, z'
loop_
 _atom_site_type_symbol
 _atom_site_label
 _atom_site_symmetry_multiplicity
 _atom_site_fract_x
 _atom_site_fract_y
 _atom_site_fract_z
 _atom_site_occupancy
  La  La0  1  0.00152900  0.00152900  0.00152900  1
  La  La1  1  0.49972600  0.49972600  0.49972600  1
  La  La2  1  0.61065300  0.61065300  0.61065300  1
  Y  Y3  1  0.11013500  0.11013500  0.11013500  1
  Y  Y4  1  0.88770300  0.88770300  0.88770300  1
  Y  Y5  1  0.39025400  0.39025400  0.39025400  1
