# generated using pymatgen
data_Mg6Si5
_symmetry_space_group_name_H-M   'P 1'
_cell_length_a   5.32318900
_cell_length_b   6.75064642
_cell_length_c   11.55874439
_cell_angle_alpha   88.60617434
_cell_angle_beta   89.68398975
_cell_angle_gamma   85.13141960
_symmetry_Int_Tables_number   1
_chemical_formula_structural   Mg6Si5
_chemical_formula_sum   'Mg12 Si10'
_cell_volume   413.73952136
_cell_formula_units_Z   2
loop_
 _symmetry_equiv_pos_site_id
 _symmetry_equiv_pos_as_xyz
  1  'x, y, z'
loop_
 _atom_site_type_symbol
 _atom_site_label
 _atom_site_symmetry_multiplicity
 _atom_site_fract_x
 _atom_site_fract_y
 _atom_site_fract_z
 _atom_site_occupancy
  Mg  Mg0  1  0.05294200  0.63483300  0.89493600  1
  Mg  Mg1  1  0.78410700  0.19003200  0.54764600  1
  Mg  Mg2  1  0.98096200  0.68824800  0.60762700  1
  Mg  Mg3  1  0.27315500  0.98455300  0.41667100  1
  Mg  Mg4  1  0.00121000  0.77424700  0.16641700  1
  Mg  Mg5  1  0.57054200  0.49748300  0.76007000  1
  Mg  Mg6  1  0.37352000  0.94509800  0.69539200  1
  Mg  Mg7  1  0.07494700  0.48693400  0.36696700  1
  Mg  Mg8  1  0.67372200  0.44268800  0.07493000  1
  Mg  Mg9  1  0.52772500  0.81698400  0.95585800  1
  Mg  Mg10  1  0.00444900  0.09340200  0.98015900  1
  Mg  Mg11  1  0.47446100  0.06123900  0.16964600  1
  Si  Si12  1  0.77957400  0.85952900  0.39552000  1
  Si  Si13  1  0.50173800  0.62744100  0.52836600  1
  Si  Si14  1  0.47712100  0.20186100  0.90925200  1
  Si  Si15  1  0.96085200  0.16181700  0.22709000  1
  Si  Si16  1  0.60463700  0.32956100  0.33559600  1
  Si  Si17  1  0.27752100  0.31240200  0.56952500  1
  Si  Si18  1  0.08209000  0.30453600  0.75919200  1
  Si  Si19  1  0.50988500  0.67388500  0.26422600  1
  Si  Si20  1  0.17549000  0.40576100  0.10380500  1
  Si  Si21  1  0.84282900  0.00379500  0.76759700  1
