# generated using pymatgen
data_LaPr(CoP)4
_symmetry_space_group_name_H-M   'P 1'
_cell_length_a   3.81659200
_cell_length_b   3.81659200
_cell_length_c   10.85087600
_cell_angle_alpha   90.00000000
_cell_angle_beta   90.00000000
_cell_angle_gamma   90.00000000
_symmetry_Int_Tables_number   1
_chemical_formula_structural   LaPr(CoP)4
_chemical_formula_sum   'La1 Pr1 Co4 P4'
_cell_volume   158.05792341
_cell_formula_units_Z   1
loop_
 _symmetry_equiv_pos_site_id
 _symmetry_equiv_pos_as_xyz
  1  'x, y, z'
loop_
 _atom_site_type_symbol
 _atom_site_label
 _atom_site_symmetry_multiplicity
 _atom_site_fract_x
 _atom_site_fract_y
 _atom_site_fract_z
 _atom_site_occupancy
  La  La0  1  0.50000000  0.50000000  0.50000000  1
  Pr  Pr1  1  0.00000000  0.00000000  0.00000000  1
  Co  Co2  1  0.50000000  0.00000000  0.24738100  1
  Co  Co3  1  0.00000000  0.50000000  0.75261900  1
  Co  Co4  1  0.00000000  0.50000000  0.24738100  1
  Co  Co5  1  0.50000000  0.00000000  0.75261900  1
  P  P6  1  0.50000000  0.50000000  0.14201000  1
  P  P7  1  0.00000000  0.00000000  0.64766400  1
  P  P8  1  0.00000000  0.00000000  0.35233600  1
  P  P9  1  0.50000000  0.50000000  0.85799000  1
