# generated using pymatgen
data_LaYb(Mo3S4)4
_symmetry_space_group_name_H-M   'P 1'
_cell_length_a   6.52869600
_cell_length_b   6.53687043
_cell_length_c   13.16261879
_cell_angle_alpha   89.21962136
_cell_angle_beta   88.88833469
_cell_angle_gamma   88.94628040
_symmetry_Int_Tables_number   1
_chemical_formula_structural   LaYb(Mo3S4)4
_chemical_formula_sum   'La1 Yb1 Mo12 S16'
_cell_volume   561.49410480
_cell_formula_units_Z   1
loop_
 _symmetry_equiv_pos_site_id
 _symmetry_equiv_pos_as_xyz
  1  'x, y, z'
loop_
 _atom_site_type_symbol
 _atom_site_label
 _atom_site_symmetry_multiplicity
 _atom_site_fract_x
 _atom_site_fract_y
 _atom_site_fract_z
 _atom_site_occupancy
  La  La0  1  0.00000000  0.00000000  0.00000000  1
  Yb  Yb1  1  0.00000000  0.00000000  0.50000000  1
  Mo  Mo2  1  0.22620100  0.41929700  0.77989400  1
  Mo  Mo3  1  0.22694600  0.41974800  0.28120900  1
  Mo  Mo4  1  0.56023500  0.22754900  0.70953200  1
  Mo  Mo5  1  0.56251900  0.22865400  0.21072500  1
  Mo  Mo6  1  0.41801300  0.56138700  0.61108000  1
  Mo  Mo7  1  0.41814400  0.56287000  0.11225200  1
  Mo  Mo8  1  0.77305400  0.58025200  0.71879100  1
  Mo  Mo9  1  0.77379900  0.58070300  0.22010600  1
  Mo  Mo10  1  0.43748100  0.77134600  0.78927500  1
  Mo  Mo11  1  0.43976500  0.77245100  0.29046800  1
  Mo  Mo12  1  0.58185600  0.43713000  0.88774800  1
  Mo  Mo13  1  0.58198700  0.43861300  0.38892000  1
  S  S14  1  0.74523500  0.37549600  0.56319500  1
  S  S15  1  0.74683900  0.37685100  0.06339500  1
  S  S16  1  0.12659900  0.74673300  0.68729400  1
  S  S17  1  0.12697700  0.74876900  0.18825500  1
  S  S18  1  0.37616800  0.12752200  0.87464000  1
  S  S19  1  0.37605800  0.12767600  0.37410300  1
  S  S20  1  0.25316100  0.62314900  0.93660500  1
  S  S21  1  0.25476500  0.62450400  0.43680500  1
  S  S22  1  0.87302300  0.25123100  0.81174500  1
  S  S23  1  0.87340100  0.25326700  0.31270600  1
  S  S24  1  0.62394200  0.87232400  0.62589700  1
  S  S25  1  0.62383200  0.87247800  0.12536000  1
  S  S26  1  0.24043600  0.24299300  0.62020900  1
  S  S27  1  0.24250900  0.24558000  0.12167800  1
  S  S28  1  0.75749100  0.75442000  0.87832200  1
  S  S29  1  0.75956400  0.75700700  0.37979100  1
