# generated using pymatgen
data_LaY3Sc4O12
_symmetry_space_group_name_H-M   'P 1'
_cell_length_a   8.02972100
_cell_length_b   5.52989600
_cell_length_c   5.79023427
_cell_angle_alpha   89.98259427
_cell_angle_beta   90.00000000
_cell_angle_gamma   90.00000000
_symmetry_Int_Tables_number   1
_chemical_formula_structural   LaY3Sc4O12
_chemical_formula_sum   'La1 Y3 Sc4 O12'
_cell_volume   257.10678303
_cell_formula_units_Z   1
loop_
 _symmetry_equiv_pos_site_id
 _symmetry_equiv_pos_as_xyz
  1  'x, y, z'
loop_
 _atom_site_type_symbol
 _atom_site_label
 _atom_site_symmetry_multiplicity
 _atom_site_fract_x
 _atom_site_fract_y
 _atom_site_fract_z
 _atom_site_occupancy
  La  La0  1  0.50000000  0.51448700  0.44687400  1
  Y  Y1  1  0.50000000  0.97895400  0.94013400  1
  Y  Y2  1  0.00000000  0.48137000  0.56294900  1
  Y  Y3  1  0.00000000  0.01554300  0.05928200  1
  Sc  Sc4  1  0.24656800  0.50077900  0.00111300  1
  Sc  Sc5  1  0.75422700  0.99935100  0.50090700  1
  Sc  Sc6  1  0.75343200  0.50077900  0.00111300  1
  Sc  Sc7  1  0.24577300  0.99935100  0.50090700  1
  O  O8  1  0.50000000  0.37254700  0.03876400  1
  O  O9  1  0.50000000  0.10305600  0.55415200  1
  O  O10  1  0.00000000  0.62851300  0.94425700  1
  O  O11  1  0.00000000  0.86882200  0.44100200  1
  O  O12  1  0.18002800  0.19678600  0.80337800  1
  O  O13  1  0.81809200  0.30898300  0.30769200  1
  O  O14  1  0.68831900  0.81319500  0.19055100  1
  O  O15  1  0.30770200  0.69926200  0.70265200  1
  O  O16  1  0.31168100  0.81319500  0.19055100  1
  O  O17  1  0.69229800  0.69926200  0.70265200  1
  O  O18  1  0.81997200  0.19678600  0.80337800  1
  O  O19  1  0.18190800  0.30898300  0.30769200  1
