# generated using pymatgen
data_LaNdZr2O7
_symmetry_space_group_name_H-M   'P 1'
_cell_length_a   7.66667687
_cell_length_b   7.66667687
_cell_length_c   7.66667687
_cell_angle_alpha   120.01664441
_cell_angle_beta   119.98564749
_cell_angle_gamma   89.99801727
_symmetry_Int_Tables_number   1
_chemical_formula_structural   LaNdZr2O7
_chemical_formula_sum   'La2 Nd2 Zr4 O14'
_cell_volume   318.63898993
_cell_formula_units_Z   2
loop_
 _symmetry_equiv_pos_site_id
 _symmetry_equiv_pos_as_xyz
  1  'x, y, z'
loop_
 _atom_site_type_symbol
 _atom_site_label
 _atom_site_symmetry_multiplicity
 _atom_site_fract_x
 _atom_site_fract_y
 _atom_site_fract_z
 _atom_site_occupancy
  La  La0  1  0.50000000  0.50000000  0.00000000  1
  La  La1  1  0.00000000  0.50000000  0.50000000  1
  Nd  Nd2  1  0.50000000  0.50000000  0.50000000  1
  Nd  Nd3  1  0.50000000  0.00000000  0.00000000  1
  Zr  Zr4  1  0.00000000  0.00000000  0.50000000  1
  Zr  Zr5  1  0.00000000  0.50000000  0.00000000  1
  Zr  Zr6  1  0.00000000  0.00000000  0.00000000  1
  Zr  Zr7  1  0.50000000  0.00000000  0.50000000  1
  O  O8  1  0.37763900  0.62763900  0.75000000  1
  O  O9  1  0.62236100  0.37236100  0.25000000  1
  O  O10  1  0.33531200  0.08531200  0.25000000  1
  O  O11  1  0.91656600  0.66656600  0.25000000  1
  O  O12  1  0.33443600  0.66564400  0.25160200  1
  O  O13  1  0.91404300  0.08283500  0.24839800  1
  O  O14  1  0.33443600  0.08283500  0.66879200  1
  O  O15  1  0.91404300  0.66564400  0.83120800  1
  O  O16  1  0.66468800  0.91468800  0.75000000  1
  O  O17  1  0.08343400  0.33343400  0.75000000  1
  O  O18  1  0.66556400  0.33435600  0.74839800  1
  O  O19  1  0.08595700  0.91716500  0.75160200  1
  O  O20  1  0.66556400  0.91716500  0.33120800  1
  O  O21  1  0.08595700  0.33435600  0.16879200  1
