# generated using pymatgen
data_Mg6Si5
_symmetry_space_group_name_H-M   'P 1'
_cell_length_a   3.97818300
_cell_length_b   6.93550652
_cell_length_c   15.91139354
_cell_angle_alpha   101.15219574
_cell_angle_beta   96.79482823
_cell_angle_gamma   90.53160093
_symmetry_Int_Tables_number   1
_chemical_formula_structural   Mg6Si5
_chemical_formula_sum   'Mg12 Si10'
_cell_volume   427.45849540
_cell_formula_units_Z   2
loop_
 _symmetry_equiv_pos_site_id
 _symmetry_equiv_pos_as_xyz
  1  'x, y, z'
loop_
 _atom_site_type_symbol
 _atom_site_label
 _atom_site_symmetry_multiplicity
 _atom_site_fract_x
 _atom_site_fract_y
 _atom_site_fract_z
 _atom_site_occupancy
  Mg  Mg0  1  0.77018000  0.33008100  0.05570400  1
  Mg  Mg1  1  0.48906400  0.89780300  0.50191600  1
  Mg  Mg2  1  0.91528500  0.64733600  0.35680400  1
  Mg  Mg3  1  0.06552400  0.15699900  0.64987800  1
  Mg  Mg4  1  0.64763900  0.24888800  0.82409800  1
  Mg  Mg5  1  0.33575200  0.56938200  0.18801100  1
  Mg  Mg6  1  0.95364700  0.17231900  0.42589200  1
  Mg  Mg7  1  0.02438700  0.61601400  0.57599000  1
  Mg  Mg8  1  0.22860400  0.56986600  0.97440200  1
  Mg  Mg9  1  0.28848100  0.97735700  0.11398300  1
  Mg  Mg10  1  0.68184700  0.78281800  0.88246100  1
  Mg  Mg11  1  0.21006400  0.09694200  0.94342700  1
  Si  Si12  1  0.52119600  0.29684700  0.55357900  1
  Si  Si13  1  0.45953500  0.49650100  0.44890300  1
  Si  Si14  1  0.85225300  0.24890500  0.21587900  1
  Si  Si15  1  0.12559900  0.53106200  0.78793000  1
  Si  Si16  1  0.57997700  0.86677600  0.68110800  1
  Si  Si17  1  0.39802400  0.92886200  0.32300600  1
  Si  Si18  1  0.85051800  0.87157500  0.22178700  1
  Si  Si19  1  0.12346300  0.90637200  0.77770400  1
  Si  Si20  1  0.58380800  0.50916000  0.69505100  1
  Si  Si21  1  0.39503400  0.28540400  0.30609600  1
