# generated using pymatgen
data_LaPr3(GaO3)4
_symmetry_space_group_name_H-M   'P 1'
_cell_length_a   7.85951100
_cell_length_b   5.53851200
_cell_length_c   5.57012347
_cell_angle_alpha   89.97653702
_cell_angle_beta   90.00000000
_cell_angle_gamma   90.00000000
_symmetry_Int_Tables_number   1
_chemical_formula_structural   LaPr3(GaO3)4
_chemical_formula_sum   'La1 Pr3 Ga4 O12'
_cell_volume   242.46743184
_cell_formula_units_Z   1
loop_
 _symmetry_equiv_pos_site_id
 _symmetry_equiv_pos_as_xyz
  1  'x, y, z'
loop_
 _atom_site_type_symbol
 _atom_site_label
 _atom_site_symmetry_multiplicity
 _atom_site_fract_x
 _atom_site_fract_y
 _atom_site_fract_z
 _atom_site_occupancy
  La  La0  1  0.50000000  0.49209800  0.53132000  1
  Pr  Pr1  1  0.50000000  0.00933200  0.03667600  1
  Pr  Pr2  1  0.00000000  0.50961400  0.46231200  1
  Pr  Pr3  1  0.00000000  0.99132100  0.96300700  1
  Ga  Ga4  1  0.24935800  0.00011000  0.50043800  1
  Ga  Ga5  1  0.75039800  0.49998400  0.99905500  1
  Ga  Ga6  1  0.75064200  0.00011000  0.50043800  1
  Ga  Ga7  1  0.24960200  0.49998400  0.99905500  1
  O  O8  1  0.50000000  0.57917300  0.98558200  1
  O  O9  1  0.50000000  0.92452700  0.48316700  1
  O  O10  1  0.00000000  0.42125000  0.01726700  1
  O  O11  1  0.00000000  0.07962700  0.51710700  1
  O  O12  1  0.29127800  0.21377300  0.78696000  1
  O  O13  1  0.70863100  0.28316500  0.28418700  1
  O  O14  1  0.79263600  0.78358400  0.21577400  1
  O  O15  1  0.20632000  0.71591300  0.71536700  1
  O  O16  1  0.20736400  0.78358400  0.21577400  1
  O  O17  1  0.79368000  0.71591300  0.71536700  1
  O  O18  1  0.70872200  0.21377300  0.78696000  1
  O  O19  1  0.29136900  0.28316500  0.28418700  1
