# generated using pymatgen
data_LaYb(Mo3Se4)4
_symmetry_space_group_name_H-M   'P 1'
_cell_length_a   6.79888600
_cell_length_b   6.82766139
_cell_length_c   13.72323415
_cell_angle_alpha   88.95817367
_cell_angle_beta   89.15794110
_cell_angle_gamma   88.79122664
_symmetry_Int_Tables_number   1
_chemical_formula_structural   LaYb(Mo3Se4)4
_chemical_formula_sum   'La1 Yb1 Mo12 Se16'
_cell_volume   636.72694585
_cell_formula_units_Z   1
loop_
 _symmetry_equiv_pos_site_id
 _symmetry_equiv_pos_as_xyz
  1  'x, y, z'
loop_
 _atom_site_type_symbol
 _atom_site_label
 _atom_site_symmetry_multiplicity
 _atom_site_fract_x
 _atom_site_fract_y
 _atom_site_fract_z
 _atom_site_occupancy
  La  La0  1  0.00000000  0.00000000  0.00000000  1
  Yb  Yb1  1  0.00000000  0.00000000  0.50000000  1
  Mo  Mo2  1  0.57657600  0.76438900  0.22074900  1
  Mo  Mo3  1  0.57611600  0.76287600  0.71932500  1
  Mo  Mo4  1  0.76133200  0.44103900  0.28813800  1
  Mo  Mo5  1  0.75971000  0.43846700  0.78663800  1
  Mo  Mo6  1  0.44035900  0.57663700  0.38311200  1
  Mo  Mo7  1  0.43878800  0.57645000  0.88209300  1
  Mo  Mo8  1  0.42388400  0.23712400  0.28067500  1
  Mo  Mo9  1  0.42342400  0.23561100  0.77925100  1
  Mo  Mo10  1  0.24029000  0.56153300  0.21336200  1
  Mo  Mo11  1  0.23866800  0.55896100  0.71186200  1
  Mo  Mo12  1  0.56121200  0.42355000  0.11790700  1
  Mo  Mo13  1  0.55964100  0.42336300  0.61688800  1
  Se  Se14  1  0.75857700  0.76142800  0.37996200  1
  Se  Se15  1  0.75625700  0.75939200  0.87854100  1
  Se  Se16  1  0.24374300  0.24060800  0.12145900  1
  Se  Se17  1  0.24142300  0.23857200  0.62003800  1
  Se  Se18  1  0.62605100  0.24901700  0.43857800  1
  Se  Se19  1  0.62367800  0.24864500  0.93851000  1
  Se  Se20  1  0.24913900  0.87762400  0.31409800  1
  Se  Se21  1  0.24696900  0.87696900  0.81223100  1
  Se  Se22  1  0.87626600  0.62441900  0.12303700  1
  Se  Se23  1  0.87560300  0.62502100  0.62326900  1
  Se  Se24  1  0.37632200  0.75135500  0.06149000  1
  Se  Se25  1  0.37394900  0.75098300  0.56142200  1
  Se  Se26  1  0.75303100  0.12303100  0.18776900  1
  Se  Se27  1  0.75086100  0.12237600  0.68590200  1
  Se  Se28  1  0.12439700  0.37497900  0.37673100  1
  Se  Se29  1  0.12373400  0.37558100  0.87696300  1
