# generated using pymatgen
data_LaTiNbO6
_symmetry_space_group_name_H-M   'P 1'
_cell_length_a   5.48200600
_cell_length_b   7.64754000
_cell_length_c   11.16186100
_cell_angle_alpha   90.00000000
_cell_angle_beta   90.00000000
_cell_angle_gamma   90.00000000
_symmetry_Int_Tables_number   1
_chemical_formula_structural   LaTiNbO6
_chemical_formula_sum   'La4 Ti4 Nb4 O24'
_cell_volume   467.94829975
_cell_formula_units_Z   4
loop_
 _symmetry_equiv_pos_site_id
 _symmetry_equiv_pos_as_xyz
  1  'x, y, z'
loop_
 _atom_site_type_symbol
 _atom_site_label
 _atom_site_symmetry_multiplicity
 _atom_site_fract_x
 _atom_site_fract_y
 _atom_site_fract_z
 _atom_site_occupancy
  La  La0  1  0.95573900  0.25035500  0.54083900  1
  La  La1  1  0.54426100  0.25035500  0.04083900  1
  La  La2  1  0.04426100  0.75035500  0.45916100  1
  La  La3  1  0.45573900  0.75035500  0.95916100  1
  Ti  Ti4  1  0.46957200  0.50743900  0.64221800  1
  Ti  Ti5  1  0.53042800  0.00743900  0.35778200  1
  Ti  Ti6  1  0.96957200  0.00743900  0.85778200  1
  Ti  Ti7  1  0.03042800  0.50743900  0.14221800  1
  Nb  Nb8  1  0.03564900  0.99450000  0.14626400  1
  Nb  Nb9  1  0.96435100  0.49450000  0.85373600  1
  Nb  Nb10  1  0.53564900  0.49450000  0.35373600  1
  Nb  Nb11  1  0.46435100  0.99450000  0.64626400  1
  O  O12  1  0.13026900  0.44657400  0.70845700  1
  O  O13  1  0.37749500  0.05208600  0.21073600  1
  O  O14  1  0.86973100  0.94657400  0.29154300  1
  O  O15  1  0.62250500  0.55208600  0.78926400  1
  O  O16  1  0.87749500  0.55208600  0.28926400  1
  O  O17  1  0.63026900  0.94657400  0.79154300  1
  O  O18  1  0.12250500  0.05208600  0.71073600  1
  O  O19  1  0.36973100  0.44657400  0.20845700  1
  O  O20  1  0.26838800  0.46622600  0.47278600  1
  O  O21  1  0.23130400  0.03377200  0.97062600  1
  O  O22  1  0.73161200  0.96622600  0.52721400  1
  O  O23  1  0.76869600  0.53377200  0.02937400  1
  O  O24  1  0.73130400  0.53377200  0.52937400  1
  O  O25  1  0.76838800  0.96622600  0.02721400  1
  O  O26  1  0.26869600  0.03377200  0.47062600  1
  O  O27  1  0.23161200  0.46622600  0.97278600  1
  O  O28  1  0.53676300  0.25174900  0.64253600  1
  O  O29  1  0.96323700  0.25174900  0.14253600  1
  O  O30  1  0.46323700  0.75174900  0.35746400  1
  O  O31  1  0.03676300  0.75174900  0.85746400  1
  O  O32  1  0.35112200  0.74730000  0.62294600  1
  O  O33  1  0.14887800  0.74730000  0.12294600  1
  O  O34  1  0.64887800  0.24730000  0.37705400  1
  O  O35  1  0.85112200  0.24730000  0.87705400  1
