# generated using pymatgen
data_LaMn8Bi3O20
_symmetry_space_group_name_H-M   'P 1'
_cell_length_a   5.86615100
_cell_length_b   7.66946600
_cell_length_c   8.67757582
_cell_angle_alpha   89.91833068
_cell_angle_beta   90.00000000
_cell_angle_gamma   90.00000000
_symmetry_Int_Tables_number   1
_chemical_formula_structural   LaMn8Bi3O20
_chemical_formula_sum   'La1 Mn8 Bi3 O20'
_cell_volume   390.40587093
_cell_formula_units_Z   1
loop_
 _symmetry_equiv_pos_site_id
 _symmetry_equiv_pos_as_xyz
  1  'x, y, z'
loop_
 _atom_site_type_symbol
 _atom_site_label
 _atom_site_symmetry_multiplicity
 _atom_site_fract_x
 _atom_site_fract_y
 _atom_site_fract_z
 _atom_site_occupancy
  La  La0  1  0.00000000  0.35733500  0.66753600  1
  Mn  Mn1  1  0.50000000  0.09077500  0.84839500  1
  Mn  Mn2  1  0.50000000  0.90579800  0.15047000  1
  Mn  Mn3  1  0.50000000  0.59690200  0.64924900  1
  Mn  Mn4  1  0.50000000  0.40701400  0.34906700  1
  Mn  Mn5  1  0.74164100  0.49988000  0.00121300  1
  Mn  Mn6  1  0.25802400  0.99941900  0.50055500  1
  Mn  Mn7  1  0.25835900  0.49988000  0.00121300  1
  Mn  Mn8  1  0.74197600  0.99941900  0.50055500  1
  Bi  Bi9  1  0.00000000  0.65973800  0.33222500  1
  Bi  Bi10  1  0.00000000  0.84808200  0.83463200  1
  Bi  Bi11  1  0.00000000  0.15482300  0.16669000  1
  O  O12  1  0.50000000  0.35415600  0.92741700  1
  O  O13  1  0.50000000  0.64565200  0.07219400  1
  O  O14  1  0.50000000  0.85244000  0.57080800  1
  O  O15  1  0.50000000  0.14563600  0.42786500  1
  O  O16  1  0.71716300  0.50111900  0.49960700  1
  O  O17  1  0.28208000  0.99967000  0.00052200  1
  O  O18  1  0.28283700  0.50111900  0.49960700  1
  O  O19  1  0.71792000  0.99967000  0.00052200  1
  O  O20  1  0.00000000  0.34577100  0.94687200  1
  O  O21  1  0.00000000  0.65565700  0.05606300  1
  O  O22  1  0.00000000  0.84360500  0.55629000  1
  O  O23  1  0.00000000  0.15228100  0.44175300  1
  O  O24  1  0.74760800  0.10629300  0.70218700  1
  O  O25  1  0.74983300  0.88772800  0.29794300  1
  O  O26  1  0.24802500  0.60991100  0.79727800  1
  O  O27  1  0.25090800  0.38814600  0.20193200  1
  O  O28  1  0.25016700  0.88772800  0.29794300  1
  O  O29  1  0.25239200  0.10629300  0.70218700  1
  O  O30  1  0.74909200  0.38814600  0.20193200  1
  O  O31  1  0.75197500  0.60991100  0.79727800  1
