# generated using pymatgen
data_LaGePd
_symmetry_space_group_name_H-M   'P 1'
_cell_length_a   5.74694579
_cell_length_b   5.74694579
_cell_length_c   7.67467346
_cell_angle_alpha   50.93336412
_cell_angle_beta   50.93336412
_cell_angle_gamma   46.84431703
_symmetry_Int_Tables_number   1
_chemical_formula_structural   LaGePd
_chemical_formula_sum   'La2 Ge2 Pd2'
_cell_volume   134.39753747
_cell_formula_units_Z   2
loop_
 _symmetry_equiv_pos_site_id
 _symmetry_equiv_pos_as_xyz
  1  'x, y, z'
loop_
 _atom_site_type_symbol
 _atom_site_label
 _atom_site_symmetry_multiplicity
 _atom_site_fract_x
 _atom_site_fract_y
 _atom_site_fract_z
 _atom_site_occupancy
  La  La0  1  0.53351500  0.53351500  0.70601000  1
  La  La1  1  0.46648500  0.46648500  0.29399000  1
  Ge  Ge2  1  0.83924700  0.83924700  0.11073500  1
  Ge  Ge3  1  0.16075300  0.16075300  0.88926500  1
  Pd  Pd4  1  0.18561900  0.18561900  0.27811300  1
  Pd  Pd5  1  0.81438100  0.81438100  0.72188700  1
