# generated using pymatgen
data_LaNd3Cr4O12
_symmetry_space_group_name_H-M   'P 1'
_cell_length_a   7.84440800
_cell_length_b   5.50444100
_cell_length_c   5.60588673
_cell_angle_alpha   89.97072807
_cell_angle_beta   90.00000000
_cell_angle_gamma   90.00000000
_symmetry_Int_Tables_number   1
_chemical_formula_structural   LaNd3Cr4O12
_chemical_formula_sum   'La1 Nd3 Cr4 O12'
_cell_volume   242.05700576
_cell_formula_units_Z   1
loop_
 _symmetry_equiv_pos_site_id
 _symmetry_equiv_pos_as_xyz
  1  'x, y, z'
loop_
 _atom_site_type_symbol
 _atom_site_label
 _atom_site_symmetry_multiplicity
 _atom_site_fract_x
 _atom_site_fract_y
 _atom_site_fract_z
 _atom_site_occupancy
  La  La0  1  0.50000000  0.49161600  0.54035800  1
  Nd  Nd1  1  0.50000000  0.01089200  0.04760800  1
  Nd  Nd2  1  0.00000000  0.51129700  0.45052200  1
  Nd  Nd3  1  0.00000000  0.98971700  0.95216400  1
  Cr  Cr4  1  0.24879300  0.00029600  0.50049000  1
  Cr  Cr5  1  0.75083200  0.49953800  0.99899300  1
  Cr  Cr6  1  0.75120700  0.00029600  0.50049000  1
  Cr  Cr7  1  0.24916800  0.49953800  0.99899300  1
  O  O8  1  0.50000000  0.58770200  0.98127700  1
  O  O9  1  0.50000000  0.92018400  0.47563200  1
  O  O10  1  0.00000000  0.41263100  0.02385900  1
  O  O11  1  0.00000000  0.08832500  0.52479800  1
  O  O12  1  0.29409700  0.20337000  0.79561000  1
  O  O13  1  0.70662600  0.29162100  0.29093300  1
  O  O14  1  0.79682200  0.79228600  0.20833700  1
  O  O15  1  0.20208100  0.70670700  0.70752800  1
  O  O16  1  0.20317800  0.79228600  0.20833700  1
  O  O17  1  0.79791900  0.70670700  0.70752800  1
  O  O18  1  0.70590300  0.20337000  0.79561000  1
  O  O19  1  0.29337400  0.29162100  0.29093300  1
