# generated using pymatgen
data_LaTaBi2O7
_symmetry_space_group_name_H-M   'P 1'
_cell_length_a   7.83336273
_cell_length_b   7.83336273
_cell_length_c   7.83336273
_cell_angle_alpha   120.47128429
_cell_angle_beta   119.91422842
_cell_angle_gamma   89.66714013
_symmetry_Int_Tables_number   1
_chemical_formula_structural   LaTaBi2O7
_chemical_formula_sum   'La2 Ta2 Bi4 O14'
_cell_volume   338.87667929
_cell_formula_units_Z   2
loop_
 _symmetry_equiv_pos_site_id
 _symmetry_equiv_pos_as_xyz
  1  'x, y, z'
loop_
 _atom_site_type_symbol
 _atom_site_label
 _atom_site_symmetry_multiplicity
 _atom_site_fract_x
 _atom_site_fract_y
 _atom_site_fract_z
 _atom_site_occupancy
  La  La0  1  0.00000000  0.50000000  0.00000000  1
  La  La1  1  0.00000000  0.00000000  0.50000000  1
  Ta  Ta2  1  0.00000000  0.50000000  0.50000000  1
  Ta  Ta3  1  0.50000000  0.50000000  0.00000000  1
  Bi  Bi4  1  0.50000000  0.00000000  0.00000000  1
  Bi  Bi5  1  0.50000000  0.50000000  0.50000000  1
  Bi  Bi6  1  0.50000000  0.00000000  0.50000000  1
  Bi  Bi7  1  0.00000000  0.00000000  0.00000000  1
  O  O8  1  0.23239000  0.48239000  0.75000000  1
  O  O9  1  0.88029300  0.13029300  0.75000000  1
  O  O10  1  0.38346000  0.18621300  0.81811400  1
  O  O11  1  0.86809900  0.56534600  0.68188600  1
  O  O12  1  0.38346000  0.56534600  0.19724700  1
  O  O13  1  0.86809900  0.18621300  0.30275300  1
  O  O14  1  0.76761000  0.51761000  0.25000000  1
  O  O15  1  0.11970700  0.86970700  0.25000000  1
  O  O16  1  0.61654000  0.81378700  0.18188600  1
  O  O17  1  0.13190100  0.43465400  0.31811400  1
  O  O18  1  0.61654000  0.43465400  0.80275300  1
  O  O19  1  0.13190100  0.81378700  0.69724700  1
  O  O20  1  0.61834400  0.86834400  0.75000000  1
  O  O21  1  0.38165600  0.13165600  0.25000000  1
