# generated using pymatgen
data_LaSbSe3
_symmetry_space_group_name_H-M   'P 1'
_cell_length_a   4.11809900
_cell_length_b   11.18400800
_cell_length_c   12.25545800
_cell_angle_alpha   90.00000000
_cell_angle_beta   90.00000000
_cell_angle_gamma   90.00000000
_symmetry_Int_Tables_number   1
_chemical_formula_structural   LaSbSe3
_chemical_formula_sum   'La4 Sb4 Se12'
_cell_volume   564.44781727
_cell_formula_units_Z   4
loop_
 _symmetry_equiv_pos_site_id
 _symmetry_equiv_pos_as_xyz
  1  'x, y, z'
loop_
 _atom_site_type_symbol
 _atom_site_label
 _atom_site_symmetry_multiplicity
 _atom_site_fract_x
 _atom_site_fract_y
 _atom_site_fract_z
 _atom_site_occupancy
  La  La0  1  0.75000000  0.50287400  0.68187200  1
  La  La1  1  0.75000000  0.99712600  0.18187200  1
  La  La2  1  0.25000000  0.49712600  0.31812800  1
  La  La3  1  0.25000000  0.00287400  0.81812800  1
  Sb  Sb4  1  0.25000000  0.19191800  0.53441000  1
  Sb  Sb5  1  0.25000000  0.30808200  0.03441000  1
  Sb  Sb6  1  0.75000000  0.80808200  0.46559000  1
  Sb  Sb7  1  0.75000000  0.69191800  0.96559000  1
  Se  Se8  1  0.25000000  0.30519500  0.72141200  1
  Se  Se9  1  0.25000000  0.19480500  0.22141200  1
  Se  Se10  1  0.75000000  0.69480500  0.27858800  1
  Se  Se11  1  0.75000000  0.80519500  0.77858800  1
  Se  Se12  1  0.25000000  0.63416300  0.53960700  1
  Se  Se13  1  0.25000000  0.86583700  0.03960700  1
  Se  Se14  1  0.75000000  0.36583700  0.46039300  1
  Se  Se15  1  0.75000000  0.13416300  0.96039300  1
  Se  Se16  1  0.75000000  0.04474600  0.62505400  1
  Se  Se17  1  0.75000000  0.45525400  0.12505400  1
  Se  Se18  1  0.25000000  0.95525400  0.37494600  1
  Se  Se19  1  0.25000000  0.54474600  0.87494600  1
