# generated using pymatgen
data_Li2SnO4
_symmetry_space_group_name_H-M   'P 1'
_cell_length_a   3.15172032
_cell_length_b   5.04061583
_cell_length_c   6.33671611
_cell_angle_alpha   115.39624488
_cell_angle_beta   117.87059021
_cell_angle_gamma   90.05056138
_symmetry_Int_Tables_number   1
_chemical_formula_structural   Li2SnO4
_chemical_formula_sum   'Li2 Sn1 O4'
_cell_volume   77.79416387
_cell_formula_units_Z   1
loop_
 _symmetry_equiv_pos_site_id
 _symmetry_equiv_pos_as_xyz
  1  'x, y, z'
loop_
 _atom_site_type_symbol
 _atom_site_label
 _atom_site_symmetry_multiplicity
 _atom_site_fract_x
 _atom_site_fract_y
 _atom_site_fract_z
 _atom_site_occupancy
  Li  Li0  1  0.82039600  0.71145200  0.33359500  1
  Li  Li1  1  0.17960400  0.28854800  0.66640500  1
  Sn  Sn2  1  0.00000000  0.00000000  0.00000000  1
  O  O3  1  0.24627800  0.92832700  0.72967900  1
  O  O4  1  0.75372200  0.07167300  0.27032100  1
  O  O5  1  0.12285100  0.48163600  0.12479000  1
  O  O6  1  0.87714900  0.51836400  0.87521000  1
