# generated using pymatgen
data_LaNi5H6
_symmetry_space_group_name_H-M   'P 1'
_cell_length_a   5.30136049
_cell_length_b   5.30136049
_cell_length_c   4.20129400
_cell_angle_alpha   90.00000000
_cell_angle_beta   90.00000000
_cell_angle_gamma   120.00000611
_symmetry_Int_Tables_number   1
_chemical_formula_structural   LaNi5H6
_chemical_formula_sum   'La1 Ni5 H6'
_cell_volume   102.25589467
_cell_formula_units_Z   1
loop_
 _symmetry_equiv_pos_site_id
 _symmetry_equiv_pos_as_xyz
  1  'x, y, z'
loop_
 _atom_site_type_symbol
 _atom_site_label
 _atom_site_symmetry_multiplicity
 _atom_site_fract_x
 _atom_site_fract_y
 _atom_site_fract_z
 _atom_site_occupancy
  La  La0  1  0.66666700  0.33333300  0.89614900  1
  Ni  Ni1  1  0.64646000  0.82323000  0.49948600  1
  Ni  Ni2  1  0.17677000  0.82323000  0.49948600  1
  Ni  Ni3  1  0.17677000  0.35354000  0.49948600  1
  Ni  Ni4  1  0.00000000  0.00000000  0.04944400  1
  Ni  Ni5  1  0.33333300  0.66666700  0.01626300  1
  H  H6  1  0.67478900  0.83739500  0.88694300  1
  H  H7  1  0.16260500  0.83739500  0.88694300  1
  H  H8  1  0.16260500  0.32521100  0.88694300  1
  H  H9  1  0.31262300  0.15631200  0.36153200  1
  H  H10  1  0.84368800  0.15631200  0.36153200  1
  H  H11  1  0.84368800  0.68737700  0.36153200  1
