# generated using pymatgen
data_LaC2
_symmetry_space_group_name_H-M   'P 1'
_cell_length_a   4.16261292
_cell_length_b   4.16261292
_cell_length_c   4.16261292
_cell_angle_alpha   81.62291068
_cell_angle_beta   71.60312790
_cell_angle_gamma   122.59622820
_symmetry_Int_Tables_number   1
_chemical_formula_structural   LaC2
_chemical_formula_sum   'La1 C2'
_cell_volume   52.97389035
_cell_formula_units_Z   1
loop_
 _symmetry_equiv_pos_site_id
 _symmetry_equiv_pos_as_xyz
  1  'x, y, z'
loop_
 _atom_site_type_symbol
 _atom_site_label
 _atom_site_symmetry_multiplicity
 _atom_site_fract_x
 _atom_site_fract_y
 _atom_site_fract_z
 _atom_site_occupancy
  La  La0  1  0.00000000  0.54039100  0.45960900  1
  C  C1  1  0.13321600  0.04080400  0.82598000  1
  C  C2  1  0.86678400  0.04080400  0.09241200  1
