# generated using pymatgen
data_LaTh4OF19
_symmetry_space_group_name_H-M   'P 1'
_cell_length_a   8.26519300
_cell_length_b   7.35591000
_cell_length_c   12.23825405
_cell_angle_alpha   72.64538747
_cell_angle_beta   90.00000000
_cell_angle_gamma   90.00000000
_symmetry_Int_Tables_number   1
_chemical_formula_structural   LaTh4OF19
_chemical_formula_sum   'La2 Th8 O2 F38'
_cell_volume   710.18958757
_cell_formula_units_Z   2
loop_
 _symmetry_equiv_pos_site_id
 _symmetry_equiv_pos_as_xyz
  1  'x, y, z'
loop_
 _atom_site_type_symbol
 _atom_site_label
 _atom_site_symmetry_multiplicity
 _atom_site_fract_x
 _atom_site_fract_y
 _atom_site_fract_z
 _atom_site_occupancy
  La  La0  1  0.25000000  0.29564300  0.38412700  1
  La  La1  1  0.75000000  0.70435700  0.61587300  1
  Th  Th2  1  0.75000000  0.65269500  0.99884600  1
  Th  Th3  1  0.25000000  0.34730500  0.00115400  1
  Th  Th4  1  0.00033700  0.86312900  0.27341600  1
  Th  Th5  1  0.49966300  0.86312900  0.27341600  1
  Th  Th6  1  0.99966300  0.13687100  0.72658400  1
  Th  Th7  1  0.50033700  0.13687100  0.72658400  1
  Th  Th8  1  0.75000000  0.31920100  0.38510400  1
  Th  Th9  1  0.25000000  0.68079900  0.61489600  1
  O  O10  1  0.25000000  0.72086200  0.99999700  1
  O  O11  1  0.75000000  0.27913800  0.00000300  1
  F  F12  1  0.25000000  0.97300200  0.33962100  1
  F  F13  1  0.75000000  0.68483300  0.34071500  1
  F  F14  1  0.75000000  0.02699800  0.66037900  1
  F  F15  1  0.25000000  0.31516700  0.65928500  1
  F  F16  1  0.25000000  0.56482200  0.45992900  1
  F  F17  1  0.75000000  0.99324700  0.45458900  1
  F  F18  1  0.75000000  0.43517800  0.54007100  1
  F  F19  1  0.25000000  0.00675300  0.54541100  1
  F  F20  1  0.25000000  0.75665100  0.21825500  1
  F  F21  1  0.75000000  0.02168500  0.21834800  1
  F  F22  1  0.75000000  0.24334900  0.78174500  1
  F  F23  1  0.25000000  0.97831500  0.78165200  1
  F  F24  1  0.91656500  0.77486800  0.11706300  1
  F  F25  1  0.08274900  0.10659000  0.11711800  1
  F  F26  1  0.58343500  0.77486800  0.11706300  1
  F  F27  1  0.41725100  0.10659000  0.11711800  1
  F  F28  1  0.08343500  0.22513200  0.88293700  1
  F  F29  1  0.91725100  0.89341000  0.88288200  1
  F  F30  1  0.41656500  0.22513200  0.88293700  1
  F  F31  1  0.58274900  0.89341000  0.88288200  1
  F  F32  1  0.99620200  0.23639000  0.52314300  1
  F  F33  1  0.50379800  0.23639000  0.52314300  1
  F  F34  1  0.00379800  0.76361000  0.47685700  1
  F  F35  1  0.49620200  0.76361000  0.47685700  1
  F  F36  1  0.00000000  0.50000000  0.00000000  1
  F  F37  1  0.50000000  0.50000000  0.00000000  1
  F  F38  1  0.75000000  0.61769700  0.81769500  1
  F  F39  1  0.25000000  0.56906900  0.80971500  1
  F  F40  1  0.25000000  0.38230300  0.18230500  1
  F  F41  1  0.75000000  0.43093100  0.19028500  1
  F  F42  1  0.00468900  0.51330800  0.32755300  1
  F  F43  1  0.98387700  0.16136300  0.32568800  1
  F  F44  1  0.49531100  0.51330800  0.32755300  1
  F  F45  1  0.51612300  0.16136300  0.32568800  1
  F  F46  1  0.99531100  0.48669200  0.67244700  1
  F  F47  1  0.01612300  0.83863700  0.67431200  1
  F  F48  1  0.50468900  0.48669200  0.67244700  1
  F  F49  1  0.48387700  0.83863700  0.67431200  1
