# generated using pymatgen
data_La4Ni3MoO12
_symmetry_space_group_name_H-M   'P 1'
_cell_length_a   5.55632800
_cell_length_b   5.55632800
_cell_length_c   8.05767300
_cell_angle_alpha   90.00000000
_cell_angle_beta   90.00000000
_cell_angle_gamma   90.00000000
_symmetry_Int_Tables_number   1
_chemical_formula_structural   La4Ni3MoO12
_chemical_formula_sum   'La4 Ni3 Mo1 O12'
_cell_volume   248.76277264
_cell_formula_units_Z   1
loop_
 _symmetry_equiv_pos_site_id
 _symmetry_equiv_pos_as_xyz
  1  'x, y, z'
loop_
 _atom_site_type_symbol
 _atom_site_label
 _atom_site_symmetry_multiplicity
 _atom_site_fract_x
 _atom_site_fract_y
 _atom_site_fract_z
 _atom_site_occupancy
  La  La0  1  0.50000000  0.00000000  0.72020000  1
  La  La1  1  0.00000000  0.50000000  0.27980000  1
  La  La2  1  0.50000000  0.00000000  0.27980000  1
  La  La3  1  0.00000000  0.50000000  0.72020000  1
  Ni  Ni4  1  0.00000000  0.00000000  0.00000000  1
  Ni  Ni5  1  0.50000000  0.50000000  0.50000000  1
  Ni  Ni6  1  0.00000000  0.00000000  0.50000000  1
  Mo  Mo7  1  0.50000000  0.50000000  0.00000000  1
  O  O8  1  0.00000000  0.00000000  0.75266600  1
  O  O9  1  0.50000000  0.50000000  0.24397900  1
  O  O10  1  0.74829400  0.74829400  0.50000000  1
  O  O11  1  0.25738600  0.25738600  0.00000000  1
  O  O12  1  0.74829400  0.25170600  0.50000000  1
  O  O13  1  0.25738600  0.74261400  0.00000000  1
  O  O14  1  0.00000000  0.00000000  0.24733400  1
  O  O15  1  0.50000000  0.50000000  0.75602100  1
  O  O16  1  0.25170600  0.25170600  0.50000000  1
  O  O17  1  0.74261400  0.74261400  0.00000000  1
  O  O18  1  0.25170600  0.74829400  0.50000000  1
  O  O19  1  0.74261400  0.25738600  0.00000000  1
