# generated using pymatgen
data_LaHo3Mn8O20
_symmetry_space_group_name_H-M   'P 1'
_cell_length_a   5.79355800
_cell_length_b   7.43443500
_cell_length_c   8.61955642
_cell_angle_alpha   89.62316841
_cell_angle_beta   90.00000000
_cell_angle_gamma   90.00000000
_symmetry_Int_Tables_number   1
_chemical_formula_structural   LaHo3Mn8O20
_chemical_formula_sum   'La1 Ho3 Mn8 O20'
_cell_volume   371.25204253
_cell_formula_units_Z   1
loop_
 _symmetry_equiv_pos_site_id
 _symmetry_equiv_pos_as_xyz
  1  'x, y, z'
loop_
 _atom_site_type_symbol
 _atom_site_label
 _atom_site_symmetry_multiplicity
 _atom_site_fract_x
 _atom_site_fract_y
 _atom_site_fract_z
 _atom_site_occupancy
  La  La0  1  0.00000000  0.36225100  0.67039000  1
  Ho  Ho1  1  0.00000000  0.64294400  0.32709500  1
  Ho  Ho2  1  0.00000000  0.86042500  0.83037200  1
  Ho  Ho3  1  0.00000000  0.13892200  0.17000100  1
  Mn  Mn4  1  0.50000000  0.08545100  0.85144600  1
  Mn  Mn5  1  0.50000000  0.91033000  0.15122900  1
  Mn  Mn6  1  0.50000000  0.59567100  0.64934500  1
  Mn  Mn7  1  0.50000000  0.41300500  0.34704300  1
  Mn  Mn8  1  0.74480200  0.50117100  0.00230500  1
  Mn  Mn9  1  0.25440000  0.99651400  0.49846000  1
  Mn  Mn10  1  0.25519800  0.50117100  0.00230500  1
  Mn  Mn11  1  0.74560000  0.99651400  0.49846000  1
  O  O12  1  0.00000000  0.33805400  0.95137900  1
  O  O13  1  0.00000000  0.66324500  0.05793600  1
  O  O14  1  0.00000000  0.83433800  0.55642100  1
  O  O15  1  0.00000000  0.15647800  0.43774600  1
  O  O16  1  0.75663800  0.09170900  0.70840200  1
  O  O17  1  0.75959300  0.89335200  0.29216600  1
  O  O18  1  0.24607900  0.61382500  0.79591900  1
  O  O19  1  0.23989900  0.39325900  0.20726400  1
  O  O20  1  0.24040700  0.89335200  0.29216600  1
  O  O21  1  0.24336200  0.09170900  0.70840200  1
  O  O22  1  0.76010100  0.39325900  0.20726400  1
  O  O23  1  0.75392100  0.61382500  0.79591900  1
  O  O24  1  0.50000000  0.34875300  0.93291900  1
  O  O25  1  0.50000000  0.65149300  0.06908300  1
  O  O26  1  0.50000000  0.84686100  0.56256800  1
  O  O27  1  0.50000000  0.15180100  0.43422100  1
  O  O28  1  0.72503700  0.50964600  0.49379600  1
  O  O29  1  0.26862100  0.00051300  0.00209100  1
  O  O30  1  0.27496300  0.50964600  0.49379600  1
  O  O31  1  0.73137900  0.00051300  0.00209100  1
