# generated using pymatgen
data_La2TiCo16
_symmetry_space_group_name_H-M   'P 1'
_cell_length_a   6.38763665
_cell_length_b   6.38763701
_cell_length_c   6.38763665
_cell_angle_alpha   83.14700373
_cell_angle_beta   83.14700736
_cell_angle_gamma   83.14700373
_symmetry_Int_Tables_number   1
_chemical_formula_structural   La2TiCo16
_chemical_formula_sum   'La2 Ti1 Co16'
_cell_volume   255.45298766
_cell_formula_units_Z   1
loop_
 _symmetry_equiv_pos_site_id
 _symmetry_equiv_pos_as_xyz
  1  'x, y, z'
loop_
 _atom_site_type_symbol
 _atom_site_label
 _atom_site_symmetry_multiplicity
 _atom_site_fract_x
 _atom_site_fract_y
 _atom_site_fract_z
 _atom_site_occupancy
  La  La0  1  0.65464100  0.65464100  0.65464100  1
  La  La1  1  0.35134700  0.35134700  0.35134700  1
  Ti  Ti2  1  0.09300500  0.09300500  0.09300500  1
  Co  Co3  1  0.71177900  0.99820300  0.28741400  1
  Co  Co4  1  0.99820300  0.28741400  0.71177900  1
  Co  Co5  1  0.28741400  0.71177900  0.99820300  1
  Co  Co6  1  0.99820300  0.71177900  0.28741400  1
  Co  Co7  1  0.71177900  0.28741400  0.99820300  1
  Co  Co8  1  0.28741400  0.99820300  0.71177900  1
  Co  Co9  1  0.99820900  0.50516400  0.99820900  1
  Co  Co10  1  0.50516400  0.99820900  0.99820900  1
  Co  Co11  1  0.99820900  0.99820900  0.50516400  1
  Co  Co12  1  0.34331500  0.34331500  0.85238900  1
  Co  Co13  1  0.34331500  0.85238900  0.34331500  1
  Co  Co14  1  0.85238900  0.34331500  0.34331500  1
  Co  Co15  1  0.65885200  0.65885200  0.14585100  1
  Co  Co16  1  0.65885200  0.14585100  0.65885200  1
  Co  Co17  1  0.14585100  0.65885200  0.65885200  1
  Co  Co18  1  0.90205900  0.90205900  0.90205900  1
