# generated using pymatgen
data_La8Te3SeO8
_symmetry_space_group_name_H-M   'P 1'
_cell_length_a   4.11219000
_cell_length_b   4.11219000
_cell_length_c   26.22118600
_cell_angle_alpha   90.00000000
_cell_angle_beta   90.00000000
_cell_angle_gamma   90.00000000
_symmetry_Int_Tables_number   1
_chemical_formula_structural   La8Te3SeO8
_chemical_formula_sum   'La8 Te3 Se1 O8'
_cell_volume   443.40305034
_cell_formula_units_Z   1
loop_
 _symmetry_equiv_pos_site_id
 _symmetry_equiv_pos_as_xyz
  1  'x, y, z'
loop_
 _atom_site_type_symbol
 _atom_site_label
 _atom_site_symmetry_multiplicity
 _atom_site_fract_x
 _atom_site_fract_y
 _atom_site_fract_z
 _atom_site_occupancy
  La  La0  1  0.50000000  0.50000000  0.07781200  1
  La  La1  1  0.00000000  0.00000000  0.32918500  1
  La  La2  1  0.50000000  0.50000000  0.57918000  1
  La  La3  1  0.00000000  0.00000000  0.82949900  1
  La  La4  1  0.00000000  0.00000000  0.17050100  1
  La  La5  1  0.50000000  0.50000000  0.42082000  1
  La  La6  1  0.00000000  0.00000000  0.67081500  1
  La  La7  1  0.50000000  0.50000000  0.92218800  1
  Te  Te8  1  0.50000000  0.50000000  0.24997700  1
  Te  Te9  1  0.00000000  0.00000000  0.50000000  1
  Te  Te10  1  0.50000000  0.50000000  0.75002300  1
  Se  Se11  1  0.00000000  0.00000000  0.00000000  1
  O  O12  1  0.50000000  0.00000000  0.12441300  1
  O  O13  1  0.00000000  0.50000000  0.37500400  1
  O  O14  1  0.50000000  0.00000000  0.62499600  1
  O  O15  1  0.00000000  0.50000000  0.87558700  1
  O  O16  1  0.00000000  0.50000000  0.12441300  1
  O  O17  1  0.50000000  0.00000000  0.37500400  1
  O  O18  1  0.00000000  0.50000000  0.62499600  1
  O  O19  1  0.50000000  0.00000000  0.87558700  1
