# generated using pymatgen
data_Na2Nb2C8S4N3ClO19
_symmetry_space_group_name_H-M   'P 1'
_cell_length_a   10.74870600
_cell_length_b   11.38389459
_cell_length_c   13.33065850
_cell_angle_alpha   98.34283795
_cell_angle_beta   93.83110197
_cell_angle_gamma   117.70286591
_symmetry_Int_Tables_number   1
_chemical_formula_structural   Na2Nb2C8S4N3ClO19
_chemical_formula_sum   'Na4 Nb4 C16 S8 N6 Cl2 O38'
_cell_volume   1412.02023949
_cell_formula_units_Z   2
loop_
 _symmetry_equiv_pos_site_id
 _symmetry_equiv_pos_as_xyz
  1  'x, y, z'
loop_
 _atom_site_type_symbol
 _atom_site_label
 _atom_site_symmetry_multiplicity
 _atom_site_fract_x
 _atom_site_fract_y
 _atom_site_fract_z
 _atom_site_occupancy
  Na  Na0  1  0.17432900  0.77524100  0.33485100  1
  Na  Na1  1  0.82567100  0.22475900  0.66514900  1
  Na  Na2  1  0.16546000  0.57079000  0.71689300  1
  Na  Na3  1  0.83454000  0.42921000  0.28310700  1
  Nb  Nb4  1  0.46389200  0.63415600  0.01493400  1
  Nb  Nb5  1  0.53610800  0.36584400  0.98506600  1
  Nb  Nb6  1  0.32393200  0.41131700  0.50530400  1
  Nb  Nb7  1  0.67606800  0.58868300  0.49469600  1
  C  C8  1  0.55697300  0.87907000  0.92316800  1
  C  C9  1  0.44302700  0.12093000  0.07683200  1
  C  C10  1  0.43542600  0.76324600  0.84146900  1
  C  C11  1  0.56457400  0.23675400  0.15853100  1
  C  C12  1  0.40824000  0.74337800  0.21472100  1
  C  C13  1  0.59176000  0.25662200  0.78527900  1
  C  C14  1  0.13884000  0.25526900  0.64286000  1
  C  C15  1  0.86116000  0.74473100  0.35714000  1
  C  C16  1  0.17918000  0.15477300  0.58098100  1
  C  C17  1  0.82082000  0.84522700  0.41901900  1
  C  C18  1  0.06299900  0.35601200  0.37272300  1
  C  C19  1  0.93700100  0.64398800  0.62727700  1
  C  C20  1  0.26982400  0.68809700  0.13663500  1
  C  C21  1  0.73017600  0.31190300  0.86336500  1
  C  C22  1  0.12556400  0.50607600  0.42680600  1
  C  C23  1  0.87443600  0.49392400  0.57319400  1
  S  S24  1  0.52233500  0.62860500  0.62062000  1
  S  S25  1  0.47766500  0.37139500  0.37938000  1
  S  S26  1  0.63686100  0.58570300  0.90823000  1
  S  S27  1  0.36313900  0.41429700  0.09177000  1
  S  S28  1  0.69281500  0.62176200  0.06326700  1
  S  S29  1  0.30718500  0.37823800  0.93673300  1
  S  S30  1  0.54620300  0.46238200  0.63297800  1
  S  S31  1  0.45379700  0.53761800  0.36702200  1
  N  N32  1  0.06117500  0.81323000  0.96401900  1
  N  N33  1  0.93882500  0.18677000  0.03598100  1
  N  N34  1  0.62031500  0.95684700  0.55788100  1
  N  N35  1  0.37968500  0.04315300  0.44211900  1
  N  N36  1  0.09626800  0.04553200  0.23812200  1
  N  N37  1  0.90373200  0.95446800  0.76187800  1
  Cl  Cl38  1  0.22599300  0.97265600  0.81575100  1
  Cl  Cl39  1  0.77400700  0.02734400  0.18424900  1
  O  O40  1  0.39214300  0.78115100  0.76079900  1
  O  O41  1  0.60785700  0.21884900  0.23920100  1
  O  O42  1  0.16244600  0.68641600  0.16484000  1
  O  O43  1  0.83755400  0.31358400  0.83516000  1
  O  O44  1  0.50671800  0.72588000  0.17392800  1
  O  O45  1  0.49328200  0.27412000  0.82607200  1
  O  O46  1  0.04176400  0.53190600  0.87391900  1
  O  O47  1  0.95823600  0.46809400  0.12608100  1
  O  O48  1  0.26984900  0.21407400  0.51815800  1
  O  O49  1  0.73015100  0.78592600  0.48184200  1
  O  O50  1  0.61964700  0.99586700  0.91435300  1
  O  O51  1  0.38035300  0.00413300  0.08564700  1
  O  O52  1  0.04400000  0.22316400  0.69542900  1
  O  O53  1  0.95600000  0.77683600  0.30457100  1
  O  O54  1  0.12927900  0.03751100  0.58940500  1
  O  O55  1  0.87072100  0.96248900  0.41059500  1
  O  O56  1  0.07093500  0.57473100  0.40118600  1
  O  O57  1  0.92906500  0.42526900  0.59881400  1
  O  O58  1  0.23448100  0.54754600  0.49655900  1
  O  O59  1  0.76551900  0.45245400  0.50344100  1
  O  O60  1  0.28007700  0.63922800  0.04400100  1
  O  O61  1  0.71992300  0.36077200  0.95599900  1
  O  O62  1  0.62801600  0.95340900  0.64842200  1
  O  O63  1  0.37198400  0.04659100  0.35157800  1
  O  O64  1  0.38396300  0.64420400  0.86816300  1
  O  O65  1  0.61603700  0.35579600  0.13183700  1
  O  O66  1  0.14413200  0.30321800  0.39809900  1
  O  O67  1  0.85586800  0.69678200  0.60190100  1
  O  O68  1  0.58022000  0.83043400  0.00512500  1
  O  O69  1  0.41978000  0.16956600  0.99487500  1
  O  O70  1  0.31501300  0.95525700  0.48933100  1
  O  O71  1  0.68498700  0.04474300  0.51066900  1
  O  O72  1  0.41203800  0.78837300  0.30546200  1
  O  O73  1  0.58796200  0.21162700  0.69453800  1
  O  O74  1  0.95024300  0.29745700  0.31398800  1
  O  O75  1  0.04975700  0.70254300  0.68601200  1
  O  O76  1  0.21554900  0.38278100  0.62886100  1
  O  O77  1  0.78445100  0.61721900  0.37113900  1
