# generated using pymatgen
data_La4Mn3NiO12
_symmetry_space_group_name_H-M   'P 1'
_cell_length_a   5.58592000
_cell_length_b   5.60577589
_cell_length_c   7.87874719
_cell_angle_alpha   89.82393637
_cell_angle_beta   89.64362383
_cell_angle_gamma   89.45684582
_symmetry_Int_Tables_number   1
_chemical_formula_structural   La4Mn3NiO12
_chemical_formula_sum   'La4 Mn3 Ni1 O12'
_cell_volume   246.69350734
_cell_formula_units_Z   1
loop_
 _symmetry_equiv_pos_site_id
 _symmetry_equiv_pos_as_xyz
  1  'x, y, z'
loop_
 _atom_site_type_symbol
 _atom_site_label
 _atom_site_symmetry_multiplicity
 _atom_site_fract_x
 _atom_site_fract_y
 _atom_site_fract_z
 _atom_site_occupancy
  La  La0  1  0.49598100  0.52981600  0.75238900  1
  La  La1  1  0.01387000  0.03387900  0.75389900  1
  La  La2  1  0.50401900  0.47018400  0.24761100  1
  La  La3  1  0.98613000  0.96612100  0.24610100  1
  Mn  Mn4  1  0.50000000  0.00000000  0.50000000  1
  Mn  Mn5  1  0.00000000  0.50000000  0.50000000  1
  Mn  Mn6  1  0.50000000  0.00000000  0.00000000  1
  Ni  Ni7  1  0.00000000  0.50000000  0.00000000  1
  O  O8  1  0.58455800  0.98592600  0.75846700  1
  O  O9  1  0.92271600  0.48570800  0.74304500  1
  O  O10  1  0.41544200  0.01407400  0.24153300  1
  O  O11  1  0.07728400  0.51429200  0.25695500  1
  O  O12  1  0.23162700  0.78556300  0.95773200  1
  O  O13  1  0.27959600  0.28364400  0.54465500  1
  O  O14  1  0.76779000  0.20931300  0.45401600  1
  O  O15  1  0.71249800  0.72766800  0.04473500  1
  O  O16  1  0.76837300  0.21443700  0.04226800  1
  O  O17  1  0.72040400  0.71635600  0.45534500  1
  O  O18  1  0.23221000  0.79068700  0.54598400  1
  O  O19  1  0.28750200  0.27233200  0.95526500  1
