# generated using pymatgen
data_La3Ga5SiO14
_symmetry_space_group_name_H-M   'P 1'
_cell_length_a   5.14873300
_cell_length_b   8.26298221
_cell_length_c   8.26290984
_cell_angle_alpha   120.00068878
_cell_angle_beta   89.99981182
_cell_angle_gamma   90.00063263
_symmetry_Int_Tables_number   1
_chemical_formula_structural   La3Ga5SiO14
_chemical_formula_sum   'La3 Ga5 Si1 O14'
_cell_volume   304.43727089
_cell_formula_units_Z   1
loop_
 _symmetry_equiv_pos_site_id
 _symmetry_equiv_pos_as_xyz
  1  'x, y, z'
loop_
 _atom_site_type_symbol
 _atom_site_label
 _atom_site_symmetry_multiplicity
 _atom_site_fract_x
 _atom_site_fract_y
 _atom_site_fract_z
 _atom_site_occupancy
  La  La0  1  0.00460000  0.41129200  0.42003200  1
  La  La1  1  0.00461100  0.57998600  0.99125200  1
  La  La2  1  0.00460600  0.00877700  0.58874300  1
  Ga  Ga3  1  0.49500400  0.76386100  0.76160100  1
  Ga  Ga4  1  0.49500300  0.23839300  0.00224700  1
  Ga  Ga5  1  0.49500900  0.99774400  0.23614200  1
  Ga  Ga6  1  0.99834300  0.99999600  0.99999900  1
  Ga  Ga7  1  0.47366000  0.33334200  0.66667000  1
  Si  Si8  1  0.54272400  0.66664000  0.33331700  1
  O  O9  1  0.22617000  0.66663900  0.33332100  1
  O  O10  1  0.82668400  0.33335700  0.66668200  1
  O  O11  1  0.30353200  0.14473100  0.45854100  1
  O  O12  1  0.30351800  0.54147100  0.68619900  1
  O  O13  1  0.30352200  0.31380700  0.85526500  1
  O  O14  1  0.67668500  0.83877800  0.31330700  1
  O  O15  1  0.67669300  0.68668200  0.52547300  1
  O  O16  1  0.67669900  0.47452000  0.16121900  1
  O  O17  1  0.76282600  0.13864400  0.22451100  1
  O  O18  1  0.76280800  0.77549800  0.91414200  1
  O  O19  1  0.76280800  0.08585600  0.86134600  1
  O  O20  1  0.23482900  0.85401000  0.07623800  1
  O  O21  1  0.23483500  0.92376000  0.77776700  1
  O  O22  1  0.23483000  0.22221500  0.14598400  1
