# generated using pymatgen
data_La3Nd(GaO3)4
_symmetry_space_group_name_H-M   'P 1'
_cell_length_a   5.50980589
_cell_length_b   5.50980589
_cell_length_c   9.67043480
_cell_angle_alpha   72.98564244
_cell_angle_beta   72.98564244
_cell_angle_gamma   60.89187239
_symmetry_Int_Tables_number   1
_chemical_formula_structural   La3Nd(GaO3)4
_chemical_formula_sum   'La3 Nd1 Ga4 O12'
_cell_volume   241.27073851
_cell_formula_units_Z   1
loop_
 _symmetry_equiv_pos_site_id
 _symmetry_equiv_pos_as_xyz
  1  'x, y, z'
loop_
 _atom_site_type_symbol
 _atom_site_label
 _atom_site_symmetry_multiplicity
 _atom_site_fract_x
 _atom_site_fract_y
 _atom_site_fract_z
 _atom_site_occupancy
  La  La0  1  0.87591900  0.12408100  0.00000000  1
  La  La1  1  0.12457600  0.37451200  0.25101500  1
  La  La2  1  0.62548800  0.87542400  0.74898500  1
  Nd  Nd3  1  0.37396600  0.62603400  0.50000000  1
  Ga  Ga4  1  0.74987500  0.00015100  0.37553600  1
  Ga  Ga5  1  0.25032300  0.49998100  0.87439700  1
  Ga  Ga6  1  0.99984900  0.25012500  0.62446400  1
  Ga  Ga7  1  0.50001900  0.74967700  0.12560300  1
  O  O8  1  0.94959900  0.05040100  0.50000000  1
  O  O9  1  0.44302800  0.55697200  0.00000000  1
  O  O10  1  0.08976400  0.90986100  0.21571400  1
  O  O11  1  0.58885800  0.41147600  0.71286200  1
  O  O12  1  0.58852400  0.41114200  0.28713800  1
  O  O13  1  0.09013900  0.91023600  0.78428600  1
  O  O14  1  0.40933900  0.09155600  0.53373900  1
  O  O15  1  0.90836300  0.59070900  0.03398000  1
  O  O16  1  0.90844400  0.59066100  0.46626100  1
  O  O17  1  0.40929100  0.09163700  0.96602000  1
  O  O18  1  0.55544700  0.94080900  0.25234000  1
  O  O19  1  0.05919100  0.44455300  0.74766000  1
