# generated using pymatgen
data_La3Nd(CuO4)2
_symmetry_space_group_name_H-M   'P 1'
_cell_length_a   5.34611200
_cell_length_b   5.51083700
_cell_length_c   7.06956145
_cell_angle_alpha   89.84161514
_cell_angle_beta   67.78347827
_cell_angle_gamma   90.00000000
_symmetry_Int_Tables_number   1
_chemical_formula_structural   La3Nd(CuO4)2
_chemical_formula_sum   'La3 Nd1 Cu2 O8'
_cell_volume   192.81699718
_cell_formula_units_Z   1
loop_
 _symmetry_equiv_pos_site_id
 _symmetry_equiv_pos_as_xyz
  1  'x, y, z'
loop_
 _atom_site_type_symbol
 _atom_site_label
 _atom_site_symmetry_multiplicity
 _atom_site_fract_x
 _atom_site_fract_y
 _atom_site_fract_z
 _atom_site_occupancy
  La  La0  1  0.14059100  0.51219100  0.71881800  1
  La  La1  1  0.64035200  0.98676100  0.71929600  1
  La  La2  1  0.36094500  0.01255700  0.27810900  1
  Nd  Nd3  1  0.86301800  0.48289600  0.27396400  1
  Cu  Cu4  1  0.49878000  0.49956600  0.00244000  1
  Cu  Cu5  1  0.99972700  0.99817800  0.00054700  1
  O  O6  1  0.76118500  0.25003600  0.97904100  1
  O  O7  1  0.73825300  0.74704600  0.02693800  1
  O  O8  1  0.23480800  0.74704600  0.02693800  1
  O  O9  1  0.25977400  0.25003600  0.97904100  1
  O  O10  1  0.68836900  0.55799000  0.62326200  1
  O  O11  1  0.31464400  0.44678800  0.37071200  1
  O  O12  1  0.81374200  0.06179000  0.37251600  1
  O  O13  1  0.18581100  0.94711700  0.62837700  1
