# generated using pymatgen
data_La4Re(NiO4)3
_symmetry_space_group_name_H-M   'P 1'
_cell_length_a   5.54620100
_cell_length_b   5.54620100
_cell_length_c   8.09827300
_cell_angle_alpha   90.00000000
_cell_angle_beta   90.00000000
_cell_angle_gamma   90.00000000
_symmetry_Int_Tables_number   1
_chemical_formula_structural   La4Re(NiO4)3
_chemical_formula_sum   'La4 Re1 Ni3 O12'
_cell_volume   249.10567570
_cell_formula_units_Z   1
loop_
 _symmetry_equiv_pos_site_id
 _symmetry_equiv_pos_as_xyz
  1  'x, y, z'
loop_
 _atom_site_type_symbol
 _atom_site_label
 _atom_site_symmetry_multiplicity
 _atom_site_fract_x
 _atom_site_fract_y
 _atom_site_fract_z
 _atom_site_occupancy
  La  La0  1  0.50000000  0.00000000  0.71931900  1
  La  La1  1  0.00000000  0.50000000  0.28068100  1
  La  La2  1  0.50000000  0.00000000  0.28068100  1
  La  La3  1  0.00000000  0.50000000  0.71931900  1
  Re  Re4  1  0.50000000  0.50000000  0.00000000  1
  Ni  Ni5  1  0.00000000  0.00000000  0.00000000  1
  Ni  Ni6  1  0.50000000  0.50000000  0.50000000  1
  Ni  Ni7  1  0.00000000  0.00000000  0.50000000  1
  O  O8  1  0.00000000  0.00000000  0.75233200  1
  O  O9  1  0.50000000  0.50000000  0.24362100  1
  O  O10  1  0.74811400  0.74811400  0.50000000  1
  O  O11  1  0.25789500  0.25789500  0.00000000  1
  O  O12  1  0.74811400  0.25188600  0.50000000  1
  O  O13  1  0.25789500  0.74210500  0.00000000  1
  O  O14  1  0.00000000  0.00000000  0.24766800  1
  O  O15  1  0.50000000  0.50000000  0.75637900  1
  O  O16  1  0.25188600  0.25188600  0.50000000  1
  O  O17  1  0.74210500  0.74210500  0.00000000  1
  O  O18  1  0.25188600  0.74811400  0.50000000  1
  O  O19  1  0.74210500  0.25789500  0.00000000  1
