# generated using pymatgen
data_La3YHf4O14
_symmetry_space_group_name_H-M   'P 1'
_cell_length_a   7.55639504
_cell_length_b   7.55639504
_cell_length_c   7.55639559
_cell_angle_alpha   58.61489802
_cell_angle_beta   58.61489802
_cell_angle_gamma   58.61490106
_symmetry_Int_Tables_number   1
_chemical_formula_structural   La3YHf4O14
_chemical_formula_sum   'La3 Y1 Hf4 O14'
_cell_volume   295.43006590
_cell_formula_units_Z   1
loop_
 _symmetry_equiv_pos_site_id
 _symmetry_equiv_pos_as_xyz
  1  'x, y, z'
loop_
 _atom_site_type_symbol
 _atom_site_label
 _atom_site_symmetry_multiplicity
 _atom_site_fract_x
 _atom_site_fract_y
 _atom_site_fract_z
 _atom_site_occupancy
  La  La0  1  0.00000000  0.50000000  0.50000000  1
  La  La1  1  0.50000000  0.50000000  0.00000000  1
  La  La2  1  0.50000000  0.00000000  0.50000000  1
  Y  Y3  1  0.50000000  0.50000000  0.50000000  1
  Hf  Hf4  1  0.00000000  0.00000000  0.00000000  1
  Hf  Hf5  1  0.50000000  0.00000000  0.00000000  1
  Hf  Hf6  1  0.00000000  0.00000000  0.50000000  1
  Hf  Hf7  1  0.00000000  0.50000000  0.00000000  1
  O  O8  1  0.13209900  0.13209900  0.13209900  1
  O  O9  1  0.86790100  0.86790100  0.86790100  1
  O  O10  1  0.87488100  0.37308700  0.37308700  1
  O  O11  1  0.35947200  0.89152800  0.89152800  1
  O  O12  1  0.37308700  0.37308700  0.87488100  1
  O  O13  1  0.89152800  0.89152800  0.35947200  1
  O  O14  1  0.89152800  0.35947200  0.89152800  1
  O  O15  1  0.37308700  0.87488100  0.37308700  1
  O  O16  1  0.12511900  0.62691300  0.62691300  1
  O  O17  1  0.64052800  0.10847200  0.10847200  1
  O  O18  1  0.62691300  0.62691300  0.12511900  1
  O  O19  1  0.10847200  0.10847200  0.64052800  1
  O  O20  1  0.10847200  0.64052800  0.10847200  1
  O  O21  1  0.62691300  0.12511900  0.62691300  1
