# generated using pymatgen
data_Mg9Si5
_symmetry_space_group_name_H-M   'P 1'
_cell_length_a   10.60296734
_cell_length_b   8.07728633
_cell_length_c   8.16940071
_cell_angle_alpha   121.29120432
_cell_angle_beta   93.02654003
_cell_angle_gamma   67.50475058
_symmetry_Int_Tables_number   1
_chemical_formula_structural   Mg9Si5
_chemical_formula_sum   'Mg18 Si10'
_cell_volume   542.87212196
_cell_formula_units_Z   2
loop_
 _symmetry_equiv_pos_site_id
 _symmetry_equiv_pos_as_xyz
  1  'x, y, z'
loop_
 _atom_site_type_symbol
 _atom_site_label
 _atom_site_symmetry_multiplicity
 _atom_site_fract_x
 _atom_site_fract_y
 _atom_site_fract_z
 _atom_site_occupancy
  Mg  Mg0  1  0.38559700  0.00837500  0.64622800  1
  Mg  Mg1  1  0.55487100  0.86459800  0.24134400  1
  Mg  Mg2  1  0.37943900  0.63765900  0.94206500  1
  Mg  Mg3  1  0.55035100  0.24520900  0.97627800  1
  Mg  Mg4  1  0.37393300  0.33194000  0.34339800  1
  Mg  Mg5  1  0.59240300  0.47813200  0.48995000  1
  Mg  Mg6  1  0.87318500  0.02337500  0.81796100  1
  Mg  Mg7  1  0.04056500  0.21300400  0.70942300  1
  Mg  Mg8  1  0.88123200  0.62033300  0.11873400  1
  Mg  Mg9  1  0.03142200  0.85800800  0.06296500  1
  Mg  Mg10  1  0.88457900  0.61685000  0.75409000  1
  Mg  Mg11  1  0.03998600  0.56660800  0.43586800  1
  Mg  Mg12  1  0.70882700  0.80067400  0.53994000  1
  Mg  Mg13  1  0.20718600  0.08427200  0.32823900  1
  Mg  Mg14  1  0.69994600  0.43341700  0.83368300  1
  Mg  Mg15  1  0.20778200  0.41776000  0.03059100  1
  Mg  Mg16  1  0.82132000  0.05152500  0.44617700  1
  Mg  Mg17  1  0.20513000  0.80685200  0.70987000  1
  Si  Si18  1  0.72867700  0.98800700  0.09985700  1
  Si  Si19  1  0.58632300  0.82155500  0.86470500  1
  Si  Si20  1  0.33599400  0.02871300  0.99955000  1
  Si  Si21  1  0.01821400  0.22939100  0.08127200  1
  Si  Si22  1  0.74189000  0.42806200  0.17323100  1
  Si  Si23  1  0.21336300  0.43645900  0.68859700  1
  Si  Si24  1  0.88739300  0.31557700  0.38221200  1
  Si  Si25  1  0.13122800  0.81006100  0.37179600  1
  Si  Si26  1  0.39553800  0.65236400  0.29965900  1
  Si  Si27  1  0.52384600  0.23124900  0.61231700  1
