# generated using pymatgen
data_La2MnFeSe2O3
_symmetry_space_group_name_H-M   'P 1'
_cell_length_a   4.18091101
_cell_length_b   9.98377004
_cell_length_c   4.11613300
_cell_angle_alpha   78.10216649
_cell_angle_beta   89.99745792
_cell_angle_gamma   77.90582579
_symmetry_Int_Tables_number   1
_chemical_formula_structural   La2MnFeSe2O3
_chemical_formula_sum   'La2 Mn1 Fe1 Se2 O3'
_cell_volume   164.22266385
_cell_formula_units_Z   1
loop_
 _symmetry_equiv_pos_site_id
 _symmetry_equiv_pos_as_xyz
  1  'x, y, z'
loop_
 _atom_site_type_symbol
 _atom_site_label
 _atom_site_symmetry_multiplicity
 _atom_site_fract_x
 _atom_site_fract_y
 _atom_site_fract_z
 _atom_site_occupancy
  La  La0  1  0.68703800  0.62590200  0.68704200  1
  La  La1  1  0.31296300  0.37409800  0.31295700  1
  Mn  Mn2  1  0.99999800  0.00000000  0.50000200  1
  Fe  Fe3  1  0.50000000  0.00000000  0.00000000  1
  Se  Se4  1  0.09940600  0.80102000  0.09933700  1
  Se  Se5  1  0.90059500  0.19898000  0.90066300  1
  O  O6  1  0.49999900  0.00000000  0.50000000  1
  O  O7  1  0.74995300  0.50009400  0.24995200  1
  O  O8  1  0.25004800  0.49990600  0.75004700  1
