# generated using pymatgen
data_La2FeAs2RuO2
_symmetry_space_group_name_H-M   'P 1'
_cell_length_a   4.05003600
_cell_length_b   4.05003600
_cell_length_c   9.09766300
_cell_angle_alpha   90.00000000
_cell_angle_beta   90.00000000
_cell_angle_gamma   90.00000000
_symmetry_Int_Tables_number   1
_chemical_formula_structural   La2FeAs2RuO2
_chemical_formula_sum   'La2 Fe1 As2 Ru1 O2'
_cell_volume   149.22707025
_cell_formula_units_Z   1
loop_
 _symmetry_equiv_pos_site_id
 _symmetry_equiv_pos_as_xyz
  1  'x, y, z'
loop_
 _atom_site_type_symbol
 _atom_site_label
 _atom_site_symmetry_multiplicity
 _atom_site_fract_x
 _atom_site_fract_y
 _atom_site_fract_z
 _atom_site_occupancy
  La  La0  1  0.50000000  0.00000000  0.86386100  1
  La  La1  1  0.00000000  0.50000000  0.13613900  1
  Fe  Fe2  1  0.50000000  0.50000000  0.50000000  1
  As  As3  1  0.50000000  0.00000000  0.33259000  1
  As  As4  1  0.00000000  0.50000000  0.66741000  1
  Ru  Ru5  1  0.00000000  0.00000000  0.50000000  1
  O  O6  1  0.50000000  0.50000000  0.00000000  1
  O  O7  1  0.00000000  0.00000000  0.00000000  1
