# generated using pymatgen
data_Mg2Al16Fe6Si20O73
_symmetry_space_group_name_H-M   'P 1'
_cell_length_a   10.02469165
_cell_length_b   13.66761104
_cell_length_c   13.67282771
_cell_angle_alpha   87.21379042
_cell_angle_beta   110.93454578
_cell_angle_gamma   110.92174355
_symmetry_Int_Tables_number   1
_chemical_formula_structural   Mg2Al16Fe6Si20O73
_chemical_formula_sum   'Mg2 Al16 Fe6 Si20 O73'
_cell_volume   1627.63029182
_cell_formula_units_Z   1
loop_
 _symmetry_equiv_pos_site_id
 _symmetry_equiv_pos_as_xyz
  1  'x, y, z'
loop_
 _atom_site_type_symbol
 _atom_site_label
 _atom_site_symmetry_multiplicity
 _atom_site_fract_x
 _atom_site_fract_y
 _atom_site_fract_z
 _atom_site_occupancy
  Mg  Mg0  1  0.32528801  0.20632714  0.45646972  1
  Mg  Mg1  1  0.67481297  0.29377225  0.04369943  1
  Al  Al2  1  0.50028673  0.62463312  0.87521032  1
  Al  Al3  1  0.49990834  0.12486433  0.37509238  1
  Al  Al4  1  0.49969695  0.37480159  0.62457233  1
  Al  Al5  1  0.49976248  0.87499941  0.12454028  1
  Al  Al6  1  0.50047806  0.37531559  0.12485342  1
  Al  Al7  1  0.50016663  0.87507208  0.62504906  1
  Al  Al8  1  0.50012339  0.12554471  0.87533043  1
  Al  Al9  1  0.50041099  0.62470873  0.37504253  1
  Al  Al10  1  0.09872669  0.92836844  0.42783258  1
  Al  Al11  1  0.09865258  0.42772765  0.92794080  1
  Al  Al12  1  0.90127104  0.57177669  0.07213024  1
  Al  Al13  1  0.90142010  0.07223286  0.57219864  1
  Al  Al14  1  0.90122948  0.62857792  0.62853260  1
  Al  Al15  1  0.90106032  0.12905510  0.12852629  1
  Al  Al16  1  0.09873671  0.37100337  0.37146796  1
  Al  Al17  1  0.09887599  0.87143041  0.87147448  1
  Fe  Fe18  1  0.67627503  0.04367657  0.29406535  1
  Fe  Fe19  1  0.67542643  0.54331811  0.79372448  1
  Fe  Fe20  1  0.32414921  0.70582916  0.95560134  1
  Fe  Fe21  1  0.32330623  0.45591892  0.20577865  1
  Fe  Fe22  1  0.32590956  0.95640549  0.70623701  1
  Fe  Fe23  1  0.67371969  0.79350286  0.54344652  1
  Si  Si24  1  0.38105062  0.38458643  0.88530714  1
  Si  Si25  1  0.38046558  0.88482415  0.38487340  1
  Si  Si26  1  0.61871963  0.11531024  0.61471006  1
  Si  Si27  1  0.61978268  0.61518984  0.11508289  1
  Si  Si28  1  0.61893613  0.44421516  0.44476831  1
  Si  Si29  1  0.61925809  0.94460814  0.94444423  1
  Si  Si30  1  0.38130366  0.05588965  0.05535283  1
  Si  Si31  1  0.38044648  0.55533430  0.55540762  1
  Si  Si32  1  0.00105619  0.12521567  0.37532835  1
  Si  Si33  1  0.99988165  0.62494981  0.87506640  1
  Si  Si34  1  0.00004528  0.87502507  0.62510652  1
  Si  Si35  1  0.99891512  0.37479311  0.12473292  1
  Si  Si36  1  0.72972514  0.29948088  0.80020452  1
  Si  Si37  1  0.72983598  0.79959684  0.29971981  1
  Si  Si38  1  0.27044225  0.20046408  0.69997023  1
  Si  Si39  1  0.26991974  0.70022630  0.20024752  1
  Si  Si40  1  0.27089271  0.18480864  0.18551098  1
  Si  Si41  1  0.27015280  0.68489776  0.68474537  1
  Si  Si42  1  0.72934784  0.81517784  0.81510783  1
  Si  Si43  1  0.72975524  0.31544559  0.31468968  1
  O  O44  1  0.12398664  0.24756146  0.39889114  1
  O  O45  1  0.12090751  0.74757909  0.89851867  1
  O  O46  1  0.87823018  0.60182331  0.75244708  1
  O  O47  1  0.87917111  0.10197231  0.25270607  1
  O  O48  1  0.87910167  0.58823023  0.93723325  1
  O  O49  1  0.87936878  0.08815599  0.43711750  1
  O  O50  1  0.12402939  0.06432924  0.41308812  1
  O  O51  1  0.12152190  0.56316204  0.91246065  1
  O  O52  1  0.87601306  0.25239021  0.10109808  1
  O  O53  1  0.87844266  0.75258022  0.60118473  1
  O  O54  1  0.12125306  0.89867133  0.74749824  1
  O  O55  1  0.12060890  0.39814503  0.24732575  1
  O  O56  1  0.12196557  0.91216847  0.56353172  1
  O  O57  1  0.12067766  0.41197584  0.06299583  1
  O  O58  1  0.87595731  0.43564983  0.08689210  1
  O  O59  1  0.87811878  0.93653863  0.58775992  1
  O  O60  1  0.32645239  0.29301281  0.79275816  1
  O  O61  1  0.32652462  0.79271387  0.29310148  1
  O  O62  1  0.67344128  0.20705776  0.70711180  1
  O  O63  1  0.67365799  0.70729650  0.20696673  1
  O  O64  1  0.67353550  0.37961244  0.37967059  1
  O  O65  1  0.67325571  0.87976007  0.87961306  1
  O  O66  1  0.32691007  0.12063334  0.12049585  1
  O  O67  1  0.32630965  0.62020304  0.62029675  1
  O  O68  1  0.24103317  0.90274255  0.40311008  1
  O  O69  1  0.24147193  0.40280092  0.90308448  1
  O  O70  1  0.75922285  0.59708160  0.09721588  1
  O  O71  1  0.75838285  0.09717121  0.59684783  1
  O  O72  1  0.75872053  0.53198978  0.53252784  1
  O  O73  1  0.75844069  0.03256291  0.03228646  1
  O  O74  1  0.24181488  0.96805488  0.96744292  1
  O  O75  1  0.24097395  0.46774802  0.46750538  1
  O  O76  1  0.65339232  0.68936318  0.83129151  1
  O  O77  1  0.65318355  0.18911179  0.33087040  1
  O  O78  1  0.34685642  0.16964443  0.31186799  1
  O  O79  1  0.34740531  0.66936187  0.81104788  1
  O  O80  1  0.34665729  0.25371259  0.61149079  1
  O  O81  1  0.34682011  0.75432691  0.11263681  1
  O  O82  1  0.65238725  0.38711031  0.74555879  1
  O  O83  1  0.65263266  0.88759368  0.24570195  1
  O  O84  1  0.34701872  0.81051416  0.66842500  1
  O  O85  1  0.34703664  0.31120803  0.16930894  1
  O  O86  1  0.65316687  0.33030342  0.18818804  1
  O  O87  1  0.65291608  0.83153131  0.68962228  1
  O  O88  1  0.65346500  0.24636674  0.88857747  1
  O  O89  1  0.65271155  0.74487284  0.38670130  1
  O  O90  1  0.34725848  0.11319826  0.75520587  1
  O  O91  1  0.34693574  0.61214439  0.25418534  1
  O  O92  1  0.48845557  0.49885964  0.64029722  1
  O  O93  1  0.48815878  0.99882266  0.14031543  1
  O  O94  1  0.50879793  0.35782642  0.49972789  1
  O  O95  1  0.51149450  0.85935512  0.00072137  1
  O  O96  1  0.50871112  0.14639364  0.50451930  1
  O  O97  1  0.51179256  0.64634174  0.00472474  1
  O  O98  1  0.48883878  0.49490100  0.85362505  1
  O  O99  1  0.48825986  0.99510079  0.35364236  1
  O  O100  1  0.51067093  0.00104407  0.85893170  1
  O  O101  1  0.51189009  0.50103151  0.35970222  1
  O  O102  1  0.49144272  0.14207670  0.00036876  1
  O  O103  1  0.48910636  0.64109716  0.49916493  1
  O  O104  1  0.49122972  0.35344070  0.99542858  1
  O  O105  1  0.48906259  0.85353197  0.49538694  1
  O  O106  1  0.51100269  0.00463807  0.64622239  1
  O  O107  1  0.51201866  0.50483428  0.14639823  1
  O  O108  1  0.08815338  0.14759352  0.64759086  1
  O  O109  1  0.08803990  0.64732623  0.14772564  1
  O  O110  1  0.91182286  0.35245019  0.85225215  1
  O  O111  1  0.91201755  0.85258116  0.35256107  1
  O  O112  1  0.91195733  0.35350401  0.35359767  1
  O  O113  1  0.91157746  0.85306754  0.85290938  1
  O  O114  1  0.08850875  0.14715624  0.14707988  1
  O  O115  1  0.08802199  0.64640432  0.64647418  1
  O  O116  1  0.99999529  0.99998047  0.99997411  1
