# generated using pymatgen
data_La7Nb3(W2O15)2
_symmetry_space_group_name_H-M   'P 1'
_cell_length_a   6.96775400
_cell_length_b   10.23892583
_cell_length_c   10.25716691
_cell_angle_alpha   115.04677687
_cell_angle_beta   103.41510302
_cell_angle_gamma   102.61382802
_symmetry_Int_Tables_number   1
_chemical_formula_structural   La7Nb3(W2O15)2
_chemical_formula_sum   'La7 Nb3 W4 O30'
_cell_volume   601.81311759
_cell_formula_units_Z   1
loop_
 _symmetry_equiv_pos_site_id
 _symmetry_equiv_pos_as_xyz
  1  'x, y, z'
loop_
 _atom_site_type_symbol
 _atom_site_label
 _atom_site_symmetry_multiplicity
 _atom_site_fract_x
 _atom_site_fract_y
 _atom_site_fract_z
 _atom_site_occupancy
  La  La0  1  0.55416500  0.43057200  0.19156200  1
  La  La1  1  0.35877100  0.80322300  0.23585600  1
  La  La2  1  0.11999100  0.75670700  0.56935700  1
  La  La3  1  0.44583500  0.56942800  0.80843800  1
  La  La4  1  0.64122900  0.19677700  0.76414400  1
  La  La5  1  0.88000900  0.24329300  0.43064300  1
  La  La6  1  0.00000000  0.00000000  0.00000000  1
  Nb  Nb7  1  0.50000000  0.00000000  0.00000000  1
  Nb  Nb8  1  0.97498300  0.61131100  0.82739700  1
  Nb  Nb9  1  0.02501700  0.38868900  0.17260300  1
  W  W10  1  0.14670200  0.16772000  0.78802400  1
  W  W11  1  0.35871600  0.21191700  0.37756800  1
  W  W12  1  0.85329800  0.83228000  0.21197600  1
  W  W13  1  0.64128400  0.78808300  0.62243200  1
  O  O14  1  0.22126300  0.61315400  0.95770800  1
  O  O15  1  0.25874300  0.04421500  0.65614400  1
  O  O16  1  0.60383900  0.34597500  0.39213700  1
  O  O17  1  0.77873700  0.38684600  0.04229200  1
  O  O18  1  0.74125700  0.95578500  0.34385600  1
  O  O19  1  0.39616100  0.65402500  0.60786300  1
  O  O20  1  0.99055000  0.77856700  0.05988700  1
  O  O21  1  0.93437800  0.94476200  0.71740400  1
  O  O22  1  0.21788400  0.27575500  0.22422800  1
  O  O23  1  0.00945000  0.22143300  0.94011300  1
  O  O24  1  0.06562200  0.05523800  0.28259600  1
  O  O25  1  0.78211600  0.72424500  0.77577200  1
  O  O26  1  0.73276500  0.45460000  0.79198200  1
  O  O27  1  0.95022900  0.20315600  0.66300700  1
  O  O28  1  0.28612000  0.33478500  0.53728300  1
  O  O29  1  0.26723500  0.54540000  0.20801800  1
  O  O30  1  0.04977100  0.79684400  0.33699300  1
  O  O31  1  0.71388000  0.66521500  0.46271700  1
  O  O32  1  0.03458600  0.51382500  0.64810100  1
  O  O33  1  0.37229200  0.34765900  0.86485500  1
  O  O34  1  0.50935500  0.13392900  0.48106800  1
  O  O35  1  0.96541400  0.48617500  0.35189900  1
  O  O36  1  0.62770800  0.65234100  0.13514500  1
  O  O37  1  0.49064500  0.86607100  0.51893200  1
  O  O38  1  0.38922200  0.03663000  0.17639900  1
  O  O39  1  0.22143200  0.82750300  0.85756900  1
  O  O40  1  0.35502500  0.14168900  0.96307700  1
  O  O41  1  0.61077800  0.96337000  0.82360100  1
  O  O42  1  0.77856800  0.17249700  0.14243100  1
  O  O43  1  0.64497500  0.85831100  0.03692300  1
