# generated using pymatgen
data_La3Al(FeO3)4
_symmetry_space_group_name_H-M   'P 1'
_cell_length_a   7.97933100
_cell_length_b   5.46614700
_cell_length_c   5.56575530
_cell_angle_alpha   86.55266205
_cell_angle_beta   90.00000000
_cell_angle_gamma   90.00000000
_symmetry_Int_Tables_number   1
_chemical_formula_structural   La3Al(FeO3)4
_chemical_formula_sum   'La3 Al1 Fe4 O12'
_cell_volume   242.31780341
_cell_formula_units_Z   1
loop_
 _symmetry_equiv_pos_site_id
 _symmetry_equiv_pos_as_xyz
  1  'x, y, z'
loop_
 _atom_site_type_symbol
 _atom_site_label
 _atom_site_symmetry_multiplicity
 _atom_site_fract_x
 _atom_site_fract_y
 _atom_site_fract_z
 _atom_site_occupancy
  La  La0  1  0.00000000  0.01232900  0.95068100  1
  La  La1  1  0.50000000  0.50971300  0.54628900  1
  La  La2  1  0.50000000  0.98796000  0.03324700  1
  Al  Al3  1  0.00000000  0.51284900  0.48213300  1
  Fe  Fe4  1  0.24537200  0.51023100  0.02483200  1
  Fe  Fe5  1  0.75822200  0.00141000  0.49033600  1
  Fe  Fe6  1  0.75462800  0.51023100  0.02483200  1
  Fe  Fe7  1  0.24177800  0.00141000  0.49033600  1
  O  O8  1  0.22589300  0.17642900  0.16764400  1
  O  O9  1  0.83357600  0.32816800  0.64525500  1
  O  O10  1  0.72723000  0.80429500  0.80248000  1
  O  O11  1  0.30900700  0.71212100  0.29160200  1
  O  O12  1  0.27277000  0.80429500  0.80248000  1
  O  O13  1  0.69099300  0.71212100  0.29160200  1
  O  O14  1  0.77410700  0.17642900  0.16764400  1
  O  O15  1  0.16642400  0.32816800  0.64525500  1
  O  O16  1  0.00000000  0.55170300  0.13907800  1
  O  O17  1  0.00000000  0.84723800  0.51974400  1
  O  O18  1  0.50000000  0.43223600  0.97202100  1
  O  O19  1  0.50000000  0.08066100  0.51250900  1
