# generated using pymatgen
data_La2Nd(GaO3)3
_symmetry_space_group_name_H-M   'P 1'
_cell_length_a   5.58099800
_cell_length_b   9.60761370
_cell_length_c   13.56921452
_cell_angle_alpha   90.18987730
_cell_angle_beta   90.04913282
_cell_angle_gamma   90.03404012
_symmetry_Int_Tables_number   1
_chemical_formula_structural   La2Nd(GaO3)3
_chemical_formula_sum   'La8 Nd4 Ga12 O36'
_cell_volume   727.57787840
_cell_formula_units_Z   4
loop_
 _symmetry_equiv_pos_site_id
 _symmetry_equiv_pos_as_xyz
  1  'x, y, z'
loop_
 _atom_site_type_symbol
 _atom_site_label
 _atom_site_symmetry_multiplicity
 _atom_site_fract_x
 _atom_site_fract_y
 _atom_site_fract_z
 _atom_site_occupancy
  La  La0  1  0.03481700  0.83565500  0.08547800  1
  La  La1  1  0.03457400  0.16844500  0.41874600  1
  La  La2  1  0.46740900  0.33528300  0.08613400  1
  La  La3  1  0.46745800  0.66898400  0.41883200  1
  La  La4  1  0.46672700  0.00293600  0.75214900  1
  La  La5  1  0.96475100  0.49752400  0.24758000  1
  La  La6  1  0.96494200  0.83003800  0.58112500  1
  La  La7  1  0.96476800  0.16452200  0.91344300  1
  Nd  Nd8  1  0.54647700  0.66281500  0.91277900  1
  Nd  Nd9  1  0.54454400  0.99646800  0.24667100  1
  Nd  Nd10  1  0.54457800  0.33078600  0.58062000  1
  Nd  Nd11  1  0.04613100  0.50375500  0.75364100  1
  Ga  Ga12  1  0.50142200  0.66499900  0.66695400  1
  Ga  Ga13  1  0.49906800  0.99866300  0.99994100  1
  Ga  Ga14  1  0.49899200  0.33214800  0.33407800  1
  Ga  Ga15  1  0.00208900  0.16884800  0.66662100  1
  Ga  Ga16  1  0.00222200  0.50054600  0.99919600  1
  Ga  Ga17  1  0.00254600  0.83373300  0.33327700  1
  Ga  Ga18  1  0.50139800  0.33435200  0.83236900  1
  Ga  Ga19  1  0.49891700  0.66725300  0.16560100  1
  Ga  Ga20  1  0.49917100  0.00104900  0.49959000  1
  Ga  Ga21  1  0.00231800  0.49930800  0.50156900  1
  Ga  Ga22  1  0.00226800  0.83234800  0.83339000  1
  Ga  Ga23  1  0.00222900  0.16613400  0.16676800  1
  O  O24  1  0.97820800  0.36140800  0.61140900  1
  O  O25  1  0.97961100  0.69212800  0.94196700  1
  O  O26  1  0.97929100  0.02479300  0.27486800  1
  O  O27  1  0.47819700  0.47194100  0.72204300  1
  O  O28  1  0.48489400  0.80534800  0.05530000  1
  O  O29  1  0.48460800  0.13873100  0.38876500  1
  O  O30  1  0.01459000  0.97475500  0.72500600  1
  O  O31  1  0.01439800  0.30839200  0.05778200  1
  O  O32  1  0.01474800  0.64149300  0.39192500  1
  O  O33  1  0.51414600  0.85811300  0.60860600  1
  O  O34  1  0.51411200  0.19206100  0.94131300  1
  O  O35  1  0.51398700  0.52444100  0.27463600  1
  O  O36  1  0.78511500  0.37706000  0.42012300  1
  O  O37  1  0.78772800  0.70696400  0.75266700  1
  O  O38  1  0.78435000  0.04402000  0.08600800  1
  O  O39  1  0.28956400  0.12593900  0.58214100  1
  O  O40  1  0.28843000  0.45952100  0.91349200  1
  O  O41  1  0.28980600  0.79179900  0.24859900  1
  O  O42  1  0.20810100  0.23786300  0.77634000  1
  O  O43  1  0.21010000  0.56917400  0.10937900  1
  O  O44  1  0.21033700  0.90293000  0.44316600  1
  O  O45  1  0.71063000  0.92917200  0.89099200  1
  O  O46  1  0.71144600  0.26306500  0.22498300  1
  O  O47  1  0.70903900  0.59653500  0.55747700  1
  O  O48  1  0.21027900  0.95636400  0.91595500  1
  O  O49  1  0.21004600  0.28954200  0.24950100  1
  O  O50  1  0.20827400  0.62256500  0.58418600  1
  O  O51  1  0.70904900  0.21103700  0.75012100  1
  O  O52  1  0.71076900  0.54496000  0.08301300  1
  O  O53  1  0.71131000  0.87905400  0.41715400  1
  O  O54  1  0.78485800  0.10124300  0.55818000  1
  O  O55  1  0.78783100  0.43458500  0.88879600  1
  O  O56  1  0.78458000  0.76661100  0.22468900  1
  O  O57  1  0.28943100  0.40068000  0.44463900  1
  O  O58  1  0.28828600  0.73136900  0.77750900  1
  O  O59  1  0.29003200  0.06774900  0.11071500  1
