# generated using pymatgen
data_La2CO5
_symmetry_space_group_name_H-M   'P 1'
_cell_length_a   4.09957479
_cell_length_b   4.09957479
_cell_length_c   15.98046000
_cell_angle_alpha   90.00000000
_cell_angle_beta   90.00000000
_cell_angle_gamma   119.24407791
_symmetry_Int_Tables_number   1
_chemical_formula_structural   La2CO5
_chemical_formula_sum   'La4 C2 O10'
_cell_volume   234.34488961
_cell_formula_units_Z   2
loop_
 _symmetry_equiv_pos_site_id
 _symmetry_equiv_pos_as_xyz
  1  'x, y, z'
loop_
 _atom_site_type_symbol
 _atom_site_label
 _atom_site_symmetry_multiplicity
 _atom_site_fract_x
 _atom_site_fract_y
 _atom_site_fract_z
 _atom_site_occupancy
  La  La0  1  0.66531600  0.33245100  0.40527600  1
  La  La1  1  0.33245100  0.66531600  0.59472400  1
  La  La2  1  0.33245100  0.66531600  0.90527600  1
  La  La3  1  0.66531600  0.33245100  0.09472400  1
  C  C4  1  0.13506500  0.06755000  0.25000000  1
  C  C5  1  0.06755000  0.13506500  0.75000000  1
  O  O6  1  0.96374100  0.98116700  0.32177600  1
  O  O7  1  0.98116700  0.96374100  0.67822400  1
  O  O8  1  0.98116700  0.96374100  0.82177600  1
  O  O9  1  0.96374100  0.98116700  0.17822400  1
  O  O10  1  0.66546300  0.33077900  0.94313300  1
  O  O11  1  0.33077900  0.66546300  0.05686700  1
  O  O12  1  0.33077900  0.66546300  0.44313300  1
  O  O13  1  0.66546300  0.33077900  0.55686700  1
  O  O14  1  0.49532600  0.24946400  0.25000000  1
  O  O15  1  0.24946400  0.49532600  0.75000000  1
