# generated using pymatgen
data_La3Mg2TaO9
_symmetry_space_group_name_H-M   'P 1'
_cell_length_a   5.72739000
_cell_length_b   8.02782400
_cell_length_c   18.72202030
_cell_angle_alpha   64.57555530
_cell_angle_beta   90.00000000
_cell_angle_gamma   90.00000000
_symmetry_Int_Tables_number   1
_chemical_formula_structural   La3Mg2TaO9
_chemical_formula_sum   'La12 Mg8 Ta4 O36'
_cell_volume   777.44246728
_cell_formula_units_Z   4
loop_
 _symmetry_equiv_pos_site_id
 _symmetry_equiv_pos_as_xyz
  1  'x, y, z'
loop_
 _atom_site_type_symbol
 _atom_site_label
 _atom_site_symmetry_multiplicity
 _atom_site_fract_x
 _atom_site_fract_y
 _atom_site_fract_z
 _atom_site_occupancy
  La  La0  1  0.96593800  0.09811300  0.66113900  1
  La  La1  1  0.95994300  0.42007200  0.34393700  1
  La  La2  1  0.95158000  0.72708600  0.00358800  1
  La  La3  1  0.54005700  0.42007200  0.84393700  1
  La  La4  1  0.54842000  0.72708600  0.50358800  1
  La  La5  1  0.53406200  0.09811300  0.16113900  1
  La  La6  1  0.04842000  0.27291400  0.99641200  1
  La  La7  1  0.04005700  0.57992800  0.65606300  1
  La  La8  1  0.03406200  0.90188700  0.33886100  1
  La  La9  1  0.46593800  0.90188700  0.83886100  1
  La  La10  1  0.45158000  0.27291400  0.49641200  1
  La  La11  1  0.45994300  0.57992800  0.15606300  1
  Mg  Mg12  1  0.00336800  0.66777300  0.83106200  1
  Mg  Mg13  1  0.00000000  0.00000000  0.50000000  1
  Mg  Mg14  1  0.99663200  0.33222700  0.16893800  1
  Mg  Mg15  1  0.50000000  0.00000000  0.00000000  1
  Mg  Mg16  1  0.50336800  0.33222700  0.66893800  1
  Mg  Mg17  1  0.49663200  0.66777300  0.33106200  1
  Mg  Mg18  1  0.50000000  0.50000000  0.00000000  1
  Mg  Mg19  1  0.00000000  0.50000000  0.50000000  1
  Ta  Ta20  1  0.49856800  0.83175500  0.66681600  1
  Ta  Ta21  1  0.50143200  0.16824500  0.33318400  1
  Ta  Ta22  1  0.99856800  0.16824500  0.83318400  1
  Ta  Ta23  1  0.00143200  0.83175500  0.16681600  1
  O  O24  1  0.79727900  0.52398100  0.92901300  1
  O  O25  1  0.78384300  0.85309800  0.60081200  1
  O  O26  1  0.78436900  0.18230900  0.26772500  1
  O  O27  1  0.71563100  0.18230900  0.76772500  1
  O  O28  1  0.70272100  0.52398100  0.42901300  1
  O  O29  1  0.71615700  0.85309800  0.10081200  1
  O  O30  1  0.21563100  0.81769100  0.73227500  1
  O  O31  1  0.21615700  0.14690200  0.39918800  1
  O  O32  1  0.20272100  0.47601900  0.07098700  1
  O  O33  1  0.28384300  0.14690200  0.89918800  1
  O  O34  1  0.29727900  0.47601900  0.57098700  1
  O  O35  1  0.28436900  0.81769100  0.23227500  1
  O  O36  1  0.29453900  0.55775300  0.89993500  1
  O  O37  1  0.29924000  0.87619500  0.57344200  1
  O  O38  1  0.29837100  0.21815400  0.23826600  1
  O  O39  1  0.20162900  0.21815400  0.73826600  1
  O  O40  1  0.20546100  0.55775300  0.39993500  1
  O  O41  1  0.20076000  0.87619500  0.07344200  1
  O  O42  1  0.70162900  0.78184600  0.76173400  1
  O  O43  1  0.70076000  0.12380500  0.42655800  1
  O  O44  1  0.70546100  0.44224700  0.10006500  1
  O  O45  1  0.79924000  0.12380500  0.92655800  1
  O  O46  1  0.79453900  0.44224700  0.60006500  1
  O  O47  1  0.79837100  0.78184600  0.26173400  1
  O  O48  1  0.53122700  0.78140600  0.97172600  1
  O  O49  1  0.52283900  0.10299400  0.63886000  1
  O  O50  1  0.52135100  0.43962800  0.30120700  1
  O  O51  1  0.97864900  0.43962800  0.80120700  1
  O  O52  1  0.96877300  0.78140600  0.47172600  1
  O  O53  1  0.97716100  0.10299400  0.13886000  1
  O  O54  1  0.47864900  0.56037200  0.69879300  1
  O  O55  1  0.47716100  0.89700600  0.36114000  1
  O  O56  1  0.46877300  0.21859400  0.02827400  1
  O  O57  1  0.02283900  0.89700600  0.86114000  1
  O  O58  1  0.03122700  0.21859400  0.52827400  1
  O  O59  1  0.02135100  0.56037200  0.19879300  1
