# generated using pymatgen
data_KSm(MoO4)2
_symmetry_space_group_name_H-M   'P 1'
_cell_length_a   7.10703756
_cell_length_b   7.10703756
_cell_length_c   7.10703756
_cell_angle_alpha   135.14763242
_cell_angle_beta   135.14763242
_cell_angle_gamma   65.30089842
_symmetry_Int_Tables_number   1
_chemical_formula_structural   KSm(MoO4)2
_chemical_formula_sum   'K1 Sm1 Mo2 O8'
_cell_volume   175.95402405
_cell_formula_units_Z   1
loop_
 _symmetry_equiv_pos_site_id
 _symmetry_equiv_pos_as_xyz
  1  'x, y, z'
loop_
 _atom_site_type_symbol
 _atom_site_label
 _atom_site_symmetry_multiplicity
 _atom_site_fract_x
 _atom_site_fract_y
 _atom_site_fract_z
 _atom_site_occupancy
  K  K0  1  0.75000000  0.25000000  0.50000000  1
  Sm  Sm1  1  0.00000000  0.00000000  0.00000000  1
  Mo  Mo2  1  0.25000000  0.75000000  0.50000000  1
  Mo  Mo3  1  0.50000000  0.50000000  0.00000000  1
  O  O4  1  0.57784400  0.71227000  0.61773800  1
  O  O5  1  0.18812800  0.58533200  0.92539600  1
  O  O6  1  0.65993600  0.26273100  0.07460400  1
  O  O7  1  0.09453100  0.96010600  0.38226200  1
  O  O8  1  0.41466800  0.34006400  0.60279500  1
  O  O9  1  0.28773000  0.90546900  0.86557400  1
  O  O10  1  0.03989400  0.42215600  0.13442600  1
  O  O11  1  0.73726900  0.81187200  0.39720500  1
