# generated using pymatgen
data_La2CuRhO6
_symmetry_space_group_name_H-M   'P 1'
_cell_length_a   5.84734100
_cell_length_b   5.61447500
_cell_length_c   9.59823847
_cell_angle_alpha   54.42418732
_cell_angle_beta   90.00000000
_cell_angle_gamma   90.00000000
_symmetry_Int_Tables_number   1
_chemical_formula_structural   La2CuRhO6
_chemical_formula_sum   'La4 Cu2 Rh2 O12'
_cell_volume   256.29177843
_cell_formula_units_Z   2
loop_
 _symmetry_equiv_pos_site_id
 _symmetry_equiv_pos_as_xyz
  1  'x, y, z'
loop_
 _atom_site_type_symbol
 _atom_site_label
 _atom_site_symmetry_multiplicity
 _atom_site_fract_x
 _atom_site_fract_y
 _atom_site_fract_z
 _atom_site_occupancy
  La  La0  1  0.93809500  0.76349800  0.75033900  1
  La  La1  1  0.43809500  0.23650200  0.74966100  1
  La  La2  1  0.06190500  0.23650200  0.24966100  1
  La  La3  1  0.56190500  0.76349800  0.25033900  1
  Cu  Cu4  1  0.00000000  0.50000000  0.50000000  1
  Cu  Cu5  1  0.50000000  0.50000000  0.00000000  1
  Rh  Rh6  1  0.00000000  0.00000000  0.00000000  1
  Rh  Rh7  1  0.50000000  0.00000000  0.50000000  1
  O  O8  1  0.79049900  0.85973800  0.44954100  1
  O  O9  1  0.29049900  0.14026200  0.05045900  1
  O  O10  1  0.19502600  0.75259400  0.95137100  1
  O  O11  1  0.69502600  0.24740600  0.54862900  1
  O  O12  1  0.20950100  0.14026200  0.55045900  1
  O  O13  1  0.70950100  0.85973800  0.94954100  1
  O  O14  1  0.80497400  0.24740600  0.04862900  1
  O  O15  1  0.30497400  0.75259400  0.45137100  1
  O  O16  1  0.52866800  0.65203800  0.75217800  1
  O  O17  1  0.02866800  0.34796200  0.74782200  1
  O  O18  1  0.47133200  0.34796200  0.24782200  1
  O  O19  1  0.97133200  0.65203800  0.25217800  1
