# generated using pymatgen
data_KNa5TeO6
_symmetry_space_group_name_H-M   'P 1'
_cell_length_a   6.71315155
_cell_length_b   6.71315155
_cell_length_c   11.28372012
_cell_angle_alpha   89.83407531
_cell_angle_beta   89.83407531
_cell_angle_gamma   121.65253327
_symmetry_Int_Tables_number   1
_chemical_formula_structural   KNa5TeO6
_chemical_formula_sum   'K2 Na10 Te2 O12'
_cell_volume   432.86522967
_cell_formula_units_Z   2
loop_
 _symmetry_equiv_pos_site_id
 _symmetry_equiv_pos_as_xyz
  1  'x, y, z'
loop_
 _atom_site_type_symbol
 _atom_site_label
 _atom_site_symmetry_multiplicity
 _atom_site_fract_x
 _atom_site_fract_y
 _atom_site_fract_z
 _atom_site_occupancy
  K  K0  1  0.67066300  0.32933700  0.25000000  1
  K  K1  1  0.32933700  0.67066300  0.75000000  1
  Na  Na2  1  0.86038300  0.71869500  0.75390000  1
  Na  Na3  1  0.85985200  0.14014800  0.75000000  1
  Na  Na4  1  0.28130500  0.13961700  0.74610000  1
  Na  Na5  1  0.13961700  0.28130500  0.24610000  1
  Na  Na6  1  0.14014800  0.85985200  0.25000000  1
  Na  Na7  1  0.71869500  0.86038300  0.25390000  1
  Na  Na8  1  0.50000000  0.00000000  0.00000000  1
  Na  Na9  1  0.50000000  0.50000000  0.00000000  1
  Na  Na10  1  0.00000000  0.50000000  0.50000000  1
  Na  Na11  1  0.50000000  0.50000000  0.50000000  1
  Te  Te12  1  0.00000000  0.00000000  0.00000000  1
  Te  Te13  1  0.00000000  0.00000000  0.50000000  1
  O  O14  1  0.85415100  0.71111100  0.39720900  1
  O  O15  1  0.86913400  0.14579200  0.39779000  1
  O  O16  1  0.28005200  0.14938600  0.39610900  1
  O  O17  1  0.14584900  0.28888900  0.60279100  1
  O  O18  1  0.13086600  0.85420800  0.60221000  1
  O  O19  1  0.71994800  0.85061400  0.60389100  1
  O  O20  1  0.14938600  0.28005200  0.89610900  1
  O  O21  1  0.14579200  0.86913400  0.89779000  1
  O  O22  1  0.71111100  0.85415100  0.89720900  1
  O  O23  1  0.85061400  0.71994800  0.10389100  1
  O  O24  1  0.85420800  0.13086600  0.10221000  1
  O  O25  1  0.28888900  0.14584900  0.10279100  1
