# generated using pymatgen
data_KRbTi4(PO4)6
_symmetry_space_group_name_H-M   'P 1'
_cell_length_a   9.26120539
_cell_length_b   9.26120539
_cell_length_c   9.26120549
_cell_angle_alpha   54.32073407
_cell_angle_beta   54.32073407
_cell_angle_gamma   54.32073431
_symmetry_Int_Tables_number   1
_chemical_formula_structural   KRbTi4(PO4)6
_chemical_formula_sum   'K1 Rb1 Ti4 P6 O24'
_cell_volume   487.25890240
_cell_formula_units_Z   1
loop_
 _symmetry_equiv_pos_site_id
 _symmetry_equiv_pos_as_xyz
  1  'x, y, z'
loop_
 _atom_site_type_symbol
 _atom_site_label
 _atom_site_symmetry_multiplicity
 _atom_site_fract_x
 _atom_site_fract_y
 _atom_site_fract_z
 _atom_site_occupancy
  K  K0  1  0.00000000  0.00000000  0.00000000  1
  Rb  Rb1  1  0.50000000  0.50000000  0.50000000  1
  Ti  Ti2  1  0.65033700  0.65033700  0.65033700  1
  Ti  Ti3  1  0.15017200  0.15017200  0.15017200  1
  Ti  Ti4  1  0.34966300  0.34966300  0.34966300  1
  Ti  Ti5  1  0.84982800  0.84982800  0.84982800  1
  P  P6  1  0.46873800  0.75013900  0.03089700  1
  P  P7  1  0.75013900  0.03089700  0.46873800  1
  P  P8  1  0.03089700  0.46873800  0.75013900  1
  P  P9  1  0.24986100  0.96910300  0.53126200  1
  P  P10  1  0.96910300  0.53126200  0.24986100  1
  P  P11  1  0.53126200  0.24986100  0.96910300  1
  O  O12  1  0.01214500  0.64985800  0.74274000  1
  O  O13  1  0.64985800  0.74274000  0.01214500  1
  O  O14  1  0.74274000  0.01214500  0.64985800  1
  O  O15  1  0.15036900  0.51213400  0.24238400  1
  O  O16  1  0.51213400  0.24238400  0.15036900  1
  O  O17  1  0.24238400  0.15036900  0.51213400  1
  O  O18  1  0.98785500  0.35014200  0.25726000  1
  O  O19  1  0.35014200  0.25726000  0.98785500  1
  O  O20  1  0.25726000  0.98785500  0.35014200  1
  O  O21  1  0.84963100  0.48786600  0.75761600  1
  O  O22  1  0.48786600  0.75761600  0.84963100  1
  O  O23  1  0.75761600  0.84963100  0.48786600  1
  O  O24  1  0.20018700  0.43031100  0.56851600  1
  O  O25  1  0.43031100  0.56851600  0.20018700  1
  O  O26  1  0.56851600  0.20018700  0.43031100  1
  O  O27  1  0.93068700  0.70147900  0.06856700  1
  O  O28  1  0.70147900  0.06856700  0.93068700  1
  O  O29  1  0.06856700  0.93068700  0.70147900  1
  O  O30  1  0.79981300  0.56968900  0.43148400  1
  O  O31  1  0.56968900  0.43148400  0.79981300  1
  O  O32  1  0.43148400  0.79981300  0.56968900  1
  O  O33  1  0.06931300  0.29852100  0.93143300  1
  O  O34  1  0.29852100  0.93143300  0.06931300  1
  O  O35  1  0.93143300  0.06931300  0.29852100  1
