# generated using pymatgen
data_KSi5BO13
_symmetry_space_group_name_H-M   'P 1'
_cell_length_a   4.75361900
_cell_length_b   8.74513000
_cell_length_c   13.49671500
_cell_angle_alpha   90.00000000
_cell_angle_beta   90.00000000
_cell_angle_gamma   90.00000000
_symmetry_Int_Tables_number   1
_chemical_formula_structural   KSi5BO13
_chemical_formula_sum   'K2 Si10 B2 O26'
_cell_volume   561.07215691
_cell_formula_units_Z   2
loop_
 _symmetry_equiv_pos_site_id
 _symmetry_equiv_pos_as_xyz
  1  'x, y, z'
loop_
 _atom_site_type_symbol
 _atom_site_label
 _atom_site_symmetry_multiplicity
 _atom_site_fract_x
 _atom_site_fract_y
 _atom_site_fract_z
 _atom_site_occupancy
  K  K0  1  0.52241300  0.38544000  0.50000000  1
  K  K1  1  0.47758700  0.88544000  0.00000000  1
  Si  Si2  1  0.42187000  0.41845700  0.00000000  1
  Si  Si3  1  0.57813000  0.91845700  0.50000000  1
  Si  Si4  1  0.36272500  0.83097000  0.70533800  1
  Si  Si5  1  0.36272500  0.83097000  0.29466200  1
  Si  Si6  1  0.63727500  0.33097000  0.79466200  1
  Si  Si7  1  0.63727500  0.33097000  0.20533800  1
  Si  Si8  1  0.86308500  0.67322200  0.80093000  1
  Si  Si9  1  0.86308500  0.67322200  0.19907000  1
  Si  Si10  1  0.13691500  0.17322200  0.69907000  1
  Si  Si11  1  0.13691500  0.17322200  0.30093000  1
  B  B12  1  0.07647600  0.10027200  0.50000000  1
  B  B13  1  0.92352400  0.60027200  0.00000000  1
  O  O14  1  0.10286000  0.71091800  0.71742200  1
  O  O15  1  0.10286000  0.71091800  0.28257800  1
  O  O16  1  0.89714000  0.21091800  0.78257800  1
  O  O17  1  0.89714000  0.21091800  0.21742200  1
  O  O18  1  0.50362900  0.81147500  0.59681600  1
  O  O19  1  0.50362900  0.81147500  0.40318400  1
  O  O20  1  0.49637100  0.31147500  0.90318400  1
  O  O21  1  0.49637100  0.31147500  0.09681600  1
  O  O22  1  0.61533900  0.57162000  0.00000000  1
  O  O23  1  0.38466100  0.07162000  0.50000000  1
  O  O24  1  0.59992300  0.79450400  0.79022100  1
  O  O25  1  0.59992300  0.79450400  0.20977900  1
  O  O26  1  0.40007700  0.29450400  0.70977900  1
  O  O27  1  0.40007700  0.29450400  0.29022100  1
  O  O28  1  0.99264400  0.69444000  0.91148000  1
  O  O29  1  0.99264400  0.69444000  0.08852000  1
  O  O30  1  0.00735600  0.19444000  0.58852000  1
  O  O31  1  0.00735600  0.19444000  0.41148000  1
  O  O32  1  0.74998200  0.50280300  0.77304200  1
  O  O33  1  0.74998200  0.50280300  0.22695800  1
  O  O34  1  0.25001800  0.00280300  0.72695800  1
  O  O35  1  0.25001800  0.00280300  0.27304200  1
  O  O36  1  0.08736800  0.45766400  0.00000000  1
  O  O37  1  0.91263200  0.95766400  0.50000000  1
  O  O38  1  0.96932700  0.61168100  0.50000000  1
  O  O39  1  0.03067300  0.11168100  0.00000000  1
