# generated using pymatgen
data_Na4RhW5O26
_symmetry_space_group_name_H-M   'P 1'
_cell_length_a   10.05641200
_cell_length_b   11.99083717
_cell_length_c   12.35978731
_cell_angle_alpha   72.48302198
_cell_angle_beta   66.32803904
_cell_angle_gamma   66.36030738
_symmetry_Int_Tables_number   1
_chemical_formula_structural   Na4RhW5O26
_chemical_formula_sum   'Na8 Rh2 W10 O52'
_cell_volume   1232.92521274
_cell_formula_units_Z   2
loop_
 _symmetry_equiv_pos_site_id
 _symmetry_equiv_pos_as_xyz
  1  'x, y, z'
loop_
 _atom_site_type_symbol
 _atom_site_label
 _atom_site_symmetry_multiplicity
 _atom_site_fract_x
 _atom_site_fract_y
 _atom_site_fract_z
 _atom_site_occupancy
  Na  Na0  1  0.38963000  0.59863800  0.61241700  1
  Na  Na1  1  0.61037000  0.40136200  0.38758300  1
  Na  Na2  1  0.00000000  0.50000000  0.00000000  1
  Na  Na3  1  0.50000000  0.00000000  0.50000000  1
  Na  Na4  1  0.16330700  0.83560100  0.83553100  1
  Na  Na5  1  0.83669300  0.16439900  0.16446900  1
  Na  Na6  1  0.80955800  0.70160700  0.77622500  1
  Na  Na7  1  0.19044200  0.29839300  0.22377500  1
  Rh  Rh8  1  0.83505200  0.92760600  0.06918500  1
  Rh  Rh9  1  0.16494800  0.07239400  0.93081500  1
  W  W10  1  0.79248100  0.02823200  0.77412700  1
  W  W11  1  0.59819600  0.22679700  0.96389400  1
  W  W12  1  0.20751900  0.97176800  0.22587300  1
  W  W13  1  0.40180400  0.77320300  0.03610600  1
  W  W14  1  0.07730500  0.15552800  0.65395000  1
  W  W15  1  0.88133000  0.35266300  0.84464700  1
  W  W16  1  0.92269500  0.84447200  0.34605000  1
  W  W17  1  0.11867000  0.64733700  0.15535300  1
  W  W18  1  0.71877100  0.32961300  0.66983800  1
  W  W19  1  0.28122900  0.67038700  0.33016200  1
  O  O20  1  0.15075100  0.60788600  0.81982800  1
  O  O21  1  0.55142600  0.20449500  0.39825700  1
  O  O22  1  0.84924900  0.39211400  0.18017200  1
  O  O23  1  0.44857400  0.79550500  0.60174300  1
  O  O24  1  0.07228000  0.69703900  0.75776600  1
  O  O25  1  0.53334700  0.23495900  0.29708800  1
  O  O26  1  0.92772000  0.30296100  0.24223400  1
  O  O27  1  0.46665300  0.76504100  0.70291200  1
  O  O28  1  0.88833900  0.93414400  0.89542500  1
  O  O29  1  0.71946800  0.10612500  0.06061900  1
  O  O30  1  0.11166100  0.06585600  0.10457500  1
  O  O31  1  0.28053200  0.89387500  0.93938100  1
  O  O32  1  0.62154100  0.43342500  0.56528100  1
  O  O33  1  0.37845900  0.56657500  0.43471900  1
  O  O34  1  0.93165000  0.27436800  0.56988700  1
  O  O35  1  0.77265700  0.43691600  0.72501100  1
  O  O36  1  0.06835000  0.72563200  0.43011300  1
  O  O37  1  0.22734300  0.56308400  0.27498900  1
  O  O38  1  0.68940400  0.85976500  0.13429500  1
  O  O39  1  0.31059600  0.14023500  0.86570500  1
  O  O40  1  0.75919600  0.91262800  0.73877600  1
  O  O41  1  0.41476700  0.26551100  0.07023500  1
  O  O42  1  0.24080400  0.08737200  0.26122400  1
  O  O43  1  0.58523300  0.73448900  0.92976500  1
  O  O44  1  0.70560800  0.17323200  0.66660900  1
  O  O45  1  0.54873300  0.33480600  0.81938200  1
  O  O46  1  0.29439200  0.82676800  0.33339100  1
  O  O47  1  0.45126700  0.66519400  0.18061800  1
  O  O48  1  0.16742500  0.83548900  0.59294600  1
  O  O49  1  0.60785800  0.42993400  0.16846200  1
  O  O50  1  0.83257500  0.16451100  0.40705400  1
  O  O51  1  0.39214200  0.57006600  0.83153800  1
  O  O52  1  0.15202300  0.05023100  0.78241700  1
  O  O53  1  0.98385200  0.22668200  0.94861600  1
  O  O54  1  0.84797700  0.94976900  0.21758300  1
  O  O55  1  0.01614800  0.77331800  0.05138400  1
  O  O56  1  0.25047300  0.13004100  0.53276900  1
  O  O57  1  0.90216300  0.48587700  0.86426900  1
  O  O58  1  0.74952700  0.86995900  0.46723100  1
  O  O59  1  0.09783700  0.51412300  0.13573100  1
  O  O60  1  0.60807700  0.09142700  0.90295000  1
  O  O61  1  0.39192300  0.90857300  0.09705000  1
  O  O62  1  0.06340200  0.29624300  0.71013600  1
  O  O63  1  0.93659800  0.70375700  0.28986400  1
  O  O64  1  0.99751200  0.02712900  0.66273500  1
  O  O65  1  0.68738700  0.34392200  0.96622700  1
  O  O66  1  0.00248800  0.97287100  0.33726500  1
  O  O67  1  0.31261300  0.65607800  0.03377300  1
  O  O68  1  0.83360100  0.19937700  0.80200100  1
  O  O69  1  0.16639900  0.80062300  0.19799900  1
  O  O70  1  0.30730500  0.42564500  0.61840500  1
  O  O71  1  0.69269500  0.57435500  0.38159500  1
