# generated using pymatgen
data_KBaY(BO2)6
_symmetry_space_group_name_H-M   'P 1'
_cell_length_a   7.29688270
_cell_length_b   7.29688270
_cell_length_c   7.29688269
_cell_angle_alpha   59.51206025
_cell_angle_beta   59.51206025
_cell_angle_gamma   59.51205395
_symmetry_Int_Tables_number   1
_chemical_formula_structural   KBaY(BO2)6
_chemical_formula_sum   'K1 Ba1 Y1 B6 O12'
_cell_volume   271.67589158
_cell_formula_units_Z   1
loop_
 _symmetry_equiv_pos_site_id
 _symmetry_equiv_pos_as_xyz
  1  'x, y, z'
loop_
 _atom_site_type_symbol
 _atom_site_label
 _atom_site_symmetry_multiplicity
 _atom_site_fract_x
 _atom_site_fract_y
 _atom_site_fract_z
 _atom_site_occupancy
  K  K0  1  0.78890500  0.78890500  0.78890500  1
  Ba  Ba1  1  0.20808200  0.20808200  0.20808200  1
  Y  Y2  1  0.99882300  0.99882300  0.99882300  1
  B  B3  1  0.63367700  0.75269700  0.36693300  1
  B  B4  1  0.36693300  0.63367700  0.75269700  1
  B  B5  1  0.75269700  0.36693300  0.63367700  1
  B  B6  1  0.36691200  0.24782600  0.63317000  1
  B  B7  1  0.63317000  0.36691200  0.24782600  1
  B  B8  1  0.24782600  0.63317000  0.36691200  1
  O  O9  1  0.17079000  0.67341100  0.91778400  1
  O  O10  1  0.91778400  0.17079000  0.67341100  1
  O  O11  1  0.67341100  0.91778400  0.17079000  1
  O  O12  1  0.83483300  0.31817500  0.09029300  1
  O  O13  1  0.09029300  0.83483300  0.31817500  1
  O  O14  1  0.31817500  0.09029300  0.83483300  1
  O  O15  1  0.79426000  0.53563000  0.41878600  1
  O  O16  1  0.41878600  0.79426000  0.53563000  1
  O  O17  1  0.53563000  0.41878600  0.79426000  1
  O  O18  1  0.20501500  0.46455400  0.57944400  1
  O  O19  1  0.57944400  0.20501500  0.46455400  1
  O  O20  1  0.46455400  0.57944400  0.20501500  1
