# generated using pymatgen
data_KBa2V2ClO7
_symmetry_space_group_name_H-M   'P 1'
_cell_length_a   5.89375067
_cell_length_b   5.89375067
_cell_length_c   15.27365700
_cell_angle_alpha   90.00000000
_cell_angle_beta   90.00000000
_cell_angle_gamma   120.00000755
_symmetry_Int_Tables_number   1
_chemical_formula_structural   KBa2V2ClO7
_chemical_formula_sum   'K2 Ba4 V4 Cl2 O14'
_cell_volume   459.46999041
_cell_formula_units_Z   2
loop_
 _symmetry_equiv_pos_site_id
 _symmetry_equiv_pos_as_xyz
  1  'x, y, z'
loop_
 _atom_site_type_symbol
 _atom_site_label
 _atom_site_symmetry_multiplicity
 _atom_site_fract_x
 _atom_site_fract_y
 _atom_site_fract_z
 _atom_site_occupancy
  K  K0  1  0.33333300  0.66666700  0.95156700  1
  K  K1  1  0.66666700  0.33333300  0.45156700  1
  Ba  Ba2  1  0.33333300  0.66666700  0.25169800  1
  Ba  Ba3  1  0.66666700  0.33333300  0.75169800  1
  Ba  Ba4  1  0.66666700  0.33333300  0.04326500  1
  Ba  Ba5  1  0.33333300  0.66666700  0.54326500  1
  V  V6  1  0.00000000  0.00000000  0.63197200  1
  V  V7  1  0.00000000  0.00000000  0.36987300  1
  V  V8  1  0.00000000  0.00000000  0.13197200  1
  V  V9  1  0.00000000  0.00000000  0.86987300  1
  Cl  Cl10  1  0.33333300  0.66666700  0.74893400  1
  Cl  Cl11  1  0.66666700  0.33333300  0.24893400  1
  O  O12  1  0.00000000  0.00000000  0.75089100  1
  O  O13  1  0.00000000  0.00000000  0.25089100  1
  O  O14  1  0.83989800  0.67979700  0.59650300  1
  O  O15  1  0.83989800  0.16010200  0.59650300  1
  O  O16  1  0.32020300  0.16010200  0.59650300  1
  O  O17  1  0.16052100  0.32104200  0.40409700  1
  O  O18  1  0.16052100  0.83947900  0.40409700  1
  O  O19  1  0.67895800  0.83947900  0.40409700  1
  O  O20  1  0.16010200  0.32020300  0.09650300  1
  O  O21  1  0.16010200  0.83989800  0.09650300  1
  O  O22  1  0.67979700  0.83989800  0.09650300  1
  O  O23  1  0.83947900  0.67895800  0.90409700  1
  O  O24  1  0.83947900  0.16052100  0.90409700  1
  O  O25  1  0.32104200  0.16052100  0.90409700  1
