# generated using pymatgen
data_KCN
_symmetry_space_group_name_H-M   'P 1'
_cell_length_a   4.60180500
_cell_length_b   7.82121616
_cell_length_c   8.43649060
_cell_angle_alpha   70.93422684
_cell_angle_beta   87.70971607
_cell_angle_gamma   86.06574778
_symmetry_Int_Tables_number   1
_chemical_formula_structural   KCN
_chemical_formula_sum   'K4 C4 N4'
_cell_volume   286.26122145
_cell_formula_units_Z   4
loop_
 _symmetry_equiv_pos_site_id
 _symmetry_equiv_pos_as_xyz
  1  'x, y, z'
loop_
 _atom_site_type_symbol
 _atom_site_label
 _atom_site_symmetry_multiplicity
 _atom_site_fract_x
 _atom_site_fract_y
 _atom_site_fract_z
 _atom_site_occupancy
  K  K0  1  0.78866700  0.52284500  0.23914800  1
  K  K1  1  0.20847600  0.47741600  0.75472000  1
  K  K2  1  0.29443000  0.01832800  0.25807400  1
  K  K3  1  0.70402800  0.98353500  0.73673900  1
  C  C4  1  0.81784300  0.79835000  0.44920700  1
  C  C5  1  0.32559100  0.29895600  0.45039800  1
  C  C6  1  0.18983200  0.73765500  0.94644400  1
  C  C7  1  0.69285300  0.23241000  0.94976500  1
  N  N8  1  0.18086300  0.19824000  0.55336200  1
  N  N9  1  0.67061700  0.69969000  0.55218900  1
  N  N10  1  0.81365300  0.26532100  0.05620900  1
  N  N11  1  0.31314700  0.76725500  0.05374400  1
