# generated using pymatgen
data_KIn5S8
_symmetry_space_group_name_H-M   'P 1'
_cell_length_a   9.86234253
_cell_length_b   9.86234253
_cell_length_c   9.36588654
_cell_angle_alpha   77.22982988
_cell_angle_beta   77.22982988
_cell_angle_gamma   22.88344619
_symmetry_Int_Tables_number   1
_chemical_formula_structural   KIn5S8
_chemical_formula_sum   'K1 In5 S8'
_cell_volume   345.11584116
_cell_formula_units_Z   1
loop_
 _symmetry_equiv_pos_site_id
 _symmetry_equiv_pos_as_xyz
  1  'x, y, z'
loop_
 _atom_site_type_symbol
 _atom_site_label
 _atom_site_symmetry_multiplicity
 _atom_site_fract_x
 _atom_site_fract_y
 _atom_site_fract_z
 _atom_site_occupancy
  K  K0  1  0.52095400  0.52095400  0.51631600  1
  In  In1  1  0.99967500  0.99967500  0.00051500  1
  In  In2  1  0.71368400  0.71368400  0.66247100  1
  In  In3  1  0.28753800  0.28753800  0.33791200  1
  In  In4  1  0.35519600  0.35519600  0.90808400  1
  In  In5  1  0.64494100  0.64494100  0.09188300  1
  S  S6  1  0.93110200  0.93110200  0.78362200  1
  S  S7  1  0.06907200  0.06907200  0.21616700  1
  S  S8  1  0.58556200  0.58556200  0.87572300  1
  S  S9  1  0.41445900  0.41445900  0.12349800  1
  S  S10  1  0.23780300  0.23780300  0.84698600  1
  S  S11  1  0.76210000  0.76210000  0.15306700  1
  S  S12  1  0.16489000  0.16489000  0.52436200  1
  S  S13  1  0.83401600  0.83401600  0.47587300  1
