# generated using pymatgen
data_KCu7S4
_symmetry_space_group_name_H-M   'P 1'
_cell_length_a   3.84414300
_cell_length_b   7.36875230
_cell_length_c   7.40434419
_cell_angle_alpha   85.19582573
_cell_angle_beta   75.17054702
_cell_angle_gamma   75.81307607
_symmetry_Int_Tables_number   1
_chemical_formula_structural   KCu7S4
_chemical_formula_sum   'K1 Cu7 S4'
_cell_volume   196.52025029
_cell_formula_units_Z   1
loop_
 _symmetry_equiv_pos_site_id
 _symmetry_equiv_pos_as_xyz
  1  'x, y, z'
loop_
 _atom_site_type_symbol
 _atom_site_label
 _atom_site_symmetry_multiplicity
 _atom_site_fract_x
 _atom_site_fract_y
 _atom_site_fract_z
 _atom_site_occupancy
  K  K0  1  0.99582200  0.00186500  0.99918500  1
  Cu  Cu1  1  0.98813700  0.33733800  0.61499900  1
  Cu  Cu2  1  0.95089600  0.65726300  0.38818300  1
  Cu  Cu3  1  0.66032500  0.38359900  0.33758600  1
  Cu  Cu4  1  0.37769100  0.60923900  0.65801200  1
  Cu  Cu5  1  0.29937000  0.90843600  0.45860500  1
  Cu  Cu6  1  0.27224900  0.42193200  0.08612700  1
  Cu  Cu7  1  0.79297100  0.57734400  0.89252000  1
  S  S8  1  0.24471100  0.19813700  0.33645700  1
  S  S9  1  0.77575600  0.81850700  0.66087600  1
  S  S10  1  0.53864400  0.67159100  0.19141100  1
  S  S11  1  0.40842900  0.31974900  0.79704000  1
