# generated using pymatgen
data_La9Ga5Se21
_symmetry_space_group_name_H-M   'P 1'
_cell_length_a   12.44764485
_cell_length_b   12.44764485
_cell_length_c   12.44764502
_cell_angle_alpha   96.44449963
_cell_angle_beta   96.44449963
_cell_angle_gamma   96.44450389
_symmetry_Int_Tables_number   1
_chemical_formula_structural   La9Ga5Se21
_chemical_formula_sum   'La18 Ga10 Se42'
_cell_volume   1889.10656143
_cell_formula_units_Z   2
loop_
 _symmetry_equiv_pos_site_id
 _symmetry_equiv_pos_as_xyz
  1  'x, y, z'
loop_
 _atom_site_type_symbol
 _atom_site_label
 _atom_site_symmetry_multiplicity
 _atom_site_fract_x
 _atom_site_fract_y
 _atom_site_fract_z
 _atom_site_occupancy
  La  La0  1  0.11683400  0.88196700  0.74696900  1
  La  La1  1  0.45480700  0.21984600  0.08181200  1
  La  La2  1  0.78331000  0.55082300  0.41194000  1
  La  La3  1  0.41194000  0.78331000  0.55082300  1
  La  La4  1  0.74696900  0.11683400  0.88196700  1
  La  La5  1  0.08181200  0.45480700  0.21984600  1
  La  La6  1  0.21984600  0.08181200  0.45480700  1
  La  La7  1  0.55082300  0.41194000  0.78331000  1
  La  La8  1  0.88196700  0.74696900  0.11683400  1
  La  La9  1  0.21382800  0.44750900  0.58363000  1
  La  La10  1  0.54944700  0.78416500  0.92262600  1
  La  La11  1  0.88092900  0.11412900  0.25193800  1
  La  La12  1  0.92262600  0.54944700  0.78416500  1
  La  La13  1  0.25193800  0.88092900  0.11412900  1
  La  La14  1  0.58363000  0.21382800  0.44750900  1
  La  La15  1  0.11412900  0.25193800  0.88092900  1
  La  La16  1  0.44750900  0.58363000  0.21382800  1
  La  La17  1  0.78416500  0.92262600  0.54944700  1
  Ga  Ga18  1  0.72206500  0.38860300  0.05558200  1
  Ga  Ga19  1  0.05558200  0.72206500  0.38860300  1
  Ga  Ga20  1  0.38860300  0.05558200  0.72206500  1
  Ga  Ga21  1  0.88832400  0.22245100  0.55550300  1
  Ga  Ga22  1  0.22245100  0.55550300  0.88832400  1
  Ga  Ga23  1  0.55550300  0.88832400  0.22245100  1
  Ga  Ga24  1  0.85172500  0.85172500  0.85172500  1
  Ga  Ga25  1  0.15487200  0.15487200  0.15487200  1
  Ga  Ga26  1  0.65478400  0.65478400  0.65478400  1
  Ga  Ga27  1  0.35165700  0.35165700  0.35165700  1
  Se  Se28  1  0.54850800  0.39242000  0.30441100  1
  Se  Se29  1  0.88334800  0.73859500  0.65250900  1
  Se  Se30  1  0.22747400  0.07786500  0.98546700  1
  Se  Se31  1  0.98546700  0.22747400  0.07786500  1
  Se  Se32  1  0.30441100  0.54850800  0.39242000  1
  Se  Se33  1  0.65250900  0.88334800  0.73859500  1
  Se  Se34  1  0.73859500  0.65250900  0.88334800  1
  Se  Se35  1  0.07786500  0.98546700  0.22747400  1
  Se  Se36  1  0.39242000  0.30441100  0.54850800  1
  Se  Se37  1  0.13311100  0.27808300  0.36358300  1
  Se  Se38  1  0.46625800  0.61575300  0.70853300  1
  Se  Se39  1  0.78174800  0.93764700  0.02570900  1
  Se  Se40  1  0.70853300  0.46625800  0.61575300  1
  Se  Se41  1  0.02570900  0.78174800  0.93764700  1
  Se  Se42  1  0.36358300  0.13311100  0.27808300  1
  Se  Se43  1  0.93764700  0.02570900  0.78174800  1
  Se  Se44  1  0.27808300  0.36358300  0.13311100  1
  Se  Se45  1  0.61575300  0.70853300  0.46625800  1
  Se  Se46  1  0.54197600  0.44797900  0.02337400  1
  Se  Se47  1  0.87588200  0.78056700  0.35940300  1
  Se  Se48  1  0.20636800  0.11116700  0.69646800  1
  Se  Se49  1  0.69646800  0.20636800  0.11116700  1
  Se  Se50  1  0.02337400  0.54197600  0.44797900  1
  Se  Se51  1  0.35940300  0.87588200  0.78056700  1
  Se  Se52  1  0.78056700  0.35940300  0.87588200  1
  Se  Se53  1  0.11116700  0.69646800  0.20636800  1
  Se  Se54  1  0.44797900  0.02337400  0.54197600  1
  Se  Se55  1  0.96826000  0.06523500  0.48028500  1
  Se  Se56  1  0.30187100  0.39617800  0.81545300  1
  Se  Se57  1  0.63490400  0.72761400  0.15366500  1
  Se  Se58  1  0.81545300  0.30187100  0.39617800  1
  Se  Se59  1  0.15366500  0.63490400  0.72761400  1
  Se  Se60  1  0.48028500  0.96826000  0.06523500  1
  Se  Se61  1  0.72761400  0.15366500  0.63490400  1
  Se  Se62  1  0.06523500  0.48028500  0.96826000  1
  Se  Se63  1  0.39617800  0.81545300  0.30187100  1
  Se  Se64  1  0.84642300  0.51590600  0.18165500  1
  Se  Se65  1  0.18165500  0.84642300  0.51590600  1
  Se  Se66  1  0.51590600  0.18165500  0.84642300  1
  Se  Se67  1  0.68102200  0.01631300  0.34672300  1
  Se  Se68  1  0.01631300  0.34672300  0.68102200  1
  Se  Se69  1  0.34672300  0.68102200  0.01631300  1
