# generated using pymatgen
data_KMg3Al(SiO4)3
_symmetry_space_group_name_H-M   'P 1'
_cell_length_a   5.37922500
_cell_length_b   5.40859936
_cell_length_c   10.26439964
_cell_angle_alpha   84.68114592
_cell_angle_beta   80.55033619
_cell_angle_gamma   60.61309153
_symmetry_Int_Tables_number   1
_chemical_formula_structural   KMg3Al(SiO4)3
_chemical_formula_sum   'K1 Mg3 Al1 Si3 O12'
_cell_volume   256.65032232
_cell_formula_units_Z   1
loop_
 _symmetry_equiv_pos_site_id
 _symmetry_equiv_pos_as_xyz
  1  'x, y, z'
loop_
 _atom_site_type_symbol
 _atom_site_label
 _atom_site_symmetry_multiplicity
 _atom_site_fract_x
 _atom_site_fract_y
 _atom_site_fract_z
 _atom_site_occupancy
  K  K0  1  0.49284100  0.99943200  0.02077400  1
  Mg  Mg1  1  0.32308800  0.35172900  0.49623700  1
  Mg  Mg2  1  0.67931000  0.65242900  0.49396900  1
  Mg  Mg3  1  0.01013900  0.99686300  0.49650300  1
  Al  Al4  1  0.75501500  0.32776900  0.22535200  1
  Si  Si5  1  0.09295700  0.66521400  0.22002700  1
  Si  Si6  1  0.24179100  0.66735700  0.77546000  1
  Si  Si7  1  0.90974700  0.33345900  0.77534600  1
  O  O8  1  0.43154700  0.50472600  0.15930900  1
  O  O9  1  0.94464100  0.50702400  0.16264200  1
  O  O10  1  0.55869900  0.50038700  0.83272200  1
  O  O11  1  0.05878800  0.49735400  0.83602900  1
  O  O12  1  0.37761800  0.00040500  0.41151100  1
  O  O13  1  0.62042700  0.00597800  0.58380500  1
  O  O14  1  0.95068000  0.98852000  0.16111500  1
  O  O15  1  0.05868000  0.99875100  0.83290700  1
  O  O16  1  0.70478200  0.32881000  0.40047900  1
  O  O17  1  0.04676600  0.66417500  0.38411000  1
  O  O18  1  0.28527500  0.66928100  0.61593800  1
  O  O19  1  0.95720800  0.34033600  0.61576700  1
