# generated using pymatgen
data_KMnH5(SO5)2
_symmetry_space_group_name_H-M   'P 1'
_cell_length_a   7.17311218
_cell_length_b   8.05843562
_cell_length_c   8.38222199
_cell_angle_alpha   94.58122457
_cell_angle_beta   107.32625806
_cell_angle_gamma   77.50224291
_symmetry_Int_Tables_number   1
_chemical_formula_structural   KMnH5(SO5)2
_chemical_formula_sum   'K2 Mn2 H10 S4 O20'
_cell_volume   451.51881338
_cell_formula_units_Z   2
loop_
 _symmetry_equiv_pos_site_id
 _symmetry_equiv_pos_as_xyz
  1  'x, y, z'
loop_
 _atom_site_type_symbol
 _atom_site_label
 _atom_site_symmetry_multiplicity
 _atom_site_fract_x
 _atom_site_fract_y
 _atom_site_fract_z
 _atom_site_occupancy
  K  K0  1  0.50543300  0.49937500  0.49687100  1
  K  K1  1  0.00540700  0.99933100  0.49702300  1
  Mn  Mn2  1  0.50506900  0.50091500  0.00517400  1
  Mn  Mn3  1  0.00517800  0.00074200  0.00555900  1
  H  H4  1  0.46311200  0.82457900  0.87500400  1
  H  H5  1  0.96310400  0.32454900  0.87498200  1
  H  H6  1  0.53517300  0.17422500  0.13628800  1
  H  H7  1  0.03519700  0.67421000  0.13630400  1
  H  H8  1  0.64116700  0.70073200  0.82421100  1
  H  H9  1  0.14116900  0.20065000  0.82427500  1
  H  H10  1  0.35442300  0.30400600  0.17867100  1
  H  H11  1  0.85441600  0.80395800  0.17876000  1
  H  H12  1  0.51004500  0.01524200  0.51171800  1
  H  H13  1  0.01004200  0.51543100  0.51174800  1
  S  S14  1  0.52928900  0.14966900  0.75628300  1
  S  S15  1  0.02923700  0.64979100  0.75634000  1
  S  S16  1  0.47148200  0.85316000  0.24929300  1
  S  S17  1  0.97142100  0.35321800  0.24932700  1
  O  O18  1  0.51340900  0.70604700  0.84908900  1
  O  O19  1  0.01339500  0.20599500  0.84913000  1
  O  O20  1  0.48230400  0.29477800  0.15145100  1
  O  O21  1  0.98234100  0.79472300  0.15158200  1
  O  O22  1  0.53785700  0.33134200  0.78869400  1
  O  O23  1  0.03783100  0.83145300  0.78889500  1
  O  O24  1  0.46625000  0.66951800  0.21312600  1
  O  O25  1  0.96622400  0.16954100  0.21324900  1
  O  O26  1  0.58673700  0.10878000  0.59004700  1
  O  O27  1  0.08674400  0.60906700  0.59010500  1
  O  O28  1  0.41300100  0.89760500  0.40828700  1
  O  O29  1  0.91300000  0.39778300  0.40838000  1
  O  O30  1  0.32927500  0.11458400  0.72809800  1
  O  O31  1  0.82921900  0.61470600  0.72809100  1
  O  O32  1  0.67271700  0.88753200  0.27337100  1
  O  O33  1  0.17265600  0.38761000  0.27339100  1
  O  O34  1  0.67677400  0.04133500  0.88970000  1
  O  O35  1  0.17671200  0.54135500  0.88968300  1
  O  O36  1  0.32764500  0.95724900  0.10790000  1
  O  O37  1  0.82754700  0.45720800  0.10790100  1
