# generated using pymatgen
data_KCd4Ga5S12
_symmetry_space_group_name_H-M   'P 1'
_cell_length_a   8.60008900
_cell_length_b   8.66146732
_cell_length_c   8.92792359
_cell_angle_alpha   108.62259873
_cell_angle_beta   106.24461857
_cell_angle_gamma   108.35357781
_symmetry_Int_Tables_number   1
_chemical_formula_structural   KCd4Ga5S12
_chemical_formula_sum   'K1 Cd4 Ga5 S12'
_cell_volume   542.06178556
_cell_formula_units_Z   1
loop_
 _symmetry_equiv_pos_site_id
 _symmetry_equiv_pos_as_xyz
  1  'x, y, z'
loop_
 _atom_site_type_symbol
 _atom_site_label
 _atom_site_symmetry_multiplicity
 _atom_site_fract_x
 _atom_site_fract_y
 _atom_site_fract_z
 _atom_site_occupancy
  K  K0  1  0.99792400  0.00178500  0.00451200  1
  Cd  Cd1  1  0.48835500  0.33824000  0.93678000  1
  Cd  Cd2  1  0.62723800  0.70869100  0.40257700  1
  Cd  Cd3  1  0.40716200  0.64151700  0.71684100  1
  Cd  Cd4  1  0.71467700  0.40162500  0.63604900  1
  Ga  Ga5  1  0.18758900  0.55551500  0.02707800  1
  Ga  Ga6  1  0.02195500  0.18424700  0.55342200  1
  Ga  Ga7  1  0.56251800  0.02325700  0.19133100  1
  Ga  Ga8  1  0.93748100  0.47109700  0.33359200  1
  Ga  Ga9  1  0.32135400  0.93036900  0.46992700  1
  S  S10  1  0.87384300  0.63041900  0.54207100  1
  S  S11  1  0.54319200  0.88646600  0.62979400  1
  S  S12  1  0.65862300  0.58581900  0.87508700  1
  S  S13  1  0.35065300  0.43281400  0.14705100  1
  S  S14  1  0.14358600  0.36928100  0.43990200  1
  S  S15  1  0.43302500  0.13525900  0.36614100  1
  S  S16  1  0.07073200  0.67381400  0.22662100  1
  S  S17  1  0.21182000  0.06679200  0.65825200  1
  S  S18  1  0.69963900  0.21814600  0.08867900  1
  S  S19  1  0.78128200  0.94043900  0.30274100  1
  S  S20  1  0.30254600  0.78481900  0.95278700  1
  S  S21  1  0.94600600  0.30078900  0.77996700  1
