# generated using pymatgen
data_KNb5Pb2O15
_symmetry_space_group_name_H-M   'P 1'
_cell_length_a   13.03218743
_cell_length_b   13.03218743
_cell_length_c   3.96758900
_cell_angle_alpha   90.00000000
_cell_angle_beta   90.00000000
_cell_angle_gamma   92.45202779
_symmetry_Int_Tables_number   1
_chemical_formula_structural   KNb5Pb2O15
_chemical_formula_sum   'K2 Nb10 Pb4 O30'
_cell_volume   673.23004116
_cell_formula_units_Z   2
loop_
 _symmetry_equiv_pos_site_id
 _symmetry_equiv_pos_as_xyz
  1  'x, y, z'
loop_
 _atom_site_type_symbol
 _atom_site_label
 _atom_site_symmetry_multiplicity
 _atom_site_fract_x
 _atom_site_fract_y
 _atom_site_fract_z
 _atom_site_occupancy
  K  K0  1  0.17001300  0.82998700  0.50000000  1
  K  K1  1  0.82402800  0.17597200  0.50000000  1
  Nb  Nb2  1  0.50034000  0.49966000  0.00000000  1
  Nb  Nb3  1  0.42365500  0.78228800  0.00000000  1
  Nb  Nb4  1  0.21771200  0.57634500  0.00000000  1
  Nb  Nb5  1  0.71390500  0.91670900  0.00000000  1
  Nb  Nb6  1  0.08329100  0.28609500  0.00000000  1
  Nb  Nb7  1  0.57381100  0.21162600  0.00000000  1
  Nb  Nb8  1  0.78837400  0.42618900  0.00000000  1
  Nb  Nb9  1  0.99091700  0.00908300  0.00000000  1
  Nb  Nb10  1  0.28458900  0.06665600  0.00000000  1
  Nb  Nb11  1  0.93334400  0.71541100  0.00000000  1
  Pb  Pb12  1  0.50767000  0.98564400  0.50000000  1
  Pb  Pb13  1  0.01435600  0.49233000  0.50000000  1
  Pb  Pb14  1  0.36842100  0.28248100  0.50000000  1
  Pb  Pb15  1  0.71751900  0.63157900  0.50000000  1
  O  O16  1  0.14453500  0.01038400  0.00000000  1
  O  O17  1  0.98961600  0.85546500  0.00000000  1
  O  O18  1  0.98768300  0.01231700  0.50000000  1
  O  O19  1  0.49175100  0.50824900  0.50000000  1
  O  O20  1  0.48382300  0.35329000  0.00000000  1
  O  O21  1  0.64671000  0.51617700  0.00000000  1
  O  O22  1  0.28213100  0.71786900  0.00000000  1
  O  O23  1  0.21082500  0.22944600  0.00000000  1
  O  O24  1  0.77055400  0.78917500  0.00000000  1
  O  O25  1  0.29059300  0.09307100  0.50000000  1
  O  O26  1  0.90692900  0.70940700  0.50000000  1
  O  O27  1  0.62990100  0.08271800  0.00000000  1
  O  O28  1  0.91728200  0.37009900  0.00000000  1
  O  O29  1  0.34732300  0.94203800  0.00000000  1
  O  O30  1  0.05796200  0.65267700  0.00000000  1
  O  O31  1  0.55621600  0.22146300  0.50000000  1
  O  O32  1  0.77853700  0.44378400  0.50000000  1
  O  O33  1  0.83345000  0.00762100  0.00000000  1
  O  O34  1  0.99237900  0.16655000  0.00000000  1
  O  O35  1  0.68922700  0.93158600  0.50000000  1
  O  O36  1  0.06841400  0.31077300  0.50000000  1
  O  O37  1  0.41651000  0.80991400  0.50000000  1
  O  O38  1  0.19008600  0.58349000  0.50000000  1
  O  O39  1  0.49441600  0.66426400  0.00000000  1
  O  O40  1  0.33573600  0.50558400  0.00000000  1
  O  O41  1  0.55303300  0.88049000  0.00000000  1
  O  O42  1  0.11951000  0.44696700  0.00000000  1
  O  O43  1  0.70414200  0.29585800  0.00000000  1
  O  O44  1  0.41897300  0.16096200  0.00000000  1
  O  O45  1  0.83903800  0.58102700  0.00000000  1
