# generated using pymatgen
data_K8Sb2Te
_symmetry_space_group_name_H-M   'P 1'
_cell_length_a   10.35621321
_cell_length_b   10.35621321
_cell_length_c   10.35621321
_cell_angle_alpha   132.00985179
_cell_angle_beta   132.00985179
_cell_angle_gamma   70.21346750
_symmetry_Int_Tables_number   1
_chemical_formula_structural   K8Sb2Te
_chemical_formula_sum   'K8 Sb2 Te1'
_cell_volume   601.06121557
_cell_formula_units_Z   1
loop_
 _symmetry_equiv_pos_site_id
 _symmetry_equiv_pos_as_xyz
  1  'x, y, z'
loop_
 _atom_site_type_symbol
 _atom_site_label
 _atom_site_symmetry_multiplicity
 _atom_site_fract_x
 _atom_site_fract_y
 _atom_site_fract_z
 _atom_site_occupancy
  K  K0  1  0.88441000  0.38739300  0.03927100  1
  K  K1  1  0.61260700  0.65187800  0.49701700  1
  K  K2  1  0.34812200  0.84513900  0.96072900  1
  K  K3  1  0.15486100  0.11559000  0.50298300  1
  K  K4  1  0.15486100  0.65187800  0.03927100  1
  K  K5  1  0.88441000  0.84513900  0.49701700  1
  K  K6  1  0.61260700  0.11559000  0.96072900  1
  K  K7  1  0.34812200  0.38739300  0.50298300  1
  Sb  Sb8  1  0.50000000  0.50000000  0.00000000  1
  Sb  Sb9  1  0.25000000  0.75000000  0.50000000  1
  Te  Te10  1  0.00000000  0.00000000  0.00000000  1
