# generated using pymatgen
data_La12Sn5S28
_symmetry_space_group_name_H-M   'P 1'
_cell_length_a   10.38468400
_cell_length_b   12.01812813
_cell_length_c   12.02112667
_cell_angle_alpha   60.63722459
_cell_angle_beta   64.41662317
_cell_angle_gamma   64.41290284
_symmetry_Int_Tables_number   1
_chemical_formula_structural   La12Sn5S28
_chemical_formula_sum   'La12 Sn5 S28'
_cell_volume   1132.16525814
_cell_formula_units_Z   1
loop_
 _symmetry_equiv_pos_site_id
 _symmetry_equiv_pos_as_xyz
  1  'x, y, z'
loop_
 _atom_site_type_symbol
 _atom_site_label
 _atom_site_symmetry_multiplicity
 _atom_site_fract_x
 _atom_site_fract_y
 _atom_site_fract_z
 _atom_site_occupancy
  La  La0  1  0.13462000  0.24548900  0.98572000  1
  La  La1  1  0.13150200  0.75380000  0.46079800  1
  La  La2  1  0.21559800  0.47337100  0.18094600  1
  La  La3  1  0.22952600  0.94667500  0.68688300  1
  La  La4  1  0.63418100  0.19899600  0.93846000  1
  La  La5  1  0.65373300  0.71119300  0.41877700  1
  La  La6  1  0.87077700  0.77184900  0.01167000  1
  La  La7  1  0.86055000  0.28241100  0.49095300  1
  La  La8  1  0.77330800  0.57996100  0.78793700  1
  La  La9  1  0.78397900  0.05188500  0.29234700  1
  La  La10  1  0.34499500  0.81526800  0.05528800  1
  La  La11  1  0.36677900  0.32667000  0.53479000  1
  Sn  Sn12  1  0.66539600  0.51238200  0.15680100  1
  Sn  Sn13  1  0.66829400  0.00772200  0.65546900  1
  Sn  Sn14  1  0.33088200  0.59272700  0.74156100  1
  Sn  Sn15  1  0.33588500  0.09025500  0.24191200  1
  Sn  Sn16  1  0.99995800  0.24919900  0.75070000  1
  S  S17  1  0.84731200  0.25567100  0.98817300  1
  S  S18  1  0.83858000  0.75670800  0.50634500  1
  S  S19  1  0.26261400  0.57402100  0.32474200  1
  S  S20  1  0.24347400  0.08855600  0.82054800  1
  S  S21  1  0.89849700  0.54429300  0.29456200  1
  S  S22  1  0.90896200  0.05742900  0.78979300  1
  S  S23  1  0.16240600  0.74628700  0.99078300  1
  S  S24  1  0.14731600  0.24147400  0.51679100  1
  S  S25  1  0.75797800  0.41010200  0.68505600  1
  S  S26  1  0.73755000  0.92746000  0.17243500  1
  S  S27  1  0.09474000  0.43651800  0.71115300  1
  S  S28  1  0.09928700  0.95845200  0.20410400  1
  S  S29  1  0.42174500  0.05364300  0.03578700  1
  S  S30  1  0.42542000  0.55573900  0.53631800  1
  S  S31  1  0.09470300  0.25446300  0.23691800  1
  S  S32  1  0.08810700  0.75018300  0.72965800  1
  S  S33  1  0.47957900  0.22555400  0.20545200  1
  S  S34  1  0.49122200  0.71674700  0.69848000  1
  S  S35  1  0.57416300  0.71660600  0.19364200  1
  S  S36  1  0.57639000  0.21396200  0.69349300  1
  S  S37  1  0.90882000  0.51806000  0.99709600  1
  S  S38  1  0.90974300  0.01941300  0.49698600  1
  S  S39  1  0.51716100  0.54755900  0.02622400  1
  S  S40  1  0.51424100  0.04927900  0.52712700  1
  S  S41  1  0.66230000  0.81929500  0.85767700  1
  S  S42  1  0.67108900  0.31007700  0.34581000  1
  S  S43  1  0.33248300  0.39791400  0.93788000  1
  S  S44  1  0.33415600  0.89468100  0.43595400  1
