# generated using pymatgen
data_KNaCaSi8Ni5O24
_symmetry_space_group_name_H-M   'P 1'
_cell_length_a   5.29636282
_cell_length_b   10.12953091
_cell_length_c   10.34593167
_cell_angle_alpha   119.28521991
_cell_angle_beta   97.59056409
_cell_angle_gamma   74.35440725
_symmetry_Int_Tables_number   1
_chemical_formula_structural   KNaCaSi8Ni5O24
_chemical_formula_sum   'K1 Na1 Ca1 Si8 Ni5 O24'
_cell_volume   466.17979970
_cell_formula_units_Z   1
loop_
 _symmetry_equiv_pos_site_id
 _symmetry_equiv_pos_as_xyz
  1  'x, y, z'
loop_
 _atom_site_type_symbol
 _atom_site_label
 _atom_site_symmetry_multiplicity
 _atom_site_fract_x
 _atom_site_fract_y
 _atom_site_fract_z
 _atom_site_occupancy
  K  K0  1  0.96170700  0.51959800  0.00251200  1
  Na  Na1  1  0.50010600  0.72538400  0.45162500  1
  Ca  Ca2  1  0.49994900  0.27538100  0.55155900  1
  Si  Si3  1  0.69763600  0.18878700  0.83014400  1
  Si  Si4  1  0.69631100  0.35994200  0.17040100  1
  Si  Si5  1  0.30347400  0.81110700  0.17067800  1
  Si  Si6  1  0.30219300  0.64166100  0.82979400  1
  Si  Si7  1  0.19240300  0.11289000  0.65910400  1
  Si  Si8  1  0.19244100  0.45631500  0.34132400  1
  Si  Si9  1  0.80758200  0.88608900  0.34224600  1
  Si  Si10  1  0.80745300  0.54644400  0.65808900  1
  Ni  Ni11  1  0.00022400  0.82074200  0.64118000  1
  Ni  Ni12  1  0.99994600  0.17691600  0.35336800  1
  Ni  Ni13  1  0.50005100  0.91462000  0.82900400  1
  Ni  Ni14  1  0.50020000  0.08445300  0.16865100  1
  Ni  Ni15  1  0.99983100  0.99985900  0.99918800  1
  O  O16  1  0.89255400  0.21314000  0.73470800  1
  O  O17  1  0.89805700  0.47375800  0.26149400  1
  O  O18  1  0.10088400  0.78813100  0.26102700  1
  O  O19  1  0.10632700  0.52247800  0.73528300  1
  O  O20  1  0.40023500  0.22511200  0.76664200  1
  O  O21  1  0.39708600  0.45355900  0.22932800  1
  O  O22  1  0.60335400  0.77629600  0.22923000  1
  O  O23  1  0.60033000  0.54230800  0.76698700  1
  O  O24  1  0.20547500  0.11593700  0.50602500  1
  O  O25  1  0.20299500  0.60504400  0.49850300  1
  O  O26  1  0.79660800  0.89303700  0.49851700  1
  O  O27  1  0.79411000  0.38984500  0.50609100  1
  O  O28  1  0.70012400  0.33107900  0.99959000  1
  O  O29  1  0.30289500  0.66853600  0.99963000  1
  O  O30  1  0.78609200  0.02123500  0.82439100  1
  O  O31  1  0.78589900  0.19661200  0.17547900  1
  O  O32  1  0.21402400  0.97926000  0.17574000  1
  O  O33  1  0.21358700  0.80332300  0.82412400  1
  O  O34  1  0.27681900  0.95024700  0.66819500  1
  O  O35  1  0.28022100  0.28484100  0.33863800  1
  O  O36  1  0.71956000  0.05421100  0.33885000  1
  O  O37  1  0.72271500  0.71818500  0.66771400  1
  O  O38  1  0.30645200  0.09124900  0.99755600  1
  O  O39  1  0.69409000  0.90548900  0.99738600  1
