# generated using pymatgen
data_Mg4Si3
_symmetry_space_group_name_H-M   'P 1'
_cell_length_a   5.85876800
_cell_length_b   7.26336385
_cell_length_c   7.49336266
_cell_angle_alpha   112.97369475
_cell_angle_beta   100.12401140
_cell_angle_gamma   104.32577691
_symmetry_Int_Tables_number   1
_chemical_formula_structural   Mg4Si3
_chemical_formula_sum   'Mg8 Si6'
_cell_volume   270.87226264
_cell_formula_units_Z   2
loop_
 _symmetry_equiv_pos_site_id
 _symmetry_equiv_pos_as_xyz
  1  'x, y, z'
loop_
 _atom_site_type_symbol
 _atom_site_label
 _atom_site_symmetry_multiplicity
 _atom_site_fract_x
 _atom_site_fract_y
 _atom_site_fract_z
 _atom_site_occupancy
  Mg  Mg0  1  0.18472700  0.45338400  0.32165000  1
  Mg  Mg1  1  0.90464100  0.98143300  0.16292900  1
  Mg  Mg2  1  0.35293700  0.23499000  0.65664900  1
  Mg  Mg3  1  0.06715300  0.52888700  0.92843800  1
  Mg  Mg4  1  0.63033300  0.52965400  0.14611300  1
  Mg  Mg5  1  0.14928100  0.80546100  0.68448700  1
  Mg  Mg6  1  0.69546000  0.94199200  0.54603600  1
  Mg  Mg7  1  0.44911800  0.08706100  0.20094700  1
  Si  Si8  1  0.50641200  0.68887200  0.83223200  1
  Si  Si9  1  0.89832300  0.31415300  0.51723800  1
  Si  Si10  1  0.69613500  0.15039300  0.92886600  1
  Si  Si11  1  0.17979100  0.82195000  0.33053300  1
  Si  Si12  1  0.65554000  0.53986400  0.54747100  1
  Si  Si13  1  0.13005100  0.17184700  0.94625200  1
