# generated using pymatgen
data_K2BrCl
_symmetry_space_group_name_H-M   'P 1'
_cell_length_a   8.01675905
_cell_length_b   8.01675905
_cell_length_c   8.01675940
_cell_angle_alpha   33.50867511
_cell_angle_beta   33.50867511
_cell_angle_gamma   33.50867228
_symmetry_Int_Tables_number   1
_chemical_formula_structural   K2BrCl
_chemical_formula_sum   'K2 Br1 Cl1'
_cell_volume   139.85640609
_cell_formula_units_Z   1
loop_
 _symmetry_equiv_pos_site_id
 _symmetry_equiv_pos_as_xyz
  1  'x, y, z'
loop_
 _atom_site_type_symbol
 _atom_site_label
 _atom_site_symmetry_multiplicity
 _atom_site_fract_x
 _atom_site_fract_y
 _atom_site_fract_z
 _atom_site_occupancy
  K  K0  1  0.25364300  0.25364300  0.25364300  1
  K  K1  1  0.74635700  0.74635700  0.74635700  1
  Br  Br2  1  0.50000000  0.50000000  0.50000000  1
  Cl  Cl3  1  0.00000000  0.00000000  0.00000000  1
