# generated using pymatgen
data_Mg4Si3
_symmetry_space_group_name_H-M   'P 1'
_cell_length_a   6.75644312
_cell_length_b   7.10822165
_cell_length_c   8.27158098
_cell_angle_alpha   80.37936501
_cell_angle_beta   54.49951554
_cell_angle_gamma   108.41947604
_symmetry_Int_Tables_number   1
_chemical_formula_structural   Mg4Si3
_chemical_formula_sum   'Mg8 Si6'
_cell_volume   273.40654168
_cell_formula_units_Z   2
loop_
 _symmetry_equiv_pos_site_id
 _symmetry_equiv_pos_as_xyz
  1  'x, y, z'
loop_
 _atom_site_type_symbol
 _atom_site_label
 _atom_site_symmetry_multiplicity
 _atom_site_fract_x
 _atom_site_fract_y
 _atom_site_fract_z
 _atom_site_occupancy
  Mg  Mg0  1  0.86862900  0.77225500  0.68393400  1
  Mg  Mg1  1  0.40823300  0.94518700  0.16591200  1
  Mg  Mg2  1  0.78937300  0.50394700  0.40790200  1
  Mg  Mg3  1  0.31265700  0.63370300  0.53757600  1
  Mg  Mg4  1  0.80792600  0.41072000  0.04569700  1
  Mg  Mg5  1  0.37264800  0.88869800  0.81409600  1
  Mg  Mg6  1  0.93094500  0.06175400  0.24949200  1
  Mg  Mg7  1  0.09467800  0.15495100  0.79221400  1
  Si  Si8  1  0.74639800  0.31122600  0.76157400  1
  Si  Si9  1  0.35341400  0.48058500  0.84454500  1
  Si  Si10  1  0.74949100  0.74630700  0.11772100  1
  Si  Si11  1  0.05393300  0.21418900  0.48205300  1
  Si  Si12  1  0.33151500  0.54828900  0.14115900  1
  Si  Si13  1  0.42998000  0.07807100  0.45620500  1
