# generated using pymatgen
data_K9NaTl13
_symmetry_space_group_name_H-M   'P 1'
_cell_length_a   10.75301831
_cell_length_b   10.75301831
_cell_length_c   10.75301818
_cell_angle_alpha   109.97840958
_cell_angle_beta   109.97840958
_cell_angle_gamma   109.97841495
_symmetry_Int_Tables_number   1
_chemical_formula_structural   K9NaTl13
_chemical_formula_sum   'K9 Na1 Tl13'
_cell_volume   938.72331011
_cell_formula_units_Z   1
loop_
 _symmetry_equiv_pos_site_id
 _symmetry_equiv_pos_as_xyz
  1  'x, y, z'
loop_
 _atom_site_type_symbol
 _atom_site_label
 _atom_site_symmetry_multiplicity
 _atom_site_fract_x
 _atom_site_fract_y
 _atom_site_fract_z
 _atom_site_occupancy
  K  K0  1  0.50000000  0.00000000  0.00000000  1
  K  K1  1  0.00000000  0.50000000  0.00000000  1
  K  K2  1  0.00000000  0.00000000  0.50000000  1
  K  K3  1  0.33105900  0.82513200  0.50039600  1
  K  K4  1  0.66894100  0.17486800  0.49960400  1
  K  K5  1  0.82513200  0.50039600  0.33105900  1
  K  K6  1  0.17486800  0.49960400  0.66894100  1
  K  K7  1  0.50039600  0.33105900  0.82513200  1
  K  K8  1  0.49960400  0.66894100  0.17486800  1
  Na  Na9  1  0.50000000  0.50000000  0.50000000  1
  Tl  Tl10  1  0.23264100  0.87400900  0.10348400  1
  Tl  Tl11  1  0.76735900  0.12599100  0.89651600  1
  Tl  Tl12  1  0.24614200  0.14717600  0.37770600  1
  Tl  Tl13  1  0.75385800  0.85282400  0.62229400  1
  Tl  Tl14  1  0.87400900  0.10348400  0.23264100  1
  Tl  Tl15  1  0.12599100  0.89651600  0.76735900  1
  Tl  Tl16  1  0.14717600  0.37770600  0.24614200  1
  Tl  Tl17  1  0.85282400  0.62229400  0.75385800  1
  Tl  Tl18  1  0.10348400  0.23264100  0.87400900  1
  Tl  Tl19  1  0.89651600  0.76735900  0.12599100  1
  Tl  Tl20  1  0.37770600  0.24614200  0.14717600  1
  Tl  Tl21  1  0.62229400  0.75385800  0.85282400  1
  Tl  Tl22  1  0.00000000  0.00000000  0.00000000  1
