# generated using pymatgen
data_KAl3Si3(HO6)2
_symmetry_space_group_name_H-M   'P 1'
_cell_length_a   5.23223990
_cell_length_b   5.25214878
_cell_length_c   20.60073288
_cell_angle_alpha   93.12855098
_cell_angle_beta   83.70956984
_cell_angle_gamma   119.87468569
_symmetry_Int_Tables_number   1
_chemical_formula_structural   KAl3Si3(HO6)2
_chemical_formula_sum   'K2 Al6 Si6 H4 O24'
_cell_volume   487.93539129
_cell_formula_units_Z   2
loop_
 _symmetry_equiv_pos_site_id
 _symmetry_equiv_pos_as_xyz
  1  'x, y, z'
loop_
 _atom_site_type_symbol
 _atom_site_label
 _atom_site_symmetry_multiplicity
 _atom_site_fract_x
 _atom_site_fract_y
 _atom_site_fract_z
 _atom_site_occupancy
  K  K0  1  0.09376400  0.19333500  0.25646600  1
  K  K1  1  0.90042900  0.80666500  0.75646600  1
  Al  Al2  1  0.33476000  0.16957600  0.49756600  1
  Al  Al3  1  0.82670400  0.15931400  0.99722800  1
  Al  Al4  1  0.66739000  0.84068600  0.49722800  1
  Al  Al5  1  0.16518400  0.83042400  0.99756600  1
  Al  Al6  1  0.39093000  0.85197700  0.36707600  1
  Al  Al7  1  0.53895300  0.14802300  0.86707600  1
  Si  Si8  1  0.70342000  0.50744300  0.36486100  1
  Si  Si9  1  0.80980400  0.51428300  0.13279000  1
  Si  Si10  1  0.29552000  0.48571700  0.63279000  1
  Si  Si11  1  0.19597700  0.49255700  0.86486100  1
  Si  Si12  1  0.46595600  0.85735700  0.13301600  1
  Si  Si13  1  0.60859900  0.14264300  0.63301600  1
  H  H14  1  0.03016300  0.26851100  0.42363000  1
  H  H15  1  0.25374800  0.28077600  0.06405700  1
  H  H16  1  0.97297200  0.71922400  0.56405700  1
  H  H17  1  0.76165200  0.73148900  0.92363000  1
  O  O18  1  0.41378500  0.89860900  0.45213500  1
  O  O19  1  0.47404000  0.87745700  0.05493600  1
  O  O20  1  0.59658200  0.12254300  0.55493600  1
  O  O21  1  0.51517600  0.10139100  0.95213500  1
  O  O22  1  0.02133300  0.11931500  0.45124700  1
  O  O23  1  0.08042500  0.10304600  0.05151100  1
  O  O24  1  0.97738000  0.89695400  0.55151100  1
  O  O25  1  0.90201800  0.88068500  0.95124700  1
  O  O26  1  0.48594300  0.18958100  0.33315900  1
  O  O27  1  0.65171100  0.18436300  0.16597300  1
  O  O28  1  0.46734800  0.81563700  0.66597300  1
  O  O29  1  0.29636300  0.81041900  0.83315900  1
  O  O30  1  0.04258900  0.57135200  0.34827200  1
  O  O31  1  0.58596000  0.64457100  0.15638500  1
  O  O32  1  0.94138900  0.35542900  0.65638500  1
  O  O33  1  0.47123700  0.42864800  0.84827200  1
  O  O34  1  0.65102100  0.75100200  0.33237500  1
  O  O35  1  0.12042700  0.71319600  0.16696600  1
  O  O36  1  0.40723100  0.28680400  0.66696600  1
  O  O37  1  0.90001900  0.24899800  0.83237500  1
  O  O38  1  0.62416600  0.50451700  0.44627000  1
  O  O39  1  0.86738700  0.49649000  0.05408000  1
  O  O40  1  0.37089700  0.50351000  0.55408000  1
  O  O41  1  0.11964900  0.49548300  0.94627000  1
