# generated using pymatgen
data_KRe6Se5Cl7O3
_symmetry_space_group_name_H-M   'P 1'
_cell_length_a   9.01123400
_cell_length_b   9.06050383
_cell_length_c   9.11462591
_cell_angle_alpha   65.19754427
_cell_angle_beta   66.59527003
_cell_angle_gamma   64.87665670
_symmetry_Int_Tables_number   1
_chemical_formula_structural   KRe6Se5Cl7O3
_chemical_formula_sum   'K1 Re6 Se5 Cl7 O3'
_cell_volume   589.48649840
_cell_formula_units_Z   1
loop_
 _symmetry_equiv_pos_site_id
 _symmetry_equiv_pos_as_xyz
  1  'x, y, z'
loop_
 _atom_site_type_symbol
 _atom_site_label
 _atom_site_symmetry_multiplicity
 _atom_site_fract_x
 _atom_site_fract_y
 _atom_site_fract_z
 _atom_site_occupancy
  K  K0  1  0.49201500  0.49979900  0.49437600  1
  Re  Re1  1  0.94488900  0.79440900  0.10336300  1
  Re  Re2  1  0.80579300  0.10044700  0.94072700  1
  Re  Re3  1  0.10583800  0.93961600  0.79846600  1
  Re  Re4  1  0.04934500  0.20420100  0.88552500  1
  Re  Re5  1  0.19722200  0.89384000  0.05666600  1
  Re  Re6  1  0.88031600  0.05362200  0.20249100  1
  Se  Se7  1  0.76290400  0.35723600  0.04145200  1
  Se  Se8  1  0.34492000  0.04850800  0.74974300  1
  Se  Se9  1  0.03529900  0.75817200  0.35563000  1
  Se  Se10  1  0.24297200  0.64010300  0.97036300  1
  Se  Se11  1  0.85501200  0.85014400  0.84898100  1
  Cl  Cl12  1  0.11518400  0.46781600  0.74436400  1
  Cl  Cl13  1  0.46254600  0.75971100  0.12652300  1
  Cl  Cl14  1  0.73916400  0.12340000  0.45832700  1
  Cl  Cl15  1  0.85694000  0.54308700  0.25857200  1
  Cl  Cl16  1  0.53932900  0.25327800  0.87193700  1
  Cl  Cl17  1  0.24261600  0.88578700  0.53263100  1
  Cl  Cl18  1  0.14109500  0.14766700  0.14307300  1
  O  O19  1  0.71061000  0.96475200  0.20784300  1
  O  O20  1  0.97088000  0.20273900  0.70587100  1
  O  O21  1  0.34611000  0.35266500  0.34407700  1
