# generated using pymatgen
data_InPt2
_symmetry_space_group_name_H-M   'P 1'
_cell_length_a   4.14253100
_cell_length_b   5.75452000
_cell_length_c   17.33998962
_cell_angle_alpha   86.94837150
_cell_angle_beta   90.00000000
_cell_angle_gamma   90.00000000
_symmetry_Int_Tables_number   1
_chemical_formula_structural   InPt2
_chemical_formula_sum   'In8 Pt16'
_cell_volume   412.76933389
_cell_formula_units_Z   8
loop_
 _symmetry_equiv_pos_site_id
 _symmetry_equiv_pos_as_xyz
  1  'x, y, z'
loop_
 _atom_site_type_symbol
 _atom_site_label
 _atom_site_symmetry_multiplicity
 _atom_site_fract_x
 _atom_site_fract_y
 _atom_site_fract_z
 _atom_site_occupancy
  In  In0  1  0.50000000  0.72543200  0.23883500  1
  In  In1  1  0.50000000  0.72508400  0.57580100  1
  In  In2  1  0.50000000  0.74780300  0.91639200  1
  In  In3  1  0.50000000  0.25219700  0.08360800  1
  In  In4  1  0.50000000  0.27491600  0.42419900  1
  In  In5  1  0.50000000  0.27456800  0.76116500  1
  In  In6  1  0.00000000  0.99898400  0.33124400  1
  In  In7  1  0.00000000  0.00101600  0.66875600  1
  Pt  Pt8  1  0.00000000  0.99854400  0.16758900  1
  Pt  Pt9  1  0.00000000  0.00000000  0.50000000  1
  Pt  Pt10  1  0.00000000  0.00145600  0.83241100  1
  Pt  Pt11  1  0.00000000  0.50000000  0.00000000  1
  Pt  Pt12  1  0.00000000  0.50090700  0.33318600  1
  Pt  Pt13  1  0.00000000  0.49909300  0.66681400  1
  Pt  Pt14  1  0.00000000  0.49226400  0.16524800  1
  Pt  Pt15  1  0.00000000  0.50000000  0.50000000  1
  Pt  Pt16  1  0.00000000  0.50773600  0.83475200  1
  Pt  Pt17  1  0.50000000  0.23684000  0.25544300  1
  Pt  Pt18  1  0.50000000  0.23067400  0.58943500  1
  Pt  Pt19  1  0.50000000  0.24417200  0.92014100  1
  Pt  Pt20  1  0.50000000  0.75582800  0.07985900  1
  Pt  Pt21  1  0.50000000  0.76932600  0.41056500  1
  Pt  Pt22  1  0.50000000  0.76316000  0.74455700  1
  Pt  Pt23  1  0.00000000  0.00000000  0.00000000  1
