# generated using pymatgen
data_K7RbTi8(PO5)8
_symmetry_space_group_name_H-M   'P 1'
_cell_length_a   6.48080500
_cell_length_b   10.70379381
_cell_length_c   13.00580661
_cell_angle_alpha   89.99248187
_cell_angle_beta   89.91446032
_cell_angle_gamma   89.97765721
_symmetry_Int_Tables_number   1
_chemical_formula_structural   K7RbTi8(PO5)8
_chemical_formula_sum   'K7 Rb1 Ti8 P8 O40'
_cell_volume   902.20132389
_cell_formula_units_Z   1
loop_
 _symmetry_equiv_pos_site_id
 _symmetry_equiv_pos_as_xyz
  1  'x, y, z'
loop_
 _atom_site_type_symbol
 _atom_site_label
 _atom_site_symmetry_multiplicity
 _atom_site_fract_x
 _atom_site_fract_y
 _atom_site_fract_z
 _atom_site_occupancy
  K  K0  1  0.19323200  0.56925500  0.39564900  1
  K  K1  1  0.30673500  0.56922100  0.89567100  1
  K  K2  1  0.69325000  0.06923500  0.10436100  1
  K  K3  1  0.72191100  0.31161300  0.87719800  1
  K  K4  1  0.27812000  0.81154400  0.12288500  1
  K  K5  1  0.22189300  0.81144100  0.62293900  1
  K  K6  1  0.77804200  0.31165900  0.37695000  1
  Rb  Rb7  1  0.81169200  0.06983100  0.60439600  1
  Ti  Ti8  1  0.23734600  0.25495300  0.74733200  1
  Ti  Ti9  1  0.76328500  0.75454000  0.25291900  1
  Ti  Ti10  1  0.73656800  0.75443300  0.75309700  1
  Ti  Ti11  1  0.26334200  0.25463300  0.24693900  1
  Ti  Ti12  1  0.00420400  0.00228500  0.87178700  1
  Ti  Ti13  1  0.99611500  0.50239400  0.12859800  1
  Ti  Ti14  1  0.50399600  0.50253000  0.62856200  1
  Ti  Ti15  1  0.49575900  0.00238000  0.37110100  1
  P  P16  1  0.16322500  0.26042600  0.99913400  1
  P  P17  1  0.83677500  0.76039000  0.00094300  1
  P  P18  1  0.66301900  0.76015600  0.50086600  1
  P  P19  1  0.33596300  0.26096300  0.49881500  1
  P  P20  1  0.00024100  0.51283600  0.68129100  1
  P  P21  1  0.99976300  0.01273900  0.31818300  1
  P  P22  1  0.49997700  0.01274600  0.81900300  1
  P  P23  1  0.49967600  0.51289400  0.18130900  1
  O  O24  1  0.30384100  0.24024700  0.09514700  1
  O  O25  1  0.69619800  0.74022500  0.90491900  1
  O  O26  1  0.80397900  0.74020400  0.40476500  1
  O  O27  1  0.19686100  0.24078600  0.59546600  1
  O  O28  1  0.01476200  0.14950400  0.98668700  1
  O  O29  1  0.98531700  0.64943500  0.01349400  1
  O  O30  1  0.51460100  0.64927800  0.51354300  1
  O  O31  1  0.48286800  0.14941400  0.48522000  1
  O  O32  1  0.96185000  0.62850900  0.75180500  1
  O  O33  1  0.03846600  0.12855000  0.24801600  1
  O  O34  1  0.46100700  0.12843500  0.74869300  1
  O  O35  1  0.53797000  0.62850000  0.25180900  1
  O  O36  1  0.04062600  0.40017200  0.75345600  1
  O  O37  1  0.95959600  0.89989600  0.24630500  1
  O  O38  1  0.54036400  0.89989600  0.74690700  1
  O  O39  1  0.45909900  0.40014400  0.25342200  1
  O  O40  1  0.19042600  0.54162200  0.61320100  1
  O  O41  1  0.80846900  0.04157700  0.38539500  1
  O  O42  1  0.69020800  0.04167000  0.88668700  1
  O  O43  1  0.30975600  0.54164200  0.11325100  1
  O  O44  1  0.03990600  0.14271900  0.77946300  1
  O  O45  1  0.96184900  0.64220200  0.22210300  1
  O  O46  1  0.53806700  0.64219300  0.72219400  1
  O  O47  1  0.46169000  0.14225000  0.27768400  1
  O  O48  1  0.03275500  0.38248800  0.01171200  1
  O  O49  1  0.96710300  0.88241800  0.98845800  1
  O  O50  1  0.53229700  0.88211100  0.48807900  1
  O  O51  1  0.46734000  0.38244500  0.51154600  1
  O  O52  1  0.30154600  0.28165200  0.90271500  1
  O  O53  1  0.69866800  0.78142600  0.09746400  1
  O  O54  1  0.80087000  0.78074800  0.59734800  1
  O  O55  1  0.19786000  0.28200000  0.40256700  1
  O  O56  1  0.81045100  0.48583400  0.61275600  1
  O  O57  1  0.18900300  0.98580900  0.38717700  1
  O  O58  1  0.31017000  0.98560900  0.88765200  1
  O  O59  1  0.68979300  0.48584900  0.11269500  1
  O  O60  1  0.95817600  0.88851700  0.77580000  1
  O  O61  1  0.04196800  0.38881100  0.22459800  1
  O  O62  1  0.45821400  0.38887100  0.72467900  1
  O  O63  1  0.54188300  0.88864300  0.27519900  1
