# generated using pymatgen
data_K4MoWO8
_symmetry_space_group_name_H-M   'P 1'
_cell_length_a   7.01721861
_cell_length_b   7.01721861
_cell_length_c   7.70152193
_cell_angle_alpha   67.13649009
_cell_angle_beta   67.13649009
_cell_angle_gamma   52.76459278
_symmetry_Int_Tables_number   1
_chemical_formula_structural   K4MoWO8
_chemical_formula_sum   'K4 Mo1 W1 O8'
_cell_volume   272.05412496
_cell_formula_units_Z   1
loop_
 _symmetry_equiv_pos_site_id
 _symmetry_equiv_pos_as_xyz
  1  'x, y, z'
loop_
 _atom_site_type_symbol
 _atom_site_label
 _atom_site_symmetry_multiplicity
 _atom_site_fract_x
 _atom_site_fract_y
 _atom_site_fract_z
 _atom_site_occupancy
  K  K0  1  0.84474200  0.84474200  0.74700000  1
  K  K1  1  0.15541400  0.15541400  0.25382400  1
  K  K2  1  0.50868500  0.50868500  0.76705800  1
  K  K3  1  0.49120700  0.49120700  0.23252600  1
  Mo  Mo4  1  0.82394300  0.82394300  0.23060700  1
  W  W5  1  0.17599700  0.17599700  0.76906200  1
  O  O6  1  0.90444900  0.38406200  0.91752900  1
  O  O7  1  0.38406200  0.90444900  0.91752900  1
  O  O8  1  0.09298500  0.61785200  0.08375400  1
  O  O9  1  0.61785200  0.09298500  0.08375400  1
  O  O10  1  0.33372600  0.33372600  0.61026400  1
  O  O11  1  0.66807400  0.66807400  0.38877100  1
  O  O12  1  0.08592800  0.08592800  0.63669700  1
  O  O13  1  0.91293500  0.91293500  0.36162600  1
