# generated using pymatgen
data_K(WO3)3
_symmetry_space_group_name_H-M   'P 1'
_cell_length_a   7.52043633
_cell_length_b   7.52043633
_cell_length_c   3.88328500
_cell_angle_alpha   90.00000000
_cell_angle_beta   90.00000000
_cell_angle_gamma   120.00000287
_symmetry_Int_Tables_number   1
_chemical_formula_structural   K(WO3)3
_chemical_formula_sum   'K1 W3 O9'
_cell_volume   190.20238634
_cell_formula_units_Z   1
loop_
 _symmetry_equiv_pos_site_id
 _symmetry_equiv_pos_as_xyz
  1  'x, y, z'
loop_
 _atom_site_type_symbol
 _atom_site_label
 _atom_site_symmetry_multiplicity
 _atom_site_fract_x
 _atom_site_fract_y
 _atom_site_fract_z
 _atom_site_occupancy
  K  K0  1  0.00000000  0.00000000  0.90014700  1
  W  W1  1  0.50000000  0.00000000  0.49924900  1
  W  W2  1  0.00000000  0.50000000  0.49924900  1
  W  W3  1  0.50000000  0.50000000  0.49924900  1
  O  O4  1  0.78988000  0.21012000  0.50041900  1
  O  O5  1  0.21012000  0.78988000  0.50041900  1
  O  O6  1  0.57975900  0.78988000  0.50041900  1
  O  O7  1  0.42024100  0.21012000  0.50041900  1
  O  O8  1  0.78988000  0.57975900  0.50041900  1
  O  O9  1  0.21012000  0.42024100  0.50041900  1
  O  O10  1  0.50000000  0.00000000  0.99986300  1
  O  O11  1  0.00000000  0.50000000  0.99986300  1
  O  O12  1  0.50000000  0.50000000  0.99986300  1
