# generated using pymatgen
data_K5Na3(MoO4)4
_symmetry_space_group_name_H-M   'P 1'
_cell_length_a   6.12070500
_cell_length_b   6.12048121
_cell_length_c   15.35068402
_cell_angle_alpha   90.06022847
_cell_angle_beta   90.29572021
_cell_angle_gamma   119.94995798
_symmetry_Int_Tables_number   1
_chemical_formula_structural   K5Na3(MoO4)4
_chemical_formula_sum   'K5 Na3 Mo4 O16'
_cell_volume   498.25832644
_cell_formula_units_Z   1
loop_
 _symmetry_equiv_pos_site_id
 _symmetry_equiv_pos_as_xyz
  1  'x, y, z'
loop_
 _atom_site_type_symbol
 _atom_site_label
 _atom_site_symmetry_multiplicity
 _atom_site_fract_x
 _atom_site_fract_y
 _atom_site_fract_z
 _atom_site_occupancy
  K  K0  1  0.05486500  0.05490000  0.75090900  1
  K  K1  1  0.94521300  0.94523800  0.24990500  1
  K  K2  1  0.35546900  0.69240200  0.58426400  1
  K  K3  1  0.30680700  0.64397100  0.08370400  1
  K  K4  1  0.64455900  0.30755100  0.41583400  1
  Na  Na5  1  0.99999600  0.00006200  0.49999100  1
  Na  Na6  1  0.99993300  0.99981000  0.99940700  1
  Na  Na7  1  0.68413800  0.34958300  0.90887300  1
  Mo  Mo8  1  0.69165700  0.35920000  0.64214000  1
  Mo  Mo9  1  0.35993400  0.69196400  0.86150900  1
  Mo  Mo10  1  0.30847600  0.64065900  0.36096400  1
  Mo  Mo11  1  0.64074600  0.30851000  0.13752800  1
  O  O12  1  0.39487800  0.21492000  0.58400400  1
  O  O13  1  0.21329400  0.39370300  0.91783800  1
  O  O14  1  0.60698500  0.78549200  0.41803200  1
  O  O15  1  0.78390500  0.60363000  0.07928100  1
  O  O16  1  0.84681100  0.69136500  0.61975600  1
  O  O17  1  0.69453800  0.84593200  0.88097600  1
  O  O18  1  0.15220300  0.30638700  0.38071200  1
  O  O19  1  0.30562500  0.15132300  0.11931700  1
  O  O20  1  0.87175700  0.23190400  0.59295800  1
  O  O21  1  0.23725900  0.87918700  0.90869700  1
  O  O22  1  0.12657300  0.76854200  0.40851000  1
  O  O23  1  0.76769500  0.12484600  0.09098500  1
  O  O24  1  0.63795100  0.28769300  0.75648400  1
  O  O25  1  0.28080500  0.63275400  0.74834700  1
  O  O26  1  0.36758400  0.71937000  0.24828400  1
  O  O27  1  0.72034400  0.36910700  0.25078900  1
