# generated using pymatgen
data_K3RbMn2F12
_symmetry_space_group_name_H-M   'P 1'
_cell_length_a   5.98525727
_cell_length_b   8.46117700
_cell_length_c   5.98525727
_cell_angle_alpha   90.00000000
_cell_angle_beta   90.00000000
_cell_angle_gamma   90.00000000
_symmetry_Int_Tables_number   1
_chemical_formula_structural   K3RbMn2F12
_chemical_formula_sum   'K3 Rb1 Mn2 F12'
_cell_volume   303.10732045
_cell_formula_units_Z   1
loop_
 _symmetry_equiv_pos_site_id
 _symmetry_equiv_pos_as_xyz
  1  'x, y, z'
loop_
 _atom_site_type_symbol
 _atom_site_label
 _atom_site_symmetry_multiplicity
 _atom_site_fract_x
 _atom_site_fract_y
 _atom_site_fract_z
 _atom_site_occupancy
  K  K0  1  0.00000000  0.75000000  0.50000000  1
  K  K1  1  0.50000000  0.75000000  0.00000000  1
  K  K2  1  0.00000000  0.25000000  0.50000000  1
  Rb  Rb3  1  0.50000000  0.25000000  0.00000000  1
  Mn  Mn4  1  0.00000000  0.99900100  0.00000000  1
  Mn  Mn5  1  0.50000000  0.50099900  0.50000000  1
  F  F6  1  0.00000000  0.21722200  0.00000000  1
  F  F7  1  0.50000000  0.71899600  0.50000000  1
  F  F8  1  0.28077500  0.50158300  0.28320500  1
  F  F9  1  0.78320500  0.99841700  0.78077500  1
  F  F10  1  0.28077500  0.50158300  0.71679500  1
  F  F11  1  0.78320500  0.99841700  0.21922500  1
  F  F12  1  0.00000000  0.78100400  0.00000000  1
  F  F13  1  0.50000000  0.28277800  0.50000000  1
  F  F14  1  0.71922500  0.50158300  0.71679500  1
  F  F15  1  0.21679500  0.99841700  0.21922500  1
  F  F16  1  0.71922500  0.50158300  0.28320500  1
  F  F17  1  0.21679500  0.99841700  0.78077500  1
