# generated using pymatgen
data_K5Yb(MoO4)4
_symmetry_space_group_name_H-M   'P 1'
_cell_length_a   6.13814791
_cell_length_b   9.99298260
_cell_length_c   7.82123792
_cell_angle_alpha   73.42889103
_cell_angle_beta   89.99999682
_cell_angle_gamma   89.99999873
_symmetry_Int_Tables_number   1
_chemical_formula_structural   K5Yb(MoO4)4
_chemical_formula_sum   'K5 Yb1 Mo4 O16'
_cell_volume   459.81689089
_cell_formula_units_Z   1
loop_
 _symmetry_equiv_pos_site_id
 _symmetry_equiv_pos_as_xyz
  1  'x, y, z'
loop_
 _atom_site_type_symbol
 _atom_site_label
 _atom_site_symmetry_multiplicity
 _atom_site_fract_x
 _atom_site_fract_y
 _atom_site_fract_z
 _atom_site_occupancy
  K  K0  1  0.50000000  0.31027800  0.12780500  1
  K  K1  1  0.00000000  0.81399600  0.62188100  1
  K  K2  1  0.50000000  0.68972200  0.87219500  1
  K  K3  1  0.00000000  0.18600400  0.37811900  1
  K  K4  1  0.00000000  0.00000000  0.00000000  1
  Yb  Yb5  1  0.50000000  0.50000000  0.50000000  1
  Mo  Mo6  1  0.00000000  0.59817000  0.21800400  1
  Mo  Mo7  1  0.50000000  0.11043700  0.69575000  1
  Mo  Mo8  1  0.00000000  0.40183000  0.78199600  1
  Mo  Mo9  1  0.50000000  0.88956300  0.30425000  1
  O  O10  1  0.50000000  0.17307100  0.88732800  1
  O  O11  1  0.00000000  0.70546600  0.36158200  1
  O  O12  1  0.50000000  0.82692900  0.11267200  1
  O  O13  1  0.00000000  0.29453400  0.63841800  1
  O  O14  1  0.24768800  0.49393800  0.26528200  1
  O  O15  1  0.73619600  0.00266600  0.70175300  1
  O  O16  1  0.75231200  0.49393800  0.26528200  1
  O  O17  1  0.26380400  0.00266600  0.70175300  1
  O  O18  1  0.00000000  0.70745800  0.99113700  1
  O  O19  1  0.50000000  0.26002400  0.49839300  1
  O  O20  1  0.75231200  0.50606200  0.73471800  1
  O  O21  1  0.26380400  0.99733400  0.29824700  1
  O  O22  1  0.24768800  0.50606200  0.73471800  1
  O  O23  1  0.73619600  0.99733400  0.29824700  1
  O  O24  1  0.00000000  0.29254200  0.00886300  1
  O  O25  1  0.50000000  0.73997600  0.50160700  1
