# generated using pymatgen
data_K2AlMo3(P2O7)4
_symmetry_space_group_name_H-M   'P 1'
_cell_length_a   7.68221755
_cell_length_b   9.33544508
_cell_length_c   9.74605724
_cell_angle_alpha   62.04760804
_cell_angle_beta   76.74870200
_cell_angle_gamma   99.99141634
_symmetry_Int_Tables_number   1
_chemical_formula_structural   K2AlMo3(P2O7)4
_chemical_formula_sum   'K2 Al1 Mo3 P8 O28'
_cell_volume   567.98860058
_cell_formula_units_Z   1
loop_
 _symmetry_equiv_pos_site_id
 _symmetry_equiv_pos_as_xyz
  1  'x, y, z'
loop_
 _atom_site_type_symbol
 _atom_site_label
 _atom_site_symmetry_multiplicity
 _atom_site_fract_x
 _atom_site_fract_y
 _atom_site_fract_z
 _atom_site_occupancy
  K  K0  1  0.00000000  0.25000000  0.25000000  1
  K  K1  1  0.00000000  0.75000000  0.75000000  1
  Al  Al2  1  0.50000000  0.75000000  0.75000000  1
  Mo  Mo3  1  0.99933500  0.99934700  0.00244500  1
  Mo  Mo4  1  0.00066500  0.50065300  0.49755500  1
  Mo  Mo5  1  0.50000000  0.25000000  0.25000000  1
  P  P6  1  0.24243100  0.21085300  0.59359400  1
  P  P7  1  0.24644300  0.71320100  0.08451600  1
  P  P8  1  0.75756900  0.28914700  0.90640600  1
  P  P9  1  0.75355700  0.78679900  0.41548400  1
  P  P10  1  0.61662700  0.67995100  0.06307800  1
  P  P11  1  0.61490700  0.16604100  0.57823500  1
  P  P12  1  0.38337300  0.82004900  0.43692200  1
  P  P13  1  0.38509300  0.33395900  0.92176500  1
  O  O14  1  0.10337900  0.05174700  0.75838500  1
  O  O15  1  0.10672300  0.55390600  0.25141300  1
  O  O16  1  0.89662100  0.44825300  0.74161500  1
  O  O17  1  0.89327700  0.94609400  0.24858700  1
  O  O18  1  0.79508500  0.77288300  0.06743900  1
  O  O19  1  0.79217500  0.26811600  0.57610200  1
  O  O20  1  0.20491500  0.72711700  0.43256100  1
  O  O21  1  0.20782500  0.23188400  0.92389800  1
  O  O22  1  0.34862200  0.30183500  0.09980700  1
  O  O23  1  0.35970100  0.79825300  0.60660700  1
  O  O24  1  0.65137800  0.19816500  0.40019300  1
  O  O25  1  0.64029900  0.70174700  0.89339300  1
  O  O26  1  0.44992300  0.24657700  0.60831300  1
  O  O27  1  0.45015200  0.75250500  0.10577100  1
  O  O28  1  0.55007700  0.25342300  0.89168700  1
  O  O29  1  0.54984800  0.74749500  0.39422900  1
  O  O30  1  0.19615900  0.37426600  0.55459200  1
  O  O31  1  0.19420200  0.87331300  0.05222800  1
  O  O32  1  0.80384100  0.12573400  0.94540800  1
  O  O33  1  0.80579800  0.62668700  0.44777200  1
  O  O34  1  0.25592200  0.16977200  0.45606800  1
  O  O35  1  0.27202000  0.67749100  0.94391300  1
  O  O36  1  0.74407800  0.33022800  0.04393200  1
  O  O37  1  0.72798000  0.82250900  0.55608700  1
  O  O38  1  0.54918500  0.48985400  0.20510800  1
  O  O39  1  0.54922200  0.97654200  0.70740100  1
  O  O40  1  0.45081500  0.01014600  0.29489200  1
  O  O41  1  0.45077800  0.52345800  0.79259900  1
