# generated using pymatgen
data_Hg2I3Br
_symmetry_space_group_name_H-M   'P 1'
_cell_length_a   4.56726613
_cell_length_b   4.56726613
_cell_length_c   14.07070788
_cell_angle_alpha   88.75777066
_cell_angle_beta   88.75777066
_cell_angle_gamma   69.41849207
_symmetry_Int_Tables_number   1
_chemical_formula_structural   Hg2I3Br
_chemical_formula_sum   'Hg2 I3 Br1'
_cell_volume   274.68417350
_cell_formula_units_Z   1
loop_
 _symmetry_equiv_pos_site_id
 _symmetry_equiv_pos_as_xyz
  1  'x, y, z'
loop_
 _atom_site_type_symbol
 _atom_site_label
 _atom_site_symmetry_multiplicity
 _atom_site_fract_x
 _atom_site_fract_y
 _atom_site_fract_z
 _atom_site_occupancy
  Hg  Hg0  1  0.65979200  0.65979200  0.66594200  1
  Hg  Hg1  1  0.33554700  0.33554700  0.16904100  1
  I  I2  1  0.40762600  0.40762600  0.53622100  1
  I  I3  1  0.59227400  0.59227400  0.03686000  1
  I  I4  1  0.91399000  0.91399000  0.79540500  1
  Br  Br5  1  0.09077200  0.09077200  0.29181200  1
