# generated using pymatgen
data_Ho2ScNbO7
_symmetry_space_group_name_H-M   'P 1'
_cell_length_a   7.35502639
_cell_length_b   7.35502639
_cell_length_c   7.35502639
_cell_angle_alpha   120.76160533
_cell_angle_beta   119.37150453
_cell_angle_gamma   89.88898631
_symmetry_Int_Tables_number   1
_chemical_formula_structural   Ho2ScNbO7
_chemical_formula_sum   'Ho4 Sc2 Nb2 O14'
_cell_volume   281.00860874
_cell_formula_units_Z   2
loop_
 _symmetry_equiv_pos_site_id
 _symmetry_equiv_pos_as_xyz
  1  'x, y, z'
loop_
 _atom_site_type_symbol
 _atom_site_label
 _atom_site_symmetry_multiplicity
 _atom_site_fract_x
 _atom_site_fract_y
 _atom_site_fract_z
 _atom_site_occupancy
  Ho  Ho0  1  0.50000000  0.50000000  0.50000000  1
  Ho  Ho1  1  0.50000000  0.00000000  0.00000000  1
  Ho  Ho2  1  0.50000000  0.50000000  0.00000000  1
  Ho  Ho3  1  0.00000000  0.50000000  0.50000000  1
  Sc  Sc4  1  0.00000000  0.00000000  0.50000000  1
  Sc  Sc5  1  0.00000000  0.50000000  0.00000000  1
  Nb  Nb6  1  0.00000000  0.00000000  0.00000000  1
  Nb  Nb7  1  0.50000000  0.00000000  0.50000000  1
  O  O8  1  0.34475500  0.07901100  0.67486200  1
  O  O9  1  0.90414900  0.07901100  0.23425500  1
  O  O10  1  0.89832500  0.64832500  0.25000000  1
  O  O11  1  0.90414900  0.66989300  0.82513800  1
  O  O12  1  0.34475500  0.66989300  0.26574500  1
  O  O13  1  0.32631700  0.07631700  0.25000000  1
  O  O14  1  0.65524500  0.92098900  0.32513800  1
  O  O15  1  0.09585100  0.92098900  0.76574500  1
  O  O16  1  0.10167500  0.35167500  0.75000000  1
  O  O17  1  0.09585100  0.33010700  0.17486200  1
  O  O18  1  0.65524500  0.33010700  0.73425500  1
  O  O19  1  0.67368300  0.92368300  0.75000000  1
  O  O20  1  0.62131700  0.37131700  0.25000000  1
  O  O21  1  0.37868300  0.62868300  0.75000000  1
