# generated using pymatgen
data_Mg4Si3
_symmetry_space_group_name_H-M   'P 1'
_cell_length_a   5.28441000
_cell_length_b   6.78924317
_cell_length_c   7.97082858
_cell_angle_alpha   68.85574554
_cell_angle_beta   86.25391970
_cell_angle_gamma   84.76387081
_symmetry_Int_Tables_number   1
_chemical_formula_structural   Mg4Si3
_chemical_formula_sum   'Mg8 Si6'
_cell_volume   265.44284351
_cell_formula_units_Z   2
loop_
 _symmetry_equiv_pos_site_id
 _symmetry_equiv_pos_as_xyz
  1  'x, y, z'
loop_
 _atom_site_type_symbol
 _atom_site_label
 _atom_site_symmetry_multiplicity
 _atom_site_fract_x
 _atom_site_fract_y
 _atom_site_fract_z
 _atom_site_occupancy
  Mg  Mg0  1  0.77914000  0.26294700  0.26011100  1
  Mg  Mg1  1  0.58226900  0.06485900  0.01285700  1
  Mg  Mg2  1  0.16781500  0.41674200  0.44051500  1
  Mg  Mg3  1  0.62314000  0.43926100  0.62164000  1
  Mg  Mg4  1  0.57940900  0.64817400  0.89854600  1
  Mg  Mg5  1  0.34831000  0.93330900  0.41900800  1
  Mg  Mg6  1  0.87382700  0.01005200  0.65969500  1
  Mg  Mg7  1  0.08211300  0.76564800  0.06907200  1
  Si  Si8  1  0.58942900  0.65879200  0.24918000  1
  Si  Si9  1  0.27287000  0.34031300  0.11983700  1
  Si  Si10  1  0.05077900  0.23157700  0.90252600  1
  Si  Si11  1  0.87255200  0.80233000  0.40874800  1
  Si  Si12  1  0.06756300  0.60542900  0.71729400  1
  Si  Si13  1  0.36062400  0.07068600  0.72087100  1
