# generated using pymatgen
data_In3Ag3(HgTe4)2
_symmetry_space_group_name_H-M   'P 1'
_cell_length_a   6.62041700
_cell_length_b   6.62041700
_cell_length_c   13.00611500
_cell_angle_alpha   90.00000000
_cell_angle_beta   90.00000000
_cell_angle_gamma   90.00000000
_symmetry_Int_Tables_number   1
_chemical_formula_structural   In3Ag3(HgTe4)2
_chemical_formula_sum   'In3 Ag3 Hg2 Te8'
_cell_volume   570.05699627
_cell_formula_units_Z   1
loop_
 _symmetry_equiv_pos_site_id
 _symmetry_equiv_pos_as_xyz
  1  'x, y, z'
loop_
 _atom_site_type_symbol
 _atom_site_label
 _atom_site_symmetry_multiplicity
 _atom_site_fract_x
 _atom_site_fract_y
 _atom_site_fract_z
 _atom_site_occupancy
  In  In0  1  0.50000000  0.00000000  0.24922500  1
  In  In1  1  0.00000000  0.50000000  0.75077500  1
  In  In2  1  0.50000000  0.50000000  0.00000000  1
  Ag  Ag3  1  0.00000000  0.50000000  0.24948500  1
  Ag  Ag4  1  0.50000000  0.00000000  0.75051500  1
  Ag  Ag5  1  0.00000000  0.00000000  0.00000000  1
  Hg  Hg6  1  0.50000000  0.50000000  0.50000000  1
  Hg  Hg7  1  0.00000000  0.00000000  0.50000000  1
  Te  Te8  1  0.75378500  0.25223700  0.37151600  1
  Te  Te9  1  0.24901000  0.75617100  0.87533300  1
  Te  Te10  1  0.24621500  0.74776300  0.37151600  1
  Te  Te11  1  0.75099000  0.24382900  0.87533300  1
  Te  Te12  1  0.24382900  0.24901000  0.12466700  1
  Te  Te13  1  0.74776300  0.75378500  0.62848400  1
  Te  Te14  1  0.75617100  0.75099000  0.12466700  1
  Te  Te15  1  0.25223700  0.24621500  0.62848400  1
