# generated using pymatgen
data_In4P6Pb2O23
_symmetry_space_group_name_H-M   'P 1'
_cell_length_a   6.67492500
_cell_length_b   8.38347510
_cell_length_c   9.13795555
_cell_angle_alpha   100.19069408
_cell_angle_beta   103.72341873
_cell_angle_gamma   103.97882660
_symmetry_Int_Tables_number   1
_chemical_formula_structural   In4P6Pb2O23
_chemical_formula_sum   'In4 P6 Pb2 O23'
_cell_volume   466.92466168
_cell_formula_units_Z   1
loop_
 _symmetry_equiv_pos_site_id
 _symmetry_equiv_pos_as_xyz
  1  'x, y, z'
loop_
 _atom_site_type_symbol
 _atom_site_label
 _atom_site_symmetry_multiplicity
 _atom_site_fract_x
 _atom_site_fract_y
 _atom_site_fract_z
 _atom_site_occupancy
  In  In0  1  0.97301800  0.78822900  0.05056100  1
  In  In1  1  0.02624800  0.21213000  0.94834000  1
  In  In2  1  0.77325200  0.17879400  0.42657600  1
  In  In3  1  0.22691200  0.82019000  0.57357500  1
  P  P4  1  0.98895700  0.50994600  0.74004400  1
  P  P5  1  0.01193600  0.49016200  0.25997800  1
  P  P6  1  0.52315900  0.85901600  0.09161500  1
  P  P7  1  0.48904300  0.14525200  0.91220100  1
  P  P8  1  0.78362000  0.89590700  0.65714000  1
  P  P9  1  0.21643800  0.10387600  0.34280000  1
  Pb  Pb10  1  0.46465400  0.50710800  0.72682700  1
  Pb  Pb11  1  0.53648700  0.49261800  0.27382300  1
  O  O12  1  0.09823400  0.38600100  0.80987700  1
  O  O13  1  0.90414800  0.61463500  0.19051000  1
  O  O14  1  0.81379300  0.41927700  0.58385300  1
  O  O15  1  0.18702300  0.58030300  0.41615200  1
  O  O16  1  0.29058500  0.76750700  0.07596500  1
  O  O17  1  0.71095500  0.25095400  0.91396500  1
  O  O18  1  0.92058400  0.94980600  0.83637000  1
  O  O19  1  0.07891800  0.05044700  0.16407700  1
  O  O20  1  0.62078200  0.73678500  0.00257700  1
  O  O21  1  0.38047800  0.25735600  0.00148900  1
  O  O22  1  0.55600800  0.77585800  0.64292700  1
  O  O23  1  0.44454300  0.22373500  0.35702000  1
  O  O24  1  0.86861300  0.59316900  0.84334000  1
  O  O25  1  0.13235800  0.40717800  0.15622100  1
  O  O26  1  0.18432100  0.64761700  0.72723100  1
  O  O27  1  0.81622200  0.35224800  0.27255300  1
  O  O28  1  0.75776700  0.05954000  0.61219400  1
  O  O29  1  0.24284400  0.94071800  0.38863300  1
  O  O30  1  0.66548200  0.93562500  0.25924900  1
  O  O31  1  0.33794200  0.05312200  0.75054900  1
  O  O32  1  0.89091000  0.79785600  0.55644700  1
  O  O33  1  0.10984900  0.20240900  0.44389900  1
  O  O34  1  0.53391500  0.01062900  0.00842300  1
