# generated using pymatgen
data_K3Sn2S3ClO3
_symmetry_space_group_name_H-M   'P 1'
_cell_length_a   7.22850300
_cell_length_b   9.36953000
_cell_length_c   9.63495317
_cell_angle_alpha   61.23694408
_cell_angle_beta   90.00000000
_cell_angle_gamma   90.00000000
_symmetry_Int_Tables_number   1
_chemical_formula_structural   K3Sn2S3ClO3
_chemical_formula_sum   'K6 Sn4 S6 Cl2 O6'
_cell_volume   572.03912414
_cell_formula_units_Z   2
loop_
 _symmetry_equiv_pos_site_id
 _symmetry_equiv_pos_as_xyz
  1  'x, y, z'
loop_
 _atom_site_type_symbol
 _atom_site_label
 _atom_site_symmetry_multiplicity
 _atom_site_fract_x
 _atom_site_fract_y
 _atom_site_fract_z
 _atom_site_occupancy
  K  K0  1  0.04929900  0.66016200  0.66584600  1
  K  K1  1  0.54929900  0.33983800  0.33415400  1
  K  K2  1  0.27392500  0.97891100  0.75448400  1
  K  K3  1  0.27311400  0.75419700  0.26924200  1
  K  K4  1  0.77392500  0.02108900  0.24551600  1
  K  K5  1  0.77311400  0.24580300  0.73075800  1
  Sn  Sn6  1  0.54505200  0.64670000  0.67173700  1
  Sn  Sn7  1  0.04505200  0.35330000  0.32826300  1
  Sn  Sn8  1  0.26570000  0.26551100  0.00152800  1
  Sn  Sn9  1  0.76570000  0.73448900  0.99847200  1
  S  S10  1  0.21792900  0.38073100  0.54926300  1
  S  S11  1  0.23227900  0.53832600  0.05757700  1
  S  S12  1  0.19871100  0.08283600  0.36488000  1
  S  S13  1  0.71792900  0.61926900  0.45073700  1
  S  S14  1  0.73227900  0.46167400  0.94242300  1
  S  S15  1  0.69871100  0.91716400  0.63512000  1
  Cl  Cl16  1  0.54058000  0.99729400  0.99432800  1
  Cl  Cl17  1  0.04058000  0.00270600  0.00567200  1
  O  O18  1  0.41217800  0.28396200  0.60803800  1
  O  O19  1  0.42124600  0.61477600  0.08651400  1
  O  O20  1  0.38248700  0.12606400  0.24122700  1
  O  O21  1  0.91217800  0.71603800  0.39196200  1
  O  O22  1  0.92124600  0.38522400  0.91348600  1
  O  O23  1  0.88248700  0.87393600  0.75877300  1
