# generated using pymatgen
data_HgH2SO5
_symmetry_space_group_name_H-M   'P 1'
_cell_length_a   5.55313900
_cell_length_b   8.05345600
_cell_length_c   9.13503500
_cell_angle_alpha   90.00000000
_cell_angle_beta   90.00000000
_cell_angle_gamma   90.00000000
_symmetry_Int_Tables_number   1
_chemical_formula_structural   HgH2SO5
_chemical_formula_sum   'Hg4 H8 S4 O20'
_cell_volume   408.53667533
_cell_formula_units_Z   4
loop_
 _symmetry_equiv_pos_site_id
 _symmetry_equiv_pos_as_xyz
  1  'x, y, z'
loop_
 _atom_site_type_symbol
 _atom_site_label
 _atom_site_symmetry_multiplicity
 _atom_site_fract_x
 _atom_site_fract_y
 _atom_site_fract_z
 _atom_site_occupancy
  Hg  Hg0  1  0.75119000  0.36744700  0.70741500  1
  Hg  Hg1  1  0.75119000  0.86744700  0.79258500  1
  Hg  Hg2  1  0.25119000  0.63255300  0.29258500  1
  Hg  Hg3  1  0.25119000  0.13255300  0.20741500  1
  H  H4  1  0.75151600  0.30023000  0.00633000  1
  H  H5  1  0.75151600  0.80023000  0.49367000  1
  H  H6  1  0.25151600  0.69977000  0.99367000  1
  H  H7  1  0.25151600  0.19977000  0.50633000  1
  H  H8  1  0.88706600  0.47067800  0.98695700  1
  H  H9  1  0.38706600  0.52932200  0.01304300  1
  H  H10  1  0.38706600  0.02932200  0.48695700  1
  H  H11  1  0.88706600  0.97067800  0.51304300  1
  S  S12  1  0.74999700  0.40749900  0.35856900  1
  S  S13  1  0.74999700  0.90749900  0.14143100  1
  S  S14  1  0.24999700  0.59250100  0.64143100  1
  S  S15  1  0.24999700  0.09250100  0.85856900  1
  O  O16  1  0.52936800  0.38092100  0.26667300  1
  O  O17  1  0.97023900  0.88064000  0.23360900  1
  O  O18  1  0.02936800  0.61907900  0.73332700  1
  O  O19  1  0.47023900  0.11936000  0.76639100  1
  O  O20  1  0.47023900  0.61936000  0.73360900  1
  O  O21  1  0.02936800  0.11907900  0.76667300  1
  O  O22  1  0.97023900  0.38064000  0.26639100  1
  O  O23  1  0.52936800  0.88092100  0.23332700  1
  O  O24  1  0.75011900  0.27757400  0.47997000  1
  O  O25  1  0.75011900  0.77757400  0.02003000  1
  O  O26  1  0.25011900  0.72242600  0.52003000  1
  O  O27  1  0.25011900  0.22242600  0.97997000  1
  O  O28  1  0.74437900  0.40752100  0.95437300  1
  O  O29  1  0.74437900  0.90752100  0.54562700  1
  O  O30  1  0.24437900  0.59247900  0.04562700  1
  O  O31  1  0.24437900  0.09247900  0.45437300  1
  O  O32  1  0.75012600  0.57547500  0.42017200  1
  O  O33  1  0.75012600  0.07547500  0.07982800  1
  O  O34  1  0.25012600  0.42452500  0.57982800  1
  O  O35  1  0.25012600  0.92452500  0.92017200  1
