# generated using pymatgen
data_K3Mg4(Si2O7)2
_symmetry_space_group_name_H-M   'P 1'
_cell_length_a   5.12391090
_cell_length_b   5.12597608
_cell_length_c   13.27973104
_cell_angle_alpha   89.99504514
_cell_angle_beta   90.00879627
_cell_angle_gamma   119.99914362
_symmetry_Int_Tables_number   1
_chemical_formula_structural   K3Mg4(Si2O7)2
_chemical_formula_sum   'K3 Mg4 Si4 O14'
_cell_volume   302.06596721
_cell_formula_units_Z   1
loop_
 _symmetry_equiv_pos_site_id
 _symmetry_equiv_pos_as_xyz
  1  'x, y, z'
loop_
 _atom_site_type_symbol
 _atom_site_label
 _atom_site_symmetry_multiplicity
 _atom_site_fract_x
 _atom_site_fract_y
 _atom_site_fract_z
 _atom_site_occupancy
  K  K0  1  0.33062700  0.65567700  0.75006600  1
  K  K1  1  0.66900100  0.32468400  0.75005600  1
  K  K2  1  0.68016100  0.33913900  0.24982700  1
  Mg  Mg3  1  0.33450800  0.66575600  0.49323800  1
  Mg  Mg4  1  0.66726600  0.33299300  0.50075900  1
  Mg  Mg5  1  0.66728500  0.33292100  0.99940600  1
  Mg  Mg6  1  0.33459100  0.66584300  0.00694300  1
  Si  Si7  1  0.99953100  0.99551400  0.62075400  1
  Si  Si8  1  0.00381300  0.00091600  0.37612100  1
  Si  Si9  1  0.00377400  0.00108000  0.12386500  1
  Si  Si10  1  0.99958700  0.99561300  0.87922600  1
  O  O11  1  0.31130800  0.99570900  0.90909500  1
  O  O12  1  0.68806300  0.68528200  0.90879400  1
  O  O13  1  0.00025200  0.30706500  0.90947700  1
  O  O14  1  0.69887200  0.00599000  0.08762400  1
  O  O15  1  0.31315100  0.30512100  0.08822800  1
  O  O16  1  0.99742100  0.69085900  0.08775200  1
  O  O17  1  0.69909200  0.00595700  0.41236700  1
  O  O18  1  0.31292900  0.30493600  0.41175600  1
  O  O19  1  0.99742300  0.69115700  0.41220500  1
  O  O20  1  0.31119400  0.99570600  0.59088900  1
  O  O21  1  0.68811000  0.68534500  0.59119800  1
  O  O22  1  0.00017400  0.30699500  0.59048900  1
  O  O23  1  0.00086900  0.99676800  0.74998100  1
  O  O24  1  0.00099800  0.00097300  0.24988400  1
