# generated using pymatgen
data_InCuSnSe4
_symmetry_space_group_name_H-M   'P 1'
_cell_length_a   7.09676989
_cell_length_b   7.09676989
_cell_length_c   7.09676989
_cell_angle_alpha   130.87327995
_cell_angle_beta   130.87327995
_cell_angle_gamma   72.01448807
_symmetry_Int_Tables_number   1
_chemical_formula_structural   InCuSnSe4
_chemical_formula_sum   'In1 Cu1 Sn1 Se4'
_cell_volume   199.85656228
_cell_formula_units_Z   1
loop_
 _symmetry_equiv_pos_site_id
 _symmetry_equiv_pos_as_xyz
  1  'x, y, z'
loop_
 _atom_site_type_symbol
 _atom_site_label
 _atom_site_symmetry_multiplicity
 _atom_site_fract_x
 _atom_site_fract_y
 _atom_site_fract_z
 _atom_site_occupancy
  In  In0  1  0.75000000  0.25000000  0.50000000  1
  Cu  Cu1  1  0.25000000  0.75000000  0.50000000  1
  Sn  Sn2  1  0.50000000  0.50000000  0.00000000  1
  Se  Se3  1  0.62132900  0.65278600  0.52093100  1
  Se  Se4  1  0.13185500  0.10039800  0.47906900  1
  Se  Se5  1  0.89960200  0.37867100  0.03145700  1
  Se  Se6  1  0.34721400  0.86814500  0.96854300  1
