# generated using pymatgen
data_Ho(CuTe)3
_symmetry_space_group_name_H-M   'P 1'
_cell_length_a   8.21804313
_cell_length_b   8.21804313
_cell_length_c   8.21804307
_cell_angle_alpha   53.74093858
_cell_angle_beta   53.74093858
_cell_angle_gamma   53.74093669
_symmetry_Int_Tables_number   1
_chemical_formula_structural   Ho(CuTe)3
_chemical_formula_sum   'Ho2 Cu6 Te6'
_cell_volume   335.02595093
_cell_formula_units_Z   2
loop_
 _symmetry_equiv_pos_site_id
 _symmetry_equiv_pos_as_xyz
  1  'x, y, z'
loop_
 _atom_site_type_symbol
 _atom_site_label
 _atom_site_symmetry_multiplicity
 _atom_site_fract_x
 _atom_site_fract_y
 _atom_site_fract_z
 _atom_site_occupancy
  Ho  Ho0  1  0.83355200  0.83355200  0.83355200  1
  Ho  Ho1  1  0.16644800  0.16644800  0.16644800  1
  Cu  Cu2  1  0.28276800  0.96634300  0.62664600  1
  Cu  Cu3  1  0.62664600  0.28276800  0.96634300  1
  Cu  Cu4  1  0.96634300  0.62664600  0.28276800  1
  Cu  Cu5  1  0.03365700  0.37335400  0.71723200  1
  Cu  Cu6  1  0.37335400  0.71723200  0.03365700  1
  Cu  Cu7  1  0.71723200  0.03365700  0.37335400  1
  Te  Te8  1  0.08855600  0.74485300  0.41823100  1
  Te  Te9  1  0.74485300  0.41823100  0.08855600  1
  Te  Te10  1  0.41823100  0.08855600  0.74485300  1
  Te  Te11  1  0.58176900  0.91144400  0.25514700  1
  Te  Te12  1  0.25514700  0.58176900  0.91144400  1
  Te  Te13  1  0.91144400  0.25514700  0.58176900  1
