# generated using pymatgen
data_K2Mg5(Si2O5)6
_symmetry_space_group_name_H-M   'P 1'
_cell_length_a   10.34653375
_cell_length_b   10.34653375
_cell_length_c   14.36809200
_cell_angle_alpha   90.00000000
_cell_angle_beta   90.00000000
_cell_angle_gamma   119.99999842
_symmetry_Int_Tables_number   1
_chemical_formula_structural   K2Mg5(Si2O5)6
_chemical_formula_sum   'K4 Mg10 Si24 O60'
_cell_volume   1332.04683969
_cell_formula_units_Z   2
loop_
 _symmetry_equiv_pos_site_id
 _symmetry_equiv_pos_as_xyz
  1  'x, y, z'
loop_
 _atom_site_type_symbol
 _atom_site_label
 _atom_site_symmetry_multiplicity
 _atom_site_fract_x
 _atom_site_fract_y
 _atom_site_fract_z
 _atom_site_occupancy
  K  K0  1  0.00000000  0.00000000  0.00000000  1
  K  K1  1  0.00000000  0.00000000  0.50000000  1
  K  K2  1  0.33333300  0.66666700  0.75000000  1
  K  K3  1  0.66666700  0.33333300  0.25000000  1
  Mg  Mg4  1  0.33333300  0.66666700  0.00400800  1
  Mg  Mg5  1  0.33333300  0.66666700  0.49599200  1
  Mg  Mg6  1  0.66666700  0.33333300  0.50400800  1
  Mg  Mg7  1  0.66666700  0.33333300  0.99599200  1
  Mg  Mg8  1  0.50034500  0.50034500  0.00000000  1
  Mg  Mg9  1  0.49965500  0.00000000  0.00000000  1
  Mg  Mg10  1  0.00000000  0.49965500  0.00000000  1
  Mg  Mg11  1  0.50034500  0.50034500  0.50000000  1
  Mg  Mg12  1  0.49965500  0.00000000  0.50000000  1
  Mg  Mg13  1  0.00000000  0.49965500  0.50000000  1
  Si  Si14  1  0.76271600  0.64961500  0.86164800  1
  Si  Si15  1  0.35038500  0.11310100  0.86164800  1
  Si  Si16  1  0.88689900  0.23728400  0.86164800  1
  Si  Si17  1  0.76271600  0.64961500  0.63835200  1
  Si  Si18  1  0.35038500  0.11310100  0.63835200  1
  Si  Si19  1  0.88689900  0.23728400  0.63835200  1
  Si  Si20  1  0.64961500  0.76271600  0.36164800  1
  Si  Si21  1  0.11310100  0.35038500  0.36164800  1
  Si  Si22  1  0.23728400  0.88689900  0.36164800  1
  Si  Si23  1  0.64961500  0.76271600  0.13835200  1
  Si  Si24  1  0.11310100  0.35038500  0.13835200  1
  Si  Si25  1  0.23728400  0.88689900  0.13835200  1
  Si  Si26  1  0.23527000  0.34651100  0.63761400  1
  Si  Si27  1  0.65348900  0.88875900  0.63761400  1
  Si  Si28  1  0.11124100  0.76473000  0.63761400  1
  Si  Si29  1  0.23527000  0.34651100  0.86238600  1
  Si  Si30  1  0.65348900  0.88875900  0.86238600  1
  Si  Si31  1  0.11124100  0.76473000  0.86238600  1
  Si  Si32  1  0.34651100  0.23527000  0.13761400  1
  Si  Si33  1  0.88875900  0.65348900  0.13761400  1
  Si  Si34  1  0.76473000  0.11124100  0.13761400  1
  Si  Si35  1  0.34651100  0.23527000  0.36238600  1
  Si  Si36  1  0.88875900  0.65348900  0.36238600  1
  Si  Si37  1  0.76473000  0.11124100  0.36238600  1
  O  O38  1  0.65826700  0.50437500  0.92234800  1
  O  O39  1  0.49562500  0.15389100  0.92234800  1
  O  O40  1  0.84610900  0.34173300  0.92234800  1
  O  O41  1  0.65826700  0.50437500  0.57765200  1
  O  O42  1  0.49562500  0.15389100  0.57765200  1
  O  O43  1  0.84610900  0.34173300  0.57765200  1
  O  O44  1  0.50437500  0.65826700  0.42234800  1
  O  O45  1  0.15389100  0.49562500  0.42234800  1
  O  O46  1  0.34173300  0.84610900  0.42234800  1
  O  O47  1  0.50437500  0.65826700  0.07765200  1
  O  O48  1  0.15389100  0.49562500  0.07765200  1
  O  O49  1  0.34173300  0.84610900  0.07765200  1
  O  O50  1  0.34141300  0.49681700  0.58051500  1
  O  O51  1  0.50318300  0.84459700  0.58051500  1
  O  O52  1  0.15540300  0.65858700  0.58051500  1
  O  O53  1  0.34141300  0.49681700  0.91948500  1
  O  O54  1  0.50318300  0.84459700  0.91948500  1
  O  O55  1  0.15540300  0.65858700  0.91948500  1
  O  O56  1  0.49681700  0.34141300  0.08051500  1
  O  O57  1  0.84459700  0.50318300  0.08051500  1
  O  O58  1  0.65858700  0.15540300  0.08051500  1
  O  O59  1  0.49681700  0.34141300  0.41948500  1
  O  O60  1  0.84459700  0.50318300  0.41948500  1
  O  O61  1  0.65858700  0.15540300  0.41948500  1
  O  O62  1  0.94060500  0.72394100  0.88843700  1
  O  O63  1  0.27605900  0.21666400  0.88843700  1
  O  O64  1  0.78333600  0.05939500  0.88843700  1
  O  O65  1  0.94060500  0.72394100  0.61156300  1
  O  O66  1  0.27605900  0.21666400  0.61156300  1
  O  O67  1  0.78333600  0.05939500  0.61156300  1
  O  O68  1  0.72394100  0.94060500  0.38843700  1
  O  O69  1  0.21666400  0.27605900  0.38843700  1
  O  O70  1  0.05939500  0.78333600  0.38843700  1
  O  O71  1  0.72394100  0.94060500  0.11156300  1
  O  O72  1  0.21666400  0.27605900  0.11156300  1
  O  O73  1  0.05939500  0.78333600  0.11156300  1
  O  O74  1  0.05808800  0.27564400  0.61208600  1
  O  O75  1  0.72435600  0.78244400  0.61208600  1
  O  O76  1  0.21755600  0.94191200  0.61208600  1
  O  O77  1  0.05808800  0.27564400  0.88791400  1
  O  O78  1  0.72435600  0.78244400  0.88791400  1
  O  O79  1  0.21755600  0.94191200  0.88791400  1
  O  O80  1  0.27564400  0.05808800  0.11208600  1
  O  O81  1  0.78244400  0.72435600  0.11208600  1
  O  O82  1  0.94191200  0.21755600  0.11208600  1
  O  O83  1  0.27564400  0.05808800  0.38791400  1
  O  O84  1  0.78244400  0.72435600  0.38791400  1
  O  O85  1  0.94191200  0.21755600  0.38791400  1
  O  O86  1  0.74358500  0.62017300  0.75000000  1
  O  O87  1  0.37982700  0.12341200  0.75000000  1
  O  O88  1  0.87658800  0.25641500  0.75000000  1
  O  O89  1  0.62017300  0.74358500  0.25000000  1
  O  O90  1  0.12341200  0.37982700  0.25000000  1
  O  O91  1  0.25641500  0.87658800  0.25000000  1
  O  O92  1  0.25590600  0.38081200  0.75000000  1
  O  O93  1  0.61918800  0.87509400  0.75000000  1
  O  O94  1  0.12490600  0.74409400  0.75000000  1
  O  O95  1  0.38081200  0.25590600  0.25000000  1
  O  O96  1  0.87509400  0.61918800  0.25000000  1
  O  O97  1  0.74409400  0.12490600  0.25000000  1
