# generated using pymatgen
data_K3NaP4(H2O7)2
_symmetry_space_group_name_H-M   'P 1'
_cell_length_a   9.32109264
_cell_length_b   9.32109264
_cell_length_c   11.17047166
_cell_angle_alpha   80.60612335
_cell_angle_beta   80.60612335
_cell_angle_gamma   46.13090156
_symmetry_Int_Tables_number   1
_chemical_formula_structural   K3NaP4(H2O7)2
_chemical_formula_sum   'K6 Na2 P8 H8 O28'
_cell_volume   688.57525048
_cell_formula_units_Z   2
loop_
 _symmetry_equiv_pos_site_id
 _symmetry_equiv_pos_as_xyz
  1  'x, y, z'
loop_
 _atom_site_type_symbol
 _atom_site_label
 _atom_site_symmetry_multiplicity
 _atom_site_fract_x
 _atom_site_fract_y
 _atom_site_fract_z
 _atom_site_occupancy
  K  K0  1  0.19292600  0.52848000  0.97135200  1
  K  K1  1  0.47211800  0.80746500  0.52827900  1
  K  K2  1  0.80746500  0.47211800  0.02827900  1
  K  K3  1  0.52848000  0.19292600  0.47135200  1
  K  K4  1  0.80142200  0.20071400  0.75061300  1
  K  K5  1  0.20071400  0.80142200  0.25061300  1
  Na  Na6  1  0.49805100  0.99989900  0.00000400  1
  Na  Na7  1  0.99989900  0.49805100  0.50000400  1
  P  P8  1  0.78374300  0.82634800  0.25577000  1
  P  P9  1  0.17377700  0.21598500  0.24462500  1
  P  P10  1  0.21598500  0.17377700  0.74462500  1
  P  P11  1  0.82634800  0.78374300  0.75577000  1
  P  P12  1  0.67611000  0.18558600  0.10624200  1
  P  P13  1  0.80630100  0.33119500  0.39225100  1
  P  P14  1  0.33119500  0.80630100  0.89225100  1
  P  P15  1  0.18558600  0.67611000  0.60624200  1
  H  H16  1  0.52397300  0.87483800  0.23434400  1
  H  H17  1  0.12662400  0.47437100  0.26585800  1
  H  H18  1  0.47437100  0.12662400  0.76585800  1
  H  H19  1  0.87483800  0.52397300  0.73434400  1
  H  H20  1  0.01721800  0.98849400  0.99187100  1
  H  H21  1  0.98849400  0.01721800  0.49187100  1
  H  H22  1  0.57617500  0.40955300  0.23278900  1
  H  H23  1  0.40955300  0.57617500  0.73278900  1
  O  O24  1  0.67888200  0.05722800  0.22657300  1
  O  O25  1  0.94475200  0.31794400  0.27421300  1
  O  O26  1  0.31794400  0.94475200  0.77421300  1
  O  O27  1  0.05722800  0.67888200  0.72657300  1
  O  O28  1  0.99710300  0.69040700  0.19977500  1
  O  O29  1  0.31164500  0.00184500  0.29988000  1
  O  O30  1  0.00184500  0.31164500  0.79988000  1
  O  O31  1  0.69040700  0.99710300  0.69977500  1
  O  O32  1  0.74885500  0.80695900  0.39135700  1
  O  O33  1  0.19280100  0.25213000  0.10918200  1
  O  O34  1  0.25213000  0.19280100  0.60918200  1
  O  O35  1  0.80695900  0.74885500  0.89135700  1
  O  O36  1  0.65976800  0.80875200  0.18661000  1
  O  O37  1  0.19185400  0.33960300  0.31393800  1
  O  O38  1  0.33960300  0.19185400  0.81393800  1
  O  O39  1  0.80875200  0.65976800  0.68661000  1
  O  O40  1  0.59210100  0.18558000  0.00275400  1
  O  O41  1  0.81626700  0.40483200  0.49811100  1
  O  O42  1  0.40483200  0.81626700  0.99811100  1
  O  O43  1  0.18558000  0.59210100  0.50275400  1
  O  O44  1  0.52872800  0.39987900  0.15726100  1
  O  O45  1  0.60496800  0.45766000  0.34003700  1
  O  O46  1  0.45766000  0.60496800  0.84003700  1
  O  O47  1  0.39987900  0.52872800  0.65726100  1
  O  O48  1  0.88438300  0.11030500  0.08513100  1
  O  O49  1  0.89336400  0.11224000  0.41848100  1
  O  O50  1  0.11224000  0.89336400  0.91848100  1
  O  O51  1  0.11030500  0.88438300  0.58513100  1
