# generated using pymatgen
data_In2CuSe3I
_symmetry_space_group_name_H-M   'P 1'
_cell_length_a   4.18820478
_cell_length_b   7.31607862
_cell_length_c   7.41376793
_cell_angle_alpha   99.64083271
_cell_angle_beta   106.40715673
_cell_angle_gamma   90.00000000
_symmetry_Int_Tables_number   1
_chemical_formula_structural   In2CuSe3I
_chemical_formula_sum   'In2 Cu1 Se3 I1'
_cell_volume   214.56990751
_cell_formula_units_Z   1
loop_
 _symmetry_equiv_pos_site_id
 _symmetry_equiv_pos_as_xyz
  1  'x, y, z'
loop_
 _atom_site_type_symbol
 _atom_site_label
 _atom_site_symmetry_multiplicity
 _atom_site_fract_x
 _atom_site_fract_y
 _atom_site_fract_z
 _atom_site_occupancy
  In  In0  1  0.43253000  0.81215500  0.86506000  1
  In  In1  1  0.18987100  0.06299800  0.37974200  1
  Cu  Cu2  1  0.69351100  0.56234100  0.38702200  1
  Se  Se3  1  0.99718700  0.01979400  0.99437300  1
  Se  Se4  1  0.75061800  0.26636300  0.50123500  1
  Se  Se5  1  0.24405900  0.72904300  0.48811800  1
  I  I6  1  0.50472500  0.48480600  0.00945000  1
