# generated using pymatgen
data_HoUTe6
_symmetry_space_group_name_H-M   'P 1'
_cell_length_a   12.84693198
_cell_length_b   12.84693198
_cell_length_c   4.37693600
_cell_angle_alpha   90.00000000
_cell_angle_beta   90.00000000
_cell_angle_gamma   160.45761122
_symmetry_Int_Tables_number   1
_chemical_formula_structural   HoUTe6
_chemical_formula_sum   'Ho1 U1 Te6'
_cell_volume   241.64096662
_cell_formula_units_Z   1
loop_
 _symmetry_equiv_pos_site_id
 _symmetry_equiv_pos_as_xyz
  1  'x, y, z'
loop_
 _atom_site_type_symbol
 _atom_site_label
 _atom_site_symmetry_multiplicity
 _atom_site_fract_x
 _atom_site_fract_y
 _atom_site_fract_z
 _atom_site_occupancy
  Ho  Ho0  1  0.16722800  0.83277200  0.50000000  1
  U  U1  1  0.83490400  0.16509600  0.00000000  1
  Te  Te2  1  0.42529300  0.57470700  0.00000000  1
  Te  Te3  1  0.57201000  0.42799000  0.50000000  1
  Te  Te4  1  0.70746400  0.29253600  0.00000000  1
  Te  Te5  1  0.29639000  0.70361000  0.50000000  1
  Te  Te6  1  0.07140100  0.92859900  0.00000000  1
  Te  Te7  1  0.92531000  0.07469000  0.50000000  1
