# generated using pymatgen
data_K3Sn2S3BrO3
_symmetry_space_group_name_H-M   'P 1'
_cell_length_a   7.31666700
_cell_length_b   9.54203800
_cell_length_c   9.78807641
_cell_angle_alpha   61.24069776
_cell_angle_beta   90.00000000
_cell_angle_gamma   90.00000000
_symmetry_Int_Tables_number   1
_chemical_formula_structural   K3Sn2S3BrO3
_chemical_formula_sum   'K6 Sn4 S6 Br2 O6'
_cell_volume   599.06969722
_cell_formula_units_Z   2
loop_
 _symmetry_equiv_pos_site_id
 _symmetry_equiv_pos_as_xyz
  1  'x, y, z'
loop_
 _atom_site_type_symbol
 _atom_site_label
 _atom_site_symmetry_multiplicity
 _atom_site_fract_x
 _atom_site_fract_y
 _atom_site_fract_z
 _atom_site_occupancy
  K  K0  1  0.05065700  0.65817100  0.66782200  1
  K  K1  1  0.55065700  0.34182900  0.33217800  1
  K  K2  1  0.27235400  0.98588200  0.74051700  1
  K  K3  1  0.27313200  0.74434100  0.27574500  1
  K  K4  1  0.77235400  0.01411800  0.25948300  1
  K  K5  1  0.77313200  0.25565900  0.72425500  1
  Sn  Sn6  1  0.54752200  0.64716900  0.67185400  1
  Sn  Sn7  1  0.04752200  0.35283100  0.32814600  1
  Sn  Sn8  1  0.26760000  0.26771900  0.00782100  1
  Sn  Sn9  1  0.76760000  0.73228100  0.99217900  1
  S  S10  1  0.22117100  0.37619800  0.54587400  1
  S  S11  1  0.23203500  0.53743600  0.06294900  1
  S  S12  1  0.19827200  0.08971500  0.35876400  1
  S  S13  1  0.72117200  0.62380200  0.45412600  1
  S  S14  1  0.73203500  0.46256400  0.93705100  1
  S  S15  1  0.69827200  0.91028500  0.64123600  1
  Br  Br16  1  0.53391300  0.00036000  0.99444500  1
  Br  Br17  1  0.03391300  0.99964000  0.00555500  1
  O  O18  1  0.41243200  0.28241400  0.59980900  1
  O  O19  1  0.41922800  0.60728500  0.09305300  1
  O  O20  1  0.38418300  0.13398800  0.24291400  1
  O  O21  1  0.91243200  0.71758600  0.40019100  1
  O  O22  1  0.91922800  0.39271500  0.90694700  1
  O  O23  1  0.88418300  0.86601200  0.75708600  1
