# generated using pymatgen
data_HoTaTiO6
_symmetry_space_group_name_H-M   'P 1'
_cell_length_a   14.68829800
_cell_length_b   5.22788500
_cell_length_c   5.63195635
_cell_angle_alpha   89.67011761
_cell_angle_beta   90.00000000
_cell_angle_gamma   90.00000000
_symmetry_Int_Tables_number   1
_chemical_formula_structural   HoTaTiO6
_chemical_formula_sum   'Ho4 Ta4 Ti4 O24'
_cell_volume   432.46362302
_cell_formula_units_Z   4
loop_
 _symmetry_equiv_pos_site_id
 _symmetry_equiv_pos_as_xyz
  1  'x, y, z'
loop_
 _atom_site_type_symbol
 _atom_site_label
 _atom_site_symmetry_multiplicity
 _atom_site_fract_x
 _atom_site_fract_y
 _atom_site_fract_z
 _atom_site_occupancy
  Ho  Ho0  1  0.00020800  0.74671100  0.76933400  1
  Ho  Ho1  1  0.50020800  0.25328900  0.73066600  1
  Ho  Ho2  1  0.99979200  0.25328900  0.23066600  1
  Ho  Ho3  1  0.49979200  0.74671100  0.26933400  1
  Ta  Ta4  1  0.33161800  0.82600300  0.82507800  1
  Ta  Ta5  1  0.83161800  0.17399700  0.67492200  1
  Ta  Ta6  1  0.66838200  0.17399700  0.17492200  1
  Ta  Ta7  1  0.16838200  0.82600300  0.32507800  1
  Ti  Ti8  1  0.16490100  0.32172600  0.68403000  1
  Ti  Ti9  1  0.66490000  0.67827400  0.81597000  1
  Ti  Ti10  1  0.83509900  0.67827400  0.31597000  1
  Ti  Ti11  1  0.33509900  0.32172600  0.18403000  1
  O  O12  1  0.25946500  0.15092300  0.85721000  1
  O  O13  1  0.23840900  0.65539900  0.63628300  1
  O  O14  1  0.75946500  0.84907700  0.64279000  1
  O  O15  1  0.73840900  0.34460100  0.86371700  1
  O  O16  1  0.74053500  0.84907700  0.14279000  1
  O  O17  1  0.76159100  0.34460100  0.36371700  1
  O  O18  1  0.24053500  0.15092300  0.35721000  1
  O  O19  1  0.26159100  0.65539900  0.13628300  1
  O  O20  1  0.90772300  0.96504300  0.43250700  1
  O  O21  1  0.59199400  0.46689700  0.06416700  1
  O  O22  1  0.40772300  0.03495700  0.06749300  1
  O  O23  1  0.09199400  0.53310300  0.43583300  1
  O  O24  1  0.09227700  0.03495700  0.56749300  1
  O  O25  1  0.40800600  0.53310300  0.93583300  1
  O  O26  1  0.59227700  0.96504300  0.93250700  1
  O  O27  1  0.90800600  0.46689700  0.56416700  1
  O  O28  1  0.08586100  0.41818800  0.90659000  1
  O  O29  1  0.41558100  0.91854900  0.59071800  1
  O  O30  1  0.58586100  0.58181200  0.59341000  1
  O  O31  1  0.91558100  0.08145100  0.90928200  1
  O  O32  1  0.91413900  0.58181200  0.09341000  1
  O  O33  1  0.58441900  0.08145100  0.40928200  1
  O  O34  1  0.41413900  0.41818800  0.40659000  1
  O  O35  1  0.08441900  0.91854900  0.09071800  1
