# generated using pymatgen
data_K7Be12(PO4)12
_symmetry_space_group_name_H-M   'P 1'
_cell_length_a   11.70845388
_cell_length_b   11.70845388
_cell_length_c   11.70845388
_cell_angle_alpha   109.47122063
_cell_angle_beta   109.47122063
_cell_angle_gamma   109.47122063
_symmetry_Int_Tables_number   1
_chemical_formula_structural   K7Be12(PO4)12
_chemical_formula_sum   'K7 Be12 P12 O48'
_cell_volume   1235.59675227
_cell_formula_units_Z   1
loop_
 _symmetry_equiv_pos_site_id
 _symmetry_equiv_pos_as_xyz
  1  'x, y, z'
loop_
 _atom_site_type_symbol
 _atom_site_label
 _atom_site_symmetry_multiplicity
 _atom_site_fract_x
 _atom_site_fract_y
 _atom_site_fract_z
 _atom_site_occupancy
  K  K0  1  0.00000000  0.50000000  0.50000000  1
  K  K1  1  0.50000000  0.50000000  0.00000000  1
  K  K2  1  0.50000000  0.00000000  0.50000000  1
  K  K3  1  0.61384600  0.61384600  0.61384600  1
  K  K4  1  0.00000000  0.38615400  0.00000000  1
  K  K5  1  0.38615400  0.00000000  0.00000000  1
  K  K6  1  0.00000000  0.00000000  0.38615400  1
  Be  Be7  1  0.69848600  0.84751000  0.41114200  1
  Be  Be8  1  0.84751000  0.41114200  0.69848600  1
  Be  Be9  1  0.41114200  0.69848600  0.84751000  1
  Be  Be10  1  0.56363200  0.15249000  0.85097600  1
  Be  Be11  1  0.28734400  0.58885800  0.43636800  1
  Be  Be12  1  0.14902400  0.30151400  0.71265600  1
  Be  Be13  1  0.30151400  0.71265600  0.14902400  1
  Be  Be14  1  0.15249000  0.85097600  0.56363200  1
  Be  Be15  1  0.58885800  0.43636800  0.28734400  1
  Be  Be16  1  0.43636800  0.28734400  0.58885800  1
  Be  Be17  1  0.71265600  0.14902400  0.30151400  1
  Be  Be18  1  0.85097600  0.56363200  0.15249000  1
  P  P19  1  0.43311200  0.58311000  0.28158800  1
  P  P20  1  0.58311000  0.28158800  0.43311200  1
  P  P21  1  0.28158800  0.43311200  0.58311000  1
  P  P22  1  0.69847800  0.41689000  0.85000200  1
  P  P23  1  0.15152400  0.71841200  0.30152200  1
  P  P24  1  0.14999800  0.56688800  0.84847600  1
  P  P25  1  0.56688800  0.84847600  0.14999800  1
  P  P26  1  0.41689000  0.85000200  0.69847800  1
  P  P27  1  0.71841200  0.30152200  0.15152400  1
  P  P28  1  0.30152200  0.15152400  0.71841200  1
  P  P29  1  0.84847600  0.14999800  0.56688800  1
  P  P30  1  0.85000200  0.69847800  0.41689000  1
  O  O31  1  0.32979100  0.58724700  0.16155500  1
  O  O32  1  0.58724700  0.16155500  0.32979100  1
  O  O33  1  0.16155500  0.32979100  0.58724700  1
  O  O34  1  0.57430700  0.41275300  0.74254400  1
  O  O35  1  0.16823700  0.83844500  0.42569300  1
  O  O36  1  0.25745600  0.67020900  0.83176300  1
  O  O37  1  0.67020900  0.83176300  0.25745600  1
  O  O38  1  0.41275300  0.74254400  0.57430700  1
  O  O39  1  0.83844500  0.42569300  0.16823700  1
  O  O40  1  0.42569300  0.16823700  0.83844500  1
  O  O41  1  0.83176300  0.25745600  0.67020900  1
  O  O42  1  0.74254400  0.57430700  0.41275300  1
  O  O43  1  0.48198100  0.48445300  0.21708800  1
  O  O44  1  0.48445300  0.21708800  0.48198100  1
  O  O45  1  0.21708800  0.48198100  0.48445300  1
  O  O46  1  0.73263500  0.51554700  0.99752800  1
  O  O47  1  0.26489300  0.78291200  0.26736500  1
  O  O48  1  0.00247200  0.51801900  0.73510700  1
  O  O49  1  0.51801900  0.73510700  0.00247200  1
  O  O50  1  0.51554700  0.99752800  0.73263500  1
  O  O51  1  0.78291200  0.26736500  0.26489300  1
  O  O52  1  0.26736500  0.26489300  0.78291200  1
  O  O53  1  0.73510700  0.00247200  0.51801900  1
  O  O54  1  0.99752800  0.73263500  0.51554700  1
  O  O55  1  0.35942600  0.52751500  0.35423900  1
  O  O56  1  0.52751500  0.35423900  0.35942600  1
  O  O57  1  0.35423900  0.35942600  0.52751500  1
  O  O58  1  0.82672400  0.47248500  0.83191100  1
  O  O59  1  0.00518700  0.64576100  0.17327600  1
  O  O60  1  0.16808900  0.64057400  0.99481300  1
  O  O61  1  0.64057400  0.99481300  0.16808900  1
  O  O62  1  0.47248500  0.83191100  0.82672400  1
  O  O63  1  0.64576100  0.17327600  0.00518700  1
  O  O64  1  0.17327600  0.00518700  0.64576100  1
  O  O65  1  0.99481300  0.16808900  0.64057400  1
  O  O66  1  0.83191100  0.82672400  0.47248500  1
  O  O67  1  0.56029700  0.73117100  0.39337800  1
  O  O68  1  0.73117100  0.39337800  0.56029700  1
  O  O69  1  0.39337800  0.56029700  0.73117100  1
  O  O70  1  0.66220800  0.26882900  0.82912600  1
  O  O71  1  0.16691900  0.60662200  0.33779200  1
  O  O72  1  0.17087400  0.43970300  0.83308100  1
  O  O73  1  0.43970300  0.83308100  0.17087400  1
  O  O74  1  0.26882900  0.82912600  0.66220800  1
  O  O75  1  0.60662200  0.33779200  0.16691900  1
  O  O76  1  0.33779200  0.16691900  0.60662200  1
  O  O77  1  0.83308100  0.17087400  0.43970300  1
  O  O78  1  0.82912600  0.66220800  0.26882900  1
