# generated using pymatgen
data_HfV2N3
_symmetry_space_group_name_H-M   'P 1'
_cell_length_a   5.31019185
_cell_length_b   5.31019185
_cell_length_c   5.31019185
_cell_angle_alpha   146.85091085
_cell_angle_beta   132.61637413
_cell_angle_gamma   59.04686175
_symmetry_Int_Tables_number   1
_chemical_formula_structural   HfV2N3
_chemical_formula_sum   'Hf1 V2 N3'
_cell_volume   59.73926895
_cell_formula_units_Z   1
loop_
 _symmetry_equiv_pos_site_id
 _symmetry_equiv_pos_as_xyz
  1  'x, y, z'
loop_
 _atom_site_type_symbol
 _atom_site_label
 _atom_site_symmetry_multiplicity
 _atom_site_fract_x
 _atom_site_fract_y
 _atom_site_fract_z
 _atom_site_occupancy
  Hf  Hf0  1  0.00000000  0.00000000  0.00000000  1
  V  V1  1  0.68151100  0.68151100  0.00000000  1
  V  V2  1  0.31848900  0.31848900  0.00000000  1
  N  N3  1  0.83038400  0.33038400  0.50000000  1
  N  N4  1  0.50000000  0.00000000  0.50000000  1
  N  N5  1  0.16961600  0.66961600  0.50000000  1
