# generated using pymatgen
data_Ho2SiPd2
_symmetry_space_group_name_H-M   'P 1'
_cell_length_a   4.13659800
_cell_length_b   7.52682200
_cell_length_c   13.80300800
_cell_angle_alpha   90.00000000
_cell_angle_beta   90.00000000
_cell_angle_gamma   90.00000000
_symmetry_Int_Tables_number   1
_chemical_formula_structural   Ho2SiPd2
_chemical_formula_sum   'Ho8 Si4 Pd8'
_cell_volume   429.76268367
_cell_formula_units_Z   4
loop_
 _symmetry_equiv_pos_site_id
 _symmetry_equiv_pos_as_xyz
  1  'x, y, z'
loop_
 _atom_site_type_symbol
 _atom_site_label
 _atom_site_symmetry_multiplicity
 _atom_site_fract_x
 _atom_site_fract_y
 _atom_site_fract_z
 _atom_site_occupancy
  Ho  Ho0  1  0.50000000  0.03948500  0.37421100  1
  Ho  Ho1  1  0.50000000  0.96051500  0.62578900  1
  Ho  Ho2  1  0.00000000  0.53948500  0.12578900  1
  Ho  Ho3  1  0.00000000  0.46051500  0.87421100  1
  Ho  Ho4  1  0.50000000  0.95049800  0.13111400  1
  Ho  Ho5  1  0.50000000  0.04950200  0.86888600  1
  Ho  Ho6  1  0.00000000  0.45049800  0.36888600  1
  Ho  Ho7  1  0.00000000  0.54950200  0.63111400  1
  Si  Si8  1  0.50000000  0.65336600  0.47234400  1
  Si  Si9  1  0.50000000  0.34663400  0.52765600  1
  Si  Si10  1  0.00000000  0.15336600  0.02765600  1
  Si  Si11  1  0.00000000  0.84663400  0.97234400  1
  Pd  Pd12  1  0.50000000  0.67231100  0.28104900  1
  Pd  Pd13  1  0.50000000  0.32768900  0.71895100  1
  Pd  Pd14  1  0.00000000  0.17231100  0.21895100  1
  Pd  Pd15  1  0.00000000  0.82768900  0.78104900  1
  Pd  Pd16  1  0.50000000  0.67893200  0.98320800  1
  Pd  Pd17  1  0.50000000  0.32106800  0.01679200  1
  Pd  Pd18  1  0.00000000  0.17893200  0.51679200  1
  Pd  Pd19  1  0.00000000  0.82106800  0.48320800  1
