# generated using pymatgen
data_InSnCl3
_symmetry_space_group_name_H-M   'P 1'
_cell_length_a   11.97861142
_cell_length_b   11.57359828
_cell_length_c   11.43199059
_cell_angle_alpha   62.75254982
_cell_angle_beta   59.20202012
_cell_angle_gamma   58.04543006
_symmetry_Int_Tables_number   1
_chemical_formula_structural   InSnCl3
_chemical_formula_sum   'In8 Sn8 Cl24'
_cell_volume   1116.47835406
_cell_formula_units_Z   8
loop_
 _symmetry_equiv_pos_site_id
 _symmetry_equiv_pos_as_xyz
  1  'x, y, z'
loop_
 _atom_site_type_symbol
 _atom_site_label
 _atom_site_symmetry_multiplicity
 _atom_site_fract_x
 _atom_site_fract_y
 _atom_site_fract_z
 _atom_site_occupancy
  In  In0  1  0.00024700  0.50079200  0.49920800  1
  In  In1  1  0.50079200  0.00024700  0.99975300  1
  In  In2  1  0.65096500  0.01824200  0.34903500  1
  In  In3  1  0.47682000  0.52255400  0.85383600  1
  In  In4  1  0.14616400  0.85321000  0.52318000  1
  In  In5  1  0.01824200  0.65096500  0.98175800  1
  In  In6  1  0.52255400  0.47682000  0.14679000  1
  In  In7  1  0.85321000  0.14616400  0.47744600  1
  Sn  Sn8  1  0.64976600  0.64976600  0.35023400  1
  Sn  Sn9  1  0.36929300  0.36929300  0.63070700  1
  Sn  Sn10  1  0.14594500  0.84240100  0.15759900  1
  Sn  Sn11  1  0.84240100  0.14594500  0.85405500  1
  Sn  Sn12  1  0.75024500  0.75024500  0.74975500  1
  Sn  Sn13  1  0.25024500  0.25024500  0.24975500  1
  Sn  Sn14  1  0.99235200  0.33038500  0.00764800  1
  Sn  Sn15  1  0.33038500  0.99235200  0.66961500  1
  Cl  Cl16  1  0.92966900  0.83295100  0.43458800  1
  Cl  Cl17  1  0.81013400  0.43256800  0.84410800  1
  Cl  Cl18  1  0.41998100  0.93879700  0.34938200  1
  Cl  Cl19  1  0.29211700  0.33538500  0.93839600  1
  Cl  Cl20  1  0.65061800  0.70815900  0.58001900  1
  Cl  Cl21  1  0.06160400  0.56589900  0.70788300  1
  Cl  Cl22  1  0.56541200  0.19720800  0.07033100  1
  Cl  Cl23  1  0.15589200  0.08681000  0.18986600  1
  Cl  Cl24  1  0.08681000  0.15589200  0.56743200  1
  Cl  Cl25  1  0.19720800  0.56541200  0.16704900  1
  Cl  Cl26  1  0.56589900  0.06160400  0.66461400  1
  Cl  Cl27  1  0.70815900  0.65061800  0.06120300  1
  Cl  Cl28  1  0.33538500  0.29211700  0.43410100  1
  Cl  Cl29  1  0.93879700  0.41998100  0.29184100  1
  Cl  Cl30  1  0.43256800  0.81013400  0.91319000  1
  Cl  Cl31  1  0.83295100  0.92966900  0.80279200  1
  Cl  Cl32  1  0.18565500  0.18565500  0.81434500  1
  Cl  Cl33  1  0.81028300  0.81028300  0.18971700  1
  Cl  Cl34  1  0.69452800  0.31015100  0.68984900  1
  Cl  Cl35  1  0.31015100  0.69452800  0.30547200  1
  Cl  Cl36  1  0.87930600  0.14150100  0.12069400  1
  Cl  Cl37  1  0.38552500  0.61022200  0.61447500  1
  Cl  Cl38  1  0.14150100  0.87930600  0.85849900  1
  Cl  Cl39  1  0.61022200  0.38552500  0.38977800  1
