# generated using pymatgen
data_HfTaB2
_symmetry_space_group_name_H-M   'P 1'
_cell_length_a   4.84161161
_cell_length_b   4.84161161
_cell_length_c   3.16713000
_cell_angle_alpha   90.00000000
_cell_angle_beta   90.00000000
_cell_angle_gamma   139.05457768
_symmetry_Int_Tables_number   1
_chemical_formula_structural   HfTaB2
_chemical_formula_sum   'Hf1 Ta1 B2'
_cell_volume   48.65330500
_cell_formula_units_Z   1
loop_
 _symmetry_equiv_pos_site_id
 _symmetry_equiv_pos_as_xyz
  1  'x, y, z'
loop_
 _atom_site_type_symbol
 _atom_site_label
 _atom_site_symmetry_multiplicity
 _atom_site_fract_x
 _atom_site_fract_y
 _atom_site_fract_z
 _atom_site_occupancy
  Hf  Hf0  1  0.14638900  0.85361100  0.50000000  1
  Ta  Ta1  1  0.85891500  0.14108500  0.00000000  1
  B  B2  1  0.44075400  0.55924600  0.50000000  1
  B  B3  1  0.54927700  0.45072300  0.00000000  1
