# generated using pymatgen
data_KNaCa3Mg10(SiO3)16
_symmetry_space_group_name_H-M   'P 1'
_cell_length_a   10.15907600
_cell_length_b   10.53589000
_cell_length_c   10.56379038
_cell_angle_alpha   97.05827227
_cell_angle_beta   105.33701676
_cell_angle_gamma   114.58045774
_symmetry_Int_Tables_number   1
_chemical_formula_structural   KNaCa3Mg10(SiO3)16
_chemical_formula_sum   'K1 Na1 Ca3 Mg10 Si16 O48'
_cell_volume   956.00330610
_cell_formula_units_Z   1
loop_
 _symmetry_equiv_pos_site_id
 _symmetry_equiv_pos_as_xyz
  1  'x, y, z'
loop_
 _atom_site_type_symbol
 _atom_site_label
 _atom_site_symmetry_multiplicity
 _atom_site_fract_x
 _atom_site_fract_y
 _atom_site_fract_z
 _atom_site_occupancy
  K  K0  1  0.51041600  0.00304500  0.74354000  1
  Na  Na1  1  0.72186500  0.44201700  0.60856800  1
  Ca  Ca2  1  0.71662600  0.43642500  0.11072900  1
  Ca  Ca3  1  0.27855300  0.56378600  0.89248800  1
  Ca  Ca4  1  0.28485600  0.56317900  0.38871800  1
  Mg  Mg5  1  0.81722000  0.63740100  0.41359400  1
  Mg  Mg6  1  0.81937700  0.63609500  0.90491400  1
  Mg  Mg7  1  0.17888700  0.36064400  0.58970600  1
  Mg  Mg8  1  0.17993400  0.35738400  0.08943200  1
  Mg  Mg9  1  0.90010800  0.79981100  0.70036300  1
  Mg  Mg10  1  0.89962600  0.79906900  0.20103900  1
  Mg  Mg11  1  0.09916600  0.19848700  0.79919500  1
  Mg  Mg12  1  0.10044400  0.19982300  0.30173500  1
  Mg  Mg13  1  0.00310200  0.99856300  0.00498600  1
  Mg  Mg14  1  0.99850700  0.99982200  0.50145300  1
  Si  Si15  1  0.19258500  0.83295800  0.94952200  1
  Si  Si16  1  0.18725500  0.83057900  0.44479400  1
  Si  Si17  1  0.35702100  0.16944400  0.52889300  1
  Si  Si18  1  0.35947800  0.16740200  0.03379400  1
  Si  Si19  1  0.80799100  0.16816100  0.55122600  1
  Si  Si20  1  0.81262100  0.16881600  0.05471500  1
  Si  Si21  1  0.64310300  0.83068500  0.97045900  1
  Si  Si22  1  0.64063800  0.83269200  0.46682900  1
  Si  Si23  1  0.11778000  0.66002900  0.65613600  1
  Si  Si24  1  0.11485800  0.65497000  0.15396600  1
  Si  Si25  1  0.46026800  0.34475000  0.32835300  1
  Si  Si26  1  0.45780500  0.34110000  0.82624700  1
  Si  Si27  1  0.88413600  0.34229200  0.84251500  1
  Si  Si28  1  0.88342900  0.34358100  0.34545600  1
  Si  Si29  1  0.53962100  0.65590500  0.17343600  1
  Si  Si30  1  0.54219600  0.65888100  0.67323400  1
  O  O31  1  0.95202700  0.65815200  0.61063700  1
  O  O32  1  0.94494400  0.64907300  0.11011900  1
  O  O33  1  0.29569900  0.35070400  0.78587300  1
  O  O34  1  0.29406700  0.34891000  0.28416900  1
  O  O35  1  0.05454300  0.34782200  0.88934200  1
  O  O36  1  0.05518000  0.35226300  0.38973300  1
  O  O37  1  0.70622800  0.65737100  0.71850100  1
  O  O38  1  0.70312600  0.64938600  0.21393400  1
  O  O39  1  0.02343700  0.82383600  0.91049300  1
  O  O40  1  0.01868800  0.82101400  0.40773200  1
  O  O41  1  0.19712700  0.17897500  0.49738700  1
  O  O42  1  0.19859100  0.17536500  0.99782500  1
  O  O43  1  0.97846300  0.17876300  0.59057200  1
  O  O44  1  0.98089000  0.17724500  0.09289600  1
  O  O45  1  0.80190700  0.82048700  0.00371800  1
  O  O46  1  0.79960700  0.82248700  0.50101300  1
  O  O47  1  0.32343400  0.99959900  0.51473000  1
  O  O48  1  0.32995700  0.00012600  0.01989100  1
  O  O49  1  0.67081200  0.99998100  0.48197300  1
  O  O50  1  0.67539600  0.99982800  0.98374600  1
  O  O51  1  0.12690800  0.51288200  0.66603100  1
  O  O52  1  0.12254400  0.50720200  0.16346400  1
  O  O53  1  0.60937800  0.49596300  0.40713200  1
  O  O54  1  0.61353600  0.48834300  0.90938300  1
  O  O55  1  0.88422500  0.49262500  0.83984500  1
  O  O56  1  0.87693800  0.49177100  0.33506100  1
  O  O57  1  0.38469600  0.50806200  0.08880400  1
  O  O58  1  0.38612600  0.51126000  0.59056500  1
  O  O59  1  0.22603300  0.76836300  0.81708900  1
  O  O60  1  0.21895500  0.76115200  0.31509800  1
  O  O61  1  0.45252400  0.23389300  0.43048900  1
  O  O62  1  0.45602200  0.23274300  0.93278600  1
  O  O63  1  0.77655100  0.22749400  0.68646400  1
  O  O64  1  0.78037400  0.23811700  0.18361300  1
  O  O65  1  0.54159400  0.76243000  0.06545900  1
  O  O66  1  0.54205900  0.76778500  0.56696200  1
  O  O67  1  0.21119200  0.73165500  0.05430000  1
  O  O68  1  0.21780900  0.74026500  0.55857500  1
  O  O69  1  0.47029600  0.25513400  0.68950000  1
  O  O70  1  0.47919900  0.26916500  0.18818100  1
  O  O71  1  0.78874700  0.26432300  0.44304400  1
  O  O72  1  0.78652300  0.25989400  0.94129700  1
  O  O73  1  0.52368100  0.73988500  0.81139300  1
  O  O74  1  0.51986400  0.73220100  0.31132700  1
  O  O75  1  0.06553100  0.99934200  0.22300500  1
  O  O76  1  0.06523700  0.99969700  0.71916400  1
  O  O77  1  0.93510900  0.99956400  0.77491000  1
  O  O78  1  0.93475600  0.99960600  0.27674400  1
