# generated using pymatgen
data_HoInGe2O7
_symmetry_space_group_name_H-M   'P 1'
_cell_length_a   5.70218156
_cell_length_b   5.70218156
_cell_length_c   9.98210924
_cell_angle_alpha   82.82085538
_cell_angle_beta   82.82085538
_cell_angle_gamma   105.68449349
_symmetry_Int_Tables_number   1
_chemical_formula_structural   HoInGe2O7
_chemical_formula_sum   'Ho2 In2 Ge4 O14'
_cell_volume   305.72007987
_cell_formula_units_Z   2
loop_
 _symmetry_equiv_pos_site_id
 _symmetry_equiv_pos_as_xyz
  1  'x, y, z'
loop_
 _atom_site_type_symbol
 _atom_site_label
 _atom_site_symmetry_multiplicity
 _atom_site_fract_x
 _atom_site_fract_y
 _atom_site_fract_z
 _atom_site_occupancy
  Ho  Ho0  1  0.69933900  0.30298000  0.25446000  1
  Ho  Ho1  1  0.69702000  0.30066100  0.74554000  1
  In  In2  1  0.31305100  0.68770700  0.24710100  1
  In  In3  1  0.31229300  0.68694900  0.75289900  1
  Ge  Ge4  1  0.77222700  0.76266600  0.95368700  1
  Ge  Ge5  1  0.23733400  0.22777300  0.04631300  1
  Ge  Ge6  1  0.22219900  0.23214700  0.54597200  1
  Ge  Ge7  1  0.76785300  0.77780100  0.45402800  1
  O  O8  1  0.93079200  0.59404100  0.85735200  1
  O  O9  1  0.40595900  0.06920800  0.14264800  1
  O  O10  1  0.09157000  0.41464000  0.64711800  1
  O  O11  1  0.58536000  0.90843000  0.35288200  1
  O  O12  1  0.99455900  0.00544100  0.00000000  1
  O  O13  1  0.94245600  0.05754400  0.50000000  1
  O  O14  1  0.60085200  0.58913600  0.11237800  1
  O  O15  1  0.41086400  0.39914800  0.88762200  1
  O  O16  1  0.40398900  0.39536400  0.38846500  1
  O  O17  1  0.60463600  0.59601100  0.61153500  1
  O  O18  1  0.60174200  0.91210300  0.85216000  1
  O  O19  1  0.08789700  0.39825800  0.14784000  1
  O  O20  1  0.37938700  0.06137600  0.64373800  1
  O  O21  1  0.93862400  0.62061300  0.35626200  1
