# generated using pymatgen
data_Hf4CuSi3
_symmetry_space_group_name_H-M   'P 1'
_cell_length_a   3.72560700
_cell_length_b   3.73053000
_cell_length_c   9.94181900
_cell_angle_alpha   90.00000000
_cell_angle_beta   90.00000000
_cell_angle_gamma   90.00000000
_symmetry_Int_Tables_number   1
_chemical_formula_structural   Hf4CuSi3
_chemical_formula_sum   'Hf4 Cu1 Si3'
_cell_volume   138.17625885
_cell_formula_units_Z   1
loop_
 _symmetry_equiv_pos_site_id
 _symmetry_equiv_pos_as_xyz
  1  'x, y, z'
loop_
 _atom_site_type_symbol
 _atom_site_label
 _atom_site_symmetry_multiplicity
 _atom_site_fract_x
 _atom_site_fract_y
 _atom_site_fract_z
 _atom_site_occupancy
  Hf  Hf0  1  0.50000000  0.50000000  0.35445100  1
  Hf  Hf1  1  0.00000000  0.50000000  0.85171200  1
  Hf  Hf2  1  0.00000000  0.00000000  0.14744300  1
  Hf  Hf3  1  0.50000000  0.00000000  0.64675000  1
  Cu  Cu4  1  0.50000000  0.50000000  0.07382900  1
  Si  Si5  1  0.00000000  0.50000000  0.58037500  1
  Si  Si6  1  0.00000000  0.00000000  0.41968300  1
  Si  Si7  1  0.50000000  0.00000000  0.92575700  1
