# generated using pymatgen
data_HfNbB2
_symmetry_space_group_name_H-M   'P 1'
_cell_length_a   4.84544098
_cell_length_b   4.84544098
_cell_length_c   3.17881500
_cell_angle_alpha   90.00000000
_cell_angle_beta   90.00000000
_cell_angle_gamma   138.92276079
_symmetry_Int_Tables_number   1
_chemical_formula_structural   HfNbB2
_chemical_formula_sum   'Hf1 Nb1 B2'
_cell_volume   49.03965086
_cell_formula_units_Z   1
loop_
 _symmetry_equiv_pos_site_id
 _symmetry_equiv_pos_as_xyz
  1  'x, y, z'
loop_
 _atom_site_type_symbol
 _atom_site_label
 _atom_site_symmetry_multiplicity
 _atom_site_fract_x
 _atom_site_fract_y
 _atom_site_fract_z
 _atom_site_occupancy
  Hf  Hf0  1  0.85232500  0.14767500  0.00000000  1
  Nb  Nb1  1  0.14018700  0.85981300  0.50000000  1
  B  B2  1  0.55803800  0.44196200  0.00000000  1
  B  B3  1  0.44945100  0.55054900  0.50000000  1
