# generated using pymatgen
data_Ge2Sb2Te5
_symmetry_space_group_name_H-M   'P 1'
_cell_length_a   4.29406442
_cell_length_b   4.29406442
_cell_length_c   17.10134600
_cell_angle_alpha   90.00000000
_cell_angle_beta   90.00000000
_cell_angle_gamma   120.00000655
_symmetry_Int_Tables_number   1
_chemical_formula_structural   Ge2Sb2Te5
_chemical_formula_sum   'Ge2 Sb2 Te5'
_cell_volume   273.08510247
_cell_formula_units_Z   1
loop_
 _symmetry_equiv_pos_site_id
 _symmetry_equiv_pos_as_xyz
  1  'x, y, z'
loop_
 _atom_site_type_symbol
 _atom_site_label
 _atom_site_symmetry_multiplicity
 _atom_site_fract_x
 _atom_site_fract_y
 _atom_site_fract_z
 _atom_site_occupancy
  Ge  Ge0  1  0.33333300  0.66666700  0.89710500  1
  Ge  Ge1  1  0.66666700  0.33333300  0.10289500  1
  Sb  Sb2  1  0.00000000  0.00000000  0.67993200  1
  Sb  Sb3  1  0.00000000  0.00000000  0.32006800  1
  Te  Te4  1  0.00000000  0.00000000  0.00000000  1
  Te  Te5  1  0.66666700  0.33333300  0.79845800  1
  Te  Te6  1  0.33333300  0.66666700  0.20154200  1
  Te  Te7  1  0.33333300  0.66666700  0.58010800  1
  Te  Te8  1  0.66666700  0.33333300  0.41989200  1
