# generated using pymatgen
data_InCuSeS
_symmetry_space_group_name_H-M   'P 1'
_cell_length_a   7.01558245
_cell_length_b   7.01558245
_cell_length_c   7.01558245
_cell_angle_alpha   132.05544693
_cell_angle_beta   131.82705386
_cell_angle_gamma   70.32199289
_symmetry_Int_Tables_number   1
_chemical_formula_structural   InCuSeS
_chemical_formula_sum   'In2 Cu2 Se2 S2'
_cell_volume   187.23290142
_cell_formula_units_Z   2
loop_
 _symmetry_equiv_pos_site_id
 _symmetry_equiv_pos_as_xyz
  1  'x, y, z'
loop_
 _atom_site_type_symbol
 _atom_site_label
 _atom_site_symmetry_multiplicity
 _atom_site_fract_x
 _atom_site_fract_y
 _atom_site_fract_z
 _atom_site_occupancy
  In  In0  1  0.38020700  0.63020700  0.75000000  1
  In  In1  1  0.11979300  0.86979300  0.25000000  1
  Cu  Cu2  1  0.88553500  0.13553500  0.75000000  1
  Cu  Cu3  1  0.61446500  0.36446500  0.25000000  1
  Se  Se4  1  0.53382700  0.75000000  0.28382700  1
  Se  Se5  1  0.96617300  0.25000000  0.21617300  1
  S  S6  1  0.25000000  0.02909600  0.77909600  1
  S  S7  1  0.75000000  0.47090400  0.72090400  1
