# generated using pymatgen
data_GdYV2O8
_symmetry_space_group_name_H-M   'P 1'
_cell_length_a   6.04783822
_cell_length_b   6.04783822
_cell_length_c   6.04783822
_cell_angle_alpha   106.16458286
_cell_angle_beta   106.16458286
_cell_angle_gamma   116.30855848
_symmetry_Int_Tables_number   1
_chemical_formula_structural   GdYV2O8
_chemical_formula_sum   'Gd1 Y1 V2 O8'
_cell_volume   168.44618392
_cell_formula_units_Z   1
loop_
 _symmetry_equiv_pos_site_id
 _symmetry_equiv_pos_as_xyz
  1  'x, y, z'
loop_
 _atom_site_type_symbol
 _atom_site_label
 _atom_site_symmetry_multiplicity
 _atom_site_fract_x
 _atom_site_fract_y
 _atom_site_fract_z
 _atom_site_occupancy
  Gd  Gd0  1  0.25000000  0.75000000  0.50000000  1
  Y  Y1  1  0.00000000  0.00000000  0.00000000  1
  V  V2  1  0.75000000  0.25000000  0.50000000  1
  V  V3  1  0.50000000  0.50000000  0.00000000  1
  O  O4  1  0.92335700  0.60799000  0.68463300  1
  O  O5  1  0.49434000  0.67688400  0.81745600  1
  O  O6  1  0.85942800  0.67688400  0.18254400  1
  O  O7  1  0.92335700  0.23872400  0.31536700  1
  O  O8  1  0.32311600  0.14057200  0.81745600  1
  O  O9  1  0.76127600  0.07664300  0.68463300  1
  O  O10  1  0.39201000  0.07664300  0.31536700  1
  O  O11  1  0.32311600  0.50566000  0.18254400  1
