# generated using pymatgen
data_Mg2Si
_symmetry_space_group_name_H-M   'P 1'
_cell_length_a   5.51438900
_cell_length_b   7.06890296
_cell_length_c   7.08111932
_cell_angle_alpha   102.60542676
_cell_angle_beta   110.85937281
_cell_angle_gamma   102.66311677
_symmetry_Int_Tables_number   1
_chemical_formula_structural   Mg2Si
_chemical_formula_sum   'Mg8 Si4'
_cell_volume   238.00120605
_cell_formula_units_Z   4
loop_
 _symmetry_equiv_pos_site_id
 _symmetry_equiv_pos_as_xyz
  1  'x, y, z'
loop_
 _atom_site_type_symbol
 _atom_site_label
 _atom_site_symmetry_multiplicity
 _atom_site_fract_x
 _atom_site_fract_y
 _atom_site_fract_z
 _atom_site_occupancy
  Mg  Mg0  1  0.28537700  0.76396900  0.07923300  1
  Mg  Mg1  1  0.27464200  0.19428900  0.43240000  1
  Mg  Mg2  1  0.78843100  0.33414000  0.92853300  1
  Mg  Mg3  1  0.31373800  0.92247700  0.72465100  1
  Mg  Mg4  1  0.34100000  0.32105500  0.04869800  1
  Mg  Mg5  1  0.90910900  0.48007400  0.57552800  1
  Mg  Mg6  1  0.75344900  0.99860200  0.56733400  1
  Mg  Mg7  1  0.85826300  0.72086500  0.25639500  1
  Si  Si8  1  0.70897700  0.12531000  0.21808200  1
  Si  Si9  1  0.87574900  0.94963300  0.97146600  1
  Si  Si10  1  0.37359900  0.58873100  0.40522100  1
  Si  Si11  1  0.51755600  0.60085500  0.79198600  1
