# generated using pymatgen
data_K15Si92
_symmetry_space_group_name_H-M   'P 1'
_cell_length_a   10.34488600
_cell_length_b   10.34836400
_cell_length_c   20.68218600
_cell_angle_alpha   90.00000000
_cell_angle_beta   90.00000000
_cell_angle_gamma   90.00000000
_symmetry_Int_Tables_number   1
_chemical_formula_structural   K15Si92
_chemical_formula_sum   'K15 Si92'
_cell_volume   2214.08273360
_cell_formula_units_Z   1
loop_
 _symmetry_equiv_pos_site_id
 _symmetry_equiv_pos_as_xyz
  1  'x, y, z'
loop_
 _atom_site_type_symbol
 _atom_site_label
 _atom_site_symmetry_multiplicity
 _atom_site_fract_x
 _atom_site_fract_y
 _atom_site_fract_z
 _atom_site_occupancy
  K  K0  1  0.50000000  0.50000000  0.25004500  1
  K  K1  1  0.50000000  0.50000000  0.74995500  1
  K  K2  1  0.00000000  0.00000000  0.00000000  1
  K  K3  1  0.75002200  0.00000000  0.25003700  1
  K  K4  1  0.75002200  0.00000000  0.74996300  1
  K  K5  1  0.00000000  0.50000000  0.37506800  1
  K  K6  1  0.00000000  0.50000000  0.87498400  1
  K  K7  1  0.50000000  0.24988500  0.00000000  1
  K  K8  1  0.50000000  0.24979100  0.50000000  1
  K  K9  1  0.24997800  0.00000000  0.25003700  1
  K  K10  1  0.24997800  0.00000000  0.74996300  1
  K  K11  1  0.00000000  0.50000000  0.12501600  1
  K  K12  1  0.00000000  0.50000000  0.62493200  1
  K  K13  1  0.50000000  0.75011500  0.00000000  1
  K  K14  1  0.50000000  0.75020900  0.50000000  1
  Si  Si15  1  0.50000000  0.00000000  0.37544000  1
  Si  Si16  1  0.50000000  0.00000000  0.87510700  1
  Si  Si17  1  0.00000000  0.24962400  0.25003800  1
  Si  Si18  1  0.00000000  0.24962400  0.74996200  1
  Si  Si19  1  0.74987300  0.50000000  0.00000000  1
  Si  Si20  1  0.75067200  0.50000000  0.50000000  1
  Si  Si21  1  0.50000000  0.00000000  0.12489300  1
  Si  Si22  1  0.50000000  0.00000000  0.62456000  1
  Si  Si23  1  0.00000000  0.75037600  0.25003800  1
  Si  Si24  1  0.00000000  0.75037600  0.74996200  1
  Si  Si25  1  0.25012700  0.50000000  0.00000000  1
  Si  Si26  1  0.24932800  0.50000000  0.50000000  1
  Si  Si27  1  0.50000000  0.19315300  0.30963500  1
  Si  Si28  1  0.50000000  0.19298200  0.80965800  1
  Si  Si29  1  0.80716800  0.38068000  0.25000600  1
  Si  Si30  1  0.80716800  0.38068000  0.74999400  1
  Si  Si31  1  0.61861700  0.50000000  0.40351500  1
  Si  Si32  1  0.61848700  0.50000000  0.90350300  1
  Si  Si33  1  0.50000000  0.80701800  0.19034200  1
  Si  Si34  1  0.50000000  0.80684700  0.69036500  1
  Si  Si35  1  0.19283200  0.61932000  0.25000600  1
  Si  Si36  1  0.19283200  0.61932000  0.74999400  1
  Si  Si37  1  0.38151300  0.50000000  0.09649700  1
  Si  Si38  1  0.38138300  0.50000000  0.59648500  1
  Si  Si39  1  0.80716800  0.61932000  0.25000600  1
  Si  Si40  1  0.80716800  0.61932000  0.74999400  1
  Si  Si41  1  0.61848700  0.50000000  0.09649700  1
  Si  Si42  1  0.61861700  0.50000000  0.59648500  1
  Si  Si43  1  0.19283200  0.38068000  0.25000600  1
  Si  Si44  1  0.19283200  0.38068000  0.74999400  1
  Si  Si45  1  0.38138300  0.50000000  0.40351500  1
  Si  Si46  1  0.38151300  0.50000000  0.90350300  1
  Si  Si47  1  0.50000000  0.80684700  0.30963500  1
  Si  Si48  1  0.50000000  0.80701800  0.80965800  1
  Si  Si49  1  0.50000000  0.19298200  0.19034200  1
  Si  Si50  1  0.50000000  0.19315300  0.69036500  1
  Si  Si51  1  0.00000000  0.11844200  0.34710900  1
  Si  Si52  1  0.00000000  0.11891700  0.84655500  1
  Si  Si53  1  0.30592900  0.00000000  0.44053400  1
  Si  Si54  1  0.30689900  0.00000000  0.94057200  1
  Si  Si55  1  0.11917400  0.30691800  0.00000000  1
  Si  Si56  1  0.11892800  0.30580000  0.50000000  1
  Si  Si57  1  0.00000000  0.88108300  0.15344500  1
  Si  Si58  1  0.00000000  0.88155800  0.65289100  1
  Si  Si59  1  0.69310100  0.00000000  0.05942800  1
  Si  Si60  1  0.69407100  0.00000000  0.55946600  1
  Si  Si61  1  0.88082600  0.69308200  0.00000000  1
  Si  Si62  1  0.88107200  0.69420000  0.50000000  1
  Si  Si63  1  0.30689900  0.00000000  0.05942800  1
  Si  Si64  1  0.30592900  0.00000000  0.55946600  1
  Si  Si65  1  0.11917400  0.69308200  0.00000000  1
  Si  Si66  1  0.11892800  0.69420000  0.50000000  1
  Si  Si67  1  0.69407100  0.00000000  0.44053400  1
  Si  Si68  1  0.69310100  0.00000000  0.94057200  1
  Si  Si69  1  0.88082600  0.30691800  0.00000000  1
  Si  Si70  1  0.88107200  0.30580000  0.50000000  1
  Si  Si71  1  0.00000000  0.11891700  0.15344500  1
  Si  Si72  1  0.00000000  0.11844200  0.65289100  1
  Si  Si73  1  0.00000000  0.88155800  0.34710900  1
  Si  Si74  1  0.00000000  0.88108300  0.84655500  1
  Si  Si75  1  0.68530900  0.31442900  0.34264400  1
  Si  Si76  1  0.68487100  0.31459500  0.84244000  1
  Si  Si77  1  0.31512900  0.68540500  0.15756000  1
  Si  Si78  1  0.31469100  0.68557100  0.65735600  1
  Si  Si79  1  0.68487100  0.68540500  0.15756000  1
  Si  Si80  1  0.68530900  0.68557100  0.65735600  1
  Si  Si81  1  0.31469100  0.31442900  0.34264400  1
  Si  Si82  1  0.31512900  0.31459500  0.84244000  1
  Si  Si83  1  0.31469100  0.68557100  0.34264400  1
  Si  Si84  1  0.31512900  0.68540500  0.84244000  1
  Si  Si85  1  0.68487100  0.31459500  0.15756000  1
  Si  Si86  1  0.68530900  0.31442900  0.65735600  1
  Si  Si87  1  0.31512900  0.31459500  0.15756000  1
  Si  Si88  1  0.31469100  0.31442900  0.65735600  1
  Si  Si89  1  0.68530900  0.68557100  0.34264400  1
  Si  Si90  1  0.68487100  0.68540500  0.84244000  1
  Si  Si91  1  0.18390800  0.18393700  0.40808700  1
  Si  Si92  1  0.18501800  0.18498400  0.90752200  1
  Si  Si93  1  0.81498200  0.81501600  0.09247800  1
  Si  Si94  1  0.81609200  0.81606300  0.59191300  1
  Si  Si95  1  0.18501800  0.81501600  0.09247800  1
  Si  Si96  1  0.18390800  0.81606300  0.59191300  1
  Si  Si97  1  0.81609200  0.18393700  0.40808700  1
  Si  Si98  1  0.81498200  0.18498400  0.90752200  1
  Si  Si99  1  0.81498200  0.18498400  0.09247800  1
  Si  Si100  1  0.81609200  0.18393700  0.59191300  1
  Si  Si101  1  0.18390800  0.81606300  0.40808700  1
  Si  Si102  1  0.18501800  0.81501600  0.90752200  1
  Si  Si103  1  0.81609200  0.81606300  0.40808700  1
  Si  Si104  1  0.81498200  0.81501600  0.90752200  1
  Si  Si105  1  0.18501800  0.18498400  0.09247800  1
  Si  Si106  1  0.18390800  0.18393700  0.59191300  1
