# generated using pymatgen
data_K2PtI5O2
_symmetry_space_group_name_H-M   'P 1'
_cell_length_a   8.12887758
_cell_length_b   8.12887758
_cell_length_c   11.67197500
_cell_angle_alpha   90.00000000
_cell_angle_beta   90.00000000
_cell_angle_gamma   108.29758301
_symmetry_Int_Tables_number   1
_chemical_formula_structural   K2PtI5O2
_chemical_formula_sum   'K4 Pt2 I10 O4'
_cell_volume   732.27204469
_cell_formula_units_Z   2
loop_
 _symmetry_equiv_pos_site_id
 _symmetry_equiv_pos_as_xyz
  1  'x, y, z'
loop_
 _atom_site_type_symbol
 _atom_site_label
 _atom_site_symmetry_multiplicity
 _atom_site_fract_x
 _atom_site_fract_y
 _atom_site_fract_z
 _atom_site_occupancy
  K  K0  1  0.53183400  0.93417900  0.25968000  1
  K  K1  1  0.06582100  0.46816600  0.75968000  1
  K  K2  1  0.46816600  0.06582100  0.75968000  1
  K  K3  1  0.93417900  0.53183400  0.25968000  1
  Pt  Pt4  1  0.99876100  0.99876100  0.53306500  1
  Pt  Pt5  1  0.00123900  0.00123900  0.03306500  1
  I  I6  1  0.20261400  0.79793900  0.51715700  1
  I  I7  1  0.20206100  0.79738600  0.01715700  1
  I  I8  1  0.79793900  0.20261400  0.51715700  1
  I  I9  1  0.79738600  0.20206100  0.01715700  1
  I  I10  1  0.28244600  0.28244600  0.53869300  1
  I  I11  1  0.71632700  0.71632700  0.52690300  1
  I  I12  1  0.28367300  0.28367300  0.02690300  1
  I  I13  1  0.71755400  0.71755400  0.03869300  1
  I  I14  1  0.01131800  0.01131800  0.28299700  1
  I  I15  1  0.98868200  0.98868200  0.78299700  1
  O  O16  1  0.72605900  0.23844500  0.16773400  1
  O  O17  1  0.76155500  0.27394100  0.66773400  1
  O  O18  1  0.27394100  0.76155500  0.66773400  1
  O  O19  1  0.23844500  0.72605900  0.16773400  1
