# generated using pymatgen
data_K2V6CdCu9O26
_symmetry_space_group_name_H-M   'P 1'
_cell_length_a   6.22257300
_cell_length_b   8.36389931
_cell_length_c   10.92519011
_cell_angle_alpha   97.67240006
_cell_angle_beta   90.00000000
_cell_angle_gamma   90.00000000
_symmetry_Int_Tables_number   1
_chemical_formula_structural   K2V6CdCu9O26
_chemical_formula_sum   'K2 V6 Cd1 Cu9 O26'
_cell_volume   563.51090501
_cell_formula_units_Z   1
loop_
 _symmetry_equiv_pos_site_id
 _symmetry_equiv_pos_as_xyz
  1  'x, y, z'
loop_
 _atom_site_type_symbol
 _atom_site_label
 _atom_site_symmetry_multiplicity
 _atom_site_fract_x
 _atom_site_fract_y
 _atom_site_fract_z
 _atom_site_occupancy
  K  K0  1  0.25000000  0.98847700  0.60567400  1
  K  K1  1  0.75000000  0.01733700  0.39854600  1
  V  V2  1  0.25000000  0.36151300  0.50006700  1
  V  V3  1  0.75000000  0.63304200  0.50471900  1
  V  V4  1  0.25000000  0.03461700  0.20702400  1
  V  V5  1  0.75000000  0.97155700  0.78911800  1
  V  V6  1  0.25000000  0.32111000  0.87984400  1
  V  V7  1  0.75000000  0.67848000  0.11968900  1
  Cd  Cd8  1  0.25000000  0.69342500  0.36420100  1
  Cu  Cu9  1  0.25000000  0.64267100  0.05991800  1
  Cu  Cu10  1  0.75000000  0.35637300  0.93552000  1
  Cu  Cu11  1  0.25000000  0.89600500  0.89601300  1
  Cu  Cu12  1  0.75000000  0.10379300  0.10368500  1
  Cu  Cu13  1  0.50392000  0.39005700  0.22461700  1
  Cu  Cu14  1  0.99899500  0.60588400  0.77405700  1
  Cu  Cu15  1  0.50100500  0.60588400  0.77405700  1
  Cu  Cu16  1  0.99608000  0.39005700  0.22461700  1
  Cu  Cu17  1  0.75000000  0.30097800  0.63058400  1
  O  O18  1  0.25000000  0.42143500  0.33506100  1
  O  O19  1  0.75000000  0.54669500  0.66317100  1
  O  O20  1  0.25000000  0.11699600  0.87757200  1
  O  O21  1  0.75000000  0.88134600  0.12042100  1
  O  O22  1  0.49179300  0.37952100  0.80696300  1
  O  O23  1  0.99172000  0.62159700  0.19352400  1
  O  O24  1  0.50828000  0.62159700  0.19352400  1
  O  O25  1  0.00820700  0.37952100  0.80696300  1
  O  O26  1  0.25000000  0.52834500  0.60646900  1
  O  O27  1  0.75000000  0.47609400  0.38939300  1
  O  O28  1  0.47703200  0.25196000  0.52546200  1
  O  O29  1  0.96733800  0.75422500  0.48814700  1
  O  O30  1  0.53266200  0.75422500  0.48814700  1
  O  O31  1  0.02296800  0.25196000  0.52546200  1
  O  O32  1  0.25000000  0.41020900  0.03327500  1
  O  O33  1  0.75000000  0.58796500  0.96581200  1
  O  O34  1  0.25000000  0.87956000  0.07868600  1
  O  O35  1  0.75000000  0.12089000  0.92131500  1
  O  O36  1  0.48285700  0.15630700  0.21195000  1
  O  O37  1  0.97714400  0.84221500  0.78392400  1
  O  O38  1  0.52285600  0.84221500  0.78392400  1
  O  O39  1  0.01714300  0.15630700  0.21195000  1
  O  O40  1  0.25000000  0.65803200  0.87754900  1
  O  O41  1  0.75000000  0.34362400  0.11527700  1
  O  O42  1  0.25000000  0.95068300  0.33975700  1
  O  O43  1  0.75000000  0.07521700  0.66435300  1
