# generated using pymatgen
data_K5LuHf(MoO4)6
_symmetry_space_group_name_H-M   'P 1'
_cell_length_a   14.29985066
_cell_length_b   14.29985066
_cell_length_c   14.29984980
_cell_angle_alpha   44.56072108
_cell_angle_beta   44.56072108
_cell_angle_gamma   44.56072039
_symmetry_Int_Tables_number   1
_chemical_formula_structural   K5LuHf(MoO4)6
_chemical_formula_sum   'K10 Lu2 Hf2 Mo12 O48'
_cell_volume   1309.11729307
_cell_formula_units_Z   2
loop_
 _symmetry_equiv_pos_site_id
 _symmetry_equiv_pos_as_xyz
  1  'x, y, z'
loop_
 _atom_site_type_symbol
 _atom_site_label
 _atom_site_symmetry_multiplicity
 _atom_site_fract_x
 _atom_site_fract_y
 _atom_site_fract_z
 _atom_site_occupancy
  K  K0  1  0.36276900  0.13723100  0.75000000  1
  K  K1  1  0.75000000  0.36276900  0.13723100  1
  K  K2  1  0.13723100  0.75000000  0.36276900  1
  K  K3  1  0.25000000  0.63723100  0.86276900  1
  K  K4  1  0.86276900  0.25000000  0.63723100  1
  K  K5  1  0.63723100  0.86276900  0.25000000  1
  K  K6  1  0.64658400  0.64658400  0.64658400  1
  K  K7  1  0.14658400  0.14658400  0.14658400  1
  K  K8  1  0.35341600  0.35341600  0.35341600  1
  K  K9  1  0.85341600  0.85341600  0.85341600  1
  Lu  Lu10  1  0.75000000  0.75000000  0.75000000  1
  Lu  Lu11  1  0.25000000  0.25000000  0.25000000  1
  Hf  Hf12  1  0.00000000  0.00000000  0.00000000  1
  Hf  Hf13  1  0.50000000  0.50000000  0.50000000  1
  Mo  Mo14  1  0.62032200  0.26242700  0.02120200  1
  Mo  Mo15  1  0.02120200  0.62032200  0.26242700  1
  Mo  Mo16  1  0.26242700  0.02120200  0.62032200  1
  Mo  Mo17  1  0.52120200  0.76242700  0.12032200  1
  Mo  Mo18  1  0.12032200  0.52120200  0.76242700  1
  Mo  Mo19  1  0.76242700  0.12032200  0.52120200  1
  Mo  Mo20  1  0.37967800  0.73757300  0.97879800  1
  Mo  Mo21  1  0.97879800  0.37967800  0.73757300  1
  Mo  Mo22  1  0.73757300  0.97879800  0.37967800  1
  Mo  Mo23  1  0.47879800  0.23757300  0.87967800  1
  Mo  Mo24  1  0.87967800  0.47879800  0.23757300  1
  Mo  Mo25  1  0.23757300  0.87967800  0.47879800  1
  O  O26  1  0.61846100  0.34759300  0.06911100  1
  O  O27  1  0.06911100  0.61846100  0.34759300  1
  O  O28  1  0.34759300  0.06911100  0.61846100  1
  O  O29  1  0.56911100  0.84759300  0.11846100  1
  O  O30  1  0.11846100  0.56911100  0.84759300  1
  O  O31  1  0.84759300  0.11846100  0.56911100  1
  O  O32  1  0.38153900  0.65240700  0.93088900  1
  O  O33  1  0.93088900  0.38153900  0.65240700  1
  O  O34  1  0.65240700  0.93088900  0.38153900  1
  O  O35  1  0.43088900  0.15240700  0.88153900  1
  O  O36  1  0.88153900  0.43088900  0.15240700  1
  O  O37  1  0.15240700  0.88153900  0.43088900  1
  O  O38  1  0.80136100  0.10413900  0.99623800  1
  O  O39  1  0.99623800  0.80136100  0.10413900  1
  O  O40  1  0.10413900  0.99623800  0.80136100  1
  O  O41  1  0.49623800  0.60413900  0.30136100  1
  O  O42  1  0.30136100  0.49623800  0.60413900  1
  O  O43  1  0.60413900  0.30136100  0.49623800  1
  O  O44  1  0.19863900  0.89586100  0.00376200  1
  O  O45  1  0.00376200  0.19863900  0.89586100  1
  O  O46  1  0.89586100  0.00376200  0.19863900  1
  O  O47  1  0.50376200  0.39586100  0.69863900  1
  O  O48  1  0.69863900  0.50376200  0.39586100  1
  O  O49  1  0.39586100  0.69863900  0.50376200  1
  O  O50  1  0.59433200  0.38834900  0.85747800  1
  O  O51  1  0.85747800  0.59433200  0.38834900  1
  O  O52  1  0.38834900  0.85747800  0.59433200  1
  O  O53  1  0.35747800  0.88834900  0.09433200  1
  O  O54  1  0.09433200  0.35747800  0.88834900  1
  O  O55  1  0.88834900  0.09433200  0.35747800  1
  O  O56  1  0.40566800  0.61165100  0.14252200  1
  O  O57  1  0.14252200  0.40566800  0.61165100  1
  O  O58  1  0.61165100  0.14252200  0.40566800  1
  O  O59  1  0.64252200  0.11165100  0.90566800  1
  O  O60  1  0.90566800  0.64252200  0.11165100  1
  O  O61  1  0.11165100  0.90566800  0.64252200  1
  O  O62  1  0.47198100  0.20237100  0.17445100  1
  O  O63  1  0.17445100  0.47198100  0.20237100  1
  O  O64  1  0.20237100  0.17445100  0.47198100  1
  O  O65  1  0.67445100  0.70237100  0.97198100  1
  O  O66  1  0.97198100  0.67445100  0.70237100  1
  O  O67  1  0.70237100  0.97198100  0.67445100  1
  O  O68  1  0.52801900  0.79762900  0.82554900  1
  O  O69  1  0.82554900  0.52801900  0.79762900  1
  O  O70  1  0.79762900  0.82554900  0.52801900  1
  O  O71  1  0.32554900  0.29762900  0.02801900  1
  O  O72  1  0.02801900  0.32554900  0.29762900  1
  O  O73  1  0.29762900  0.02801900  0.32554900  1
