# generated using pymatgen
data_K2NbV(PO5)2
_symmetry_space_group_name_H-M   'P 1'
_cell_length_a   6.55366600
_cell_length_b   10.94595500
_cell_length_c   13.15462500
_cell_angle_alpha   90.00000000
_cell_angle_beta   90.00000000
_cell_angle_gamma   90.00000000
_symmetry_Int_Tables_number   1
_chemical_formula_structural   K2NbV(PO5)2
_chemical_formula_sum   'K8 Nb4 V4 P8 O40'
_cell_volume   943.66193016
_cell_formula_units_Z   4
loop_
 _symmetry_equiv_pos_site_id
 _symmetry_equiv_pos_as_xyz
  1  'x, y, z'
loop_
 _atom_site_type_symbol
 _atom_site_label
 _atom_site_symmetry_multiplicity
 _atom_site_fract_x
 _atom_site_fract_y
 _atom_site_fract_z
 _atom_site_occupancy
  K  K0  1  0.72430000  0.30464300  0.87615000  1
  K  K1  1  0.27570000  0.80464300  0.12385000  1
  K  K2  1  0.22430000  0.80464300  0.62385000  1
  K  K3  1  0.77570000  0.30464300  0.37615000  1
  K  K4  1  0.81551200  0.06823400  0.60271800  1
  K  K5  1  0.18448800  0.56823400  0.39728200  1
  K  K6  1  0.31551200  0.56823400  0.89728200  1
  K  K7  1  0.68448800  0.06823400  0.10271800  1
  Nb  Nb8  1  0.00557000  0.00353400  0.86908600  1
  Nb  Nb9  1  0.99443000  0.50353400  0.13091400  1
  Nb  Nb10  1  0.50557000  0.50353400  0.63091400  1
  Nb  Nb11  1  0.49443000  0.00353400  0.36908600  1
  V  V12  1  0.25112700  0.25124800  0.74622200  1
  V  V13  1  0.74887300  0.75124800  0.25377800  1
  V  V14  1  0.75112700  0.75124800  0.75377800  1
  V  V15  1  0.24887300  0.25124800  0.24622200  1
  P  P16  1  0.99984000  0.50272900  0.68306300  1
  P  P17  1  0.00016000  0.00272900  0.31693700  1
  P  P18  1  0.49984000  0.00272900  0.81693700  1
  P  P19  1  0.50016000  0.50272900  0.18306300  1
  P  P20  1  0.16399100  0.25518200  0.99852000  1
  P  P21  1  0.83600900  0.75518200  0.00148000  1
  P  P22  1  0.66399100  0.75518200  0.50148000  1
  P  P23  1  0.33600900  0.25518200  0.49852000  1
  O  O24  1  0.46202700  0.38186900  0.72704000  1
  O  O25  1  0.53797300  0.88186900  0.27296000  1
  O  O26  1  0.96202700  0.88186900  0.77296000  1
  O  O27  1  0.03797300  0.38186900  0.22704000  1
  O  O28  1  0.03103200  0.37349500  0.01082300  1
  O  O29  1  0.96896800  0.87349500  0.98917700  1
  O  O30  1  0.53103200  0.87349500  0.48917700  1
  O  O31  1  0.46896800  0.37349500  0.51082300  1
  O  O32  1  0.29954700  0.23285500  0.09284900  1
  O  O33  1  0.70045300  0.73285500  0.90715100  1
  O  O34  1  0.79954700  0.73285500  0.40715100  1
  O  O35  1  0.20045300  0.23285500  0.59284900  1
  O  O36  1  0.03392300  0.38771000  0.74767500  1
  O  O37  1  0.96607700  0.88771000  0.25232500  1
  O  O38  1  0.53392300  0.88771000  0.75232500  1
  O  O39  1  0.46607700  0.38771000  0.24767500  1
  O  O40  1  0.53668300  0.62801200  0.72544900  1
  O  O41  1  0.46331700  0.12801200  0.27455100  1
  O  O42  1  0.03668300  0.12801200  0.77455100  1
  O  O43  1  0.96331700  0.62801200  0.22544900  1
  O  O44  1  0.96522400  0.61342400  0.75392800  1
  O  O45  1  0.03477600  0.11342400  0.24607200  1
  O  O46  1  0.46522400  0.11342400  0.74607200  1
  O  O47  1  0.53477600  0.61342400  0.25392800  1
  O  O48  1  0.81319200  0.48155400  0.61027500  1
  O  O49  1  0.18680800  0.98155400  0.38972500  1
  O  O50  1  0.31319200  0.98155400  0.88972500  1
  O  O51  1  0.68680800  0.48155400  0.11027500  1
  O  O52  1  0.30082700  0.27275100  0.90321300  1
  O  O53  1  0.69917300  0.77275100  0.09678700  1
  O  O54  1  0.80082700  0.77275100  0.59678700  1
  O  O55  1  0.19917300  0.27275100  0.40321300  1
  O  O56  1  0.18746500  0.53157100  0.61306100  1
  O  O57  1  0.81253500  0.03157100  0.38693900  1
  O  O58  1  0.68746500  0.03157100  0.88693900  1
  O  O59  1  0.31253500  0.53157100  0.11306100  1
  O  O60  1  0.01118700  0.14659100  0.98457200  1
  O  O61  1  0.98881300  0.64659100  0.01542800  1
  O  O62  1  0.51118700  0.64659100  0.51542800  1
  O  O63  1  0.48881300  0.14659100  0.48457200  1
