# generated using pymatgen
data_K4BaTi6S20O
_symmetry_space_group_name_H-M   'P 1'
_cell_length_a   9.55241160
_cell_length_b   9.55241160
_cell_length_c   18.69211200
_cell_angle_alpha   90.00000000
_cell_angle_beta   90.00000000
_cell_angle_gamma   119.99999724
_symmetry_Int_Tables_number   1
_chemical_formula_structural   K4BaTi6S20O
_chemical_formula_sum   'K8 Ba2 Ti12 S40 O2'
_cell_volume   1477.11760120
_cell_formula_units_Z   2
loop_
 _symmetry_equiv_pos_site_id
 _symmetry_equiv_pos_as_xyz
  1  'x, y, z'
loop_
 _atom_site_type_symbol
 _atom_site_label
 _atom_site_symmetry_multiplicity
 _atom_site_fract_x
 _atom_site_fract_y
 _atom_site_fract_z
 _atom_site_occupancy
  K  K0  1  0.33333300  0.66666700  0.25000000  1
  K  K1  1  0.66666700  0.33333300  0.75000000  1
  K  K2  1  0.65777200  0.65777200  0.00000000  1
  K  K3  1  0.34222800  0.00000000  0.00000000  1
  K  K4  1  0.00000000  0.34222800  0.00000000  1
  K  K5  1  0.34222800  0.34222800  0.50000000  1
  K  K6  1  0.65777200  0.00000000  0.50000000  1
  K  K7  1  0.00000000  0.65777200  0.50000000  1
  Ba  Ba8  1  0.00000000  0.00000000  0.25000000  1
  Ba  Ba9  1  0.00000000  0.00000000  0.75000000  1
  Ti  Ti10  1  0.66719500  0.13654400  0.17941800  1
  Ti  Ti11  1  0.86345600  0.53065200  0.17941800  1
  Ti  Ti12  1  0.46934800  0.33280500  0.17941800  1
  Ti  Ti13  1  0.13654400  0.66719500  0.82058200  1
  Ti  Ti14  1  0.53065200  0.86345600  0.82058200  1
  Ti  Ti15  1  0.33280500  0.46934800  0.82058200  1
  Ti  Ti16  1  0.33280500  0.86345600  0.67941800  1
  Ti  Ti17  1  0.13654400  0.46934800  0.67941800  1
  Ti  Ti18  1  0.53065200  0.66719500  0.67941800  1
  Ti  Ti19  1  0.86345600  0.33280500  0.32058200  1
  Ti  Ti20  1  0.46934800  0.13654400  0.32058200  1
  Ti  Ti21  1  0.66719500  0.53065200  0.32058200  1
  S  S22  1  0.54380400  0.89769800  0.10942100  1
  S  S23  1  0.10230200  0.64610600  0.10942100  1
  S  S24  1  0.35389400  0.45619600  0.10942100  1
  S  S25  1  0.89769800  0.54380400  0.89057900  1
  S  S26  1  0.64610600  0.10230200  0.89057900  1
  S  S27  1  0.45619600  0.35389400  0.89057900  1
  S  S28  1  0.45619600  0.10230200  0.60942100  1
  S  S29  1  0.89769800  0.35389400  0.60942100  1
  S  S30  1  0.64610600  0.54380400  0.60942100  1
  S  S31  1  0.10230200  0.45619600  0.39057900  1
  S  S32  1  0.35389400  0.89769800  0.39057900  1
  S  S33  1  0.54380400  0.64610600  0.39057900  1
  S  S34  1  0.66666700  0.33333300  0.09224200  1
  S  S35  1  0.33333300  0.66666700  0.90775800  1
  S  S36  1  0.33333300  0.66666700  0.59224200  1
  S  S37  1  0.66666700  0.33333300  0.40775800  1
  S  S38  1  0.79389500  0.02454800  0.10751900  1
  S  S39  1  0.97545200  0.76934700  0.10751900  1
  S  S40  1  0.23065300  0.20610500  0.10751900  1
  S  S41  1  0.02454800  0.79389500  0.89248100  1
  S  S42  1  0.76934700  0.97545200  0.89248100  1
  S  S43  1  0.20610500  0.23065300  0.89248100  1
  S  S44  1  0.20610500  0.97545200  0.60751900  1
  S  S45  1  0.02454800  0.23065300  0.60751900  1
  S  S46  1  0.76934700  0.79389500  0.60751900  1
  S  S47  1  0.97545200  0.20610500  0.39248100  1
  S  S48  1  0.23065300  0.02454800  0.39248100  1
  S  S49  1  0.79389500  0.76934700  0.39248100  1
  S  S50  1  0.96322900  0.33222000  0.20353300  1
  S  S51  1  0.66778000  0.63101000  0.20353300  1
  S  S52  1  0.36899000  0.03677100  0.20353300  1
  S  S53  1  0.33222000  0.96322900  0.79646700  1
  S  S54  1  0.63101000  0.66778000  0.79646700  1
  S  S55  1  0.03677100  0.36899000  0.79646700  1
  S  S56  1  0.03677100  0.66778000  0.70353300  1
  S  S57  1  0.33222000  0.36899000  0.70353300  1
  S  S58  1  0.63101000  0.96322900  0.70353300  1
  S  S59  1  0.66778000  0.03677100  0.29646700  1
  S  S60  1  0.36899000  0.33222000  0.29646700  1
  S  S61  1  0.96322900  0.63101000  0.29646700  1
  O  O62  1  0.66666700  0.33333300  0.25000000  1
  O  O63  1  0.33333300  0.66666700  0.75000000  1
