# generated using pymatgen
data_K2YHf(PO4)3
_symmetry_space_group_name_H-M   'P 1'
_cell_length_a   10.48755800
_cell_length_b   10.48755800
_cell_length_c   10.48755800
_cell_angle_alpha   90.00000000
_cell_angle_beta   90.00000000
_cell_angle_gamma   90.00000000
_symmetry_Int_Tables_number   1
_chemical_formula_structural   K2YHf(PO4)3
_chemical_formula_sum   'K8 Y4 Hf4 P12 O48'
_cell_volume   1153.51468288
_cell_formula_units_Z   4
loop_
 _symmetry_equiv_pos_site_id
 _symmetry_equiv_pos_as_xyz
  1  'x, y, z'
loop_
 _atom_site_type_symbol
 _atom_site_label
 _atom_site_symmetry_multiplicity
 _atom_site_fract_x
 _atom_site_fract_y
 _atom_site_fract_z
 _atom_site_occupancy
  K  K0  1  0.57259400  0.07259400  0.42740600  1
  K  K1  1  0.07259400  0.42740600  0.57259400  1
  K  K2  1  0.42740600  0.57259400  0.07259400  1
  K  K3  1  0.92740600  0.92740600  0.92740600  1
  K  K4  1  0.79935600  0.29935600  0.20064400  1
  K  K5  1  0.29935600  0.20064400  0.79935600  1
  K  K6  1  0.20064400  0.79935600  0.29935600  1
  K  K7  1  0.70064400  0.70064400  0.70064400  1
  Y  Y8  1  0.08381700  0.58381700  0.91618300  1
  Y  Y9  1  0.58381700  0.91618300  0.08381700  1
  Y  Y10  1  0.91618300  0.08381700  0.58381700  1
  Y  Y11  1  0.41618300  0.41618300  0.41618300  1
  Hf  Hf12  1  0.35521700  0.85521700  0.64478300  1
  Hf  Hf13  1  0.85521700  0.64478300  0.35521700  1
  Hf  Hf14  1  0.64478300  0.35521700  0.85521700  1
  Hf  Hf15  1  0.14478300  0.14478300  0.14478300  1
  P  P16  1  0.37971900  0.54285000  0.73629200  1
  P  P17  1  0.26370800  0.87971900  0.95715000  1
  P  P18  1  0.04285000  0.76370800  0.62028100  1
  P  P19  1  0.87971900  0.95715000  0.26370800  1
  P  P20  1  0.76370800  0.62028100  0.04285000  1
  P  P21  1  0.54285000  0.73629200  0.37971900  1
  P  P22  1  0.62028100  0.04285000  0.76370800  1
  P  P23  1  0.73629200  0.37971900  0.54285000  1
  P  P24  1  0.95715000  0.26370800  0.87971900  1
  P  P25  1  0.12028100  0.45715000  0.23629200  1
  P  P26  1  0.23629200  0.12028100  0.45715000  1
  P  P27  1  0.45715000  0.23629200  0.12028100  1
  O  O28  1  0.26449800  0.51854800  0.82314700  1
  O  O29  1  0.17685300  0.76449800  0.98145200  1
  O  O30  1  0.01854800  0.67685300  0.73550200  1
  O  O31  1  0.76449800  0.98145200  0.17685300  1
  O  O32  1  0.67685300  0.73550200  0.01854800  1
  O  O33  1  0.51854800  0.82314700  0.26449800  1
  O  O34  1  0.73550200  0.01854800  0.67685300  1
  O  O35  1  0.82314700  0.26449800  0.51854800  1
  O  O36  1  0.98145200  0.17685300  0.76449800  1
  O  O37  1  0.23550200  0.48145200  0.32314700  1
  O  O38  1  0.32314700  0.23550200  0.48145200  1
  O  O39  1  0.48145200  0.32314700  0.23550200  1
  O  O40  1  0.34971100  0.49577700  0.60124800  1
  O  O41  1  0.39875200  0.84971100  0.00422300  1
  O  O42  1  0.99577700  0.89875200  0.65028900  1
  O  O43  1  0.84971100  0.00422300  0.39875200  1
  O  O44  1  0.89875200  0.65028900  0.99577700  1
  O  O45  1  0.49577700  0.60124800  0.34971100  1
  O  O46  1  0.65028900  0.99577700  0.89875200  1
  O  O47  1  0.60124800  0.34971100  0.49577700  1
  O  O48  1  0.00422300  0.39875200  0.84971100  1
  O  O49  1  0.15028900  0.50422300  0.10124800  1
  O  O50  1  0.10124800  0.15028900  0.50422300  1
  O  O51  1  0.50422300  0.10124800  0.15028900  1
  O  O52  1  0.41633000  0.68751100  0.73484900  1
  O  O53  1  0.26515100  0.91633000  0.81248900  1
  O  O54  1  0.18751100  0.76515100  0.58367000  1
  O  O55  1  0.91633000  0.81248900  0.26515100  1
  O  O56  1  0.76515100  0.58367000  0.18751100  1
  O  O57  1  0.68751100  0.73484900  0.41633000  1
  O  O58  1  0.58367000  0.18751100  0.76515100  1
  O  O59  1  0.73484900  0.41633000  0.68751100  1
  O  O60  1  0.81248900  0.26515100  0.91633000  1
  O  O61  1  0.08367000  0.31248900  0.23484900  1
  O  O62  1  0.23484900  0.08367000  0.31248900  1
  O  O63  1  0.31248900  0.23484900  0.08367000  1
  O  O64  1  0.49506100  0.46859700  0.79443800  1
  O  O65  1  0.20556200  0.99506100  0.03140300  1
  O  O66  1  0.96859700  0.70556200  0.50493900  1
  O  O67  1  0.99506100  0.03140300  0.20556200  1
  O  O68  1  0.70556200  0.50493900  0.96859700  1
  O  O69  1  0.46859700  0.79443800  0.49506100  1
  O  O70  1  0.50493900  0.96859700  0.70556200  1
  O  O71  1  0.79443800  0.49506100  0.46859700  1
  O  O72  1  0.03140300  0.20556200  0.99506100  1
  O  O73  1  0.00493900  0.53140300  0.29443800  1
  O  O74  1  0.29443800  0.00493900  0.53140300  1
  O  O75  1  0.53140300  0.29443800  0.00493900  1
