# generated using pymatgen
data_K2Mg3Zn2(Si2O5)6
_symmetry_space_group_name_H-M   'P 1'
_cell_length_a   10.36585277
_cell_length_b   10.36585277
_cell_length_c   14.36311505
_cell_angle_alpha   89.99589928
_cell_angle_beta   89.99589928
_cell_angle_gamma   59.99793997
_symmetry_Int_Tables_number   1
_chemical_formula_structural   K2Mg3Zn2(Si2O5)6
_chemical_formula_sum   'K4 Mg6 Zn4 Si24 O60'
_cell_volume   1336.53496799
_cell_formula_units_Z   2
loop_
 _symmetry_equiv_pos_site_id
 _symmetry_equiv_pos_as_xyz
  1  'x, y, z'
loop_
 _atom_site_type_symbol
 _atom_site_label
 _atom_site_symmetry_multiplicity
 _atom_site_fract_x
 _atom_site_fract_y
 _atom_site_fract_z
 _atom_site_occupancy
  K  K0  1  0.00008400  0.99991600  0.50000000  1
  K  K1  1  0.00002600  0.99997400  0.00000000  1
  K  K2  1  0.33336300  0.33328300  0.25005000  1
  K  K3  1  0.66671700  0.66663700  0.74995000  1
  Mg  Mg4  1  0.33335500  0.33373100  0.50438700  1
  Mg  Mg5  1  0.33333700  0.33331700  0.99585700  1
  Mg  Mg6  1  0.66668300  0.66666300  0.00414300  1
  Mg  Mg7  1  0.66626900  0.66664500  0.49561300  1
  Mg  Mg8  1  0.50023200  0.00002000  0.50000800  1
  Mg  Mg9  1  0.99998000  0.49976800  0.49999200  1
  Zn  Zn10  1  0.50056800  0.49943200  0.50000000  1
  Zn  Zn11  1  0.49935100  0.99999700  0.00000300  1
  Zn  Zn12  1  0.00000300  0.50064900  0.99999700  1
  Zn  Zn13  1  0.50062900  0.49937100  0.00000000  1
  Si  Si14  1  0.34974900  0.88775600  0.36140900  1
  Si  Si15  1  0.88768900  0.76251800  0.36142100  1
  Si  Si16  1  0.76268300  0.34889000  0.36134400  1
  Si  Si17  1  0.34896500  0.88856600  0.13865500  1
  Si  Si18  1  0.88859000  0.76245000  0.13864900  1
  Si  Si19  1  0.76244200  0.34897000  0.13866100  1
  Si  Si20  1  0.23755000  0.11141000  0.86135100  1
  Si  Si21  1  0.65103000  0.23755800  0.86133900  1
  Si  Si22  1  0.11143400  0.65103500  0.86134500  1
  Si  Si23  1  0.23748200  0.11231100  0.63857900  1
  Si  Si24  1  0.65111000  0.23731700  0.63865600  1
  Si  Si25  1  0.11224400  0.65025100  0.63859100  1
  Si  Si26  1  0.65468700  0.10967000  0.13778900  1
  Si  Si27  1  0.10968300  0.23561900  0.13779500  1
  Si  Si28  1  0.23566200  0.65466100  0.13783500  1
  Si  Si29  1  0.65405900  0.11035900  0.36214700  1
  Si  Si30  1  0.11051500  0.23542100  0.36215700  1
  Si  Si31  1  0.23534600  0.65475700  0.36217800  1
  Si  Si32  1  0.76457900  0.88948500  0.63784300  1
  Si  Si33  1  0.34524300  0.76465400  0.63782200  1
  Si  Si34  1  0.88964100  0.34594100  0.63785300  1
  Si  Si35  1  0.76438100  0.89031700  0.86220500  1
  Si  Si36  1  0.34533900  0.76433800  0.86216500  1
  Si  Si37  1  0.89033000  0.34531300  0.86221100  1
  O  O38  1  0.27425400  0.78538400  0.38752800  1
  O  O39  1  0.78448700  0.94029300  0.38777100  1
  O  O40  1  0.94026200  0.27536500  0.38780600  1
  O  O41  1  0.27462400  0.78529600  0.11236800  1
  O  O42  1  0.78533000  0.94006400  0.11233000  1
  O  O43  1  0.94005900  0.27462300  0.11238800  1
  O  O44  1  0.05993600  0.21467000  0.88767000  1
  O  O45  1  0.72537700  0.05994100  0.88761200  1
  O  O46  1  0.21470400  0.72537600  0.88763200  1
  O  O47  1  0.05970700  0.21551300  0.61222900  1
  O  O48  1  0.72463500  0.05973800  0.61219400  1
  O  O49  1  0.21461600  0.72574600  0.61247200  1
  O  O50  1  0.72589600  0.21545800  0.11291600  1
  O  O51  1  0.21544300  0.05863700  0.11285400  1
  O  O52  1  0.05867800  0.72587200  0.11289400  1
  O  O53  1  0.72615100  0.21539600  0.38702300  1
  O  O54  1  0.21625600  0.05846600  0.38719300  1
  O  O55  1  0.05842200  0.72520900  0.38720800  1
  O  O56  1  0.94153400  0.78374400  0.61280700  1
  O  O57  1  0.27479100  0.94157800  0.61279200  1
  O  O58  1  0.78460400  0.27384900  0.61297700  1
  O  O59  1  0.94136300  0.78455700  0.88714600  1
  O  O60  1  0.27412800  0.94132200  0.88710600  1
  O  O61  1  0.78454200  0.27410400  0.88708400  1
  O  O62  1  0.38170800  0.87672100  0.24984700  1
  O  O63  1  0.87671900  0.74166300  0.24986200  1
  O  O64  1  0.74154400  0.38169400  0.24993900  1
  O  O65  1  0.25833700  0.12328100  0.75013800  1
  O  O66  1  0.61830600  0.25845600  0.75006100  1
  O  O67  1  0.12327900  0.61829200  0.75015300  1
  O  O68  1  0.61827900  0.12454100  0.24986300  1
  O  O69  1  0.12450800  0.25712500  0.24986100  1
  O  O70  1  0.25722200  0.61829300  0.24994400  1
  O  O71  1  0.74287500  0.87549200  0.75013900  1
  O  O72  1  0.38170700  0.74277800  0.75005600  1
  O  O73  1  0.87545900  0.38172100  0.75013700  1
  O  O74  1  0.49443700  0.84670800  0.42278300  1
  O  O75  1  0.84662100  0.65886800  0.42279800  1
  O  O76  1  0.65950900  0.49512700  0.42233600  1
  O  O77  1  0.49530700  0.84534100  0.07763500  1
  O  O78  1  0.84536400  0.65934000  0.07765100  1
  O  O79  1  0.65932800  0.49530900  0.07767600  1
  O  O80  1  0.34066000  0.15463600  0.92234900  1
  O  O81  1  0.50469100  0.34067200  0.92232400  1
  O  O82  1  0.15465900  0.50469300  0.92236500  1
  O  O83  1  0.34113200  0.15337900  0.57720200  1
  O  O84  1  0.50487300  0.34049100  0.57766400  1
  O  O85  1  0.15329200  0.50556300  0.57721700  1
  O  O86  1  0.50345800  0.15620600  0.08060300  1
  O  O87  1  0.15621500  0.34032800  0.08061100  1
  O  O88  1  0.34036000  0.50343300  0.08064400  1
  O  O89  1  0.50423200  0.15473200  0.41971800  1
  O  O90  1  0.15468300  0.34107900  0.41967600  1
  O  O91  1  0.34024000  0.50352900  0.41934500  1
  O  O92  1  0.65892100  0.84531700  0.58032400  1
  O  O93  1  0.49647100  0.65976000  0.58065500  1
  O  O94  1  0.84526800  0.49576800  0.58028200  1
  O  O95  1  0.65967200  0.84378500  0.91938900  1
  O  O96  1  0.49656700  0.65964000  0.91935600  1
  O  O97  1  0.84379400  0.49654200  0.91939700  1
