# generated using pymatgen
data_Mg7Si4
_symmetry_space_group_name_H-M   'P 1'
_cell_length_a   4.64827500
_cell_length_b   6.08611008
_cell_length_c   15.14596221
_cell_angle_alpha   91.86298579
_cell_angle_beta   91.58721986
_cell_angle_gamma   90.03416409
_symmetry_Int_Tables_number   1
_chemical_formula_structural   Mg7Si4
_chemical_formula_sum   'Mg14 Si8'
_cell_volume   428.08668342
_cell_formula_units_Z   2
loop_
 _symmetry_equiv_pos_site_id
 _symmetry_equiv_pos_as_xyz
  1  'x, y, z'
loop_
 _atom_site_type_symbol
 _atom_site_label
 _atom_site_symmetry_multiplicity
 _atom_site_fract_x
 _atom_site_fract_y
 _atom_site_fract_z
 _atom_site_occupancy
  Mg  Mg0  1  0.03651200  0.04196000  0.82675200  1
  Mg  Mg1  1  0.51311400  0.69745700  0.75861400  1
  Mg  Mg2  1  0.00168600  0.91194200  0.63325900  1
  Mg  Mg3  1  0.00710700  0.40697200  0.68376800  1
  Mg  Mg4  1  0.05888000  0.28359800  0.01522900  1
  Mg  Mg5  1  0.45960800  0.84876000  0.43423700  1
  Mg  Mg6  1  0.94819800  0.28372000  0.22724700  1
  Mg  Mg7  1  0.46258800  0.35338600  0.37291200  1
  Mg  Mg8  1  0.54270500  0.34520900  0.88840300  1
  Mg  Mg9  1  0.54496500  0.82643500  0.94790200  1
  Mg  Mg10  1  0.05350100  0.78576600  0.09370600  1
  Mg  Mg11  1  0.94032900  0.77510600  0.30171700  1
  Mg  Mg12  1  0.96236500  0.11573000  0.45496400  1
  Mg  Mg13  1  0.96943600  0.57775400  0.48514000  1
  Si  Si14  1  0.55542500  0.09726800  0.09084700  1
  Si  Si15  1  0.52866300  0.12763200  0.72477200  1
  Si  Si16  1  0.03470500  0.60434500  0.86575000  1
  Si  Si17  1  0.42828700  0.60501200  0.22922100  1
  Si  Si18  1  0.56964200  0.49586900  0.07879900  1
  Si  Si19  1  0.46660900  0.20225600  0.56163000  1
  Si  Si20  1  0.47726100  0.60070900  0.58276900  1
  Si  Si21  1  0.44202600  0.00568600  0.24603200  1
