# generated using pymatgen
data_HfTi4(PbO3)5
_symmetry_space_group_name_H-M   'P 1'
_cell_length_a   5.55422477
_cell_length_b   11.98278691
_cell_length_c   5.98019358
_cell_angle_alpha   98.50573014
_cell_angle_beta   62.32957801
_cell_angle_gamma   90.00000000
_symmetry_Int_Tables_number   1
_chemical_formula_structural   HfTi4(PbO3)5
_chemical_formula_sum   'Hf1 Ti4 Pb5 O15'
_cell_volume   347.54244119
_cell_formula_units_Z   1
loop_
 _symmetry_equiv_pos_site_id
 _symmetry_equiv_pos_as_xyz
  1  'x, y, z'
loop_
 _atom_site_type_symbol
 _atom_site_label
 _atom_site_symmetry_multiplicity
 _atom_site_fract_x
 _atom_site_fract_y
 _atom_site_fract_z
 _atom_site_occupancy
  Hf  Hf0  1  0.69229700  0.90481400  0.61540500  1
  Ti  Ti1  1  0.30146300  0.10418500  0.39707300  1
  Ti  Ti2  1  0.89603600  0.30392800  0.20792700  1
  Ti  Ti3  1  0.49454000  0.49979100  0.01092100  1
  Ti  Ti4  1  0.08655500  0.70344400  0.82689000  1
  Pb  Pb5  1  0.01360300  0.99311100  0.97279300  1
  Pb  Pb6  1  0.61869600  0.20050400  0.76260700  1
  Pb  Pb7  1  0.21615700  0.39510900  0.56768600  1
  Pb  Pb8  1  0.81399400  0.59319200  0.37201200  1
  Pb  Pb9  1  0.40882400  0.78365600  0.18235200  1
  O  O10  1  0.34545700  0.82021000  0.79822300  1
  O  O11  1  0.75002100  0.61870200  0.99525700  1
  O  O12  1  0.15495300  0.42258100  0.19292000  1
  O  O13  1  0.55826800  0.22329300  0.38400100  1
  O  O14  1  0.96714000  0.02741200  0.58307200  1
  O  O15  1  0.85632000  0.82021000  0.79822300  1
  O  O16  1  0.25472200  0.61870200  0.99525700  1
  O  O17  1  0.65212700  0.42258100  0.19292000  1
  O  O18  1  0.05773100  0.22329300  0.38400100  1
  O  O19  1  0.44978700  0.02741200  0.58307200  1
  O  O20  1  0.24425600  0.62597800  0.51148800  1
  O  O21  1  0.65019700  0.42052000  0.69960600  1
  O  O22  1  0.05220800  0.22943300  0.89558300  1
  O  O23  1  0.45912700  0.02504800  0.08174500  1
  O  O24  1  0.86151800  0.81488900  0.27696400  1
