# generated using pymatgen
data_Mg2CClO7
_symmetry_space_group_name_H-M   'P 1'
_cell_length_a   13.42166537
_cell_length_b   13.42166537
_cell_length_c   13.42166590
_cell_angle_alpha   116.61281636
_cell_angle_beta   116.61281636
_cell_angle_gamma   116.61282075
_symmetry_Int_Tables_number   1
_chemical_formula_structural   Mg2CClO7
_chemical_formula_sum   'Mg12 C6 Cl6 O42'
_cell_volume   1129.43927985
_cell_formula_units_Z   6
loop_
 _symmetry_equiv_pos_site_id
 _symmetry_equiv_pos_as_xyz
  1  'x, y, z'
loop_
 _atom_site_type_symbol
 _atom_site_label
 _atom_site_symmetry_multiplicity
 _atom_site_fract_x
 _atom_site_fract_y
 _atom_site_fract_z
 _atom_site_occupancy
  Mg  Mg0  1  0.67027200  0.23136800  0.25951300  1
  Mg  Mg1  1  0.25951300  0.67027200  0.23136800  1
  Mg  Mg2  1  0.23136800  0.25951300  0.67027200  1
  Mg  Mg3  1  0.75951300  0.73136800  0.17027200  1
  Mg  Mg4  1  0.17027200  0.75951300  0.73136800  1
  Mg  Mg5  1  0.73136800  0.17027200  0.75951300  1
  Mg  Mg6  1  0.13858400  0.88400500  0.54207600  1
  Mg  Mg7  1  0.54207500  0.13858400  0.88400500  1
  Mg  Mg8  1  0.88400500  0.54207500  0.13858400  1
  Mg  Mg9  1  0.04207600  0.38400500  0.63858400  1
  Mg  Mg10  1  0.63858400  0.04207600  0.38400500  1
  Mg  Mg11  1  0.38400500  0.63858400  0.04207600  1
  C  C12  1  0.85685900  0.47677400  0.31848000  1
  C  C13  1  0.31848000  0.85685900  0.47677400  1
  C  C14  1  0.47677400  0.31848000  0.85685900  1
  C  C15  1  0.81848000  0.97677400  0.35685900  1
  C  C16  1  0.35685900  0.81848000  0.97677400  1
  C  C17  1  0.97677400  0.35685900  0.81848000  1
  Cl  Cl18  1  0.48255900  0.37670300  0.19518200  1
  Cl  Cl19  1  0.19518200  0.48255900  0.37670300  1
  Cl  Cl20  1  0.37670300  0.19518200  0.48255900  1
  Cl  Cl21  1  0.69518200  0.87670300  0.98255900  1
  Cl  Cl22  1  0.98255900  0.69518200  0.87670300  1
  Cl  Cl23  1  0.87670300  0.98255900  0.69518200  1
  O  O24  1  0.95823300  0.59512500  0.34519000  1
  O  O25  1  0.34519000  0.95823300  0.59512500  1
  O  O26  1  0.59512500  0.34519000  0.95823300  1
  O  O27  1  0.84519000  0.09512500  0.45823300  1
  O  O28  1  0.45823300  0.84519000  0.09512500  1
  O  O29  1  0.09512500  0.45823300  0.84519000  1
  O  O30  1  0.90005200  0.52869500  0.45502300  1
  O  O31  1  0.45502300  0.90005200  0.52869500  1
  O  O32  1  0.52869500  0.45502300  0.90005200  1
  O  O33  1  0.95502300  0.02869500  0.40005200  1
  O  O34  1  0.40005200  0.95502300  0.02869500  1
  O  O35  1  0.02869500  0.40005200  0.95502300  1
  O  O36  1  0.50478000  0.28111000  0.28738500  1
  O  O37  1  0.28738500  0.50478000  0.28111000  1
  O  O38  1  0.28111000  0.28738500  0.50478000  1
  O  O39  1  0.78738500  0.78111000  0.00478000  1
  O  O40  1  0.00478000  0.78738500  0.78111000  1
  O  O41  1  0.78111000  0.00478000  0.78738500  1
  O  O42  1  0.28576200  0.95730700  0.76788800  1
  O  O43  1  0.76788800  0.28576200  0.95730700  1
  O  O44  1  0.95730700  0.76788800  0.28576200  1
  O  O45  1  0.26788800  0.45730700  0.78576200  1
  O  O46  1  0.78576200  0.26788800  0.45730700  1
  O  O47  1  0.45730700  0.78576200  0.26788800  1
  O  O48  1  0.88687800  0.75564900  0.34876600  1
  O  O49  1  0.34876600  0.88687800  0.75564900  1
  O  O50  1  0.75564900  0.34876600  0.88687800  1
  O  O51  1  0.84876600  0.25564900  0.38687800  1
  O  O52  1  0.38687800  0.84876600  0.25564900  1
  O  O53  1  0.25564900  0.38687800  0.84876600  1
  O  O54  1  0.70262700  0.29279600  0.15265000  1
  O  O55  1  0.15265000  0.70262700  0.29279600  1
  O  O56  1  0.29279600  0.15265000  0.70262700  1
  O  O57  1  0.65265000  0.79279600  0.20262700  1
  O  O58  1  0.20262700  0.65265000  0.79279600  1
  O  O59  1  0.79279600  0.20262700  0.65265000  1
  O  O60  1  0.27363300  0.39392200  0.20405100  1
  O  O61  1  0.20405100  0.27363300  0.39392200  1
  O  O62  1  0.39392200  0.20405100  0.27363300  1
  O  O63  1  0.70405100  0.89392200  0.77363300  1
  O  O64  1  0.77363300  0.70405100  0.89392200  1
  O  O65  1  0.89392200  0.77363300  0.70405100  1
