# generated using pymatgen
data_K8Nd3(Si4O11)3
_symmetry_space_group_name_H-M   'P 1'
_cell_length_a   7.02274500
_cell_length_b   11.61122552
_cell_length_c   11.83567858
_cell_angle_alpha   87.52918577
_cell_angle_beta   87.95407554
_cell_angle_gamma   79.25092240
_symmetry_Int_Tables_number   1
_chemical_formula_structural   K8Nd3(Si4O11)3
_chemical_formula_sum   'K8 Nd3 Si12 O33'
_cell_volume   946.92073115
_cell_formula_units_Z   1
loop_
 _symmetry_equiv_pos_site_id
 _symmetry_equiv_pos_as_xyz
  1  'x, y, z'
loop_
 _atom_site_type_symbol
 _atom_site_label
 _atom_site_symmetry_multiplicity
 _atom_site_fract_x
 _atom_site_fract_y
 _atom_site_fract_z
 _atom_site_occupancy
  K  K0  1  0.98829400  0.66454400  0.99398600  1
  K  K1  1  0.99876300  0.33146100  0.00301900  1
  K  K2  1  0.83203900  0.18554500  0.72648400  1
  K  K3  1  0.15555400  0.80476800  0.25660100  1
  K  K4  1  0.26417700  0.58698200  0.52075200  1
  K  K5  1  0.74625000  0.37013100  0.47666100  1
  K  K6  1  0.19844800  0.86189000  0.73029500  1
  K  K7  1  0.79101400  0.12524800  0.29067700  1
  Nd  Nd8  1  0.47798500  0.48431000  0.83133100  1
  Nd  Nd9  1  0.51384300  0.51039500  0.16757200  1
  Nd  Nd10  1  0.99336700  0.00066500  0.00088200  1
  Si  Si11  1  0.29604600  0.32098200  0.61701000  1
  Si  Si12  1  0.69436100  0.67394600  0.38203800  1
  Si  Si13  1  0.97754000  0.48028800  0.74652400  1
  Si  Si14  1  0.01282300  0.51726000  0.25166700  1
  Si  Si15  1  0.34316100  0.13499900  0.81339100  1
  Si  Si16  1  0.64804400  0.86112100  0.18516700  1
  Si  Si17  1  0.66671100  0.90248000  0.80697100  1
  Si  Si18  1  0.32525200  0.09310800  0.19282900  1
  Si  Si19  1  0.53690600  0.23349500  0.01049500  1
  Si  Si20  1  0.45123400  0.76291900  0.98901800  1
  Si  Si21  1  0.67899900  0.69574700  0.65324100  1
  Si  Si22  1  0.30896700  0.30096000  0.34434500  1
  O  O23  1  0.46983100  0.00311900  0.79080900  1
  O  O24  1  0.52389900  0.99318700  0.20849500  1
  O  O25  1  0.48905100  0.65156600  0.70667300  1
  O  O26  1  0.49540600  0.34665300  0.28868000  1
  O  O27  1  0.45922600  0.39167300  0.65341000  1
  O  O28  1  0.52564800  0.60760900  0.34595000  1
  O  O29  1  0.80929100  0.41873800  0.80500300  1
  O  O30  1  0.18161400  0.58020700  0.19507300  1
  O  O31  1  0.69299200  0.82900200  0.68988900  1
  O  O32  1  0.29718200  0.16672600  0.30965400  1
  O  O33  1  0.88755700  0.61142000  0.68661100  1
  O  O34  1  0.10099200  0.38534200  0.30880600  1
  O  O35  1  0.48063400  0.21388100  0.87588400  1
  O  O36  1  0.50718800  0.78368700  0.12342200  1
  O  O37  1  0.23660600  0.83335400  0.96156600  1
  O  O38  1  0.75111800  0.16329200  0.03835300  1
  O  O39  1  0.30019400  0.19519200  0.68633400  1
  O  O40  1  0.69240200  0.79984400  0.31186600  1
  O  O41  1  0.85594400  0.95516700  0.83109400  1
  O  O42  1  0.13969400  0.03536100  0.17138400  1
  O  O43  1  0.62285100  0.80955600  0.90981400  1
  O  O44  1  0.36416900  0.18615700  0.08891400  1
  O  O45  1  0.07555900  0.40248400  0.63535300  1
  O  O46  1  0.91599800  0.59421800  0.36450300  1
  O  O47  1  0.47455000  0.62102600  0.98247000  1
  O  O48  1  0.51387900  0.37559700  0.01639600  1
  O  O49  1  0.14375100  0.12630000  0.88027900  1
  O  O50  1  0.84805000  0.86753200  0.11793200  1
  O  O51  1  0.67171700  0.70572300  0.51516100  1
  O  O52  1  0.31388500  0.29612000  0.48246700  1
  O  O53  1  0.14143500  0.49716700  0.83419200  1
  O  O54  1  0.84820100  0.50474300  0.16291100  1
  O  O55  1  0.81470800  0.14461100  0.50919400  1
