# generated using pymatgen
data_Ge(TePd4)2
_symmetry_space_group_name_H-M   'P 1'
_cell_length_a   15.16714453
_cell_length_b   15.16714453
_cell_length_c   15.16714438
_cell_angle_alpha   29.31800209
_cell_angle_beta   29.31800209
_cell_angle_gamma   29.31800538
_symmetry_Int_Tables_number   1
_chemical_formula_structural   Ge(TePd4)2
_chemical_formula_sum   'Ge4 Te8 Pd32'
_cell_volume   740.26439847
_cell_formula_units_Z   4
loop_
 _symmetry_equiv_pos_site_id
 _symmetry_equiv_pos_as_xyz
  1  'x, y, z'
loop_
 _atom_site_type_symbol
 _atom_site_label
 _atom_site_symmetry_multiplicity
 _atom_site_fract_x
 _atom_site_fract_y
 _atom_site_fract_z
 _atom_site_occupancy
  Ge  Ge0  1  0.70957900  0.70957900  0.70957900  1
  Ge  Ge1  1  0.20957900  0.20957900  0.20957900  1
  Ge  Ge2  1  0.05103700  0.05103700  0.05103700  1
  Ge  Ge3  1  0.55103700  0.55103700  0.55103700  1
  Te  Te4  1  0.39370700  0.39370700  0.39370700  1
  Te  Te5  1  0.89370700  0.89370700  0.89370700  1
  Te  Te6  1  0.80323900  0.11826500  0.48269500  1
  Te  Te7  1  0.11826500  0.48269500  0.80323900  1
  Te  Te8  1  0.48269500  0.80323900  0.11826500  1
  Te  Te9  1  0.30323900  0.98269500  0.61826500  1
  Te  Te10  1  0.98269500  0.61826500  0.30323900  1
  Te  Te11  1  0.61826500  0.30323900  0.98269500  1
  Pd  Pd12  1  0.17197200  0.92199500  0.40964200  1
  Pd  Pd13  1  0.92199500  0.40964200  0.17197200  1
  Pd  Pd14  1  0.40964200  0.17197200  0.92199500  1
  Pd  Pd15  1  0.67197200  0.90964200  0.42199500  1
  Pd  Pd16  1  0.90964200  0.42199500  0.67197200  1
  Pd  Pd17  1  0.42199500  0.67197200  0.90964200  1
  Pd  Pd18  1  0.17498800  0.70224600  0.43383700  1
  Pd  Pd19  1  0.70224600  0.43383700  0.17498800  1
  Pd  Pd20  1  0.43383700  0.17498800  0.70224600  1
  Pd  Pd21  1  0.67498800  0.93383700  0.20224600  1
  Pd  Pd22  1  0.93383700  0.20224600  0.67498800  1
  Pd  Pd23  1  0.20224600  0.67498800  0.93383700  1
  Pd  Pd24  1  0.49169500  0.49169500  0.49169500  1
  Pd  Pd25  1  0.99169500  0.99169500  0.99169500  1
  Pd  Pd26  1  0.76705800  0.76705800  0.76705800  1
  Pd  Pd27  1  0.26705800  0.26705800  0.26705800  1
  Pd  Pd28  1  0.11055200  0.11055200  0.11055200  1
  Pd  Pd29  1  0.61055200  0.61055200  0.61055200  1
  Pd  Pd30  1  0.83305500  0.83305500  0.83305500  1
  Pd  Pd31  1  0.33305500  0.33305500  0.33305500  1
  Pd  Pd32  1  0.76763100  0.03332300  0.40214200  1
  Pd  Pd33  1  0.03332300  0.40214200  0.76763100  1
  Pd  Pd34  1  0.40214200  0.76763100  0.03332300  1
  Pd  Pd35  1  0.26763100  0.90214200  0.53332300  1
  Pd  Pd36  1  0.90214200  0.53332300  0.26763100  1
  Pd  Pd37  1  0.53332300  0.26763100  0.90214200  1
  Pd  Pd38  1  0.06425100  0.70238000  0.33871100  1
  Pd  Pd39  1  0.70238000  0.33871100  0.06425100  1
  Pd  Pd40  1  0.33871100  0.06425100  0.70238000  1
  Pd  Pd41  1  0.56425100  0.83871100  0.20238000  1
  Pd  Pd42  1  0.83871100  0.20238000  0.56425100  1
  Pd  Pd43  1  0.20238000  0.56425100  0.83871100  1
