# generated using pymatgen
data_H2PtPbI6O19
_symmetry_space_group_name_H-M   'P 1'
_cell_length_a   7.66195000
_cell_length_b   7.67995167
_cell_length_c   7.69985147
_cell_angle_alpha   96.93113545
_cell_angle_beta   97.31884823
_cell_angle_gamma   97.57137232
_symmetry_Int_Tables_number   1
_chemical_formula_structural   H2PtPbI6O19
_chemical_formula_sum   'H2 Pt1 Pb1 I6 O19'
_cell_volume   441.10068687
_cell_formula_units_Z   1
loop_
 _symmetry_equiv_pos_site_id
 _symmetry_equiv_pos_as_xyz
  1  'x, y, z'
loop_
 _atom_site_type_symbol
 _atom_site_label
 _atom_site_symmetry_multiplicity
 _atom_site_fract_x
 _atom_site_fract_y
 _atom_site_fract_z
 _atom_site_occupancy
  H  H0  1  0.63024100  0.49622400  0.62675200  1
  H  H1  1  0.62334500  0.63704900  0.49648400  1
  Pt  Pt2  1  0.27520100  0.27526500  0.27574200  1
  Pb  Pb3  1  0.82511300  0.82872000  0.83018700  1
  I  I4  1  0.05563300  0.62040200  0.42022100  1
  I  I5  1  0.41875000  0.05148500  0.62021800  1
  I  I6  1  0.62294500  0.41895700  0.05509200  1
  I  I7  1  0.40226300  0.87049400  0.09506700  1
  I  I8  1  0.09541200  0.40319800  0.86907800  1
  I  I9  1  0.86884500  0.09438200  0.40253300  1
  O  O10  1  0.21136700  0.45015700  0.46644600  1
  O  O11  1  0.46731700  0.21717700  0.45645100  1
  O  O12  1  0.45540300  0.46771400  0.21539900  1
  O  O13  1  0.62058700  0.62064200  0.62038500  1
  O  O14  1  0.17849000  0.74445300  0.05639600  1
  O  O15  1  0.05770800  0.18112700  0.74397100  1
  O  O16  1  0.74319700  0.05833400  0.18027900  1
  O  O17  1  0.34471200  0.10496300  0.08395800  1
  O  O18  1  0.08202400  0.34315300  0.10250900  1
  O  O19  1  0.10296500  0.08069800  0.34392400  1
  O  O20  1  0.84920900  0.46160900  0.36753600  1
  O  O21  1  0.36763600  0.85282200  0.45553100  1
  O  O22  1  0.46253900  0.36548600  0.85228600  1
  O  O23  1  0.45797100  0.86136600  0.87104300  1
  O  O24  1  0.86808300  0.45484100  0.85591000  1
  O  O25  1  0.85396300  0.86810200  0.45596100  1
  O  O26  1  0.06744400  0.68068200  0.65753700  1
  O  O27  1  0.65823300  0.06484500  0.68007800  1
  O  O28  1  0.68290200  0.65785300  0.06472600  1
