# generated using pymatgen
data_HW2C9NO10
_symmetry_space_group_name_H-M   'P 1'
_cell_length_a   7.16401873
_cell_length_b   9.86389143
_cell_length_c   12.74433620
_cell_angle_alpha   80.95369294
_cell_angle_beta   88.66399015
_cell_angle_gamma   69.99160307
_symmetry_Int_Tables_number   1
_chemical_formula_structural   HW2C9NO10
_chemical_formula_sum   'H2 W4 C18 N2 O20'
_cell_volume   835.24638253
_cell_formula_units_Z   2
loop_
 _symmetry_equiv_pos_site_id
 _symmetry_equiv_pos_as_xyz
  1  'x, y, z'
loop_
 _atom_site_type_symbol
 _atom_site_label
 _atom_site_symmetry_multiplicity
 _atom_site_fract_x
 _atom_site_fract_y
 _atom_site_fract_z
 _atom_site_occupancy
  H  H0  1  0.25654700  0.19058600  0.29772900  1
  H  H1  1  0.74345300  0.80941400  0.70227100  1
  W  W2  1  0.07019900  0.38986500  0.27152600  1
  W  W3  1  0.92980100  0.61013500  0.72847400  1
  W  W4  1  0.24846500  0.02744200  0.23477900  1
  W  W5  1  0.75153500  0.97255800  0.76522100  1
  C  C6  1  0.49635900  0.04590900  0.15482200  1
  C  C7  1  0.50364100  0.95409100  0.84517800  1
  C  C8  1  0.18852100  0.41789700  0.12075000  1
  C  C9  1  0.81147900  0.58210300  0.87925000  1
  C  C10  1  0.96573600  0.33671100  0.42175000  1
  C  C11  1  0.03426400  0.66328900  0.57825000  1
  C  C12  1  0.09029600  0.11873500  0.09211900  1
  C  C13  1  0.90970400  0.88126500  0.90788100  1
  C  C14  1  0.31494700  0.41523300  0.34329200  1
  C  C15  1  0.68505300  0.58476700  0.65670800  1
  C  C16  1  0.82198400  0.36514000  0.20342200  1
  C  C17  1  0.17801600  0.63486000  0.79657800  1
  C  C18  1  0.41984100  0.92039200  0.37257100  1
  C  C19  1  0.58015900  0.07960800  0.62742900  1
  C  C20  1  0.99269700  0.02288300  0.31230400  1
  C  C21  1  0.00730300  0.97711700  0.68769600  1
  C  C22  1  0.30533500  0.82675400  0.19395200  1
  C  C23  1  0.69466500  0.17324600  0.80604800  1
  N  N24  1  0.93276400  0.59175600  0.26345600  1
  N  N25  1  0.06723600  0.40824400  0.73654400  1
  O  O26  1  0.25056600  0.43383800  0.03713400  1
  O  O27  1  0.74943400  0.56616200  0.96286600  1
  O  O28  1  0.51546800  0.85587700  0.44855200  1
  O  O29  1  0.48453200  0.14412300  0.55144800  1
  O  O30  1  0.63250500  0.05746800  0.10773700  1
  O  O31  1  0.36749500  0.94253200  0.89226300  1
  O  O32  1  0.67790000  0.35910300  0.16899200  1
  O  O33  1  0.32210000  0.64089700  0.83100800  1
  O  O34  1  0.00759100  0.16819900  0.01002300  1
  O  O35  1  0.99240900  0.83180100  0.98997700  1
  O  O36  1  0.44415100  0.43586900  0.38262600  1
  O  O37  1  0.55584900  0.56413100  0.61737400  1
  O  O38  1  0.90711600  0.30892100  0.50472400  1
  O  O39  1  0.09288400  0.69107900  0.49527600  1
  O  O40  1  0.34310100  0.70957200  0.17248400  1
  O  O41  1  0.65689900  0.29042800  0.82751600  1
  O  O42  1  0.84674000  0.02499400  0.35552000  1
  O  O43  1  0.15326000  0.97500600  0.64448000  1
  O  O44  1  0.85037200  0.71903600  0.25722200  1
  O  O45  1  0.14962800  0.28096400  0.74277800  1
