# generated using pymatgen
data_Ho5Cu(WO4)8
_symmetry_space_group_name_H-M   'P 1'
_cell_length_a   10.04996485
_cell_length_b   10.04996485
_cell_length_c   11.60068547
_cell_angle_alpha   70.23984306
_cell_angle_beta   70.23984306
_cell_angle_gamma   32.78997191
_symmetry_Int_Tables_number   1
_chemical_formula_structural   Ho5Cu(WO4)8
_chemical_formula_sum   'Ho5 Cu1 W8 O32'
_cell_volume   593.83240112
_cell_formula_units_Z   1
loop_
 _symmetry_equiv_pos_site_id
 _symmetry_equiv_pos_as_xyz
  1  'x, y, z'
loop_
 _atom_site_type_symbol
 _atom_site_label
 _atom_site_symmetry_multiplicity
 _atom_site_fract_x
 _atom_site_fract_y
 _atom_site_fract_z
 _atom_site_occupancy
  Ho  Ho0  1  0.52985900  0.17391900  0.70919300  1
  Ho  Ho1  1  0.82608100  0.47014100  0.29080700  1
  Ho  Ho2  1  0.47456400  0.81816200  0.79704800  1
  Ho  Ho3  1  0.18183800  0.52543600  0.20295200  1
  Ho  Ho4  1  0.30754400  0.69245600  0.50000000  1
  Cu  Cu5  1  0.70396300  0.29603700  0.00000000  1
  W  W6  1  0.93162400  0.69132000  0.53581700  1
  W  W7  1  0.30868000  0.06837600  0.46418300  1
  W  W8  1  0.06527800  0.31337700  0.96213000  1
  W  W9  1  0.68662300  0.93472200  0.03787000  1
  W  W10  1  0.75615000  0.12996900  0.33726000  1
  W  W11  1  0.87003100  0.24385000  0.66274000  1
  W  W12  1  0.24325300  0.87086000  0.15297900  1
  W  W13  1  0.12914000  0.75674700  0.84702100  1
  O  O14  1  0.96060200  0.77571100  0.35549300  1
  O  O15  1  0.22428900  0.03939800  0.64450700  1
  O  O16  1  0.03477600  0.22892300  0.14239000  1
  O  O17  1  0.77107700  0.96522400  0.85761000  1
  O  O18  1  0.63871000  0.38994200  0.36810400  1
  O  O19  1  0.61005800  0.36129000  0.63189600  1
  O  O20  1  0.35047200  0.61567900  0.13665500  1
  O  O21  1  0.38432100  0.64952800  0.86334500  1
  O  O22  1  0.47186400  0.28641400  0.32759000  1
  O  O23  1  0.71358600  0.52813600  0.67241000  1
  O  O24  1  0.52253600  0.71450200  0.17596900  1
  O  O25  1  0.28549800  0.47746400  0.82403100  1
  O  O26  1  0.74239500  0.79200600  0.69091100  1
  O  O27  1  0.20799400  0.25760500  0.30908900  1
  O  O28  1  0.26398400  0.20423500  0.80663900  1
  O  O29  1  0.79576500  0.73601600  0.19336100  1
  O  O30  1  0.22079800  0.52134800  0.57348600  1
  O  O31  1  0.47865200  0.77920200  0.42651400  1
  O  O32  1  0.78599200  0.48185000  0.91996200  1
  O  O33  1  0.51815000  0.21400800  0.08003800  1
  O  O34  1  0.77937900  0.01341500  0.52005500  1
  O  O35  1  0.98658500  0.22062100  0.47994500  1
  O  O36  1  0.23355900  0.97904800  0.97772500  1
  O  O37  1  0.02095200  0.76644100  0.02227500  1
  O  O38  1  0.07452500  0.41545900  0.51486900  1
  O  O39  1  0.58454100  0.92547500  0.48513100  1
  O  O40  1  0.93137000  0.58166400  0.98558400  1
  O  O41  1  0.41833600  0.06863000  0.01441600  1
  O  O42  1  0.86836500  0.10383600  0.16513100  1
  O  O43  1  0.89616400  0.13163500  0.83486900  1
  O  O44  1  0.12012200  0.91004500  0.33026400  1
  O  O45  1  0.08995500  0.87987800  0.66973600  1
