# generated using pymatgen
data_Ge7(H2O11)2
_symmetry_space_group_name_H-M   'P 1'
_cell_length_a   7.90520730
_cell_length_b   7.90520730
_cell_length_c   7.90520730
_cell_angle_alpha   89.69927057
_cell_angle_beta   89.69927057
_cell_angle_gamma   89.69927057
_symmetry_Int_Tables_number   1
_chemical_formula_structural   Ge7(H2O11)2
_chemical_formula_sum   'Ge7 H4 O22'
_cell_volume   493.99426293
_cell_formula_units_Z   1
loop_
 _symmetry_equiv_pos_site_id
 _symmetry_equiv_pos_as_xyz
  1  'x, y, z'
loop_
 _atom_site_type_symbol
 _atom_site_label
 _atom_site_symmetry_multiplicity
 _atom_site_fract_x
 _atom_site_fract_y
 _atom_site_fract_z
 _atom_site_occupancy
  Ge  Ge0  1  0.14597900  0.83851700  0.14597900  1
  Ge  Ge1  1  0.83851700  0.14597900  0.14597900  1
  Ge  Ge2  1  0.14597900  0.14597900  0.83851700  1
  Ge  Ge3  1  0.85392000  0.85392000  0.85392000  1
  Ge  Ge4  1  0.49295600  0.99654400  0.99654400  1
  Ge  Ge5  1  0.99654400  0.99654400  0.49295600  1
  Ge  Ge6  1  0.99654400  0.49295600  0.99654400  1
  H  H7  1  0.17874500  0.17874500  0.17874500  1
  H  H8  1  0.79910700  0.79910700  0.17687900  1
  H  H9  1  0.17687900  0.79910700  0.79910700  1
  H  H10  1  0.79910700  0.17687900  0.79910700  1
  O  O11  1  0.10749000  0.10749000  0.10749000  1
  O  O12  1  0.88250800  0.88250800  0.10859100  1
  O  O13  1  0.10859100  0.88250800  0.88250800  1
  O  O14  1  0.88250800  0.10859100  0.88250800  1
  O  O15  1  0.37082400  0.86266900  0.12605100  1
  O  O16  1  0.12605100  0.86266900  0.37082400  1
  O  O17  1  0.12713900  0.61445400  0.12713900  1
  O  O18  1  0.61445400  0.12713900  0.12713900  1
  O  O19  1  0.86266900  0.12605100  0.37082400  1
  O  O20  1  0.86266900  0.37082400  0.12605100  1
  O  O21  1  0.37082400  0.12605100  0.86266900  1
  O  O22  1  0.12713900  0.12713900  0.61445400  1
  O  O23  1  0.12605100  0.37082400  0.86266900  1
  O  O24  1  0.62260200  0.86555000  0.86555000  1
  O  O25  1  0.86555000  0.86555000  0.62260200  1
  O  O26  1  0.86555000  0.62260200  0.86555000  1
  O  O27  1  0.59476000  0.02337800  0.59476000  1
  O  O28  1  0.02337800  0.59476000  0.59476000  1
  O  O29  1  0.59476000  0.59476000  0.02337800  1
  O  O30  1  0.67829400  0.67829400  0.25061800  1
  O  O31  1  0.25061800  0.67829400  0.67829400  1
  O  O32  1  0.67829400  0.25061800  0.67829400  1
