# generated using pymatgen
data_Ho(CuS)3
_symmetry_space_group_name_H-M   'P 1'
_cell_length_a   3.88810054
_cell_length_b   3.88810054
_cell_length_c   19.97411300
_cell_angle_alpha   90.00000000
_cell_angle_beta   90.00000000
_cell_angle_gamma   120.00000925
_symmetry_Int_Tables_number   1
_chemical_formula_structural   Ho(CuS)3
_chemical_formula_sum   'Ho2 Cu6 S6'
_cell_volume   261.50082756
_cell_formula_units_Z   2
loop_
 _symmetry_equiv_pos_site_id
 _symmetry_equiv_pos_as_xyz
  1  'x, y, z'
loop_
 _atom_site_type_symbol
 _atom_site_label
 _atom_site_symmetry_multiplicity
 _atom_site_fract_x
 _atom_site_fract_y
 _atom_site_fract_z
 _atom_site_occupancy
  Ho  Ho0  1  0.00000000  0.00000000  0.16504700  1
  Ho  Ho1  1  0.00000000  0.00000000  0.83495300  1
  Cu  Cu2  1  0.66666700  0.33333300  0.95398200  1
  Cu  Cu3  1  0.66666700  0.33333300  0.59184200  1
  Cu  Cu4  1  0.66666700  0.33333300  0.28823400  1
  Cu  Cu5  1  0.33333300  0.66666700  0.04601800  1
  Cu  Cu6  1  0.33333300  0.66666700  0.71176600  1
  Cu  Cu7  1  0.33333300  0.66666700  0.40815800  1
  S  S8  1  0.66666700  0.33333300  0.07831200  1
  S  S9  1  0.66666700  0.33333300  0.75806900  1
  S  S10  1  0.66666700  0.33333300  0.40187200  1
  S  S11  1  0.33333300  0.66666700  0.92168800  1
  S  S12  1  0.33333300  0.66666700  0.59812800  1
  S  S13  1  0.33333300  0.66666700  0.24193100  1
