# generated using pymatgen
data_Gd3Y13O24
_symmetry_space_group_name_H-M   'P 1'
_cell_length_a   9.29618989
_cell_length_b   9.29618989
_cell_length_c   10.73105927
_cell_angle_alpha   54.72455755
_cell_angle_beta   54.72455755
_cell_angle_gamma   70.52831531
_symmetry_Int_Tables_number   1
_chemical_formula_structural   Gd3Y13O24
_chemical_formula_sum   'Gd3 Y13 O24'
_cell_volume   618.07729143
_cell_formula_units_Z   1
loop_
 _symmetry_equiv_pos_site_id
 _symmetry_equiv_pos_as_xyz
  1  'x, y, z'
loop_
 _atom_site_type_symbol
 _atom_site_label
 _atom_site_symmetry_multiplicity
 _atom_site_fract_x
 _atom_site_fract_y
 _atom_site_fract_z
 _atom_site_occupancy
  Gd  Gd0  1  0.75027300  0.75021800  0.46722100  1
  Gd  Gd1  1  0.24978200  0.24972700  0.53277900  1
  Gd  Gd2  1  0.46776700  0.53223300  0.00000000  1
  Y  Y3  1  0.00094900  0.50004500  0.75041700  1
  Y  Y4  1  0.49990300  0.00069100  0.75051500  1
  Y  Y5  1  0.49995500  0.99905100  0.24958300  1
  Y  Y6  1  0.99930900  0.50009700  0.24948500  1
  Y  Y7  1  0.03299900  0.96700100  0.50000000  1
  Y  Y8  1  0.78410000  0.28312200  0.21682100  1
  Y  Y9  1  0.71687800  0.21590000  0.78317900  1
  Y  Y10  1  0.24957700  0.24937900  0.03284500  1
  Y  Y11  1  0.75062100  0.75042300  0.96715500  1
  Y  Y12  1  0.53299600  0.46700400  0.50000000  1
  Y  Y13  1  0.96688400  0.03311600  0.00000000  1
  Y  Y14  1  0.21762300  0.71837000  0.28235100  1
  Y  Y15  1  0.28163000  0.78237700  0.71764900  1
  O  O16  1  0.03134000  0.72877900  0.76079300  1
  O  O17  1  0.46909000  0.77309200  0.02104300  1
  O  O18  1  0.27122100  0.96866000  0.23920700  1
  O  O19  1  0.22690800  0.53091000  0.97895700  1
  O  O20  1  0.73946700  0.95725300  0.02159200  1
  O  O21  1  0.04274700  0.26053300  0.97840800  1
  O  O22  1  0.45750700  0.23923000  0.78160200  1
  O  O23  1  0.76077000  0.54249300  0.21839800  1
  O  O24  1  0.22893800  0.98766500  0.79389200  1
  O  O25  1  0.48774600  0.72880700  0.48956700  1
  O  O26  1  0.27119300  0.51225400  0.51043300  1
  O  O27  1  0.01233500  0.77106200  0.20610800  1
  O  O28  1  0.96606000  0.27212000  0.74148000  1
  O  O29  1  0.53376900  0.22817200  0.47945000  1
  O  O30  1  0.72788000  0.03394000  0.25852000  1
  O  O31  1  0.77182800  0.46623100  0.52055000  1
  O  O32  1  0.26115900  0.04033200  0.47805600  1
  O  O33  1  0.95966800  0.73884100  0.52194400  1
  O  O34  1  0.54014600  0.76357400  0.71845500  1
  O  O35  1  0.23642600  0.45985400  0.28154500  1
  O  O36  1  0.77081500  0.01033800  0.70776700  1
  O  O37  1  0.51043400  0.26835500  0.01106600  1
  O  O38  1  0.73164500  0.48956600  0.98893400  1
  O  O39  1  0.98966200  0.22918500  0.29223300  1
