# generated using pymatgen
data_K4U5B2O21
_symmetry_space_group_name_H-M   'P 1'
_cell_length_a   7.09137431
_cell_length_b   11.95304300
_cell_length_c   13.46210729
_cell_angle_alpha   90.00000000
_cell_angle_beta   90.10229359
_cell_angle_gamma   90.00000000
_symmetry_Int_Tables_number   1
_chemical_formula_structural   K4U5B2O21
_chemical_formula_sum   'K8 U10 B4 O42'
_cell_volume   1141.09354000
_cell_formula_units_Z   2
loop_
 _symmetry_equiv_pos_site_id
 _symmetry_equiv_pos_as_xyz
  1  'x, y, z'
loop_
 _atom_site_type_symbol
 _atom_site_label
 _atom_site_symmetry_multiplicity
 _atom_site_fract_x
 _atom_site_fract_y
 _atom_site_fract_z
 _atom_site_occupancy
  K  K0  1  0.49747300  0.33994800  0.91769300  1
  K  K1  1  0.50245400  0.84180900  0.58410200  1
  K  K2  1  0.50245400  0.65819100  0.08410200  1
  K  K3  1  0.49747300  0.16005200  0.41769300  1
  K  K4  1  0.49715800  0.50974200  0.36991500  1
  K  K5  1  0.50329000  0.01316200  0.12771300  1
  K  K6  1  0.50329000  0.48683800  0.62771300  1
  K  K7  1  0.49715800  0.99025800  0.86991500  1
  U  U8  1  0.00491700  0.62212600  0.25377400  1
  U  U9  1  0.99521300  0.12217600  0.24625200  1
  U  U10  1  0.99521300  0.37782400  0.74625200  1
  U  U11  1  0.00491700  0.87787400  0.75377400  1
  U  U12  1  0.99518800  0.65265700  0.53697300  1
  U  U13  1  0.00465700  0.15287000  0.96309900  1
  U  U14  1  0.00465700  0.34713000  0.46309900  1
  U  U15  1  0.99518800  0.84734300  0.03697300  1
  U  U16  1  0.00019800  0.50015300  0.99999700  1
  U  U17  1  0.00019800  0.99984700  0.49999700  1
  B  B18  1  0.97322000  0.84656800  0.30987300  1
  B  B19  1  0.02703000  0.34637000  0.19005500  1
  B  B20  1  0.02703000  0.15363000  0.69005500  1
  B  B21  1  0.97322000  0.65343200  0.80987300  1
  O  O22  1  0.25691900  0.65264000  0.54032700  1
  O  O23  1  0.74357900  0.15249300  0.96033500  1
  O  O24  1  0.74357900  0.34750700  0.46033500  1
  O  O25  1  0.25691900  0.84736000  0.04032700  1
  O  O26  1  0.95184600  0.54320300  0.83487400  1
  O  O27  1  0.04773100  0.04329100  0.66486500  1
  O  O28  1  0.04773100  0.45670900  0.16486500  1
  O  O29  1  0.95184600  0.95679700  0.33487400  1
  O  O30  1  0.98249600  0.81627800  0.21184100  1
  O  O31  1  0.01764400  0.31620500  0.28811300  1
  O  O32  1  0.01764400  0.18379500  0.78811300  1
  O  O33  1  0.98249600  0.68372200  0.71184100  1
  O  O34  1  0.00809900  0.53114500  0.40327600  1
  O  O35  1  0.99172800  0.03061900  0.09721600  1
  O  O36  1  0.99172800  0.46938100  0.59721600  1
  O  O37  1  0.00809900  0.96885500  0.90327600  1
  O  O38  1  0.26026300  0.51262000  0.98426300  1
  O  O39  1  0.73992900  0.01191100  0.51554300  1
  O  O40  1  0.73992900  0.48808900  0.01554300  1
  O  O41  1  0.26026300  0.98738000  0.48426300  1
  O  O42  1  0.00443700  0.34248500  0.91766100  1
  O  O43  1  0.99575200  0.84240700  0.58224600  1
  O  O44  1  0.99575200  0.65759300  0.08224600  1
  O  O45  1  0.00443700  0.15751500  0.41766100  1
  O  O46  1  0.73275000  0.65061400  0.53439800  1
  O  O47  1  0.26680100  0.15032100  0.96618700  1
  O  O48  1  0.26680100  0.34967900  0.46618700  1
  O  O49  1  0.73275000  0.84938600  0.03439800  1
  O  O50  1  0.26525000  0.63469000  0.25401700  1
  O  O51  1  0.73436700  0.13411600  0.24595100  1
  O  O52  1  0.73436700  0.36588400  0.74595100  1
  O  O53  1  0.26525000  0.86531000  0.75401700  1
  O  O54  1  0.98514700  0.76285700  0.38063100  1
  O  O55  1  0.01484700  0.26248800  0.11948100  1
  O  O56  1  0.01484700  0.23751200  0.61948100  1
  O  O57  1  0.98514700  0.73714300  0.88063100  1
  O  O58  1  0.74506700  0.61110100  0.25052200  1
  O  O59  1  0.25520800  0.10982600  0.24953500  1
  O  O60  1  0.25520800  0.39017400  0.74953500  1
  O  O61  1  0.74506700  0.88889900  0.75052200  1
  O  O62  1  0.51334000  0.35782600  0.19327500  1
  O  O63  1  0.51334000  0.14217400  0.69327500  1
