# generated using pymatgen
data_Ho9Al5Se21
_symmetry_space_group_name_H-M   'P 1'
_cell_length_a   11.93810869
_cell_length_b   11.93810869
_cell_length_c   11.93810872
_cell_angle_alpha   93.90145158
_cell_angle_beta   93.90145158
_cell_angle_gamma   93.90145363
_symmetry_Int_Tables_number   1
_chemical_formula_structural   Ho9Al5Se21
_chemical_formula_sum   'Ho18 Al10 Se42'
_cell_volume   1689.00452648
_cell_formula_units_Z   2
loop_
 _symmetry_equiv_pos_site_id
 _symmetry_equiv_pos_as_xyz
  1  'x, y, z'
loop_
 _atom_site_type_symbol
 _atom_site_label
 _atom_site_symmetry_multiplicity
 _atom_site_fract_x
 _atom_site_fract_y
 _atom_site_fract_z
 _atom_site_occupancy
  Ho  Ho0  1  0.11959800  0.88724300  0.26155000  1
  Ho  Ho1  1  0.77614100  0.54612500  0.92714900  1
  Ho  Ho2  1  0.45058600  0.23207800  0.60329500  1
  Ho  Ho3  1  0.23207800  0.60329500  0.45058600  1
  Ho  Ho4  1  0.88724300  0.26155000  0.11959800  1
  Ho  Ho5  1  0.54612500  0.92714900  0.77614100  1
  Ho  Ho6  1  0.92714900  0.77614100  0.54612500  1
  Ho  Ho7  1  0.60329500  0.45058600  0.23207800  1
  Ho  Ho8  1  0.26155000  0.11959800  0.88724300  1
  Ho  Ho9  1  0.56513400  0.79103800  0.41662900  1
  Ho  Ho10  1  0.22312900  0.45338400  0.07194700  1
  Ho  Ho11  1  0.90141500  0.12648500  0.75522400  1
  Ho  Ho12  1  0.45338400  0.07194700  0.22312900  1
  Ho  Ho13  1  0.12648500  0.75522400  0.90141500  1
  Ho  Ho14  1  0.79103800  0.41662900  0.56513400  1
  Ho  Ho15  1  0.75522400  0.90141500  0.12648500  1
  Ho  Ho16  1  0.41662900  0.56513400  0.79103800  1
  Ho  Ho17  1  0.07194700  0.22312900  0.45338400  1
  Al  Al18  1  0.61343500  0.28052100  0.95153100  1
  Al  Al19  1  0.28052100  0.95153100  0.61343500  1
  Al  Al20  1  0.95153100  0.61343500  0.28052100  1
  Al  Al21  1  0.77765100  0.11755700  0.45086300  1
  Al  Al22  1  0.45086300  0.77765100  0.11755700  1
  Al  Al23  1  0.11755700  0.45086300  0.77765100  1
  Al  Al24  1  0.14111600  0.14111600  0.14111600  1
  Al  Al25  1  0.82686000  0.82686000  0.82686000  1
  Al  Al26  1  0.32717100  0.32717100  0.32717100  1
  Al  Al27  1  0.64105800  0.64105800  0.64105800  1
  Se  Se28  1  0.48997700  0.15716900  0.82610600  1
  Se  Se29  1  0.15716900  0.82610600  0.48997700  1
  Se  Se30  1  0.82610600  0.48997700  0.15716900  1
  Se  Se31  1  0.99116300  0.32511800  0.65781200  1
  Se  Se32  1  0.65781200  0.99116300  0.32511800  1
  Se  Se33  1  0.32511800  0.65781200  0.99116300  1
  Se  Se34  1  0.55264800  0.46463700  0.99123500  1
  Se  Se35  1  0.21820500  0.13545000  0.64794900  1
  Se  Se36  1  0.89361100  0.80103500  0.30977500  1
  Se  Se37  1  0.80103500  0.30977500  0.89361100  1
  Se  Se38  1  0.46463700  0.99123500  0.55264800  1
  Se  Se39  1  0.13545000  0.64794900  0.21820500  1
  Se  Se40  1  0.64794900  0.21820500  0.13545000  1
  Se  Se41  1  0.30977500  0.89361100  0.80103500  1
  Se  Se42  1  0.99123500  0.55264800  0.46463700  1
  Se  Se43  1  0.94058700  0.03523300  0.52625600  1
  Se  Se44  1  0.61869100  0.70262200  0.18976000  1
  Se  Se45  1  0.28547200  0.37066800  0.84618300  1
  Se  Se46  1  0.70262200  0.18976000  0.61869100  1
  Se  Se47  1  0.37066800  0.84618300  0.28547200  1
  Se  Se48  1  0.03523300  0.52625600  0.94058700  1
  Se  Se49  1  0.84618300  0.28547200  0.37066800  1
  Se  Se50  1  0.52625600  0.94058700  0.03523300  1
  Se  Se51  1  0.18976000  0.61869100  0.70262200  1
  Se  Se52  1  0.58675100  0.43954600  0.68948400  1
  Se  Se53  1  0.23878500  0.10368300  0.33676600  1
  Se  Se54  1  0.89938700  0.75982500  0.00487200  1
  Se  Se55  1  0.75982500  0.00487200  0.89938700  1
  Se  Se56  1  0.43954600  0.68948400  0.58675100  1
  Se  Se57  1  0.10368300  0.33676600  0.23878500  1
  Se  Se58  1  0.33676600  0.23878500  0.10368300  1
  Se  Se59  1  0.00487200  0.89938700  0.75982500  1
  Se  Se60  1  0.68948400  0.58675100  0.43954600  1
  Se  Se61  1  0.71371900  0.84902800  0.61642000  1
  Se  Se62  1  0.37837300  0.51588100  0.27035500  1
  Se  Se63  1  0.05529300  0.20441800  0.95484600  1
  Se  Se64  1  0.51588100  0.27035500  0.37837300  1
  Se  Se65  1  0.20441800  0.95484600  0.05529300  1
  Se  Se66  1  0.84902800  0.61642000  0.71371900  1
  Se  Se67  1  0.95484600  0.05529300  0.20441800  1
  Se  Se68  1  0.61642000  0.71371900  0.84902800  1
  Se  Se69  1  0.27035500  0.37837300  0.51588100  1
