# generated using pymatgen
data_MgNiB2P2(H3O4)4
_symmetry_space_group_name_H-M   'P 1'
_cell_length_a   9.92115295
_cell_length_b   9.92115295
_cell_length_c   9.92115271
_cell_angle_alpha   99.24912679
_cell_angle_beta   99.24912679
_cell_angle_gamma   99.24912696
_symmetry_Int_Tables_number   1
_chemical_formula_structural   MgNiB2P2(H3O4)4
_chemical_formula_sum   'Mg3 Ni3 B6 P6 H36 O48'
_cell_volume   933.69711999
_cell_formula_units_Z   3
loop_
 _symmetry_equiv_pos_site_id
 _symmetry_equiv_pos_as_xyz
  1  'x, y, z'
loop_
 _atom_site_type_symbol
 _atom_site_label
 _atom_site_symmetry_multiplicity
 _atom_site_fract_x
 _atom_site_fract_y
 _atom_site_fract_z
 _atom_site_occupancy
  Mg  Mg0  1  0.50000000  0.99912600  0.00087400  1
  Mg  Mg1  1  0.00087400  0.50000000  0.99912600  1
  Mg  Mg2  1  0.99912600  0.00087400  0.50000000  1
  Ni  Ni3  1  0.50105900  0.49894000  0.00000000  1
  Ni  Ni4  1  0.00000000  0.50106000  0.49894100  1
  Ni  Ni5  1  0.49894000  0.00000000  0.50106000  1
  B  B6  1  0.81050200  0.18949800  0.00000000  1
  B  B7  1  0.00000000  0.81050200  0.18949800  1
  B  B8  1  0.18949800  0.00000000  0.81050200  1
  B  B9  1  0.50000000  0.69012400  0.30987600  1
  B  B10  1  0.30987600  0.50000000  0.69012400  1
  B  B11  1  0.69012400  0.30987600  0.50000000  1
  P  P12  1  0.18881900  0.81118100  0.00000000  1
  P  P13  1  0.00000000  0.18881900  0.81118100  1
  P  P14  1  0.81118100  0.00000000  0.18881900  1
  P  P15  1  0.50000000  0.30940300  0.69059700  1
  P  P16  1  0.69059700  0.50000000  0.30940300  1
  P  P17  1  0.30940300  0.69059700  0.50000000  1
  H  H18  1  0.95152000  0.27737000  0.29645200  1
  H  H19  1  0.29645200  0.95152000  0.27737000  1
  H  H20  1  0.27737000  0.29645200  0.95152000  1
  H  H21  1  0.79316700  0.77149900  0.45285700  1
  H  H22  1  0.45285700  0.79316700  0.77149900  1
  H  H23  1  0.77149900  0.45285700  0.79316700  1
  H  H24  1  0.54714300  0.22850100  0.20683300  1
  H  H25  1  0.20683300  0.54714300  0.22850100  1
  H  H26  1  0.22850100  0.20683300  0.54714300  1
  H  H27  1  0.70354800  0.72263000  0.04848000  1
  H  H28  1  0.04848000  0.70354800  0.72263000  1
  H  H29  1  0.72263000  0.04848000  0.70354800  1
  H  H30  1  0.08501400  0.77963500  0.37853200  1
  H  H31  1  0.37853200  0.08501400  0.77963500  1
  H  H32  1  0.77963500  0.37853200  0.08501400  1
  H  H33  1  0.87833100  0.27707700  0.58771200  1
  H  H34  1  0.58771200  0.87833100  0.27707700  1
  H  H35  1  0.27707700  0.58771200  0.87833100  1
  H  H36  1  0.41228800  0.72292300  0.12166900  1
  H  H37  1  0.12166900  0.41228800  0.72292300  1
  H  H38  1  0.72292300  0.12166900  0.41228800  1
  H  H39  1  0.62146800  0.22036500  0.91498600  1
  H  H40  1  0.91498600  0.62146800  0.22036500  1
  H  H41  1  0.22036500  0.91498600  0.62146800  1
  H  H42  1  0.08024400  0.38329100  0.27588400  1
  H  H43  1  0.27588400  0.08024400  0.38329100  1
  H  H44  1  0.38329100  0.27588400  0.08024400  1
  H  H45  1  0.77335900  0.87685000  0.58078700  1
  H  H46  1  0.58078700  0.77335900  0.87685000  1
  H  H47  1  0.87685000  0.58078700  0.77335900  1
  H  H48  1  0.41921300  0.12315000  0.22664100  1
  H  H49  1  0.22664100  0.41921300  0.12315000  1
  H  H50  1  0.12315000  0.22664100  0.41921300  1
  H  H51  1  0.72411600  0.61670900  0.91975600  1
  H  H52  1  0.91975600  0.72411600  0.61670900  1
  H  H53  1  0.61670900  0.91975600  0.72411600  1
  O  O54  1  0.03919700  0.85217600  0.34129600  1
  O  O55  1  0.34129600  0.03919700  0.85217600  1
  O  O56  1  0.85217600  0.34129600  0.03919700  1
  O  O57  1  0.84113300  0.35035200  0.54396900  1
  O  O58  1  0.54396900  0.84113300  0.35035200  1
  O  O59  1  0.35035200  0.54396900  0.84113300  1
  O  O60  1  0.45603100  0.64964800  0.15886700  1
  O  O61  1  0.15886700  0.45603100  0.64964800  1
  O  O62  1  0.64964800  0.15886700  0.45603100  1
  O  O63  1  0.65870400  0.14782400  0.96080300  1
  O  O64  1  0.96080300  0.65870400  0.14782400  1
  O  O65  1  0.14782400  0.96080300  0.65870400  1
  O  O66  1  0.85717400  0.04887500  0.34644400  1
  O  O67  1  0.34644400  0.85717400  0.04887500  1
  O  O68  1  0.04887500  0.34644400  0.85717400  1
  O  O69  1  0.84728700  0.55641600  0.35302200  1
  O  O70  1  0.35302200  0.84728700  0.55641600  1
  O  O71  1  0.55641600  0.35302200  0.84728700  1
  O  O72  1  0.64697800  0.44358400  0.15271300  1
  O  O73  1  0.15271300  0.64697800  0.44358400  1
  O  O74  1  0.44358400  0.15271300  0.64697800  1
  O  O75  1  0.65355600  0.95112500  0.14282600  1
  O  O76  1  0.14282600  0.65355600  0.95112500  1
  O  O77  1  0.95112500  0.14282600  0.65355600  1
  O  O78  1  0.03573900  0.34298100  0.34900100  1
  O  O79  1  0.34900100  0.03573900  0.34298100  1
  O  O80  1  0.34298100  0.34900100  0.03573900  1
  O  O81  1  0.84603500  0.83651900  0.53724400  1
  O  O82  1  0.53724400  0.84603500  0.83651900  1
  O  O83  1  0.83651900  0.53724400  0.84603500  1
  O  O84  1  0.46275600  0.16348100  0.15396500  1
  O  O85  1  0.15396500  0.46275600  0.16348100  1
  O  O86  1  0.16348100  0.15396500  0.46275600  1
  O  O87  1  0.65099900  0.65701900  0.96426100  1
  O  O88  1  0.96426100  0.65099900  0.65701900  1
  O  O89  1  0.65701900  0.96426100  0.65099900  1
  O  O90  1  0.86474900  0.12711600  0.12176100  1
  O  O91  1  0.12176100  0.86474900  0.12711600  1
  O  O92  1  0.12711600  0.12176100  0.86474900  1
  O  O93  1  0.61916400  0.62412000  0.36019400  1
  O  O94  1  0.36019400  0.61916400  0.62412000  1
  O  O95  1  0.62412000  0.36019400  0.61916400  1
  O  O96  1  0.63980600  0.37588000  0.38083600  1
  O  O97  1  0.38083600  0.63980600  0.37588000  1
  O  O98  1  0.37588000  0.38083600  0.63980600  1
  O  O99  1  0.87823900  0.87288400  0.13525100  1
  O  O100  1  0.13525100  0.87823900  0.87288400  1
  O  O101  1  0.87288400  0.13525100  0.87823900  1
