# generated using pymatgen
data_Gd6S3(OF4)2
_symmetry_space_group_name_H-M   'P 1'
_cell_length_a   3.78963200
_cell_length_b   13.40937853
_cell_length_c   13.40691088
_cell_angle_alpha   120.55789055
_cell_angle_beta   90.00000000
_cell_angle_gamma   90.00000000
_symmetry_Int_Tables_number   1
_chemical_formula_structural   Gd6S3(OF4)2
_chemical_formula_sum   'Gd12 S6 O4 F16'
_cell_volume   586.67289962
_cell_formula_units_Z   2
loop_
 _symmetry_equiv_pos_site_id
 _symmetry_equiv_pos_as_xyz
  1  'x, y, z'
loop_
 _atom_site_type_symbol
 _atom_site_label
 _atom_site_symmetry_multiplicity
 _atom_site_fract_x
 _atom_site_fract_y
 _atom_site_fract_z
 _atom_site_occupancy
  Gd  Gd0  1  0.75000000  0.61138600  0.47351200  1
  Gd  Gd1  1  0.75000000  0.52683800  0.12890100  1
  Gd  Gd2  1  0.75000000  0.86239000  0.38601000  1
  Gd  Gd3  1  0.25000000  0.39898200  0.53813400  1
  Gd  Gd4  1  0.25000000  0.47482300  0.87433400  1
  Gd  Gd5  1  0.25000000  0.14108800  0.60435100  1
  Gd  Gd6  1  0.75000000  0.94294400  0.71805600  1
  Gd  Gd7  1  0.75000000  0.28265200  0.22457900  1
  Gd  Gd8  1  0.75000000  0.76405400  0.05258500  1
  Gd  Gd9  1  0.25000000  0.05391800  0.29035700  1
  Gd  Gd10  1  0.25000000  0.70765200  0.76371600  1
  Gd  Gd11  1  0.25000000  0.23635200  0.94246200  1
  S  S12  1  0.75000000  0.27323200  0.80187300  1
  S  S13  1  0.75000000  0.19652100  0.47424400  1
  S  S14  1  0.75000000  0.52697500  0.71835500  1
  S  S15  1  0.25000000  0.72349300  0.19368100  1
  S  S16  1  0.25000000  0.81171200  0.53180100  1
  S  S17  1  0.25000000  0.46780400  0.28176900  1
  O  O18  1  0.75000000  0.56728400  0.97993700  1
  O  O19  1  0.25000000  0.98302400  0.41826500  1
  O  O20  1  0.25000000  0.58307500  0.56351500  1
  O  O21  1  0.25000000  0.43161000  0.01969800  1
  F  F22  1  0.75000000  0.10290600  0.90228300  1
  F  F23  1  0.75000000  0.09844400  0.20238400  1
  F  F24  1  0.75000000  0.79730800  0.89420300  1
  F  F25  1  0.25000000  0.89659000  0.09831500  1
  F  F26  1  0.25000000  0.90312100  0.80085200  1
  F  F27  1  0.25000000  0.19873900  0.10129000  1
  F  F28  1  0.75000000  0.75210400  0.68181900  1
  F  F29  1  0.75000000  0.31688300  0.06879100  1
  F  F30  1  0.75000000  0.93090500  0.24924800  1
  F  F31  1  0.25000000  0.25361800  0.32335300  1
  F  F32  1  0.25000000  0.68049400  0.92772100  1
  F  F33  1  0.25000000  0.06688100  0.74497600  1
  F  F34  1  0.75000000  0.66632700  0.33309800  1
  F  F35  1  0.25000000  0.33624700  0.66984200  1
  F  F36  1  0.75000000  0.02129700  0.58835400  1
  F  F37  1  0.75000000  0.41032700  0.43333500  1
