# generated using pymatgen
data_K7Fe5O16
_symmetry_space_group_name_H-M   'P 1'
_cell_length_a   5.67290100
_cell_length_b   9.64908386
_cell_length_c   10.80296210
_cell_angle_alpha   88.94429483
_cell_angle_beta   90.00000000
_cell_angle_gamma   90.00000000
_symmetry_Int_Tables_number   1
_chemical_formula_structural   K7Fe5O16
_chemical_formula_sum   'K7 Fe5 O16'
_cell_volume   591.23537659
_cell_formula_units_Z   1
loop_
 _symmetry_equiv_pos_site_id
 _symmetry_equiv_pos_as_xyz
  1  'x, y, z'
loop_
 _atom_site_type_symbol
 _atom_site_label
 _atom_site_symmetry_multiplicity
 _atom_site_fract_x
 _atom_site_fract_y
 _atom_site_fract_z
 _atom_site_occupancy
  K  K0  1  0.75000000  0.52382800  0.16137700  1
  K  K1  1  0.75000000  0.02972700  0.34225300  1
  K  K2  1  0.25000000  0.51030600  0.91153400  1
  K  K3  1  0.25000000  0.98211000  0.65678400  1
  K  K4  1  0.25000000  0.35169300  0.43070300  1
  K  K5  1  0.75000000  0.12949400  0.93876300  1
  K  K6  1  0.75000000  0.65133200  0.58736900  1
  Fe  Fe7  1  0.25000000  0.78203900  0.39173400  1
  Fe  Fe8  1  0.25000000  0.22034300  0.10410900  1
  Fe  Fe9  1  0.75000000  0.24643800  0.57852800  1
  Fe  Fe10  1  0.75000000  0.75321900  0.90664400  1
  Fe  Fe11  1  0.25000000  0.85883500  0.06938900  1
  O  O12  1  0.25000000  0.85693100  0.24460600  1
  O  O13  1  0.25000000  0.17411500  0.25303200  1
  O  O14  1  0.75000000  0.26311600  0.72935400  1
  O  O15  1  0.75000000  0.60156500  0.82851600  1
  O  O16  1  0.25000000  0.61218800  0.38167700  1
  O  O17  1  0.25000000  0.04262000  0.02282300  1
  O  O18  1  0.75000000  0.39964200  0.50308000  1
  O  O19  1  0.75000000  0.88755400  0.80310100  1
  O  O20  1  0.01526400  0.83517900  0.46874800  1
  O  O21  1  0.48560900  0.31895600  0.06225200  1
  O  O22  1  0.51607200  0.15853800  0.53155500  1
  O  O23  1  0.00192000  0.74877900  0.01475700  1
  O  O24  1  0.98392800  0.15853800  0.53155500  1
  O  O25  1  0.49808000  0.74877900  0.01475700  1
  O  O26  1  0.48473600  0.83517900  0.46874800  1
  O  O27  1  0.01439100  0.31895600  0.06225200  1
