# generated using pymatgen
data_H20SN8O13
_symmetry_space_group_name_H-M   'P 1'
_cell_length_a   6.04596000
_cell_length_b   10.03240000
_cell_length_c   12.69167340
_cell_angle_alpha   86.41640956
_cell_angle_beta   90.00000000
_cell_angle_gamma   90.00000000
_symmetry_Int_Tables_number   1
_chemical_formula_structural   H20SN8O13
_chemical_formula_sum   'H40 S2 N16 O26'
_cell_volume   768.31440675
_cell_formula_units_Z   2
loop_
 _symmetry_equiv_pos_site_id
 _symmetry_equiv_pos_as_xyz
  1  'x, y, z'
loop_
 _atom_site_type_symbol
 _atom_site_label
 _atom_site_symmetry_multiplicity
 _atom_site_fract_x
 _atom_site_fract_y
 _atom_site_fract_z
 _atom_site_occupancy
  H  H0  1  0.95308600  0.84297600  0.07800700  1
  H  H1  1  0.45308600  0.15702400  0.92199300  1
  H  H2  1  0.96142800  0.17683000  0.47179300  1
  H  H3  1  0.46142800  0.82317000  0.52820700  1
  H  H4  1  0.00137100  0.99848000  0.12048600  1
  H  H5  1  0.50137100  0.00152000  0.87951400  1
  H  H6  1  0.06588600  0.57326000  0.37889000  1
  H  H7  1  0.56588600  0.42674000  0.62111000  1
  H  H8  1  0.88984800  0.65448500  0.29369300  1
  H  H9  1  0.38984800  0.34551500  0.70630700  1
  H  H10  1  0.65929100  0.39741700  0.09498300  1
  H  H11  1  0.15929100  0.60258300  0.90501700  1
  H  H12  1  0.06054800  0.82840100  0.72348200  1
  H  H13  1  0.56054800  0.17159900  0.27651800  1
  H  H14  1  0.39054500  0.34507600  0.11399000  1
  H  H15  1  0.89054500  0.65492400  0.88601000  1
  H  H16  1  0.15431500  0.29893600  0.46221500  1
  H  H17  1  0.65431500  0.70106400  0.53778500  1
  H  H18  1  0.46526200  0.41779100  0.99815100  1
  H  H19  1  0.96526200  0.58220900  0.00184900  1
  H  H20  1  0.45280200  0.51174600  0.10457200  1
  H  H21  1  0.95280200  0.48825400  0.89542800  1
  H  H22  1  0.97247200  0.49733900  0.27288200  1
  H  H23  1  0.47247200  0.50266100  0.72711800  1
  H  H24  1  0.03503300  0.98636200  0.76545200  1
  H  H25  1  0.53503300  0.01363800  0.23454800  1
  H  H26  1  0.04178400  0.25205900  0.58157600  1
  H  H27  1  0.54178400  0.74794100  0.41842400  1
  H  H28  1  0.15631200  0.62362900  0.25564400  1
  H  H29  1  0.65631200  0.37637100  0.74435600  1
  H  H30  1  0.21969500  0.90002700  0.09276900  1
  H  H31  1  0.71969500  0.09997300  0.90723100  1
  H  H32  1  0.88828200  0.33688400  0.48667300  1
  H  H33  1  0.38828200  0.66311600  0.51332700  1
  H  H34  1  0.10923000  0.96076900  0.63938800  1
  H  H35  1  0.60923000  0.03923100  0.36061200  1
  H  H36  1  0.05556400  0.97120700  0.99616900  1
  H  H37  1  0.55556400  0.02879300  0.00383100  1
  H  H38  1  0.84456000  0.92976200  0.68353200  1
  H  H39  1  0.34456000  0.07023800  0.31646800  1
  S  S40  1  0.57319300  0.75583900  0.16917800  1
  S  S41  1  0.07319300  0.24416100  0.83082200  1
  N  N42  1  0.00248300  0.25702100  0.12594500  1
  N  N43  1  0.50248300  0.74297900  0.87405500  1
  N  N44  1  0.05776700  0.92658200  0.07178000  1
  N  N45  1  0.55776700  0.07341800  0.92822000  1
  N  N46  1  0.05975800  0.60860000  0.62133900  1
  N  N47  1  0.55975800  0.39140000  0.37866100  1
  N  N48  1  0.49367900  0.41823500  0.07792600  1
  N  N49  1  0.99367900  0.58176500  0.92207400  1
  N  N50  1  0.02224100  0.58706000  0.30043700  1
  N  N51  1  0.52224100  0.41294000  0.69956300  1
  N  N52  1  0.01266700  0.92539900  0.70257500  1
  N  N53  1  0.51266700  0.07460100  0.29742500  1
  N  N54  1  0.99765600  0.94363200  0.39754900  1
  N  N55  1  0.49765600  0.05636800  0.60245100  1
  N  N56  1  0.01166700  0.26559600  0.50079800  1
  N  N57  1  0.51166700  0.73440400  0.49920200  1
  O  O58  1  0.19717000  0.21273500  0.14016900  1
  O  O59  1  0.69717000  0.78726500  0.85983100  1
  O  O60  1  0.85315100  0.61735300  0.63305800  1
  O  O61  1  0.35315100  0.38264700  0.36694200  1
  O  O62  1  0.37732500  0.66693700  0.15734100  1
  O  O63  1  0.87732500  0.33306300  0.84265900  1
  O  O64  1  0.14203600  0.55577900  0.54118800  1
  O  O65  1  0.64203600  0.44422100  0.45881200  1
  O  O66  1  0.76081700  0.71045200  0.10440900  1
  O  O67  1  0.26081700  0.28954800  0.89559100  1
  O  O68  1  0.18937500  0.65239700  0.69000100  1
  O  O69  1  0.68937500  0.34760300  0.30999900  1
  O  O70  1  0.51019000  0.89680100  0.13259000  1
  O  O71  1  0.01019000  0.10319900  0.86741000  1
  O  O72  1  0.84300600  0.17676100  0.11757300  1
  O  O73  1  0.34300600  0.82323900  0.88242700  1
  O  O74  1  0.64336000  0.75381500  0.28230800  1
  O  O75  1  0.14336000  0.24618500  0.71769200  1
  O  O76  1  0.96721800  0.38255800  0.11972100  1
  O  O77  1  0.46721800  0.61744200  0.88027900  1
  O  O78  1  0.05139400  0.04088400  0.33277400  1
  O  O79  1  0.55139400  0.95911600  0.66722600  1
  O  O80  1  0.10015500  0.83528200  0.40026700  1
  O  O81  1  0.60015500  0.16471800  0.59973300  1
  O  O82  1  0.83520300  0.96078900  0.45998200  1
  O  O83  1  0.33520300  0.03921100  0.54001800  1
