# generated using pymatgen
data_K2SnHOF6
_symmetry_space_group_name_H-M   'P 1'
_cell_length_a   11.37385076
_cell_length_b   10.92864782
_cell_length_c   9.34736477
_cell_angle_alpha   67.72481704
_cell_angle_beta   62.76692733
_cell_angle_gamma   49.50825563
_symmetry_Int_Tables_number   1
_chemical_formula_structural   K2SnHOF6
_chemical_formula_sum   'K8 Sn4 H4 O4 F24'
_cell_volume   779.88108687
_cell_formula_units_Z   4
loop_
 _symmetry_equiv_pos_site_id
 _symmetry_equiv_pos_as_xyz
  1  'x, y, z'
loop_
 _atom_site_type_symbol
 _atom_site_label
 _atom_site_symmetry_multiplicity
 _atom_site_fract_x
 _atom_site_fract_y
 _atom_site_fract_z
 _atom_site_occupancy
  K  K0  1  0.24971500  0.49929300  0.74772800  1
  K  K1  1  0.50326400  0.74772800  0.49929300  1
  K  K2  1  0.75070700  0.00028500  0.74673600  1
  K  K3  1  0.50227200  0.74673600  0.00028500  1
  K  K4  1  0.65548900  0.34451100  0.34451100  1
  K  K5  1  0.09268800  0.90731200  0.90731200  1
  K  K6  1  0.34268800  0.15731200  0.15731200  1
  K  K7  1  0.90548900  0.59451100  0.59451100  1
  Sn  Sn8  1  0.59049900  0.40508100  0.84396100  1
  Sn  Sn9  1  0.16045900  0.84396100  0.40508100  1
  Sn  Sn10  1  0.40603900  0.08954100  0.65950100  1
  Sn  Sn11  1  0.84491900  0.65950100  0.08954100  1
  H  H12  1  0.75219300  0.14593500  0.11289400  1
  H  H13  1  0.98897900  0.11289400  0.14593500  1
  H  H14  1  0.13710600  0.26102100  0.49780700  1
  H  H15  1  0.10406500  0.49780700  0.26102100  1
  O  O16  1  0.83566700  0.08179900  0.16853800  1
  O  O17  1  0.91399600  0.16853800  0.08179900  1
  O  O18  1  0.16820100  0.41433300  0.33600400  1
  O  O19  1  0.08146200  0.33600400  0.41433300  1
  F  F20  1  0.67308400  0.54396300  0.75159300  1
  F  F21  1  0.03135900  0.75159300  0.54396300  1
  F  F22  1  0.49238600  0.28166000  0.92196800  1
  F  F23  1  0.30398600  0.92196800  0.28166000  1
  F  F24  1  0.32803200  0.94601400  0.75761400  1
  F  F25  1  0.96834000  0.75761400  0.94601400  1
  F  F26  1  0.49840700  0.21864100  0.57691600  1
  F  F27  1  0.70603700  0.57691600  0.21864100  1
  F  F28  1  0.57223400  0.40865900  0.06578500  1
  F  F29  1  0.95332200  0.06578500  0.40865900  1
  F  F30  1  0.80408800  0.18789600  0.82840100  1
  F  F31  1  0.17961400  0.82840100  0.18789600  1
  F  F32  1  0.42159900  0.07038600  0.44591200  1
  F  F33  1  0.06210400  0.44591200  0.07038600  1
  F  F34  1  0.18421500  0.29667800  0.67776600  1
  F  F35  1  0.84134100  0.67776600  0.29667800  1
  F  F36  1  0.36556600  0.60964900  0.86044600  1
  F  F37  1  0.16434000  0.86044600  0.60964900  1
  F  F38  1  0.60465300  0.41512400  0.61780500  1
  F  F39  1  0.36241800  0.61780500  0.41512400  1
  F  F40  1  0.63219500  0.88758200  0.64534700  1
  F  F41  1  0.83487600  0.64534700  0.88758200  1
  F  F42  1  0.38955400  0.08566000  0.88443400  1
  F  F43  1  0.64035100  0.88443400  0.08566000  1
