# generated using pymatgen
data_Hf4Ga5Ni3
_symmetry_space_group_name_H-M   'P 1'
_cell_length_a   6.37235942
_cell_length_b   7.65274309
_cell_length_c   13.66771784
_cell_angle_alpha   104.84874215
_cell_angle_beta   76.80224686
_cell_angle_gamma   114.81536232
_symmetry_Int_Tables_number   1
_chemical_formula_structural   Hf4Ga5Ni3
_chemical_formula_sum   'Hf12 Ga15 Ni9'
_cell_volume   579.20878278
_cell_formula_units_Z   3
loop_
 _symmetry_equiv_pos_site_id
 _symmetry_equiv_pos_as_xyz
  1  'x, y, z'
loop_
 _atom_site_type_symbol
 _atom_site_label
 _atom_site_symmetry_multiplicity
 _atom_site_fract_x
 _atom_site_fract_y
 _atom_site_fract_z
 _atom_site_occupancy
  Hf  Hf0  1  0.45705400  0.95789500  0.48801900  1
  Hf  Hf1  1  0.97015400  0.46973100  0.98327800  1
  Hf  Hf2  1  0.49707100  0.54538400  0.00955400  1
  Hf  Hf3  1  0.98703700  0.04236400  0.51306600  1
  Hf  Hf4  1  0.22922300  0.31056200  0.26751500  1
  Hf  Hf5  1  0.72500000  0.81043200  0.77486400  1
  Hf  Hf6  1  0.67865400  0.18250700  0.22810400  1
  Hf  Hf7  1  0.19164700  0.69427600  0.73523200  1
  Hf  Hf8  1  0.69123200  0.62376700  0.37394500  1
  Hf  Hf9  1  0.19464400  0.12683400  0.87706000  1
  Hf  Hf10  1  0.94292700  0.87906500  0.12482600  1
  Hf  Hf11  1  0.44105500  0.37458100  0.62805900  1
  Ga  Ga12  1  0.15439900  0.65131200  0.36978800  1
  Ga  Ga13  1  0.64633600  0.14076700  0.87280900  1
  Ga  Ga14  1  0.36588100  0.84070200  0.12128700  1
  Ga  Ga15  1  0.87769200  0.34998600  0.63174300  1
  Ga  Ga16  1  0.67341300  0.50580100  0.16804500  1
  Ga  Ga17  1  0.16978200  0.00816200  0.67269800  1
  Ga  Ga18  1  0.83423900  0.98977600  0.32915400  1
  Ga  Ga19  1  0.34034800  0.49986200  0.83235500  1
  Ga  Ga20  1  0.40965500  0.25127100  0.41618800  1
  Ga  Ga21  1  0.92362700  0.75766200  0.91703800  1
  Ga  Ga22  1  0.07153900  0.25376800  0.08376500  1
  Ga  Ga23  1  0.57346300  0.74722500  0.58532500  1
  Ga  Ga24  1  0.44087900  0.16351400  0.05801200  1
  Ga  Ga25  1  0.95214900  0.67766600  0.56449900  1
  Ga  Ga26  1  0.84046800  0.32237500  0.43603400  1
  Ni  Ni27  1  0.32997900  0.82353700  0.93572000  1
  Ni  Ni28  1  0.20299300  0.94107900  0.30273600  1
  Ni  Ni29  1  0.70365100  0.43842000  0.80835600  1
  Ni  Ni30  1  0.06317100  0.55932900  0.19473100  1
  Ni  Ni31  1  0.56599200  0.06182300  0.69211300  1
  Ni  Ni32  1  0.50002100  0.74969900  0.24830500  1
  Ni  Ni33  1  0.00146400  0.25150500  0.75403200  1
  Ni  Ni34  1  0.73993000  0.99767900  0.00141800  1
  Ni  Ni35  1  0.23722900  0.49968100  0.50032500  1
