# generated using pymatgen
data_GaMo4(SeS)4
_symmetry_space_group_name_H-M   'P 1'
_cell_length_a   7.19291928
_cell_length_b   7.19291928
_cell_length_c   7.19291928
_cell_angle_alpha   60.00000000
_cell_angle_beta   60.00000000
_cell_angle_gamma   60.00000000
_symmetry_Int_Tables_number   1
_chemical_formula_structural   GaMo4(SeS)4
_chemical_formula_sum   'Ga1 Mo4 Se4 S4'
_cell_volume   263.14829602
_cell_formula_units_Z   1
loop_
 _symmetry_equiv_pos_site_id
 _symmetry_equiv_pos_as_xyz
  1  'x, y, z'
loop_
 _atom_site_type_symbol
 _atom_site_label
 _atom_site_symmetry_multiplicity
 _atom_site_fract_x
 _atom_site_fract_y
 _atom_site_fract_z
 _atom_site_occupancy
  Ga  Ga0  1  0.00000000  0.00000000  0.00000000  1
  Mo  Mo1  1  0.40126900  0.40126900  0.79619200  1
  Mo  Mo2  1  0.40126900  0.79619200  0.40126900  1
  Mo  Mo3  1  0.79619200  0.40126900  0.40126900  1
  Mo  Mo4  1  0.40126900  0.40126900  0.40126900  1
  Se  Se5  1  0.13687900  0.13687900  0.58936400  1
  Se  Se6  1  0.13687900  0.58936400  0.13687900  1
  Se  Se7  1  0.58936400  0.13687900  0.13687900  1
  Se  Se8  1  0.13687900  0.13687900  0.13687900  1
  S  S9  1  0.62962200  0.62962200  0.11113300  1
  S  S10  1  0.62962200  0.11113300  0.62962200  1
  S  S11  1  0.11113300  0.62962200  0.62962200  1
  S  S12  1  0.62962200  0.62962200  0.62962200  1
