# generated using pymatgen
data_Ga2Te3
_symmetry_space_group_name_H-M   'P 1'
_cell_length_a   4.23688908
_cell_length_b   6.26538300
_cell_length_c   7.45399747
_cell_angle_alpha   114.85163050
_cell_angle_beta   106.51118267
_cell_angle_gamma   90.00000000
_symmetry_Int_Tables_number   1
_chemical_formula_structural   Ga2Te3
_chemical_formula_sum   'Ga2 Te3'
_cell_volume   170.51479127
_cell_formula_units_Z   1
loop_
 _symmetry_equiv_pos_site_id
 _symmetry_equiv_pos_as_xyz
  1  'x, y, z'
loop_
 _atom_site_type_symbol
 _atom_site_label
 _atom_site_symmetry_multiplicity
 _atom_site_fract_x
 _atom_site_fract_y
 _atom_site_fract_z
 _atom_site_occupancy
  Ga  Ga0  1  0.99579200  0.00524900  0.99158400  1
  Ga  Ga1  1  0.67087500  0.68033200  0.34174900  1
  Te  Te2  1  0.49456900  0.73369300  0.98913800  1
  Te  Te3  1  0.17209800  0.41122200  0.34419500  1
  Te  Te4  1  0.83333300  0.08617200  0.66666700  1
