# generated using pymatgen
data_Ga2Ag2TeSe3
_symmetry_space_group_name_H-M   'P 1'
_cell_length_a   7.16839232
_cell_length_b   7.16839232
_cell_length_c   6.17648774
_cell_angle_alpha   65.29250838
_cell_angle_beta   65.29250838
_cell_angle_gamma   50.54945648
_symmetry_Int_Tables_number   1
_chemical_formula_structural   Ga2Ag2TeSe3
_chemical_formula_sum   'Ga2 Ag2 Te1 Se3'
_cell_volume   217.32251712
_cell_formula_units_Z   1
loop_
 _symmetry_equiv_pos_site_id
 _symmetry_equiv_pos_as_xyz
  1  'x, y, z'
loop_
 _atom_site_type_symbol
 _atom_site_label
 _atom_site_symmetry_multiplicity
 _atom_site_fract_x
 _atom_site_fract_y
 _atom_site_fract_z
 _atom_site_occupancy
  Ga  Ga0  1  0.74567500  0.51321800  0.61022800  1
  Ga  Ga1  1  0.48678200  0.25432500  0.38977200  1
  Ag  Ag2  1  0.26188300  0.99437400  0.12924900  1
  Ag  Ag3  1  0.00562600  0.73811700  0.87075100  1
  Te  Te4  1  0.85310800  0.14689200  0.00000000  1
  Se  Se5  1  0.40010800  0.59989200  0.50000000  1
  Se  Se6  1  0.12341400  0.37659500  0.28003700  1
  Se  Se7  1  0.62340500  0.87658600  0.71996300  1
