# generated using pymatgen
data_Fe3H9S2O15
_symmetry_space_group_name_H-M   'P 1'
_cell_length_a   7.21199348
_cell_length_b   7.21199348
_cell_length_c   7.21199306
_cell_angle_alpha   62.22640315
_cell_angle_beta   62.22640315
_cell_angle_gamma   62.22640724
_symmetry_Int_Tables_number   1
_chemical_formula_structural   Fe3H9S2O15
_chemical_formula_sum   'Fe3 H9 S2 O15'
_cell_volume   278.43457605
_cell_formula_units_Z   1
loop_
 _symmetry_equiv_pos_site_id
 _symmetry_equiv_pos_as_xyz
  1  'x, y, z'
loop_
 _atom_site_type_symbol
 _atom_site_label
 _atom_site_symmetry_multiplicity
 _atom_site_fract_x
 _atom_site_fract_y
 _atom_site_fract_z
 _atom_site_occupancy
  Fe  Fe0  1  0.00184600  0.00184600  0.49444200  1
  Fe  Fe1  1  0.49444200  0.00184600  0.00184600  1
  Fe  Fe2  1  0.00184600  0.49444100  0.00184600  1
  H  H3  1  0.68863500  0.28531600  0.68863500  1
  H  H4  1  0.68863500  0.68863500  0.28531600  1
  H  H5  1  0.28531600  0.68863500  0.68863500  1
  H  H6  1  0.30019700  0.71832100  0.30019700  1
  H  H7  1  0.30019700  0.30019700  0.71832100  1
  H  H8  1  0.71832100  0.30019700  0.30019700  1
  H  H9  1  0.89259000  0.89259000  0.10124900  1
  H  H10  1  0.10124900  0.89259000  0.89259000  1
  H  H11  1  0.89259000  0.10124900  0.89259000  1
  S  S12  1  0.69370500  0.69370500  0.69370500  1
  S  S13  1  0.30676400  0.30676400  0.30676400  1
  O  O14  1  0.74619800  0.12297000  0.74619800  1
  O  O15  1  0.74619800  0.74619800  0.12297000  1
  O  O16  1  0.12297000  0.74619800  0.74619800  1
  O  O17  1  0.27130500  0.87518900  0.27130500  1
  O  O18  1  0.27130500  0.27130500  0.87518900  1
  O  O19  1  0.87518900  0.27130500  0.27130500  1
  O  O20  1  0.60899000  0.60899000  0.60899000  1
  O  O21  1  0.39155400  0.39155400  0.39155400  1
  O  O22  1  0.83210500  0.83210500  0.50410500  1
  O  O23  1  0.50410500  0.83210500  0.83210500  1
  O  O24  1  0.83210500  0.50410500  0.83210500  1
  O  O25  1  0.16879800  0.16879800  0.49613000  1
  O  O26  1  0.49613000  0.16879800  0.16879800  1
  O  O27  1  0.16879800  0.49613000  0.16879800  1
  O  O28  1  0.99001800  0.99001800  0.99001800  1
