# generated using pymatgen
data_K6V6P6O31
_symmetry_space_group_name_H-M   'P 1'
_cell_length_a   7.07723900
_cell_length_b   13.57275900
_cell_length_c   14.47196800
_cell_angle_alpha   90.00000000
_cell_angle_beta   90.00000000
_cell_angle_gamma   90.00000000
_symmetry_Int_Tables_number   1
_chemical_formula_structural   K6V6P6O31
_chemical_formula_sum   'K12 V12 P12 O62'
_cell_volume   1390.14337201
_cell_formula_units_Z   2
loop_
 _symmetry_equiv_pos_site_id
 _symmetry_equiv_pos_as_xyz
  1  'x, y, z'
loop_
 _atom_site_type_symbol
 _atom_site_label
 _atom_site_symmetry_multiplicity
 _atom_site_fract_x
 _atom_site_fract_y
 _atom_site_fract_z
 _atom_site_occupancy
  K  K0  1  0.37215600  0.00000000  0.49022400  1
  K  K1  1  0.87072800  0.00000000  0.01122100  1
  K  K2  1  0.12927200  0.50000000  0.51122100  1
  K  K3  1  0.62784400  0.50000000  0.99022400  1
  K  K4  1  0.35103400  0.75925000  0.66378500  1
  K  K5  1  0.85004900  0.24318000  0.83763800  1
  K  K6  1  0.14995100  0.25682000  0.33763800  1
  K  K7  1  0.64896600  0.74075000  0.16378500  1
  K  K8  1  0.14995100  0.74318000  0.33763800  1
  K  K9  1  0.64896600  0.25925000  0.16378500  1
  K  K10  1  0.35103400  0.24075000  0.66378500  1
  K  K11  1  0.85004900  0.75682000  0.83763800  1
  V  V12  1  0.40909400  0.87528800  0.92146200  1
  V  V13  1  0.91072300  0.12503200  0.57760700  1
  V  V14  1  0.08927700  0.37496800  0.07760700  1
  V  V15  1  0.59090600  0.62471200  0.42146200  1
  V  V16  1  0.08927700  0.62503200  0.07760700  1
  V  V17  1  0.59090600  0.37528800  0.42146200  1
  V  V18  1  0.40909400  0.12471200  0.92146200  1
  V  V19  1  0.91072300  0.87496800  0.57760700  1
  V  V20  1  0.51328400  0.50000000  0.74234300  1
  V  V21  1  0.01307500  0.50000000  0.75756900  1
  V  V22  1  0.98692500  0.00000000  0.25756900  1
  V  V23  1  0.48671600  0.00000000  0.24234300  1
  P  P24  1  0.28793500  0.65128300  0.88107100  1
  P  P25  1  0.78790500  0.34855700  0.61889000  1
  P  P26  1  0.21209500  0.15144300  0.11889000  1
  P  P27  1  0.71206500  0.84871700  0.38107100  1
  P  P28  1  0.21209500  0.84855700  0.11889000  1
  P  P29  1  0.71206500  0.15128300  0.38107100  1
  P  P30  1  0.28793500  0.34871700  0.88107100  1
  P  P31  1  0.78790500  0.65144300  0.61889000  1
  P  P32  1  0.61395900  0.00000000  0.76036900  1
  P  P33  1  0.38604100  0.50000000  0.26036900  1
  P  P34  1  0.02543400  0.00000000  0.76286000  1
  P  P35  1  0.97456600  0.50000000  0.26286000  1
  O  O36  1  0.46948800  0.39402000  0.83927500  1
  O  O37  1  0.96908900  0.60615600  0.66110100  1
  O  O38  1  0.03091100  0.89384400  0.16110100  1
  O  O39  1  0.53051200  0.10598000  0.33927500  1
  O  O40  1  0.03091100  0.10615600  0.16110100  1
  O  O41  1  0.53051200  0.89402000  0.33927500  1
  O  O42  1  0.46948800  0.60598000  0.83927500  1
  O  O43  1  0.96908900  0.39384400  0.66110100  1
  O  O44  1  0.28501100  0.50000000  0.70277200  1
  O  O45  1  0.78497200  0.50000000  0.79753700  1
  O  O46  1  0.21502800  0.00000000  0.29753700  1
  O  O47  1  0.71498900  0.00000000  0.20277200  1
  O  O48  1  0.65158900  0.00000000  0.65740800  1
  O  O49  1  0.16277000  0.00000000  0.84246500  1
  O  O50  1  0.83723000  0.50000000  0.34246500  1
  O  O51  1  0.34841100  0.50000000  0.15740800  1
  O  O52  1  0.27918200  0.76322000  0.85668200  1
  O  O53  1  0.77995100  0.23644100  0.64313600  1
  O  O54  1  0.22004900  0.26355900  0.14313600  1
  O  O55  1  0.72081800  0.73678000  0.35668200  1
  O  O56  1  0.22004900  0.73644100  0.14313600  1
  O  O57  1  0.72081800  0.26322000  0.35668200  1
  O  O58  1  0.27918200  0.23678000  0.85668200  1
  O  O59  1  0.77995100  0.76355900  0.64313600  1
  O  O60  1  0.20262600  0.86554100  0.01289600  1
  O  O61  1  0.70307300  0.13437200  0.48713800  1
  O  O62  1  0.29692700  0.36562800  0.98713800  1
  O  O63  1  0.79737400  0.63445900  0.51289600  1
  O  O64  1  0.29692700  0.63437200  0.98713800  1
  O  O65  1  0.79737400  0.36554100  0.51289600  1
  O  O66  1  0.20262600  0.13445900  0.01289600  1
  O  O67  1  0.70307300  0.86562800  0.48713800  1
  O  O68  1  0.51799000  0.90388100  0.79372000  1
  O  O69  1  0.02735600  0.09552100  0.70448600  1
  O  O70  1  0.97264400  0.40447900  0.20448600  1
  O  O71  1  0.48201000  0.59611900  0.29372000  1
  O  O72  1  0.97264400  0.59552100  0.20448600  1
  O  O73  1  0.48201000  0.40388100  0.29372000  1
  O  O74  1  0.51799000  0.09611900  0.79372000  1
  O  O75  1  0.02735600  0.90447900  0.70448600  1
  O  O76  1  0.60665500  0.39330700  0.66026700  1
  O  O77  1  0.10670500  0.60638300  0.83986500  1
  O  O78  1  0.89329500  0.89361700  0.33986500  1
  O  O79  1  0.39334500  0.10669300  0.16026700  1
  O  O80  1  0.89329500  0.10638300  0.33986500  1
  O  O81  1  0.39334500  0.89330700  0.16026700  1
  O  O82  1  0.60665500  0.60669300  0.66026700  1
  O  O83  1  0.10670500  0.39361700  0.83986500  1
  O  O84  1  0.58577600  0.81511800  0.96900000  1
  O  O85  1  0.08796300  0.18503800  0.53037300  1
  O  O86  1  0.91203700  0.31496200  0.03037300  1
  O  O87  1  0.41422400  0.68488200  0.46900000  1
  O  O88  1  0.91203700  0.68503800  0.03037300  1
  O  O89  1  0.41422400  0.31511800  0.46900000  1
  O  O90  1  0.58577600  0.18488200  0.96900000  1
  O  O91  1  0.08796300  0.81496200  0.53037300  1
  O  O92  1  0.47025000  0.00000000  0.95523000  1
  O  O93  1  0.96968800  0.00000000  0.54424500  1
  O  O94  1  0.03031200  0.50000000  0.04424500  1
  O  O95  1  0.52975000  0.50000000  0.45523000  1
  O  O96  1  0.81819400  0.00000000  0.81544600  1
  O  O97  1  0.18180600  0.50000000  0.31544600  1
