# generated using pymatgen
data_Ga12OF36
_symmetry_space_group_name_H-M   'P 1'
_cell_length_a   10.46044250
_cell_length_b   10.46044250
_cell_length_c   10.46044250
_cell_angle_alpha   138.97836480
_cell_angle_beta   105.79048789
_cell_angle_gamma   88.47676737
_symmetry_Int_Tables_number   1
_chemical_formula_structural   Ga12OF36
_chemical_formula_sum   'Ga12 O1 F36'
_cell_volume   693.34810860
_cell_formula_units_Z   1
loop_
 _symmetry_equiv_pos_site_id
 _symmetry_equiv_pos_as_xyz
  1  'x, y, z'
loop_
 _atom_site_type_symbol
 _atom_site_label
 _atom_site_symmetry_multiplicity
 _atom_site_fract_x
 _atom_site_fract_y
 _atom_site_fract_z
 _atom_site_occupancy
  Ga  Ga0  1  0.12517300  0.62511900  0.50005400  1
  Ga  Ga1  1  0.62501100  0.12497000  0.50004000  1
  Ga  Ga2  1  0.37507000  0.87503000  0.50004000  1
  Ga  Ga3  1  0.87493400  0.37488100  0.50005400  1
  Ga  Ga4  1  0.37490200  0.37489100  0.50004600  1
  Ga  Ga5  1  0.87543600  0.87538900  0.49973500  1
  Ga  Ga6  1  0.37490200  0.87485600  0.00001000  1
  Ga  Ga7  1  0.87543600  0.37570100  0.00004700  1
  Ga  Ga8  1  0.12515500  0.12514400  0.50004600  1
  Ga  Ga9  1  0.62434600  0.62429900  0.49973500  1
  Ga  Ga10  1  0.12515500  0.62510900  0.00001000  1
  Ga  Ga11  1  0.62434600  0.12461100  0.00004700  1
  O  O12  1  0.94646900  0.00000000  0.94646900  1
  F  F13  1  0.96507800  0.50000000  0.46507800  1
  F  F14  1  0.46505600  0.00000000  0.46505600  1
  F  F15  1  0.28510200  0.75007100  0.53503100  1
  F  F16  1  0.78496000  0.24992900  0.53503100  1
  F  F17  1  0.04018600  0.82977600  0.57983200  1
  F  F18  1  0.54026400  0.33011900  0.58062200  1
  F  F19  1  0.20968900  0.79013600  0.78972900  1
  F  F20  1  0.70969600  0.29047700  0.78999800  1
  F  F21  1  0.25050300  0.04035800  0.58062200  1
  F  F22  1  0.75005600  0.53964600  0.57983200  1
  F  F23  1  0.99959300  0.58004000  0.78972900  1
  F  F24  1  0.49952100  0.08030200  0.78999800  1
  F  F25  1  0.20968900  0.41996000  0.41955300  1
  F  F26  1  0.70969600  0.91969800  0.41921900  1
  F  F27  1  0.04018600  0.46035400  0.21041000  1
  F  F28  1  0.54026400  0.95964200  0.21014500  1
  F  F29  1  0.99959300  0.20986400  0.41955300  1
  F  F30  1  0.49952100  0.70952300  0.41921900  1
  F  F31  1  0.25050300  0.66988100  0.21014500  1
  F  F32  1  0.75005600  0.17022400  0.21041000  1
  F  F33  1  0.27915400  0.28222600  0.56138000  1
  F  F34  1  0.77838800  0.78132100  0.55970900  1
  F  F35  1  0.97100500  0.53291800  0.00326800  1
  F  F36  1  0.47035000  0.03226300  0.00326800  1
  F  F37  1  0.97100500  0.96773700  0.43808700  1
  F  F38  1  0.47035000  0.46708200  0.43808700  1
  F  F39  1  0.27915400  0.71777400  0.99692800  1
  F  F40  1  0.77838800  0.21867900  0.99706800  1
  F  F41  1  0.63968200  0.85291400  0.78676800  1
  F  F42  1  0.14260800  0.35405300  0.78855400  1
  F  F43  1  0.60743000  0.39591600  0.21151400  1
  F  F44  1  0.10753400  0.89604100  0.21149300  1
  F  F45  1  0.43450100  0.64594700  0.78855400  1
  F  F46  1  0.93385300  0.14708600  0.78676800  1
  F  F47  1  0.81559800  0.60408400  0.21151400  1
  F  F48  1  0.31545200  0.10395900  0.21149300  1
