# generated using pymatgen
data_FeCuSeS
_symmetry_space_group_name_H-M   'P 1'
_cell_length_a   5.34820500
_cell_length_b   5.37407800
_cell_length_c   6.52030484
_cell_angle_alpha   65.66297190
_cell_angle_beta   65.78767900
_cell_angle_gamma   90.00000000
_symmetry_Int_Tables_number   1
_chemical_formula_structural   FeCuSeS
_chemical_formula_sum   'Fe2 Cu2 Se2 S2'
_cell_volume   152.47551223
_cell_formula_units_Z   2
loop_
 _symmetry_equiv_pos_site_id
 _symmetry_equiv_pos_as_xyz
  1  'x, y, z'
loop_
 _atom_site_type_symbol
 _atom_site_label
 _atom_site_symmetry_multiplicity
 _atom_site_fract_x
 _atom_site_fract_y
 _atom_site_fract_z
 _atom_site_occupancy
  Fe  Fe0  1  0.23779500  0.73779500  0.52441000  1
  Fe  Fe1  1  0.51220500  0.51220500  0.97559000  1
  Cu  Cu2  1  0.73818700  0.23818700  0.52362500  1
  Cu  Cu3  1  0.01181300  0.01181300  0.97637500  1
  Se  Se4  1  0.13523500  0.12500000  0.25000000  1
  Se  Se5  1  0.61476500  0.62500000  0.25000000  1
  S  S6  1  0.37500000  0.86966300  0.75000000  1
  S  S7  1  0.87500000  0.38033700  0.75000000  1
