# generated using pymatgen
data_K2Na2Ca4Mg15(SiO3)24
_symmetry_space_group_name_H-M   'P 1'
_cell_length_a   12.32264060
_cell_length_b   12.32264060
_cell_length_c   10.16733747
_cell_angle_alpha   76.16741536
_cell_angle_beta   76.16741536
_cell_angle_gamma   96.05622254
_symmetry_Int_Tables_number   1
_chemical_formula_structural   K2Na2Ca4Mg15(SiO3)24
_chemical_formula_sum   'K2 Na2 Ca4 Mg15 Si24 O72'
_cell_volume   1433.80512845
_cell_formula_units_Z   1
loop_
 _symmetry_equiv_pos_site_id
 _symmetry_equiv_pos_as_xyz
  1  'x, y, z'
loop_
 _atom_site_type_symbol
 _atom_site_label
 _atom_site_symmetry_multiplicity
 _atom_site_fract_x
 _atom_site_fract_y
 _atom_site_fract_z
 _atom_site_occupancy
  K  K0  1  0.16054400  0.16054400  0.35347200  1
  K  K1  1  0.82752600  0.82752600  0.68670300  1
  Na  Na2  1  0.77616800  0.22366000  0.49962200  1
  Na  Na3  1  0.22366000  0.77616800  0.49962200  1
  Ca  Ca4  1  0.11318100  0.55386600  0.16766800  1
  Ca  Ca5  1  0.44561700  0.88686200  0.83241300  1
  Ca  Ca6  1  0.88686200  0.44561700  0.83241300  1
  Ca  Ca7  1  0.55386600  0.11318100  0.16766800  1
  Mg  Mg8  1  0.17867100  0.82141800  0.00020200  1
  Mg  Mg9  1  0.84398600  0.48361900  0.33507200  1
  Mg  Mg10  1  0.51620000  0.15611800  0.66506300  1
  Mg  Mg11  1  0.48361900  0.84398600  0.33507200  1
  Mg  Mg12  1  0.15611800  0.51620000  0.66506300  1
  Mg  Mg13  1  0.82141800  0.17867100  0.00020200  1
  Mg  Mg14  1  0.33315400  0.33315400  0.66805200  1
  Mg  Mg15  1  0.99953400  0.99953400  0.00049700  1
  Mg  Mg16  1  0.66658600  0.66658600  0.33232600  1
  Mg  Mg17  1  0.26133800  0.07426000  0.83305500  1
  Mg  Mg18  1  0.92581600  0.73885100  0.16671500  1
  Mg  Mg19  1  0.59497600  0.40486900  0.49996500  1
  Mg  Mg20  1  0.73885100  0.92581600  0.16671500  1
  Mg  Mg21  1  0.40486900  0.59497600  0.49996500  1
  Mg  Mg22  1  0.07426000  0.26133800  0.83305500  1
  Si  Si23  1  0.41172500  0.24351200  0.94843800  1
  Si  Si24  1  0.07636100  0.90621700  0.28161900  1
  Si  Si25  1  0.74330200  0.57360800  0.61426200  1
  Si  Si26  1  0.57360800  0.74330200  0.61426200  1
  Si  Si27  1  0.24351200  0.41172500  0.94843800  1
  Si  Si28  1  0.90621700  0.07636100  0.28161900  1
  Si  Si29  1  0.58813000  0.75652300  0.05194700  1
  Si  Si30  1  0.25673800  0.42620500  0.38553200  1
  Si  Si31  1  0.92358500  0.09372900  0.71843200  1
  Si  Si32  1  0.42620500  0.25673800  0.38553200  1
  Si  Si33  1  0.09372900  0.92358500  0.71843200  1
  Si  Si34  1  0.75652300  0.58813000  0.05194700  1
  Si  Si35  1  0.33130600  0.99016200  0.12483700  1
  Si  Si36  1  0.99860000  0.65508900  0.45706500  1
  Si  Si37  1  0.66505200  0.32225300  0.79233700  1
  Si  Si38  1  0.32225300  0.66505200  0.79233700  1
  Si  Si39  1  0.99016200  0.33130600  0.12483700  1
  Si  Si40  1  0.65508900  0.99860000  0.45706500  1
  Si  Si41  1  0.66837400  0.01024400  0.87548100  1
  Si  Si42  1  0.33487200  0.67755700  0.20768900  1
  Si  Si43  1  0.00106100  0.34529300  0.54319100  1
  Si  Si44  1  0.67755700  0.33487200  0.20768900  1
  Si  Si45  1  0.34529300  0.00106100  0.54319100  1
  Si  Si46  1  0.01024400  0.66837400  0.87548100  1
  O  O47  1  0.46779000  0.46779000  0.61687800  1
  O  O48  1  0.13432000  0.13432000  0.95265500  1
  O  O49  1  0.80113500  0.80113500  0.28571200  1
  O  O50  1  0.86541200  0.86541200  0.04649100  1
  O  O51  1  0.53208000  0.53208000  0.38281600  1
  O  O52  1  0.19884100  0.19884100  0.71298900  1
  O  O53  1  0.43622600  0.94553500  0.17626600  1
  O  O54  1  0.10072200  0.60505700  0.50775400  1
  O  O55  1  0.77045400  0.27726900  0.84349700  1
  O  O56  1  0.27726900  0.77045400  0.84349700  1
  O  O57  1  0.94553500  0.43622600  0.17626600  1
  O  O58  1  0.60505700  0.10072200  0.50775400  1
  O  O59  1  0.56354800  0.05430200  0.82382600  1
  O  O60  1  0.22952800  0.72249000  0.15646200  1
  O  O61  1  0.89884800  0.39455700  0.49267600  1
  O  O62  1  0.72249000  0.22952800  0.15646200  1
  O  O63  1  0.39455700  0.89884800  0.49267600  1
  O  O64  1  0.05430200  0.56354800  0.82382600  1
  O  O65  1  0.38751500  0.21193800  0.81121100  1
  O  O66  1  0.05363600  0.87701700  0.14278300  1
  O  O67  1  0.72004600  0.54454400  0.47610600  1
  O  O68  1  0.54454400  0.72004600  0.47610600  1
  O  O69  1  0.21193800  0.38751500  0.81121100  1
  O  O70  1  0.87701700  0.05363600  0.14278300  1
  O  O71  1  0.61238300  0.78789000  0.18899800  1
  O  O72  1  0.27997800  0.45533700  0.52370400  1
  O  O73  1  0.94631400  0.12265600  0.85734100  1
  O  O74  1  0.45533700  0.27997800  0.52370400  1
  O  O75  1  0.12265600  0.94631400  0.85734100  1
  O  O76  1  0.78789000  0.61238300  0.18899800  1
  O  O77  1  0.30569500  0.95822900  0.98704900  1
  O  O78  1  0.97050000  0.62456800  0.31938000  1
  O  O79  1  0.63469600  0.29316700  0.65705600  1
  O  O80  1  0.62456800  0.97050000  0.31938000  1
  O  O81  1  0.29316700  0.63469600  0.65705600  1
  O  O82  1  0.95822900  0.30569500  0.98704900  1
  O  O83  1  0.69397100  0.04192300  0.01325700  1
  O  O84  1  0.36528800  0.70671500  0.34289200  1
  O  O85  1  0.02925400  0.37540100  0.68098900  1
  O  O86  1  0.37540100  0.02925400  0.68098900  1
  O  O87  1  0.04192300  0.69397100  0.01325700  1
  O  O88  1  0.70671500  0.36528800  0.34289200  1
  O  O89  1  0.36786200  0.13289800  0.08953800  1
  O  O90  1  0.03124200  0.79756800  0.42195000  1
  O  O91  1  0.70478900  0.46486600  0.75515100  1
  O  O92  1  0.46486600  0.70478900  0.75515100  1
  O  O93  1  0.13289800  0.36786200  0.08953800  1
  O  O94  1  0.79756800  0.03124200  0.42195000  1
  O  O95  1  0.63274200  0.86712900  0.91052500  1
  O  O96  1  0.29530900  0.53500600  0.24468200  1
  O  O97  1  0.96944000  0.20231000  0.57802500  1
  O  O98  1  0.53500600  0.29530900  0.24468200  1
  O  O99  1  0.20231000  0.96943900  0.57802500  1
  O  O100  1  0.86712900  0.63274200  0.91052500  1
  O  O101  1  0.54841100  0.28020900  0.93034700  1
  O  O102  1  0.21176900  0.95495700  0.25743400  1
  O  O103  1  0.87927800  0.61954700  0.59336500  1
  O  O104  1  0.61954700  0.87927800  0.59336500  1
  O  O105  1  0.28020900  0.54841100  0.93034700  1
  O  O106  1  0.95495700  0.21176900  0.25743400  1
  O  O107  1  0.45171200  0.71965400  0.06960000  1
  O  O108  1  0.12056700  0.38040500  0.40714300  1
  O  O109  1  0.78811000  0.04485100  0.74315100  1
  O  O110  1  0.38040500  0.12056700  0.40714300  1
  O  O111  1  0.04485100  0.78811000  0.74315100  1
  O  O112  1  0.71965400  0.45171200  0.06960000  1
  O  O113  1  0.67633400  0.67633400  0.65142400  1
  O  O114  1  0.34511300  0.34511300  0.98607500  1
  O  O115  1  0.00886400  0.00886400  0.31903700  1
  O  O116  1  0.65580900  0.65580900  0.01269100  1
  O  O117  1  0.32301600  0.32301600  0.34865300  1
  O  O118  1  0.99114100  0.99114100  0.68000100  1
