# generated using pymatgen
data_Fe4Te3Se
_symmetry_space_group_name_H-M   'P 1'
_cell_length_a   3.62622700
_cell_length_b   3.62622700
_cell_length_c   13.04445900
_cell_angle_alpha   90.00000000
_cell_angle_beta   90.00000000
_cell_angle_gamma   90.00000000
_symmetry_Int_Tables_number   1
_chemical_formula_structural   Fe4Te3Se
_chemical_formula_sum   'Fe4 Te3 Se1'
_cell_volume   171.52840393
_cell_formula_units_Z   1
loop_
 _symmetry_equiv_pos_site_id
 _symmetry_equiv_pos_as_xyz
  1  'x, y, z'
loop_
 _atom_site_type_symbol
 _atom_site_label
 _atom_site_symmetry_multiplicity
 _atom_site_fract_x
 _atom_site_fract_y
 _atom_site_fract_z
 _atom_site_occupancy
  Fe  Fe0  1  0.50000000  0.00000000  0.00512400  1
  Fe  Fe1  1  0.50000000  0.00000000  0.49965900  1
  Fe  Fe2  1  0.00000000  0.50000000  0.00512400  1
  Fe  Fe3  1  0.00000000  0.50000000  0.49965900  1
  Te  Te4  1  0.00000000  0.00000000  0.64284000  1
  Te  Te5  1  0.50000000  0.50000000  0.35649000  1
  Te  Te6  1  0.50000000  0.50000000  0.86405200  1
  Se  Se7  1  0.00000000  0.00000000  0.12705300  1
