# generated using pymatgen
data_Er2Al3Ga
_symmetry_space_group_name_H-M   'P 1'
_cell_length_a   5.51960574
_cell_length_b   5.51960574
_cell_length_c   5.51960577
_cell_angle_alpha   59.76692958
_cell_angle_beta   59.76692958
_cell_angle_gamma   59.76693494
_symmetry_Int_Tables_number   1
_chemical_formula_structural   Er2Al3Ga
_chemical_formula_sum   'Er2 Al3 Ga1'
_cell_volume   118.27822919
_cell_formula_units_Z   1
loop_
 _symmetry_equiv_pos_site_id
 _symmetry_equiv_pos_as_xyz
  1  'x, y, z'
loop_
 _atom_site_type_symbol
 _atom_site_label
 _atom_site_symmetry_multiplicity
 _atom_site_fract_x
 _atom_site_fract_y
 _atom_site_fract_z
 _atom_site_occupancy
  Er  Er0  1  0.12408000  0.12408000  0.12408000  1
  Er  Er1  1  0.87592000  0.87592000  0.87592000  1
  Al  Al2  1  0.50000000  0.00000000  0.50000000  1
  Al  Al3  1  0.00000000  0.50000000  0.50000000  1
  Al  Al4  1  0.50000000  0.50000000  0.00000000  1
  Ga  Ga5  1  0.50000000  0.50000000  0.50000000  1
