# generated using pymatgen
data_Er(MnAl)6
_symmetry_space_group_name_H-M   'P 1'
_cell_length_a   6.60985682
_cell_length_b   6.60985682
_cell_length_c   6.60985682
_cell_angle_alpha   136.30108272
_cell_angle_beta   99.21312909
_cell_angle_gamma   96.71394265
_symmetry_Int_Tables_number   1
_chemical_formula_structural   Er(MnAl)6
_chemical_formula_sum   'Er1 Mn6 Al6'
_cell_volume   185.12297898
_cell_formula_units_Z   1
loop_
 _symmetry_equiv_pos_site_id
 _symmetry_equiv_pos_as_xyz
  1  'x, y, z'
loop_
 _atom_site_type_symbol
 _atom_site_label
 _atom_site_symmetry_multiplicity
 _atom_site_fract_x
 _atom_site_fract_y
 _atom_site_fract_z
 _atom_site_occupancy
  Er  Er0  1  0.00000000  0.00000000  0.00000000  1
  Mn  Mn1  1  0.50000000  0.00000000  0.00000000  1
  Mn  Mn2  1  0.50000000  0.50000000  0.50000000  1
  Mn  Mn3  1  0.00000000  0.00000000  0.50000000  1
  Mn  Mn4  1  0.00000000  0.50000000  0.00000000  1
  Mn  Mn5  1  0.23543800  0.50000000  0.73543800  1
  Mn  Mn6  1  0.76456200  0.50000000  0.26456200  1
  Al  Al7  1  0.34669600  0.34669600  0.00000000  1
  Al  Al8  1  0.65330400  0.65330400  0.00000000  1
  Al  Al9  1  0.66220800  0.00000000  0.66220800  1
  Al  Al10  1  0.33779200  0.00000000  0.33779200  1
  Al  Al11  1  0.80539800  0.30539800  0.50000000  1
  Al  Al12  1  0.19460200  0.69460200  0.50000000  1
