# generated using pymatgen
data_Fe7SiO10
_symmetry_space_group_name_H-M   'P 1'
_cell_length_a   10.98846859
_cell_length_b   10.98846859
_cell_length_c   6.08488448
_cell_angle_alpha   82.09203534
_cell_angle_beta   82.09203534
_cell_angle_gamma   15.94359619
_symmetry_Int_Tables_number   1
_chemical_formula_structural   Fe7SiO10
_chemical_formula_sum   'Fe7 Si1 O10'
_cell_volume   199.86606488
_cell_formula_units_Z   1
loop_
 _symmetry_equiv_pos_site_id
 _symmetry_equiv_pos_as_xyz
  1  'x, y, z'
loop_
 _atom_site_type_symbol
 _atom_site_label
 _atom_site_symmetry_multiplicity
 _atom_site_fract_x
 _atom_site_fract_y
 _atom_site_fract_z
 _atom_site_occupancy
  Fe  Fe0  1  0.09019400  0.09019400  0.70006600  1
  Fe  Fe1  1  0.90942100  0.90942100  0.29461300  1
  Fe  Fe2  1  0.30187400  0.30187400  0.09525200  1
  Fe  Fe3  1  0.69476700  0.69476700  0.91417500  1
  Fe  Fe4  1  0.30199600  0.30199600  0.60347400  1
  Fe  Fe5  1  0.69648900  0.69648900  0.39609100  1
  Fe  Fe6  1  0.44495000  0.44495000  0.77667100  1
  Si  Si7  1  0.55846800  0.55846800  0.21930300  1
  O  O8  1  0.01835200  0.01835200  0.23702700  1
  O  O9  1  0.99664400  0.99664400  0.75665900  1
  O  O10  1  0.20922200  0.20922200  0.15560200  1
  O  O11  1  0.79409300  0.79409300  0.86589500  1
  O  O12  1  0.19307800  0.19307800  0.64916900  1
  O  O13  1  0.80207700  0.80207700  0.33418300  1
  O  O14  1  0.39601800  0.39601800  0.06178200  1
  O  O15  1  0.59831400  0.59831400  0.97019400  1
  O  O16  1  0.39802900  0.39802900  0.53653300  1
  O  O17  1  0.59601400  0.59601400  0.43330900  1
