# generated using pymatgen
data_Gd2Mn3Sb3O14
_symmetry_space_group_name_H-M   'P 1'
_cell_length_a   7.19816932
_cell_length_b   7.19816932
_cell_length_c   7.16191606
_cell_angle_alpha   61.23146641
_cell_angle_beta   61.23146641
_cell_angle_gamma   61.92473647
_symmetry_Int_Tables_number   1
_chemical_formula_structural   Gd2Mn3Sb3O14
_chemical_formula_sum   'Gd2 Mn3 Sb3 O14'
_cell_volume   270.98815479
_cell_formula_units_Z   1
loop_
 _symmetry_equiv_pos_site_id
 _symmetry_equiv_pos_as_xyz
  1  'x, y, z'
loop_
 _atom_site_type_symbol
 _atom_site_label
 _atom_site_symmetry_multiplicity
 _atom_site_fract_x
 _atom_site_fract_y
 _atom_site_fract_z
 _atom_site_occupancy
  Gd  Gd0  1  0.00000000  0.50000000  0.50000000  1
  Gd  Gd1  1  0.50000000  0.00000000  0.50000000  1
  Mn  Mn2  1  0.00000000  0.00000000  0.50000000  1
  Mn  Mn3  1  0.00000000  0.00000000  0.00000000  1
  Mn  Mn4  1  0.50000000  0.50000000  0.00000000  1
  Sb  Sb5  1  0.50000000  0.00000000  0.00000000  1
  Sb  Sb6  1  0.00000000  0.50000000  0.00000000  1
  Sb  Sb7  1  0.50000000  0.50000000  0.50000000  1
  O  O8  1  0.11234300  0.11234300  0.63579500  1
  O  O9  1  0.88765700  0.88765700  0.36420500  1
  O  O10  1  0.82916800  0.82916800  0.92284600  1
  O  O11  1  0.41596300  0.41596300  0.33510400  1
  O  O12  1  0.42712400  0.82585000  0.91520200  1
  O  O13  1  0.82688600  0.42254100  0.33035200  1
  O  O14  1  0.82585000  0.42712400  0.91520200  1
  O  O15  1  0.42254100  0.82688600  0.33035200  1
  O  O16  1  0.17083200  0.17083200  0.07715400  1
  O  O17  1  0.58403700  0.58403700  0.66489600  1
  O  O18  1  0.57287600  0.17415000  0.08479800  1
  O  O19  1  0.17311400  0.57745900  0.66964800  1
  O  O20  1  0.17415000  0.57287600  0.08479800  1
  O  O21  1  0.57745900  0.17311400  0.66964800  1
