# generated using pymatgen
data_Fe6Bi(P3O13)2
_symmetry_space_group_name_H-M   'P 1'
_cell_length_a   6.41183900
_cell_length_b   7.66383100
_cell_length_c   10.34964227
_cell_angle_alpha   79.95807006
_cell_angle_beta   90.00000000
_cell_angle_gamma   90.00000000
_symmetry_Int_Tables_number   1
_chemical_formula_structural   Fe6Bi(P3O13)2
_chemical_formula_sum   'Fe6 Bi1 P6 O26'
_cell_volume   500.78252433
_cell_formula_units_Z   1
loop_
 _symmetry_equiv_pos_site_id
 _symmetry_equiv_pos_as_xyz
  1  'x, y, z'
loop_
 _atom_site_type_symbol
 _atom_site_label
 _atom_site_symmetry_multiplicity
 _atom_site_fract_x
 _atom_site_fract_y
 _atom_site_fract_z
 _atom_site_occupancy
  Fe  Fe0  1  0.00000000  0.21719800  0.43312900  1
  Fe  Fe1  1  0.50000000  0.78834500  0.55894500  1
  Fe  Fe2  1  0.74549800  0.00525200  0.00730200  1
  Fe  Fe3  1  0.25450200  0.00525200  0.00730200  1
  Fe  Fe4  1  0.00000000  0.64355200  0.20437700  1
  Fe  Fe5  1  0.50000000  0.35343700  0.80336900  1
  Bi  Bi6  1  0.00000000  0.64943000  0.81398200  1
  P  P7  1  0.00000000  0.31263400  0.11163500  1
  P  P8  1  0.50000000  0.68097300  0.88442000  1
  P  P9  1  0.00000000  0.78375800  0.48808200  1
  P  P10  1  0.50000000  0.21690200  0.51233200  1
  P  P11  1  0.00000000  0.25924900  0.76078200  1
  P  P12  1  0.50000000  0.73474000  0.23749000  1
  O  O13  1  0.80261600  0.20994400  0.08830800  1
  O  O14  1  0.29998100  0.78851500  0.90542400  1
  O  O15  1  0.70001900  0.78851500  0.90542400  1
  O  O16  1  0.19738400  0.20994400  0.08830800  1
  O  O17  1  0.00000000  0.65084000  0.39403000  1
  O  O18  1  0.50000000  0.34552700  0.61182800  1
  O  O19  1  0.00000000  0.36209500  0.25188300  1
  O  O20  1  0.50000000  0.64567600  0.73957800  1
  O  O21  1  0.00000000  0.08592000  0.86540500  1
  O  O22  1  0.50000000  0.91170300  0.13154200  1
  O  O23  1  0.00000000  0.21390500  0.62444100  1
  O  O24  1  0.50000000  0.78428000  0.37524500  1
  O  O25  1  0.00000000  0.87288900  0.09177400  1
  O  O26  1  0.50000000  0.11910200  0.90429900  1
  O  O27  1  0.00000000  0.50693600  0.02961000  1
  O  O28  1  0.50000000  0.49082500  0.95874500  1
  O  O29  1  0.18497900  0.38230900  0.78653500  1
  O  O30  1  0.69365700  0.62915200  0.21149200  1
  O  O31  1  0.30634300  0.62915200  0.21149200  1
  O  O32  1  0.81502100  0.38230900  0.78653500  1
  O  O33  1  0.00000000  0.97484000  0.41076900  1
  O  O34  1  0.50000000  0.02414900  0.58918700  1
  O  O35  1  0.81077000  0.74995500  0.58558600  1
  O  O36  1  0.30436100  0.24997100  0.42505800  1
  O  O37  1  0.69563900  0.24997100  0.42505800  1
  O  O38  1  0.18923000  0.74995500  0.58558600  1
