# generated using pymatgen
data_EuV2BiO8
_symmetry_space_group_name_H-M   'P 1'
_cell_length_a   6.13856464
_cell_length_b   6.13856464
_cell_length_c   6.13856464
_cell_angle_alpha   106.27832934
_cell_angle_beta   106.27832934
_cell_angle_gamma   116.06513725
_symmetry_Int_Tables_number   1
_chemical_formula_structural   EuV2BiO8
_chemical_formula_sum   'Eu1 V2 Bi1 O8'
_cell_volume   176.27640086
_cell_formula_units_Z   1
loop_
 _symmetry_equiv_pos_site_id
 _symmetry_equiv_pos_as_xyz
  1  'x, y, z'
loop_
 _atom_site_type_symbol
 _atom_site_label
 _atom_site_symmetry_multiplicity
 _atom_site_fract_x
 _atom_site_fract_y
 _atom_site_fract_z
 _atom_site_occupancy
  Eu  Eu0  1  0.25000000  0.75000000  0.50000000  1
  V  V1  1  0.75000000  0.25000000  0.50000000  1
  V  V2  1  0.50000000  0.50000000  0.00000000  1
  Bi  Bi3  1  0.00000000  0.00000000  0.00000000  1
  O  O4  1  0.92081300  0.60320100  0.68238800  1
  O  O5  1  0.48873500  0.67134400  0.81739100  1
  O  O6  1  0.85395300  0.67134400  0.18260900  1
  O  O7  1  0.92081300  0.23842500  0.31761200  1
  O  O8  1  0.32865600  0.14604700  0.81739100  1
  O  O9  1  0.76157500  0.07918700  0.68238800  1
  O  O10  1  0.39679900  0.07918700  0.31761200  1
  O  O11  1  0.32865600  0.51126500  0.18260900  1
