# generated using pymatgen
data_EuGaCu
_symmetry_space_group_name_H-M   'P 1'
_cell_length_a   5.61351534
_cell_length_b   5.61351534
_cell_length_c   7.38188868
_cell_angle_alpha   51.38668233
_cell_angle_beta   51.38668233
_cell_angle_gamma   47.62352316
_symmetry_Int_Tables_number   1
_chemical_formula_structural   EuGaCu
_chemical_formula_sum   'Eu2 Ga2 Cu2'
_cell_volume   125.65537757
_cell_formula_units_Z   2
loop_
 _symmetry_equiv_pos_site_id
 _symmetry_equiv_pos_as_xyz
  1  'x, y, z'
loop_
 _atom_site_type_symbol
 _atom_site_label
 _atom_site_symmetry_multiplicity
 _atom_site_fract_x
 _atom_site_fract_y
 _atom_site_fract_z
 _atom_site_occupancy
  Eu  Eu0  1  0.45047700  0.45047700  0.30453600  1
  Eu  Eu1  1  0.54952300  0.54952300  0.69546400  1
  Ga  Ga2  1  0.16883200  0.16883200  0.89265000  1
  Ga  Ga3  1  0.83116800  0.83116800  0.10735000  1
  Cu  Cu4  1  0.83419600  0.83419600  0.72509800  1
  Cu  Cu5  1  0.16580400  0.16580400  0.27490200  1
