# generated using pymatgen
data_Fe11Si4(H4O9)3
_symmetry_space_group_name_H-M   'P 1'
_cell_length_a   5.53178600
_cell_length_b   9.09656725
_cell_length_c   12.09112062
_cell_angle_alpha   92.25385567
_cell_angle_beta   90.43028437
_cell_angle_gamma   107.56478287
_symmetry_Int_Tables_number   1
_chemical_formula_structural   Fe11Si4(H4O9)3
_chemical_formula_sum   'Fe11 Si4 H12 O27'
_cell_volume   579.49254955
_cell_formula_units_Z   1
loop_
 _symmetry_equiv_pos_site_id
 _symmetry_equiv_pos_as_xyz
  1  'x, y, z'
loop_
 _atom_site_type_symbol
 _atom_site_label
 _atom_site_symmetry_multiplicity
 _atom_site_fract_x
 _atom_site_fract_y
 _atom_site_fract_z
 _atom_site_occupancy
  Fe  Fe0  1  0.58623200  0.17162800  0.08041600  1
  Fe  Fe1  1  0.81104400  0.61504400  0.52561400  1
  Fe  Fe2  1  0.60916900  0.55008800  0.05740900  1
  Fe  Fe3  1  0.27162800  0.88388800  0.38967700  1
  Fe  Fe4  1  0.94446500  0.22186900  0.72297100  1
  Fe  Fe5  1  0.50122600  0.33123300  0.83434100  1
  Fe  Fe6  1  0.16567800  0.66307000  0.16841700  1
  Fe  Fe7  1  0.83158700  0.99375000  0.50217000  1
  Fe  Fe8  1  0.05085100  0.44228000  0.94611200  1
  Fe  Fe9  1  0.72394200  0.77405100  0.28192600  1
  Fe  Fe10  1  0.38898000  0.10836200  0.61125600  1
  Si  Si11  1  0.25128900  0.51102300  0.40749800  1
  Si  Si12  1  0.92860100  0.84981100  0.74506100  1
  Si  Si13  1  0.13996200  0.29216300  0.19160200  1
  Si  Si14  1  0.48442800  0.95697400  0.85169700  1
  H  H15  1  0.06522500  0.14774900  0.93522900  1
  H  H16  1  0.74521500  0.47801200  0.26310400  1
  H  H17  1  0.39325900  0.80047500  0.58833400  1
  H  H18  1  0.82484800  0.29190000  0.52381500  1
  H  H19  1  0.47348600  0.63048700  0.85934500  1
  H  H20  1  0.16202900  0.97368300  0.19911500  1
  H  H21  1  0.25163900  0.17793300  0.40456900  1
  H  H22  1  0.91749200  0.52497300  0.74979800  1
  H  H23  1  0.56348200  0.83763600  0.07478700  1
  H  H24  1  0.36385900  0.39391300  0.62654900  1
  H  H25  1  0.05291200  0.73163000  0.95645300  1
  H  H26  1  0.69704000  0.06444800  0.29562900  1
  O  O27  1  0.00244400  0.99852100  0.66659000  1
  O  O28  1  0.68686900  0.34581900  0.99249900  1
  O  O29  1  0.32847900  0.67365900  0.34013600  1
  O  O30  1  0.55998800  0.11015200  0.77807400  1
  O  O31  1  0.20249900  0.43427500  0.10441200  1
  O  O32  1  0.91466400  0.78676500  0.44078300  1
  O  O33  1  0.11213600  0.23839900  0.89073800  1
  O  O34  1  0.78829400  0.56718500  0.21675900  1
  O  O35  1  0.43924300  0.89176400  0.54460100  1
  O  O36  1  0.65613000  0.84110100  0.81003900  1
  O  O37  1  0.28342300  0.16514100  0.15449200  1
  O  O38  1  0.97014700  0.47661400  0.46132200  1
  O  O39  1  0.54271300  0.99260500  0.98444100  1
  O  O40  1  0.24518100  0.36573300  0.31746400  1
  O  O41  1  0.88481800  0.68546800  0.67694600  1
  O  O42  1  0.16995800  0.86793000  0.83613500  1
  O  O43  1  0.83525200  0.20192000  0.19528300  1
  O  O44  1  0.45917800  0.52047800  0.50662000  1
  O  O45  1  0.76780100  0.19721900  0.56626200  1
  O  O46  1  0.41732800  0.53569800  0.90081100  1
  O  O47  1  0.11346700  0.87437700  0.23726400  1
  O  O48  1  0.21400900  0.08503600  0.44813100  1
  O  O49  1  0.89380900  0.43082600  0.79270100  1
  O  O50  1  0.54115800  0.75063300  0.12413200  1
  O  O51  1  0.32457800  0.31003000  0.67923200  1
  O  O52  1  0.99929600  0.64314700  0.00450000  1
  O  O53  1  0.63967500  0.97562900  0.34463900  1
