# generated using pymatgen
data_GaP2C3N2O8F
_symmetry_space_group_name_H-M   'P 1'
_cell_length_a   9.52358851
_cell_length_b   9.52358851
_cell_length_c   7.32230800
_cell_angle_alpha   90.00000000
_cell_angle_beta   90.00000000
_cell_angle_gamma   112.93483557
_symmetry_Int_Tables_number   1
_chemical_formula_structural   GaP2C3N2O8F
_chemical_formula_sum   'Ga2 P4 C6 N4 O16 F2'
_cell_volume   611.62418955
_cell_formula_units_Z   2
loop_
 _symmetry_equiv_pos_site_id
 _symmetry_equiv_pos_as_xyz
  1  'x, y, z'
loop_
 _atom_site_type_symbol
 _atom_site_label
 _atom_site_symmetry_multiplicity
 _atom_site_fract_x
 _atom_site_fract_y
 _atom_site_fract_z
 _atom_site_occupancy
  Ga  Ga0  1  0.00000000  0.00000000  0.00000000  1
  Ga  Ga1  1  0.00000000  0.00000000  0.50000000  1
  P  P2  1  0.73029000  0.00009800  0.75000000  1
  P  P3  1  0.00009800  0.73029000  0.25000000  1
  P  P4  1  0.26971000  0.99990200  0.25000000  1
  P  P5  1  0.99990200  0.26971000  0.75000000  1
  C  C6  1  0.60032800  0.39967200  0.75000000  1
  C  C7  1  0.39967200  0.60032800  0.25000000  1
  C  C8  1  0.48655200  0.26632300  0.75000000  1
  C  C9  1  0.26632300  0.48655200  0.25000000  1
  C  C10  1  0.51344800  0.73367700  0.25000000  1
  C  C11  1  0.73367700  0.51344800  0.75000000  1
  N  N12  1  0.38385100  0.14293400  0.75000000  1
  N  N13  1  0.14293400  0.38385100  0.25000000  1
  N  N14  1  0.61614900  0.85706600  0.25000000  1
  N  N15  1  0.85706600  0.61614900  0.75000000  1
  O  O16  1  0.78560300  0.94367400  0.57771900  1
  O  O17  1  0.94367400  0.78560300  0.42228100  1
  O  O18  1  0.78560300  0.94367400  0.92228100  1
  O  O19  1  0.94367400  0.78560300  0.07771900  1
  O  O20  1  0.21439700  0.05632600  0.42228100  1
  O  O21  1  0.05632600  0.21439700  0.57771900  1
  O  O22  1  0.21439700  0.05632600  0.07771900  1
  O  O23  1  0.05632600  0.21439700  0.92228100  1
  O  O24  1  0.55952100  0.95516000  0.75000000  1
  O  O25  1  0.95516000  0.55952100  0.25000000  1
  O  O26  1  0.44047900  0.04484000  0.25000000  1
  O  O27  1  0.04484000  0.44047900  0.75000000  1
  O  O28  1  0.81414200  0.18585800  0.75000000  1
  O  O29  1  0.18585800  0.81414200  0.25000000  1
  O  O30  1  0.21844400  0.78155600  0.75000000  1
  O  O31  1  0.78155600  0.21844400  0.25000000  1
  F  F32  1  0.04768500  0.95231500  0.75000000  1
  F  F33  1  0.95231500  0.04768500  0.25000000  1
