# generated using pymatgen
data_Fe3Cu(SnS4)2
_symmetry_space_group_name_H-M   'P 1'
_cell_length_a   7.11163163
_cell_length_b   7.11163163
_cell_length_c   7.11163163
_cell_angle_alpha   120.56069832
_cell_angle_beta   119.23800846
_cell_angle_gamma   90.17821881
_symmetry_Int_Tables_number   1
_chemical_formula_structural   Fe3Cu(SnS4)2
_chemical_formula_sum   'Fe3 Cu1 Sn2 S8'
_cell_volume   254.67047819
_cell_formula_units_Z   1
loop_
 _symmetry_equiv_pos_site_id
 _symmetry_equiv_pos_as_xyz
  1  'x, y, z'
loop_
 _atom_site_type_symbol
 _atom_site_label
 _atom_site_symmetry_multiplicity
 _atom_site_fract_x
 _atom_site_fract_y
 _atom_site_fract_z
 _atom_site_occupancy
  Fe  Fe0  1  0.99410500  0.99410500  0.00000000  1
  Fe  Fe1  1  0.37582400  0.62196900  0.24614600  1
  Fe  Fe2  1  0.37582400  0.12967800  0.75385400  1
  Cu  Cu3  1  0.75775400  0.25775400  0.50000000  1
  Sn  Sn4  1  0.87107600  0.62419200  0.24688400  1
  Sn  Sn5  1  0.37730800  0.62419200  0.75311600  1
  S  S6  1  0.14627000  0.90776500  0.76149400  1
  S  S7  1  0.14627000  0.38477600  0.23850600  1
  S  S8  1  0.59525100  0.87851500  0.71673500  1
  S  S9  1  0.16178000  0.87851500  0.28326500  1
  S  S10  1  0.60231700  0.34455200  0.74223500  1
  S  S11  1  0.60231700  0.86008200  0.25776500  1
  S  S12  1  0.15692300  0.37195200  0.78497100  1
  S  S13  1  0.58698000  0.37195200  0.21502900  1
