# generated using pymatgen
data_DyAlCo4
_symmetry_space_group_name_H-M   'P 1'
_cell_length_a   4.04543900
_cell_length_b   4.90831124
_cell_length_c   4.98694445
_cell_angle_alpha   119.47974633
_cell_angle_beta   90.00000000
_cell_angle_gamma   90.00000000
_symmetry_Int_Tables_number   1
_chemical_formula_structural   DyAlCo4
_chemical_formula_sum   'Dy1 Al1 Co4'
_cell_volume   86.20170945
_cell_formula_units_Z   1
loop_
 _symmetry_equiv_pos_site_id
 _symmetry_equiv_pos_as_xyz
  1  'x, y, z'
loop_
 _atom_site_type_symbol
 _atom_site_label
 _atom_site_symmetry_multiplicity
 _atom_site_fract_x
 _atom_site_fract_y
 _atom_site_fract_z
 _atom_site_occupancy
  Dy  Dy0  1  0.00000000  0.99998100  0.00000000  1
  Al  Al1  1  0.50000000  0.49998600  0.00000000  1
  Co  Co2  1  0.00000000  0.32769100  0.65543200  1
  Co  Co3  1  0.00000000  0.67225900  0.34456800  1
  Co  Co4  1  0.50000000  0.49999200  0.50000200  1
  Co  Co5  1  0.50000000  0.99999000  0.49999800  1
