# generated using pymatgen
data_Dy2AlCo3
_symmetry_space_group_name_H-M   'P 1'
_cell_length_a   4.94623313
_cell_length_b   4.94623313
_cell_length_c   4.94623277
_cell_angle_alpha   65.44602390
_cell_angle_beta   65.44602390
_cell_angle_gamma   65.44602161
_symmetry_Int_Tables_number   1
_chemical_formula_structural   Dy2AlCo3
_chemical_formula_sum   'Dy2 Al1 Co3'
_cell_volume   95.70330874
_cell_formula_units_Z   1
loop_
 _symmetry_equiv_pos_site_id
 _symmetry_equiv_pos_as_xyz
  1  'x, y, z'
loop_
 _atom_site_type_symbol
 _atom_site_label
 _atom_site_symmetry_multiplicity
 _atom_site_fract_x
 _atom_site_fract_y
 _atom_site_fract_z
 _atom_site_occupancy
  Dy  Dy0  1  0.63007900  0.63007900  0.63007900  1
  Dy  Dy1  1  0.36992100  0.36992100  0.36992100  1
  Al  Al2  1  0.00000000  0.00000000  0.00000000  1
  Co  Co3  1  0.00000000  0.50000000  0.00000000  1
  Co  Co4  1  0.50000000  0.00000000  0.00000000  1
  Co  Co5  1  0.00000000  0.00000000  0.50000000  1
