# generated using pymatgen
data_Na12DyY3H48(CO5)12
_symmetry_space_group_name_H-M   'P 1'
_cell_length_a   11.72903200
_cell_length_b   11.74961202
_cell_length_c   13.13119270
_cell_angle_alpha   116.57279688
_cell_angle_beta   116.51862887
_cell_angle_gamma   90.00301361
_symmetry_Int_Tables_number   1
_chemical_formula_structural   Na12DyY3H48(CO5)12
_chemical_formula_sum   'Na12 Dy1 Y3 H48 C12 O60'
_cell_volume   1402.33930535
_cell_formula_units_Z   1
loop_
 _symmetry_equiv_pos_site_id
 _symmetry_equiv_pos_as_xyz
  1  'x, y, z'
loop_
 _atom_site_type_symbol
 _atom_site_label
 _atom_site_symmetry_multiplicity
 _atom_site_fract_x
 _atom_site_fract_y
 _atom_site_fract_z
 _atom_site_occupancy
  Na  Na0  1  0.26350100  0.99074200  0.36202500  1
  Na  Na1  1  0.76392800  0.99100200  0.36236400  1
  Na  Na2  1  0.58718400  0.37129500  0.00926500  1
  Na  Na3  1  0.08730200  0.37135300  0.00902100  1
  Na  Na4  1  0.39695400  0.63791500  0.62870300  1
  Na  Na5  1  0.89716900  0.63765500  0.62860600  1
  Na  Na6  1  0.15176900  0.00932100  0.63791300  1
  Na  Na7  1  0.65163400  0.00922800  0.63794800  1
  Na  Na8  1  0.82799400  0.62868900  0.99074700  1
  Na  Na9  1  0.32817800  0.62865300  0.99071500  1
  Na  Na10  1  0.01851800  0.36214500  0.37142300  1
  Na  Na11  1  0.51825800  0.36212000  0.37133000  1
  Dy  Dy12  1  0.28674800  0.33328200  0.66667700  1
  Y  Y13  1  0.87028900  0.66669800  0.33333700  1
  Y  Y14  1  0.37028400  0.66669500  0.33333100  1
  Y  Y15  1  0.78660100  0.33329700  0.66662800  1
  H  H16  1  0.06142400  0.86196300  0.09640300  1
  H  H17  1  0.56178900  0.86203300  0.09663400  1
  H  H18  1  0.08241100  0.23456600  0.13792700  1
  H  H19  1  0.58224000  0.23444000  0.13801300  1
  H  H20  1  0.39607900  0.90348700  0.76553500  1
  H  H21  1  0.89617700  0.90339500  0.76543400  1
  H  H22  1  0.21521400  0.13839400  0.90352100  1
  H  H23  1  0.71506900  0.13807600  0.90360400  1
  H  H24  1  0.19425300  0.76513100  0.86158600  1
  H  H25  1  0.69424100  0.76552900  0.86197400  1
  H  H26  1  0.88089600  0.09653300  0.23485600  1
  H  H27  1  0.38049700  0.09645500  0.23443300  1
  H  H28  1  0.53314800  0.00148200  0.13177000  1
  H  H29  1  0.03284100  0.00147400  0.13175100  1
  H  H30  1  0.46625800  0.13026800  0.99849300  1
  H  H31  1  0.96645800  0.13029700  0.99846300  1
  H  H32  1  0.90206800  0.86813800  0.86966600  1
  H  H33  1  0.40181100  0.86813800  0.86967600  1
  H  H34  1  0.15123100  0.99895200  0.86828200  1
  H  H35  1  0.65123500  0.99853900  0.86825900  1
  H  H36  1  0.21777300  0.86944700  0.00107500  1
  H  H37  1  0.71774200  0.86969700  0.00148100  1
  H  H38  1  0.78255300  0.13173500  0.13057800  1
  H  H39  1  0.28216400  0.13181300  0.13030700  1
  H  H40  1  0.92395400  0.28533600  0.50226700  1
  H  H41  1  0.42386000  0.28525500  0.50270500  1
  H  H42  1  0.03016300  0.21695100  0.71468200  1
  H  H43  1  0.52992600  0.21747900  0.71476400  1
  H  H44  1  0.06441600  0.49765400  0.78305300  1
  H  H45  1  0.56386900  0.49719800  0.78253800  1
  H  H46  1  0.67197500  0.71480600  0.49781300  1
  H  H47  1  0.17188500  0.71478100  0.49778200  1
  H  H48  1  0.56568300  0.78306100  0.28527000  1
  H  H49  1  0.06556200  0.78297800  0.28510700  1
  H  H50  1  0.53154900  0.50219800  0.21701800  1
  H  H51  1  0.03156300  0.50227400  0.21690200  1
  H  H52  1  0.78730500  0.32412300  0.43287100  1
  H  H53  1  0.28774300  0.32463800  0.43367100  1
  H  H54  1  0.90884900  0.10872100  0.67584600  1
  H  H55  1  0.40863600  0.10900500  0.67532000  1
  H  H56  1  0.01653900  0.56706100  0.89121200  1
  H  H57  1  0.51648700  0.56625600  0.89096500  1
  H  H58  1  0.60464400  0.67595200  0.56709800  1
  H  H59  1  0.10473100  0.67573300  0.56711500  1
  H  H60  1  0.48310400  0.89119700  0.32407000  1
  H  H61  1  0.98334200  0.89139300  0.32428200  1
  H  H62  1  0.37555600  0.43288800  0.10868000  1
  H  H63  1  0.87554100  0.43290400  0.10885600  1
  C  C64  1  0.14738600  0.68014500  0.12406400  1
  C  C65  1  0.64741800  0.68023500  0.12423100  1
  C  C66  1  0.24521800  0.44397700  0.31977800  1
  C  C67  1  0.74529200  0.44397100  0.31989200  1
  C  C68  1  0.36332000  0.87579200  0.55598200  1
  C  C69  1  0.86347300  0.87585300  0.55606000  1
  C  C70  1  0.27316800  0.31986100  0.87546400  1
  C  C71  1  0.77310500  0.31983400  0.87593500  1
  C  C72  1  0.17560200  0.55549000  0.68012300  1
  C  C73  1  0.67528400  0.55601900  0.68013000  1
  C  C74  1  0.05766200  0.12469300  0.44456100  1
  C  C75  1  0.55704000  0.12416400  0.44396700  1
  O  O76  1  0.21741000  0.59876500  0.09665800  1
  O  O77  1  0.71732300  0.59871100  0.09679100  1
  O  O78  1  0.36962800  0.49806300  0.40131100  1
  O  O79  1  0.86971500  0.49798000  0.40128400  1
  O  O80  1  0.41996500  0.90322600  0.50195100  1
  O  O81  1  0.92016600  0.90332600  0.50209400  1
  O  O82  1  0.37054600  0.40106200  0.90252000  1
  O  O83  1  0.87048600  0.40122100  0.90323800  1
  O  O84  1  0.21883900  0.50132600  0.59890400  1
  O  O85  1  0.71827000  0.50195800  0.59872200  1
  O  O86  1  0.16851300  0.09757600  0.49865100  1
  O  O87  1  0.66775600  0.09679500  0.49799100  1
  O  O88  1  0.84395200  0.30833600  0.50758000  1
  O  O89  1  0.34418600  0.30886300  0.50838700  1
  O  O90  1  0.93596300  0.19917000  0.69152200  1
  O  O91  1  0.43556900  0.19946400  0.69102000  1
  O  O92  1  0.99062600  0.49229500  0.80075700  1
  O  O93  1  0.49037800  0.49145500  0.80053600  1
  O  O94  1  0.58662100  0.69161000  0.49233400  1
  O  O95  1  0.08660300  0.69157700  0.49241200  1
  O  O96  1  0.49461800  0.80078300  0.30840000  1
  O  O97  1  0.99467300  0.80089300  0.30847800  1
  O  O98  1  0.44004500  0.50767100  0.19915200  1
  O  O99  1  0.94010800  0.50775000  0.19922400  1
  O  O100  1  0.10419400  0.95702500  0.14419300  1
  O  O101  1  0.60453600  0.95710900  0.14436900  1
  O  O102  1  0.05380700  0.18722300  0.04288200  1
  O  O103  1  0.55363600  0.18718400  0.04297900  1
  O  O104  1  0.43861500  0.85576500  0.81284600  1
  O  O105  1  0.93871900  0.85563200  0.81270300  1
  O  O106  1  0.21014600  0.04329000  0.85577900  1
  O  O107  1  0.71016000  0.04303000  0.85586000  1
  O  O108  1  0.26067500  0.81252500  0.95664600  1
  O  O109  1  0.76067300  0.81284200  0.95700800  1
  O  O110  1  0.87612500  0.14420100  0.18747300  1
  O  O111  1  0.37576900  0.14413000  0.18708000  1
  O  O112  1  0.18684400  0.75737300  0.24930800  1
  O  O113  1  0.68700000  0.75755500  0.24949400  1
  O  O114  1  0.18356500  0.49191100  0.24244600  1
  O  O115  1  0.68353600  0.49196900  0.24265700  1
  O  O116  1  0.31622700  0.75055200  0.50801000  1
  O  O117  1  0.81638400  0.75062700  0.50809600  1
  O  O118  1  0.18724200  0.24267200  0.75030000  1
  O  O119  1  0.68722300  0.24263800  0.75073600  1
  O  O120  1  0.19091800  0.50759100  0.75738300  1
  O  O121  1  0.69060900  0.50804800  0.75735200  1
  O  O122  1  0.05830900  0.24983700  0.49249900  1
  O  O123  1  0.55780400  0.24937300  0.49198300  1
  O  O124  1  0.04440500  0.68691500  0.03454800  1
  O  O125  1  0.54447500  0.68699900  0.03468300  1
  O  O126  1  0.18364900  0.34770800  0.31304200  1
  O  O127  1  0.68370000  0.34767600  0.31312900  1
  O  O128  1  0.35329100  0.96535800  0.65231800  1
  O  O129  1  0.85335300  0.96537700  0.65237800  1
  O  O130  1  0.26000900  0.31327200  0.96521100  1
  O  O131  1  0.75981000  0.31307000  0.96554300  1
  O  O132  1  0.12081500  0.65177800  0.68664300  1
  O  O133  1  0.62055300  0.65241400  0.68691200  1
  O  O134  1  0.95141200  0.03492400  0.34819000  1
  O  O135  1  0.45072700  0.03458100  0.34757400  1
