# generated using pymatgen
data_Fe2Cu3(Sn3Se8)2
_symmetry_space_group_name_H-M   'P 1'
_cell_length_a   7.72413000
_cell_length_b   7.67669800
_cell_length_c   10.88150342
_cell_angle_alpha   89.39660232
_cell_angle_beta   90.00000000
_cell_angle_gamma   90.00000000
_symmetry_Int_Tables_number   1
_chemical_formula_structural   Fe2Cu3(Sn3Se8)2
_chemical_formula_sum   'Fe2 Cu3 Sn6 Se16'
_cell_volume   645.19181518
_cell_formula_units_Z   1
loop_
 _symmetry_equiv_pos_site_id
 _symmetry_equiv_pos_as_xyz
  1  'x, y, z'
loop_
 _atom_site_type_symbol
 _atom_site_label
 _atom_site_symmetry_multiplicity
 _atom_site_fract_x
 _atom_site_fract_y
 _atom_site_fract_z
 _atom_site_occupancy
  Fe  Fe0  1  0.50000000  0.25406600  0.24705900  1
  Fe  Fe1  1  0.00000000  0.75324600  0.75008400  1
  Cu  Cu2  1  0.00000000  0.99171000  0.13056200  1
  Cu  Cu3  1  0.50000000  0.49005400  0.62742400  1
  Cu  Cu4  1  0.50000000  0.01038000  0.87008800  1
  Sn  Sn5  1  0.00000000  0.25106000  0.74354500  1
  Sn  Sn6  1  0.50000000  0.74327100  0.25180900  1
  Sn  Sn7  1  0.75939800  0.00277500  0.49976800  1
  Sn  Sn8  1  0.24885700  0.49987300  0.00251900  1
  Sn  Sn9  1  0.24060200  0.00277500  0.49976800  1
  Sn  Sn10  1  0.75114300  0.49987300  0.00251900  1
  Se  Se11  1  0.00000000  0.26338200  0.49350100  1
  Se  Se12  1  0.50000000  0.75371900  0.99862100  1
  Se  Se13  1  0.00000000  0.74984800  0.52941900  1
  Se  Se14  1  0.50000000  0.24827000  0.01975600  1
  Se  Se15  1  0.22764500  0.97802400  0.75086200  1
  Se  Se16  1  0.72546400  0.47139300  0.25065000  1
  Se  Se17  1  0.77235500  0.97802400  0.75086200  1
  Se  Se18  1  0.27453600  0.47139300  0.25065000  1
  Se  Se19  1  0.50000000  0.75117400  0.50232000  1
  Se  Se20  1  0.00000000  0.24581100  0.99919800  1
  Se  Se21  1  0.50000000  0.24952500  0.47734400  1
  Se  Se22  1  0.00000000  0.75092200  0.97821400  1
  Se  Se23  1  0.27079400  0.01982300  0.24892800  1
  Se  Se24  1  0.77301900  0.52489300  0.75030100  1
  Se  Se25  1  0.72920600  0.01982300  0.24892800  1
  Se  Se26  1  0.22698100  0.52489300  0.75030100  1
