# generated using pymatgen
data_Dy2NbGaO7
_symmetry_space_group_name_H-M   'P 1'
_cell_length_a   7.28414967
_cell_length_b   7.28414967
_cell_length_c   7.28414967
_cell_angle_alpha   121.00028759
_cell_angle_beta   119.13709487
_cell_angle_gamma   89.88865360
_symmetry_Int_Tables_number   1
_chemical_formula_structural   Dy2NbGaO7
_chemical_formula_sum   'Dy4 Nb2 Ga2 O14'
_cell_volume   272.91389761
_cell_formula_units_Z   2
loop_
 _symmetry_equiv_pos_site_id
 _symmetry_equiv_pos_as_xyz
  1  'x, y, z'
loop_
 _atom_site_type_symbol
 _atom_site_label
 _atom_site_symmetry_multiplicity
 _atom_site_fract_x
 _atom_site_fract_y
 _atom_site_fract_z
 _atom_site_occupancy
  Dy  Dy0  1  0.50000000  0.50000000  0.50000000  1
  Dy  Dy1  1  0.50000000  0.00000000  0.00000000  1
  Dy  Dy2  1  0.50000000  0.50000000  0.00000000  1
  Dy  Dy3  1  0.00000000  0.50000000  0.50000000  1
  Nb  Nb4  1  0.00000000  0.00000000  0.00000000  1
  Nb  Nb5  1  0.50000000  0.00000000  0.50000000  1
  Ga  Ga6  1  0.00000000  0.00000000  0.50000000  1
  Ga  Ga7  1  0.00000000  0.50000000  0.00000000  1
  O  O8  1  0.37523000  0.62523000  0.75000000  1
  O  O9  1  0.62477000  0.37477000  0.25000000  1
  O  O10  1  0.33331200  0.08331200  0.25000000  1
  O  O11  1  0.91565000  0.66565000  0.25000000  1
  O  O12  1  0.33405800  0.66739500  0.25242300  1
  O  O13  1  0.91497100  0.08163400  0.24757700  1
  O  O14  1  0.33405800  0.08163400  0.66666300  1
  O  O15  1  0.91497100  0.66739500  0.83333700  1
  O  O16  1  0.66668800  0.91668800  0.75000000  1
  O  O17  1  0.08435000  0.33435000  0.75000000  1
  O  O18  1  0.66594200  0.33260500  0.74757700  1
  O  O19  1  0.08502900  0.91836600  0.75242300  1
  O  O20  1  0.66594200  0.91836600  0.33333700  1
  O  O21  1  0.08502900  0.33260500  0.16666300  1
