# generated using pymatgen
data_Mg3Si4
_symmetry_space_group_name_H-M   'P 1'
_cell_length_a   5.08061300
_cell_length_b   7.01584160
_cell_length_c   7.84105098
_cell_angle_alpha   110.64169052
_cell_angle_beta   93.50265225
_cell_angle_gamma   101.31653911
_symmetry_Int_Tables_number   1
_chemical_formula_structural   Mg3Si4
_chemical_formula_sum   'Mg6 Si8'
_cell_volume   253.86733978
_cell_formula_units_Z   2
loop_
 _symmetry_equiv_pos_site_id
 _symmetry_equiv_pos_as_xyz
  1  'x, y, z'
loop_
 _atom_site_type_symbol
 _atom_site_label
 _atom_site_symmetry_multiplicity
 _atom_site_fract_x
 _atom_site_fract_y
 _atom_site_fract_z
 _atom_site_occupancy
  Mg  Mg0  1  0.90242400  0.89812000  0.42343100  1
  Mg  Mg1  1  0.38635200  0.76957000  0.64369100  1
  Mg  Mg2  1  0.67584100  0.61139600  0.94211700  1
  Mg  Mg3  1  0.37166200  0.20589500  0.96081800  1
  Mg  Mg4  1  0.79828400  0.46761500  0.51436300  1
  Mg  Mg5  1  0.26117700  0.85009200  0.11919600  1
  Si  Si6  1  0.23253100  0.37291500  0.68410100  1
  Si  Si7  1  0.82114800  0.20662400  0.77052300  1
  Si  Si8  1  0.93224300  0.46403000  0.16771100  1
  Si  Si9  1  0.45781700  0.56546900  0.25810700  1
  Si  Si10  1  0.93494800  0.88739200  0.79933700  1
  Si  Si11  1  0.22024600  0.28112900  0.34070800  1
  Si  Si12  1  0.44953000  0.09958600  0.50220800  1
  Si  Si13  1  0.80914700  0.06661800  0.12035900  1
