# generated using pymatgen
data_K3U2I7O26
_symmetry_space_group_name_H-M   'P 1'
_cell_length_a   7.15195600
_cell_length_b   14.81535654
_cell_length_c   15.11885499
_cell_angle_alpha   118.99292717
_cell_angle_beta   98.39435298
_cell_angle_gamma   87.22960359
_symmetry_Int_Tables_number   1
_chemical_formula_structural   K3U2I7O26
_chemical_formula_sum   'K6 U4 I14 O52'
_cell_volume   1385.73790874
_cell_formula_units_Z   2
loop_
 _symmetry_equiv_pos_site_id
 _symmetry_equiv_pos_as_xyz
  1  'x, y, z'
loop_
 _atom_site_type_symbol
 _atom_site_label
 _atom_site_symmetry_multiplicity
 _atom_site_fract_x
 _atom_site_fract_y
 _atom_site_fract_z
 _atom_site_occupancy
  K  K0  1  0.22632600  0.76034000  0.83453000  1
  K  K1  1  0.77367400  0.23966000  0.16547000  1
  K  K2  1  0.43134400  0.63257400  0.23000900  1
  K  K3  1  0.56865600  0.36742600  0.76999100  1
  K  K4  1  0.06674800  0.87901100  0.40363000  1
  K  K5  1  0.93325200  0.12098900  0.59637000  1
  U  U6  1  0.71591000  0.30958500  0.46309900  1
  U  U7  1  0.28409000  0.69041500  0.53690100  1
  U  U8  1  0.15040100  0.83081300  0.12149100  1
  U  U9  1  0.84959900  0.16918700  0.87850900  1
  I  I10  1  0.62233300  0.01845500  0.28446800  1
  I  I11  1  0.37766700  0.98154500  0.71553200  1
  I  I12  1  0.74227100  0.59473000  0.69100600  1
  I  I13  1  0.25772900  0.40527000  0.30899400  1
  I  I14  1  0.13017100  0.10749800  0.33827600  1
  I  I15  1  0.86982900  0.89250200  0.66172400  1
  I  I16  1  0.23775000  0.42850800  0.58490100  1
  I  I17  1  0.76225000  0.57149200  0.41509900  1
  I  I18  1  0.15857600  0.53136900  0.93168000  1
  I  I19  1  0.84142400  0.46863100  0.06832000  1
  I  I20  1  0.71113400  0.89446700  0.92159500  1
  I  I21  1  0.28886600  0.10553300  0.07840500  1
  I  I22  1  0.65709400  0.69950600  0.03257900  1
  I  I23  1  0.34290600  0.30049400  0.96742100  1
  O  O24  1  0.22261100  0.37604400  0.66819200  1
  O  O25  1  0.77738900  0.62395600  0.33180800  1
  O  O26  1  0.71068400  0.49101600  0.55436600  1
  O  O27  1  0.28931600  0.50898400  0.44563400  1
  O  O28  1  0.03071000  0.36912300  0.48559800  1
  O  O29  1  0.96929000  0.63087700  0.51440200  1
  O  O30  1  0.15029700  0.09373500  0.45108500  1
  O  O31  1  0.84970300  0.90626500  0.54891500  1
  O  O32  1  0.99192800  0.58096700  0.72837800  1
  O  O33  1  0.00807200  0.41903300  0.27162200  1
  O  O34  1  0.48435500  0.85104300  0.39444200  1
  O  O35  1  0.51564500  0.14895700  0.60555800  1
  O  O36  1  0.63115500  0.76507900  0.89054500  1
  O  O37  1  0.36884500  0.23492100  0.10945500  1
  O  O38  1  0.61616100  0.53101100  0.74121100  1
  O  O39  1  0.38383900  0.46898900  0.25878900  1
  O  O40  1  0.01326900  0.98098000  0.24345000  1
  O  O41  1  0.98673100  0.01902000  0.75655000  1
  O  O42  1  0.54604000  0.14798500  0.37655700  1
  O  O43  1  0.45396000  0.85201500  0.62344300  1
  O  O44  1  0.81607000  0.81654100  0.10117300  1
  O  O45  1  0.18393000  0.18345900  0.89882700  1
  O  O46  1  0.17796200  0.77664700  0.20841900  1
  O  O47  1  0.82203800  0.22335300  0.79158100  1
  O  O48  1  0.86326200  0.85662100  0.82245100  1
  O  O49  1  0.13673800  0.14337900  0.17754900  1
  O  O50  1  0.40702800  0.33849000  0.50290700  1
  O  O51  1  0.59297200  0.66151000  0.49709300  1
  O  O52  1  0.39471400  0.55979300  0.91808000  1
  O  O53  1  0.60528600  0.44020700  0.08192000  1
  O  O54  1  0.49287200  0.93666100  0.87447000  1
  O  O55  1  0.50712800  0.06333900  0.12553000  1
  O  O56  1  0.71821900  0.97032000  0.37057000  1
  O  O57  1  0.28178100  0.02968000  0.62943000  1
  O  O58  1  0.89460800  0.17023300  0.34477900  1
  O  O59  1  0.10539200  0.82976700  0.65522100  1
  O  O60  1  0.78516300  0.29021700  0.57341300  1
  O  O61  1  0.21483700  0.70978300  0.42658700  1
  O  O62  1  0.37482100  0.96618600  0.25168900  1
  O  O63  1  0.62517900  0.03381400  0.74831100  1
  O  O64  1  0.06251500  0.66551000  0.98184800  1
  O  O65  1  0.93748500  0.33449000  0.01815200  1
  O  O66  1  0.69816000  0.65911100  0.12948500  1
  O  O67  1  0.30184000  0.34088900  0.87051500  1
  O  O68  1  0.44284700  0.77617400  0.07075300  1
  O  O69  1  0.55715300  0.22382600  0.92924700  1
  O  O70  1  0.12545900  0.88557600  0.03428400  1
  O  O71  1  0.87454100  0.11442400  0.96571600  1
  O  O72  1  0.19357500  0.52635000  0.05121900  1
  O  O73  1  0.80642500  0.47365000  0.94878100  1
  O  O74  1  0.64290400  0.33188700  0.35367500  1
  O  O75  1  0.35709600  0.66811300  0.64632500  1
