# generated using pymatgen
data_Dy4MnSe7
_symmetry_space_group_name_H-M   'P 1'
_cell_length_a   6.84640681
_cell_length_b   6.84640681
_cell_length_c   12.04010476
_cell_angle_alpha   75.74084588
_cell_angle_beta   75.74084588
_cell_angle_gamma   33.64662726
_symmetry_Int_Tables_number   1
_chemical_formula_structural   Dy4MnSe7
_chemical_formula_sum   'Dy4 Mn1 Se7'
_cell_volume   302.16442298
_cell_formula_units_Z   1
loop_
 _symmetry_equiv_pos_site_id
 _symmetry_equiv_pos_as_xyz
  1  'x, y, z'
loop_
 _atom_site_type_symbol
 _atom_site_label
 _atom_site_symmetry_multiplicity
 _atom_site_fract_x
 _atom_site_fract_y
 _atom_site_fract_z
 _atom_site_occupancy
  Dy  Dy0  1  0.69334800  0.69334800  0.20372600  1
  Dy  Dy1  1  0.30620600  0.30620600  0.80182500  1
  Dy  Dy2  1  0.99949000  0.99949000  0.00602600  1
  Dy  Dy3  1  0.11405400  0.11405400  0.56656300  1
  Mn  Mn4  1  0.88412100  0.88412100  0.42264700  1
  Se  Se5  1  0.74474300  0.74474300  0.63973300  1
  Se  Se6  1  0.26897600  0.26897600  0.35239800  1
  Se  Se7  1  0.33766500  0.33766500  0.05039900  1
  Se  Se8  1  0.66055700  0.66055700  0.94954300  1
  Se  Se9  1  0.03350200  0.03350200  0.22604100  1
  Se  Se10  1  0.96382200  0.96382200  0.78454900  1
  Se  Se11  1  0.49351700  0.49351700  0.49654900  1
