# generated using pymatgen
data_Dy2Mn3Sb3O14
_symmetry_space_group_name_H-M   'P 1'
_cell_length_a   7.27834419
_cell_length_b   7.27834419
_cell_length_c   7.25606678
_cell_angle_alpha   60.54377168
_cell_angle_beta   60.54377168
_cell_angle_gamma   60.57940077
_symmetry_Int_Tables_number   1
_chemical_formula_structural   Dy2Mn3Sb3O14
_chemical_formula_sum   'Dy2 Mn3 Sb3 O14'
_cell_volume   275.21310619
_cell_formula_units_Z   1
loop_
 _symmetry_equiv_pos_site_id
 _symmetry_equiv_pos_as_xyz
  1  'x, y, z'
loop_
 _atom_site_type_symbol
 _atom_site_label
 _atom_site_symmetry_multiplicity
 _atom_site_fract_x
 _atom_site_fract_y
 _atom_site_fract_z
 _atom_site_occupancy
  Dy  Dy0  1  0.50000000  0.50000000  0.00000000  1
  Dy  Dy1  1  0.50000000  0.50000000  0.50000000  1
  Mn  Mn2  1  0.50000000  0.00000000  0.00000000  1
  Mn  Mn3  1  0.00000000  0.50000000  0.00000000  1
  Mn  Mn4  1  0.00000000  0.00000000  0.50000000  1
  Sb  Sb5  1  0.00000000  0.00000000  0.00000000  1
  Sb  Sb6  1  0.00000000  0.50000000  0.50000000  1
  Sb  Sb7  1  0.50000000  0.00000000  0.50000000  1
  O  O8  1  0.92492700  0.92492700  0.82182900  1
  O  O9  1  0.33188700  0.33188700  0.40979800  1
  O  O10  1  0.90981100  0.34115700  0.42305800  1
  O  O11  1  0.32913500  0.91432100  0.83176400  1
  O  O12  1  0.91432100  0.32913500  0.83176400  1
  O  O13  1  0.34115700  0.90981100  0.42305800  1
  O  O14  1  0.07507300  0.07507300  0.17817100  1
  O  O15  1  0.66811300  0.66811300  0.59020200  1
  O  O16  1  0.09018900  0.65884300  0.57694200  1
  O  O17  1  0.67086500  0.08567900  0.16823600  1
  O  O18  1  0.08567900  0.67086500  0.16823600  1
  O  O19  1  0.65884300  0.09018900  0.57694200  1
  O  O20  1  0.62976300  0.62976300  0.11869300  1
  O  O21  1  0.37023700  0.37023700  0.88130700  1
