# generated using pymatgen
data_Dy2Fe4Si9
_symmetry_space_group_name_H-M   'P 1'
_cell_length_a   3.94030678
_cell_length_b   3.94030678
_cell_length_c   16.03735400
_cell_angle_alpha   90.00000000
_cell_angle_beta   90.00000000
_cell_angle_gamma   120.00001316
_symmetry_Int_Tables_number   1
_chemical_formula_structural   Dy2Fe4Si9
_chemical_formula_sum   'Dy2 Fe4 Si9'
_cell_volume   215.63704042
_cell_formula_units_Z   1
loop_
 _symmetry_equiv_pos_site_id
 _symmetry_equiv_pos_as_xyz
  1  'x, y, z'
loop_
 _atom_site_type_symbol
 _atom_site_label
 _atom_site_symmetry_multiplicity
 _atom_site_fract_x
 _atom_site_fract_y
 _atom_site_fract_z
 _atom_site_occupancy
  Dy  Dy0  1  0.33333300  0.66666700  0.24157400  1
  Dy  Dy1  1  0.66666700  0.33333300  0.75842600  1
  Fe  Fe2  1  0.33333300  0.66666700  0.58909600  1
  Fe  Fe3  1  0.66666700  0.33333300  0.41090400  1
  Fe  Fe4  1  0.66666700  0.33333300  0.10147700  1
  Fe  Fe5  1  0.33333300  0.66666700  0.89852300  1
  Si  Si6  1  0.33333300  0.66666700  0.43529200  1
  Si  Si7  1  0.66666700  0.33333300  0.56470800  1
  Si  Si8  1  0.66666700  0.33333300  0.95684000  1
  Si  Si9  1  0.33333300  0.66666700  0.04316000  1
  Si  Si10  1  0.00000000  0.00000000  0.64988900  1
  Si  Si11  1  0.00000000  0.00000000  0.35011100  1
  Si  Si12  1  0.00000000  0.00000000  0.12637200  1
  Si  Si13  1  0.00000000  0.00000000  0.87362800  1
  Si  Si14  1  0.00000000  0.00000000  0.50000000  1
