# generated using pymatgen
data_Dy(MnAl)6
_symmetry_space_group_name_H-M   'P 1'
_cell_length_a   6.62828059
_cell_length_b   6.62828059
_cell_length_c   6.62828059
_cell_angle_alpha   136.54306201
_cell_angle_beta   98.78069264
_cell_angle_gamma   96.97612071
_symmetry_Int_Tables_number   1
_chemical_formula_structural   Dy(MnAl)6
_chemical_formula_sum   'Dy1 Mn6 Al6'
_cell_volume   186.03361614
_cell_formula_units_Z   1
loop_
 _symmetry_equiv_pos_site_id
 _symmetry_equiv_pos_as_xyz
  1  'x, y, z'
loop_
 _atom_site_type_symbol
 _atom_site_label
 _atom_site_symmetry_multiplicity
 _atom_site_fract_x
 _atom_site_fract_y
 _atom_site_fract_z
 _atom_site_occupancy
  Dy  Dy0  1  0.00000000  0.00000000  0.00000000  1
  Mn  Mn1  1  0.50000000  0.50000000  0.50000000  1
  Mn  Mn2  1  0.50000000  0.00000000  0.00000000  1
  Mn  Mn3  1  0.00000000  0.50000000  0.00000000  1
  Mn  Mn4  1  0.00000000  0.00000000  0.50000000  1
  Mn  Mn5  1  0.76584400  0.50000000  0.26584400  1
  Mn  Mn6  1  0.23415600  0.50000000  0.73415600  1
  Al  Al7  1  0.65218200  0.65218200  0.00000000  1
  Al  Al8  1  0.34781800  0.34781800  0.00000000  1
  Al  Al9  1  0.33667300  0.00000000  0.33667300  1
  Al  Al10  1  0.66332700  0.00000000  0.66332700  1
  Al  Al11  1  0.19998700  0.69998700  0.50000000  1
  Al  Al12  1  0.80001300  0.30001300  0.50000000  1
