# generated using pymatgen
data_Dy(CuSe)3
_symmetry_space_group_name_H-M   'P 1'
_cell_length_a   7.70480492
_cell_length_b   7.70480492
_cell_length_c   7.70480540
_cell_angle_alpha   53.99660786
_cell_angle_beta   53.99660786
_cell_angle_gamma   53.99660761
_symmetry_Int_Tables_number   1
_chemical_formula_structural   Dy(CuSe)3
_chemical_formula_sum   'Dy2 Cu6 Se6'
_cell_volume   278.07002138
_cell_formula_units_Z   2
loop_
 _symmetry_equiv_pos_site_id
 _symmetry_equiv_pos_as_xyz
  1  'x, y, z'
loop_
 _atom_site_type_symbol
 _atom_site_label
 _atom_site_symmetry_multiplicity
 _atom_site_fract_x
 _atom_site_fract_y
 _atom_site_fract_z
 _atom_site_occupancy
  Dy  Dy0  1  0.83380900  0.83380900  0.83380900  1
  Dy  Dy1  1  0.16619100  0.16619100  0.16619100  1
  Cu  Cu2  1  0.97787600  0.62705200  0.26663500  1
  Cu  Cu3  1  0.26663500  0.97787600  0.62705200  1
  Cu  Cu4  1  0.62705200  0.26663500  0.97787600  1
  Cu  Cu5  1  0.37294800  0.73336500  0.02212400  1
  Cu  Cu6  1  0.73336500  0.02212400  0.37294800  1
  Cu  Cu7  1  0.02212400  0.37294800  0.73336500  1
  Se  Se8  1  0.73688900  0.42025800  0.09804800  1
  Se  Se9  1  0.42025800  0.09804800  0.73688900  1
  Se  Se10  1  0.09804800  0.73688900  0.42025800  1
  Se  Se11  1  0.90195200  0.26311100  0.57974200  1
  Se  Se12  1  0.57974200  0.90195200  0.26311100  1
  Se  Se13  1  0.26311100  0.57974200  0.90195200  1
