# generated using pymatgen
data_Fe5Bi4O13F
_symmetry_space_group_name_H-M   'P 1'
_cell_length_a   8.43702400
_cell_length_b   8.43702400
_cell_length_c   18.43685000
_cell_angle_alpha   90.00000000
_cell_angle_beta   90.00000000
_cell_angle_gamma   90.00000000
_symmetry_Int_Tables_number   1
_chemical_formula_structural   Fe5Bi4O13F
_chemical_formula_sum   'Fe20 Bi16 O52 F4'
_cell_volume   1312.39718850
_cell_formula_units_Z   4
loop_
 _symmetry_equiv_pos_site_id
 _symmetry_equiv_pos_as_xyz
  1  'x, y, z'
loop_
 _atom_site_type_symbol
 _atom_site_label
 _atom_site_symmetry_multiplicity
 _atom_site_fract_x
 _atom_site_fract_y
 _atom_site_fract_z
 _atom_site_occupancy
  Fe  Fe0  1  0.16381400  0.64966100  0.24989000  1
  Fe  Fe1  1  0.14966100  0.33618600  0.74989000  1
  Fe  Fe2  1  0.33618600  0.14966100  0.25011000  1
  Fe  Fe3  1  0.64966100  0.16381400  0.75011000  1
  Fe  Fe4  1  0.83618600  0.35033900  0.24989000  1
  Fe  Fe5  1  0.85033900  0.66381400  0.74989000  1
  Fe  Fe6  1  0.66381400  0.85033900  0.25011000  1
  Fe  Fe7  1  0.35033900  0.83618600  0.75011000  1
  Fe  Fe8  1  0.00000000  0.00000000  0.50000000  1
  Fe  Fe9  1  0.50000000  0.50000000  0.00000000  1
  Fe  Fe10  1  0.50000000  0.50000000  0.50000000  1
  Fe  Fe11  1  0.00000000  0.00000000  0.00000000  1
  Fe  Fe12  1  0.00000000  0.00000000  0.33074200  1
  Fe  Fe13  1  0.50000000  0.50000000  0.83074200  1
  Fe  Fe14  1  0.50000000  0.50000000  0.33047000  1
  Fe  Fe15  1  0.00000000  0.00000000  0.83047000  1
  Fe  Fe16  1  0.00000000  0.00000000  0.16953000  1
  Fe  Fe17  1  0.50000000  0.50000000  0.66953000  1
  Fe  Fe18  1  0.50000000  0.50000000  0.16925800  1
  Fe  Fe19  1  0.00000000  0.00000000  0.66925800  1
  Bi  Bi20  1  0.34049100  0.82705500  0.40689000  1
  Bi  Bi21  1  0.32705500  0.15950900  0.90689000  1
  Bi  Bi22  1  0.15908600  0.32801700  0.40757800  1
  Bi  Bi23  1  0.82801700  0.34091400  0.90757800  1
  Bi  Bi24  1  0.34091400  0.82801700  0.09242200  1
  Bi  Bi25  1  0.32801700  0.15908600  0.59242200  1
  Bi  Bi26  1  0.15950900  0.32705500  0.09311000  1
  Bi  Bi27  1  0.82705500  0.34049100  0.59311000  1
  Bi  Bi28  1  0.65908600  0.17198300  0.09242200  1
  Bi  Bi29  1  0.67198300  0.84091400  0.59242200  1
  Bi  Bi30  1  0.84049100  0.67294500  0.09311000  1
  Bi  Bi31  1  0.17294500  0.65950900  0.59311000  1
  Bi  Bi32  1  0.65950900  0.17294500  0.40689000  1
  Bi  Bi33  1  0.67294500  0.84049100  0.90689000  1
  Bi  Bi34  1  0.84091400  0.67198300  0.40757800  1
  Bi  Bi35  1  0.17198300  0.65908600  0.90757800  1
  O  O36  1  0.12352900  0.20972900  0.83625800  1
  O  O37  1  0.70972900  0.37647100  0.33625800  1
  O  O38  1  0.37380000  0.70906400  0.83657300  1
  O  O39  1  0.20906400  0.12620000  0.33657300  1
  O  O40  1  0.12620000  0.20906400  0.66342700  1
  O  O41  1  0.70906400  0.37380000  0.16342700  1
  O  O42  1  0.37647100  0.70972900  0.66374200  1
  O  O43  1  0.20972900  0.12352900  0.16374200  1
  O  O44  1  0.87380000  0.79093600  0.66342700  1
  O  O45  1  0.29093600  0.62620000  0.16342700  1
  O  O46  1  0.62352900  0.29027100  0.66374200  1
  O  O47  1  0.79027100  0.87647100  0.16374200  1
  O  O48  1  0.87647100  0.79027100  0.83625800  1
  O  O49  1  0.29027100  0.62352900  0.33625800  1
  O  O50  1  0.62620000  0.29093600  0.83657300  1
  O  O51  1  0.79093600  0.87380000  0.33657300  1
  O  O52  1  0.13978000  0.91991700  0.58388000  1
  O  O53  1  0.41991700  0.36022000  0.08388000  1
  O  O54  1  0.36044800  0.41952500  0.58390700  1
  O  O55  1  0.91952500  0.13955200  0.08390700  1
  O  O56  1  0.13955200  0.91952500  0.91609300  1
  O  O57  1  0.41952500  0.36044800  0.41609300  1
  O  O58  1  0.36022000  0.41991700  0.91612000  1
  O  O59  1  0.91991700  0.13978000  0.41612000  1
  O  O60  1  0.86044800  0.08047500  0.91609300  1
  O  O61  1  0.58047500  0.63955200  0.41609300  1
  O  O62  1  0.63978000  0.58008300  0.91612000  1
  O  O63  1  0.08008300  0.86022000  0.41612000  1
  O  O64  1  0.86022000  0.08008300  0.58388000  1
  O  O65  1  0.58008300  0.63978000  0.08388000  1
  O  O66  1  0.63955200  0.58047500  0.58390700  1
  O  O67  1  0.08047500  0.86044800  0.08390700  1
  O  O68  1  0.40903100  0.36475900  0.24971900  1
  O  O69  1  0.86475900  0.09096900  0.74971900  1
  O  O70  1  0.09096900  0.86475900  0.25028100  1
  O  O71  1  0.36475900  0.40903100  0.75028100  1
  O  O72  1  0.59096900  0.63524100  0.24971900  1
  O  O73  1  0.13524100  0.90903100  0.74971900  1
  O  O74  1  0.90903100  0.13524100  0.25028100  1
  O  O75  1  0.63524100  0.59096900  0.75028100  1
  O  O76  1  0.17195500  0.17195500  0.00000000  1
  O  O77  1  0.67195500  0.32804500  0.50000000  1
  O  O78  1  0.32830400  0.67169600  0.00000000  1
  O  O79  1  0.17169600  0.17169600  0.50000000  1
  O  O80  1  0.67169600  0.32830400  0.00000000  1
  O  O81  1  0.32804500  0.67195500  0.50000000  1
  O  O82  1  0.82830400  0.82830400  0.50000000  1
  O  O83  1  0.82804500  0.82804500  0.00000000  1
  O  O84  1  0.00000000  0.50000000  0.24981400  1
  O  O85  1  0.00000000  0.50000000  0.74981400  1
  O  O86  1  0.50000000  0.00000000  0.25018600  1
  O  O87  1  0.50000000  0.00000000  0.75018600  1
  F  F88  1  0.00000000  0.50000000  0.50387800  1
  F  F89  1  0.00000000  0.50000000  0.00387800  1
  F  F90  1  0.50000000  0.00000000  0.99612200  1
  F  F91  1  0.50000000  0.00000000  0.49612200  1
