# generated using pymatgen
data_Dy4Co3
_symmetry_space_group_name_H-M   'P 1'
_cell_length_a   11.38536224
_cell_length_b   11.38536224
_cell_length_c   3.96585600
_cell_angle_alpha   90.00000000
_cell_angle_beta   90.00000000
_cell_angle_gamma   120.00000139
_symmetry_Int_Tables_number   1
_chemical_formula_structural   Dy4Co3
_chemical_formula_sum   'Dy12 Co9'
_cell_volume   445.20627012
_cell_formula_units_Z   3
loop_
 _symmetry_equiv_pos_site_id
 _symmetry_equiv_pos_as_xyz
  1  'x, y, z'
loop_
 _atom_site_type_symbol
 _atom_site_label
 _atom_site_symmetry_multiplicity
 _atom_site_fract_x
 _atom_site_fract_y
 _atom_site_fract_z
 _atom_site_occupancy
  Dy  Dy0  1  0.62091200  0.48492200  0.74993900  1
  Dy  Dy1  1  0.51507800  0.13599000  0.74993900  1
  Dy  Dy2  1  0.86401000  0.37908800  0.74993900  1
  Dy  Dy3  1  0.37908800  0.51507800  0.25006100  1
  Dy  Dy4  1  0.48492200  0.86401000  0.25006100  1
  Dy  Dy5  1  0.13599000  0.62091200  0.25006100  1
  Dy  Dy6  1  0.77497000  0.02113700  0.74996300  1
  Dy  Dy7  1  0.97886300  0.75383300  0.74996300  1
  Dy  Dy8  1  0.24616700  0.22503000  0.74996300  1
  Dy  Dy9  1  0.22503000  0.97886300  0.25003700  1
  Dy  Dy10  1  0.02113700  0.24616700  0.25003700  1
  Dy  Dy11  1  0.75383300  0.77497000  0.25003700  1
  Co  Co12  1  0.33333300  0.66666700  0.74995000  1
  Co  Co13  1  0.66666700  0.33333300  0.25005000  1
  Co  Co14  1  0.28382900  0.84302100  0.74991600  1
  Co  Co15  1  0.15697900  0.44080800  0.74991600  1
  Co  Co16  1  0.55919200  0.71617100  0.74991600  1
  Co  Co17  1  0.71617100  0.15697900  0.25008400  1
  Co  Co18  1  0.84302100  0.55919200  0.25008400  1
  Co  Co19  1  0.44080800  0.28382900  0.25008400  1
  Co  Co20  1  0.00000000  0.00000000  0.50000000  1
