# generated using pymatgen
data_Dy4FeSe7
_symmetry_space_group_name_H-M   'P 1'
_cell_length_a   6.80826129
_cell_length_b   6.80826129
_cell_length_c   11.94160676
_cell_angle_alpha   76.42626024
_cell_angle_beta   76.42626024
_cell_angle_gamma   33.74053866
_symmetry_Int_Tables_number   1
_chemical_formula_structural   Dy4FeSe7
_chemical_formula_sum   'Dy4 Fe1 Se7'
_cell_volume   298.05507328
_cell_formula_units_Z   1
loop_
 _symmetry_equiv_pos_site_id
 _symmetry_equiv_pos_as_xyz
  1  'x, y, z'
loop_
 _atom_site_type_symbol
 _atom_site_label
 _atom_site_symmetry_multiplicity
 _atom_site_fract_x
 _atom_site_fract_y
 _atom_site_fract_z
 _atom_site_occupancy
  Dy  Dy0  1  0.69402400  0.69402400  0.20569900  1
  Dy  Dy1  1  0.30544800  0.30544800  0.80118900  1
  Dy  Dy2  1  0.99978200  0.99978200  0.00603000  1
  Dy  Dy3  1  0.11283700  0.11283700  0.56449800  1
  Fe  Fe4  1  0.88875400  0.88875400  0.42444500  1
  Se  Se5  1  0.74695500  0.74695500  0.63764700  1
  Se  Se6  1  0.27046600  0.27046600  0.35357900  1
  Se  Se7  1  0.33744000  0.33744000  0.05091800  1
  Se  Se8  1  0.66069500  0.66069500  0.94883200  1
  Se  Se9  1  0.03000900  0.03000900  0.22853600  1
  Se  Se10  1  0.96454900  0.96454900  0.78396300  1
  Se  Se11  1  0.48904200  0.48904200  0.49466400  1
