# generated using pymatgen
data_FeH8S2NO10
_symmetry_space_group_name_H-M   'P 1'
_cell_length_a   4.58784365
_cell_length_b   5.79267520
_cell_length_c   8.70821212
_cell_angle_alpha   100.77346629
_cell_angle_beta   98.51339063
_cell_angle_gamma   97.38950656
_symmetry_Int_Tables_number   1
_chemical_formula_structural   FeH8S2NO10
_chemical_formula_sum   'Fe1 H8 S2 N1 O10'
_cell_volume   221.91598444
_cell_formula_units_Z   1
loop_
 _symmetry_equiv_pos_site_id
 _symmetry_equiv_pos_as_xyz
  1  'x, y, z'
loop_
 _atom_site_type_symbol
 _atom_site_label
 _atom_site_symmetry_multiplicity
 _atom_site_fract_x
 _atom_site_fract_y
 _atom_site_fract_z
 _atom_site_occupancy
  Fe  Fe0  1  0.99971300  0.99799900  0.00128700  1
  H  H1  1  0.95398700  0.34389000  0.83812500  1
  H  H2  1  0.04348900  0.65445200  0.16532300  1
  H  H3  1  0.62721400  0.27692000  0.88204400  1
  H  H4  1  0.37361800  0.72218400  0.12316200  1
  H  H5  1  0.15382700  0.89393900  0.50971100  1
  H  H6  1  0.08012500  0.16650900  0.57756500  1
  H  H7  1  0.92204500  0.02163200  0.39233300  1
  H  H8  1  0.81328100  0.92384100  0.55110300  1
  S  S9  1  0.60175400  0.29937100  0.22737100  1
  S  S10  1  0.39368100  0.70106300  0.76944400  1
  N  N11  1  0.99088500  0.00102400  0.50673500  1
  O  O12  1  0.81377500  0.21761900  0.86690500  1
  O  O13  1  0.18424800  0.77898700  0.13395300  1
  O  O14  1  0.78969100  0.10479500  0.18277700  1
  O  O15  1  0.20738200  0.88927600  0.82031600  1
  O  O16  1  0.77381200  0.53612100  0.23496300  1
  O  O17  1  0.22410300  0.46029400  0.75339300  1
  O  O18  1  0.50155200  0.27082100  0.37313600  1
  O  O19  1  0.48726200  0.74064500  0.62185900  1
  O  O20  1  0.34391100  0.26326900  0.08829700  1
  O  O21  1  0.65664500  0.72935000  0.90319900  1
