# generated using pymatgen
data_H13Se2N3O8
_symmetry_space_group_name_H-M   'P 1'
_cell_length_a   6.10984500
_cell_length_b   8.72096419
_cell_length_c   10.64784144
_cell_angle_alpha   101.70578161
_cell_angle_beta   90.20234664
_cell_angle_gamma   110.37121222
_symmetry_Int_Tables_number   1
_chemical_formula_structural   H13Se2N3O8
_chemical_formula_sum   'H26 Se4 N6 O16'
_cell_volume   519.10871078
_cell_formula_units_Z   2
loop_
 _symmetry_equiv_pos_site_id
 _symmetry_equiv_pos_as_xyz
  1  'x, y, z'
loop_
 _atom_site_type_symbol
 _atom_site_label
 _atom_site_symmetry_multiplicity
 _atom_site_fract_x
 _atom_site_fract_y
 _atom_site_fract_z
 _atom_site_occupancy
  H  H0  1  0.02691100  0.47508700  0.32117400  1
  H  H1  1  0.97659500  0.52940300  0.67984100  1
  H  H2  1  0.37269700  0.36230800  0.22741400  1
  H  H3  1  0.62829600  0.64191400  0.77254800  1
  H  H4  1  0.87568200  0.06223700  0.20794500  1
  H  H5  1  0.12066900  0.92045400  0.78417100  1
  H  H6  1  0.54505700  0.53468600  0.17892000  1
  H  H7  1  0.46090300  0.46896200  0.82200000  1
  H  H8  1  0.91738600  0.63168400  0.36481600  1
  H  H9  1  0.08352400  0.37131800  0.63586900  1
  H  H10  1  0.69334500  0.07376500  0.32369900  1
  H  H11  1  0.31493300  0.92128700  0.67381100  1
  H  H12  1  0.14561300  0.65508900  0.26899300  1
  H  H13  1  0.85557400  0.34882200  0.73056500  1
  H  H14  1  0.34837500  0.37638400  0.06999300  1
  H  H15  1  0.65507700  0.62811700  0.93089900  1
  H  H16  1  0.59305000  0.35480200  0.13074000  1
  H  H17  1  0.40624100  0.64659600  0.87002700  1
  H  H18  1  0.78896200  0.90958900  0.29164500  1
  H  H19  1  0.19882200  0.07626400  0.70371400  1
  H  H20  1  0.18911400  0.65333700  0.42652300  1
  H  H21  1  0.81531600  0.35196500  0.57347600  1
  H  H22  1  0.59235300  0.92090300  0.18814800  1
  H  H23  1  0.39413800  0.07165600  0.81196600  1
  H  H24  1  0.03185200  0.99953300  0.48753900  1
  H  H25  1  0.97248900  0.99974400  0.98763400  1
  Se  Se26  1  0.11653300  0.77915200  0.03904000  1
  Se  Se27  1  0.88469800  0.22795200  0.95990700  1
  Se  Se28  1  0.34049300  0.22776300  0.45738300  1
  Se  Se29  1  0.66889900  0.78075400  0.54169300  1
  N  N30  1  0.06942900  0.60290300  0.34540000  1
  N  N31  1  0.93325800  0.40136900  0.65495600  1
  N  N32  1  0.46368100  0.40685600  0.15177600  1
  N  N33  1  0.53883600  0.59687200  0.84893300  1
  N  N34  1  0.73958200  0.99246600  0.25253500  1
  N  N35  1  0.25603200  0.99769300  0.74380300  1
  O  O36  1  0.84269300  0.67971700  0.07200000  1
  O  O37  1  0.15861400  0.31819400  0.92595400  1
  O  O38  1  0.15703200  0.70818900  0.88606200  1
  O  O39  1  0.84543400  0.28876500  0.11355100  1
  O  O40  1  0.20729200  0.29990300  0.35981300  1
  O  O41  1  0.78811800  0.70080800  0.64128400  1
  O  O42  1  0.61250000  0.24782900  0.42281200  1
  O  O43  1  0.39239000  0.75891000  0.57284000  1
  O  O44  1  0.30817800  0.75816100  0.14104200  1
  O  O45  1  0.69126100  0.24618200  0.85908800  1
  O  O46  1  0.15708500  0.98587000  0.05829400  1
  O  O47  1  0.83097400  0.01295800  0.93298600  1
  O  O48  1  0.18546100  0.01247600  0.43365500  1
  O  O49  1  0.83304800  0.98682100  0.55948600  1
  O  O50  1  0.32567800  0.30563700  0.61205100  1
  O  O51  1  0.67582600  0.68989400  0.38758600  1
