# generated using pymatgen
data_ErMnFeO4
_symmetry_space_group_name_H-M   'P 1'
_cell_length_a   8.33182126
_cell_length_b   8.33182126
_cell_length_c   8.33182114
_cell_angle_alpha   24.67936132
_cell_angle_beta   24.67936132
_cell_angle_gamma   24.67935439
_symmetry_Int_Tables_number   1
_chemical_formula_structural   ErMnFeO4
_chemical_formula_sum   'Er1 Mn1 Fe1 O4'
_cell_volume   88.67579782
_cell_formula_units_Z   1
loop_
 _symmetry_equiv_pos_site_id
 _symmetry_equiv_pos_as_xyz
  1  'x, y, z'
loop_
 _atom_site_type_symbol
 _atom_site_label
 _atom_site_symmetry_multiplicity
 _atom_site_fract_x
 _atom_site_fract_y
 _atom_site_fract_z
 _atom_site_occupancy
  Er  Er0  1  0.00110100  0.00110100  0.00110100  1
  Mn  Mn1  1  0.21000400  0.21000400  0.21000400  1
  Fe  Fe2  1  0.78703100  0.78703100  0.78703100  1
  O  O3  1  0.70566500  0.70566500  0.70566500  1
  O  O4  1  0.28932500  0.28932500  0.28932500  1
  O  O5  1  0.87203600  0.87203600  0.87203600  1
  O  O6  1  0.12963800  0.12963800  0.12963800  1
