# generated using pymatgen
data_ErAgS2
_symmetry_space_group_name_H-M   'P 1'
_cell_length_a   6.60236412
_cell_length_b   6.60236412
_cell_length_c   6.60236374
_cell_angle_alpha   35.16432798
_cell_angle_beta   35.16432798
_cell_angle_gamma   35.16432922
_symmetry_Int_Tables_number   1
_chemical_formula_structural   ErAgS2
_chemical_formula_sum   'Er1 Ag1 S2'
_cell_volume   85.25965162
_cell_formula_units_Z   1
loop_
 _symmetry_equiv_pos_site_id
 _symmetry_equiv_pos_as_xyz
  1  'x, y, z'
loop_
 _atom_site_type_symbol
 _atom_site_label
 _atom_site_symmetry_multiplicity
 _atom_site_fract_x
 _atom_site_fract_y
 _atom_site_fract_z
 _atom_site_occupancy
  Er  Er0  1  0.50000000  0.50000000  0.50000000  1
  Ag  Ag1  1  0.00000000  0.00000000  0.00000000  1
  S  S2  1  0.24604600  0.24604600  0.24604600  1
  S  S3  1  0.75395400  0.75395400  0.75395400  1
