# generated using pymatgen
data_DyMnAl
_symmetry_space_group_name_H-M   'P 1'
_cell_length_a   5.41546924
_cell_length_b   5.41546924
_cell_length_c   5.41546924
_cell_angle_alpha   119.50584155
_cell_angle_beta   118.84083209
_cell_angle_gamma   91.43882822
_symmetry_Int_Tables_number   1
_chemical_formula_structural   DyMnAl
_chemical_formula_sum   'Dy2 Mn2 Al2'
_cell_volume   113.66330171
_cell_formula_units_Z   2
loop_
 _symmetry_equiv_pos_site_id
 _symmetry_equiv_pos_as_xyz
  1  'x, y, z'
loop_
 _atom_site_type_symbol
 _atom_site_label
 _atom_site_symmetry_multiplicity
 _atom_site_fract_x
 _atom_site_fract_y
 _atom_site_fract_z
 _atom_site_occupancy
  Dy  Dy0  1  0.12970100  0.87970100  0.25000000  1
  Dy  Dy1  1  0.87029900  0.12029900  0.75000000  1
  Mn  Mn2  1  0.50000000  0.00000000  0.00000000  1
  Mn  Mn3  1  0.50000000  0.50000000  0.50000000  1
  Al  Al4  1  0.00000000  0.50000000  0.50000000  1
  Al  Al5  1  0.50000000  0.50000000  0.00000000  1
