# generated using pymatgen
data_ErGaAg
_symmetry_space_group_name_H-M   'P 1'
_cell_length_a   5.69908267
_cell_length_b   5.69908267
_cell_length_c   7.09211372
_cell_angle_alpha   52.21713752
_cell_angle_beta   52.21713752
_cell_angle_gamma   47.00147106
_symmetry_Int_Tables_number   1
_chemical_formula_structural   ErGaAg
_chemical_formula_sum   'Er2 Ga2 Ag2'
_cell_volume   125.35624629
_cell_formula_units_Z   2
loop_
 _symmetry_equiv_pos_site_id
 _symmetry_equiv_pos_as_xyz
  1  'x, y, z'
loop_
 _atom_site_type_symbol
 _atom_site_label
 _atom_site_symmetry_multiplicity
 _atom_site_fract_x
 _atom_site_fract_y
 _atom_site_fract_z
 _atom_site_occupancy
  Er  Er0  1  0.53701500  0.53701500  0.70989500  1
  Er  Er1  1  0.46298500  0.46298500  0.29010500  1
  Ga  Ga2  1  0.83970900  0.83970900  0.11498000  1
  Ga  Ga3  1  0.16029100  0.16029100  0.88502000  1
  Ag  Ag4  1  0.17206900  0.17206900  0.27862500  1
  Ag  Ag5  1  0.82793100  0.82793100  0.72137500  1
