# generated using pymatgen
data_ErCuNi
_symmetry_space_group_name_H-M   'P 1'
_cell_length_a   5.12158130
_cell_length_b   5.12158130
_cell_length_c   5.12158130
_cell_angle_alpha   120.64965158
_cell_angle_beta   118.82960499
_cell_angle_gamma   90.45874179
_symmetry_Int_Tables_number   1
_chemical_formula_structural   ErCuNi
_chemical_formula_sum   'Er2 Cu2 Ni2'
_cell_volume   95.33498991
_cell_formula_units_Z   2
loop_
 _symmetry_equiv_pos_site_id
 _symmetry_equiv_pos_as_xyz
  1  'x, y, z'
loop_
 _atom_site_type_symbol
 _atom_site_label
 _atom_site_symmetry_multiplicity
 _atom_site_fract_x
 _atom_site_fract_y
 _atom_site_fract_z
 _atom_site_occupancy
  Er  Er0  1  0.37720600  0.12720600  0.25000000  1
  Er  Er1  1  0.62279400  0.87279400  0.75000000  1
  Cu  Cu2  1  0.00000000  0.50000000  0.00000000  1
  Cu  Cu3  1  0.00000000  0.00000000  0.50000000  1
  Ni  Ni4  1  0.50000000  0.50000000  0.00000000  1
  Ni  Ni5  1  0.00000000  0.50000000  0.50000000  1
