# generated using pymatgen
data_DyUN2
_symmetry_space_group_name_H-M   'P 1'
_cell_length_a   5.97897861
_cell_length_b   5.97897861
_cell_length_c   5.97897890
_cell_angle_alpha   33.41001500
_cell_angle_beta   33.41001500
_cell_angle_gamma   33.41001695
_symmetry_Int_Tables_number   1
_chemical_formula_structural   DyUN2
_chemical_formula_sum   'Dy1 U1 N2'
_cell_volume   57.70765803
_cell_formula_units_Z   1
loop_
 _symmetry_equiv_pos_site_id
 _symmetry_equiv_pos_as_xyz
  1  'x, y, z'
loop_
 _atom_site_type_symbol
 _atom_site_label
 _atom_site_symmetry_multiplicity
 _atom_site_fract_x
 _atom_site_fract_y
 _atom_site_fract_z
 _atom_site_occupancy
  Dy  Dy0  1  0.50000000  0.50000000  0.50000000  1
  U  U1  1  0.00000000  0.00000000  0.00000000  1
  N  N2  1  0.25539300  0.25539300  0.25539300  1
  N  N3  1  0.74460700  0.74460700  0.74460700  1
