# generated using pymatgen
data_ErFeNi4
_symmetry_space_group_name_H-M   'P 1'
_cell_length_a   4.88855901
_cell_length_b   4.88855901
_cell_length_c   3.91249700
_cell_angle_alpha   90.00000000
_cell_angle_beta   90.00000000
_cell_angle_gamma   119.99998655
_symmetry_Int_Tables_number   1
_chemical_formula_structural   ErFeNi4
_chemical_formula_sum   'Er1 Fe1 Ni4'
_cell_volume   80.97415623
_cell_formula_units_Z   1
loop_
 _symmetry_equiv_pos_site_id
 _symmetry_equiv_pos_as_xyz
  1  'x, y, z'
loop_
 _atom_site_type_symbol
 _atom_site_label
 _atom_site_symmetry_multiplicity
 _atom_site_fract_x
 _atom_site_fract_y
 _atom_site_fract_z
 _atom_site_occupancy
  Er  Er0  1  0.66666700  0.33333300  0.00000000  1
  Fe  Fe1  1  0.33333300  0.66666700  0.00000000  1
  Ni  Ni2  1  0.00000000  0.00000000  0.00000000  1
  Ni  Ni3  1  0.16648000  0.83352000  0.50000000  1
  Ni  Ni4  1  0.16648000  0.33295900  0.50000000  1
  Ni  Ni5  1  0.66704100  0.83352000  0.50000000  1
