# generated using pymatgen
data_Er4MnS7
_symmetry_space_group_name_H-M   'P 1'
_cell_length_a   6.52459612
_cell_length_b   6.52459612
_cell_length_c   11.41289726
_cell_angle_alpha   76.20906292
_cell_angle_beta   76.20906292
_cell_angle_gamma   33.63759765
_symmetry_Int_Tables_number   1
_chemical_formula_structural   Er4MnS7
_chemical_formula_sum   'Er4 Mn1 S7'
_cell_volume   260.65243918
_cell_formula_units_Z   1
loop_
 _symmetry_equiv_pos_site_id
 _symmetry_equiv_pos_as_xyz
  1  'x, y, z'
loop_
 _atom_site_type_symbol
 _atom_site_label
 _atom_site_symmetry_multiplicity
 _atom_site_fract_x
 _atom_site_fract_y
 _atom_site_fract_z
 _atom_site_occupancy
  Er  Er0  1  0.69462800  0.69462800  0.20072400  1
  Er  Er1  1  0.30477000  0.30477000  0.80398100  1
  Er  Er2  1  0.11393100  0.11393100  0.56893100  1
  Er  Er3  1  0.00006200  0.00006200  0.00404300  1
  Mn  Mn4  1  0.88668200  0.88668200  0.42105900  1
  S  S5  1  0.03635700  0.03635700  0.22274500  1
  S  S6  1  0.96097800  0.96097800  0.78437300  1
  S  S7  1  0.33999300  0.33999300  0.05040700  1
  S  S8  1  0.65955300  0.65955300  0.94885200  1
  S  S9  1  0.74264100  0.74264100  0.64333400  1
  S  S10  1  0.26608500  0.26608500  0.35411300  1
  S  S11  1  0.49432100  0.49432100  0.49743700  1
