# generated using pymatgen
data_Er3ScS6
_symmetry_space_group_name_H-M   'P 1'
_cell_length_a   3.85776000
_cell_length_b   10.77597200
_cell_length_c   11.11365114
_cell_angle_alpha   71.42517509
_cell_angle_beta   90.00000000
_cell_angle_gamma   90.00000000
_symmetry_Int_Tables_number   1
_chemical_formula_structural   Er3ScS6
_chemical_formula_sum   'Er6 Sc2 S12'
_cell_volume   437.94020965
_cell_formula_units_Z   2
loop_
 _symmetry_equiv_pos_site_id
 _symmetry_equiv_pos_as_xyz
  1  'x, y, z'
loop_
 _atom_site_type_symbol
 _atom_site_label
 _atom_site_symmetry_multiplicity
 _atom_site_fract_x
 _atom_site_fract_y
 _atom_site_fract_z
 _atom_site_occupancy
  Er  Er0  1  0.25000000  0.81635500  0.00622200  1
  Er  Er1  1  0.75000000  0.18364500  0.99377800  1
  Er  Er2  1  0.25000000  0.45274500  0.19618000  1
  Er  Er3  1  0.75000000  0.54725500  0.80382000  1
  Er  Er4  1  0.25000000  0.06144700  0.33389600  1
  Er  Er5  1  0.75000000  0.93855300  0.66610400  1
  Sc  Sc6  1  0.25000000  0.34487300  0.58347200  1
  Sc  Sc7  1  0.75000000  0.65512700  0.41652800  1
  S  S8  1  0.25000000  0.11260300  0.55961700  1
  S  S9  1  0.75000000  0.88739700  0.44038300  1
  S  S10  1  0.25000000  0.75643200  0.77417000  1
  S  S11  1  0.75000000  0.24356800  0.22583000  1
  S  S12  1  0.25000000  0.02002300  0.11348400  1
  S  S13  1  0.75000000  0.97997700  0.88651600  1
  S  S14  1  0.25000000  0.69055600  0.25955900  1
  S  S15  1  0.75000000  0.30944400  0.74044100  1
  S  S16  1  0.25000000  0.38927200  0.96094100  1
  S  S17  1  0.75000000  0.61072800  0.03905900  1
  S  S18  1  0.25000000  0.57956100  0.59226500  1
  S  S19  1  0.75000000  0.42043900  0.40773500  1
