# generated using pymatgen
data_DyGaAg
_symmetry_space_group_name_H-M   'P 1'
_cell_length_a   5.72439118
_cell_length_b   5.72439118
_cell_length_c   7.20427818
_cell_angle_alpha   52.01086620
_cell_angle_beta   52.01086620
_cell_angle_gamma   47.26334842
_symmetry_Int_Tables_number   1
_chemical_formula_structural   DyGaAg
_chemical_formula_sum   'Dy2 Ga2 Ag2'
_cell_volume   128.42892123
_cell_formula_units_Z   2
loop_
 _symmetry_equiv_pos_site_id
 _symmetry_equiv_pos_as_xyz
  1  'x, y, z'
loop_
 _atom_site_type_symbol
 _atom_site_label
 _atom_site_symmetry_multiplicity
 _atom_site_fract_x
 _atom_site_fract_y
 _atom_site_fract_z
 _atom_site_occupancy
  Dy  Dy0  1  0.53553800  0.53553800  0.70916500  1
  Dy  Dy1  1  0.46446200  0.46446200  0.29083500  1
  Ga  Ga2  1  0.84039600  0.84039600  0.11530200  1
  Ga  Ga3  1  0.15960400  0.15960400  0.88469800  1
  Ag  Ag4  1  0.17330300  0.17330300  0.27786700  1
  Ag  Ag5  1  0.82669700  0.82669700  0.72213300  1
