# generated using pymatgen
data_Fe4Co(BiO3)5
_symmetry_space_group_name_H-M   'P 1'
_cell_length_a   5.60431200
_cell_length_b   9.85545295
_cell_length_c   12.52785114
_cell_angle_alpha   98.16978014
_cell_angle_beta   102.74796207
_cell_angle_gamma   106.23672260
_symmetry_Int_Tables_number   1
_chemical_formula_structural   Fe4Co(BiO3)5
_chemical_formula_sum   'Fe8 Co2 Bi10 O30'
_cell_volume   632.44422671
_cell_formula_units_Z   2
loop_
 _symmetry_equiv_pos_site_id
 _symmetry_equiv_pos_as_xyz
  1  'x, y, z'
loop_
 _atom_site_type_symbol
 _atom_site_label
 _atom_site_symmetry_multiplicity
 _atom_site_fract_x
 _atom_site_fract_y
 _atom_site_fract_z
 _atom_site_occupancy
  Fe  Fe0  1  0.36740200  0.18917300  0.54371400  1
  Fe  Fe1  1  0.76332300  0.78760700  0.74400800  1
  Fe  Fe2  1  0.16513500  0.38860900  0.94544400  1
  Fe  Fe3  1  0.66281100  0.88623800  0.44251400  1
  Fe  Fe4  1  0.06361500  0.48914500  0.64261100  1
  Fe  Fe5  1  0.46595400  0.08785600  0.84526500  1
  Fe  Fe6  1  0.86623000  0.68847600  0.04642800  1
  Fe  Fe7  1  0.27099500  0.29041000  0.24484900  1
  Co  Co8  1  0.56805600  0.99579000  0.14486800  1
  Co  Co9  1  0.97148100  0.59934200  0.34265300  1
  Bi  Bi10  1  0.09486600  0.90012000  0.29688500  1
  Bi  Bi11  1  0.49955800  0.50246900  0.49681000  1
  Bi  Bi12  1  0.90073700  0.09917200  0.69995900  1
  Bi  Bi13  1  0.29913400  0.70183100  0.90304900  1
  Bi  Bi14  1  0.70869900  0.30291800  0.10404000  1
  Bi  Bi15  1  0.00155000  0.00056700  0.00406400  1
  Bi  Bi16  1  0.40132000  0.60098700  0.20315900  1
  Bi  Bi17  1  0.80127400  0.19955200  0.39942900  1
  Bi  Bi18  1  0.19734300  0.79757000  0.59607100  1
  Bi  Bi19  1  0.59944200  0.39999300  0.79939700  1
  O  O20  1  0.39223000  0.67637400  0.71584500  1
  O  O21  1  0.79453000  0.27757100  0.91993000  1
  O  O22  1  0.18775900  0.87444400  0.11767400  1
  O  O23  1  0.60961100  0.47739500  0.31835800  1
  O  O24  1  0.99692900  0.07213700  0.51523300  1
  O  O25  1  0.90259500  0.76468200  0.89871100  1
  O  O26  1  0.30827500  0.36576700  0.10042400  1
  O  O27  1  0.70410300  0.96235300  0.29421500  1
  O  O28  1  0.10585100  0.56755000  0.49278200  1
  O  O29  1  0.50970700  0.16689200  0.69825700  1
  O  O30  1  0.67369500  0.84731500  0.06201800  1
  O  O31  1  0.08052900  0.45099400  0.26093600  1
  O  O32  1  0.47805100  0.04432900  0.45490400  1
  O  O33  1  0.87400800  0.64548400  0.65485700  1
  O  O34  1  0.27704500  0.24564300  0.85769400  1
  O  O35  1  0.05487200  0.46758700  0.79817200  1
  O  O36  1  0.46142400  0.06460100  0.00085700  1
  O  O37  1  0.86106600  0.66156500  0.20130500  1
  O  O38  1  0.26053100  0.26642700  0.39737200  1
  O  O39  1  0.65598000  0.86567900  0.59678700  1
  O  O40  1  0.09797400  0.57627200  0.01932600  1
  O  O41  1  0.49802900  0.17010900  0.21744500  1
  O  O42  1  0.89068400  0.76817100  0.41442000  1
  O  O43  1  0.29644900  0.37642600  0.61638700  1
  O  O44  1  0.69910000  0.97716900  0.81766400  1
  O  O45  1  0.52601600  0.54660600  0.95861400  1
  O  O46  1  0.93464200  0.14928300  0.15849200  1
  O  O47  1  0.31730600  0.74096400  0.35880200  1
  O  O48  1  0.72659500  0.34483100  0.55548300  1
  O  O49  1  0.12749000  0.94555400  0.75781600  1
