# generated using pymatgen
data_DyCrS3
_symmetry_space_group_name_H-M   'P 1'
_cell_length_a   3.70122000
_cell_length_b   12.99148800
_cell_length_c   16.20422000
_cell_angle_alpha   90.00000000
_cell_angle_beta   90.00000000
_cell_angle_gamma   90.00000000
_symmetry_Int_Tables_number   1
_chemical_formula_structural   DyCrS3
_chemical_formula_sum   'Dy8 Cr8 S24'
_cell_volume   779.16947047
_cell_formula_units_Z   8
loop_
 _symmetry_equiv_pos_site_id
 _symmetry_equiv_pos_as_xyz
  1  'x, y, z'
loop_
 _atom_site_type_symbol
 _atom_site_label
 _atom_site_symmetry_multiplicity
 _atom_site_fract_x
 _atom_site_fract_y
 _atom_site_fract_z
 _atom_site_occupancy
  Dy  Dy0  1  0.50000000  0.25841200  0.89431200  1
  Dy  Dy1  1  0.50000000  0.74158800  0.10568800  1
  Dy  Dy2  1  0.00000000  0.24158800  0.39431200  1
  Dy  Dy3  1  0.00000000  0.75841200  0.60568800  1
  Dy  Dy4  1  0.50000000  0.67052200  0.84627600  1
  Dy  Dy5  1  0.50000000  0.32947800  0.15372400  1
  Dy  Dy6  1  0.00000000  0.82947800  0.34627600  1
  Dy  Dy7  1  0.00000000  0.17052200  0.65372400  1
  Cr  Cr8  1  0.50000000  0.00000000  0.00000000  1
  Cr  Cr9  1  0.00000000  0.50000000  0.50000000  1
  Cr  Cr10  1  0.50000000  0.00000000  0.50000000  1
  Cr  Cr11  1  0.00000000  0.50000000  0.00000000  1
  Cr  Cr12  1  0.50000000  0.52146200  0.31637100  1
  Cr  Cr13  1  0.50000000  0.47853800  0.68362900  1
  Cr  Cr14  1  0.00000000  0.97853800  0.81637100  1
  Cr  Cr15  1  0.00000000  0.02146200  0.18362900  1
  S  S16  1  0.50000000  0.89081500  0.88404200  1
  S  S17  1  0.50000000  0.10918500  0.11595800  1
  S  S18  1  0.00000000  0.60918500  0.38404200  1
  S  S19  1  0.00000000  0.39081500  0.61595800  1
  S  S20  1  0.50000000  0.52710200  0.09517000  1
  S  S21  1  0.50000000  0.47289800  0.90483000  1
  S  S22  1  0.00000000  0.97289800  0.59517000  1
  S  S23  1  0.00000000  0.02710200  0.40483000  1
  S  S24  1  0.50000000  0.80338400  0.71408000  1
  S  S25  1  0.50000000  0.19661600  0.28592000  1
  S  S26  1  0.00000000  0.69661600  0.21408000  1
  S  S27  1  0.00000000  0.30338400  0.78592000  1
  S  S28  1  0.50000000  0.91570600  0.23681100  1
  S  S29  1  0.50000000  0.08429400  0.76318900  1
  S  S30  1  0.00000000  0.58429400  0.73681100  1
  S  S31  1  0.00000000  0.41570600  0.26318900  1
  S  S32  1  0.50000000  0.58668800  0.56880000  1
  S  S33  1  0.50000000  0.41331200  0.43120000  1
  S  S34  1  0.00000000  0.91331200  0.06880000  1
  S  S35  1  0.00000000  0.08668800  0.93120000  1
  S  S36  1  0.50000000  0.81545900  0.47150000  1
  S  S37  1  0.50000000  0.18454100  0.52850000  1
  S  S38  1  0.00000000  0.68454100  0.97150000  1
  S  S39  1  0.00000000  0.31545900  0.02850000  1
