# generated using pymatgen
data_Dy2Ti12(CuO4)9
_symmetry_space_group_name_H-M   'P 1'
_cell_length_a   10.52102978
_cell_length_b   10.52102978
_cell_length_c   6.46155200
_cell_angle_alpha   90.00000000
_cell_angle_beta   90.00000000
_cell_angle_gamma   119.99999862
_symmetry_Int_Tables_number   1
_chemical_formula_structural   Dy2Ti12(CuO4)9
_chemical_formula_sum   'Dy2 Ti12 Cu9 O36'
_cell_volume   619.41822766
_cell_formula_units_Z   1
loop_
 _symmetry_equiv_pos_site_id
 _symmetry_equiv_pos_as_xyz
  1  'x, y, z'
loop_
 _atom_site_type_symbol
 _atom_site_label
 _atom_site_symmetry_multiplicity
 _atom_site_fract_x
 _atom_site_fract_y
 _atom_site_fract_z
 _atom_site_occupancy
  Dy  Dy0  1  0.33333300  0.66666700  0.82885500  1
  Dy  Dy1  1  0.66666700  0.33333300  0.17114500  1
  Ti  Ti2  1  0.00000000  0.50000000  0.00000000  1
  Ti  Ti3  1  0.31917700  0.16095700  0.33676200  1
  Ti  Ti4  1  0.68082300  0.83904300  0.66323800  1
  Ti  Ti5  1  0.00000000  0.00000000  0.00000000  1
  Ti  Ti6  1  0.33333300  0.66666700  0.34105400  1
  Ti  Ti7  1  0.66666700  0.33333300  0.65894600  1
  Ti  Ti8  1  0.50000000  0.50000000  0.00000000  1
  Ti  Ti9  1  0.83904300  0.15822000  0.33676200  1
  Ti  Ti10  1  0.16095700  0.84178000  0.66323800  1
  Ti  Ti11  1  0.15822000  0.31917700  0.66323800  1
  Ti  Ti12  1  0.50000000  0.00000000  0.00000000  1
  Ti  Ti13  1  0.84178000  0.68082300  0.33676200  1
  Cu  Cu14  1  0.33687700  0.16837100  0.83840600  1
  Cu  Cu15  1  0.66312300  0.83162900  0.16159400  1
  Cu  Cu16  1  0.00000000  0.50000000  0.50000000  1
  Cu  Cu17  1  0.16850500  0.33687700  0.16159400  1
  Cu  Cu18  1  0.50000000  0.00000000  0.50000000  1
  Cu  Cu19  1  0.83149500  0.66312300  0.83840600  1
  Cu  Cu20  1  0.50000000  0.50000000  0.50000000  1
  Cu  Cu21  1  0.83162900  0.16850500  0.83840600  1
  Cu  Cu22  1  0.16837100  0.83149500  0.16159400  1
  O  O23  1  0.26980700  0.22522100  0.58867100  1
  O  O24  1  0.58881800  0.88160700  0.91311900  1
  O  O25  1  0.92337000  0.54905300  0.24915200  1
  O  O26  1  0.80704600  0.31669200  0.48244000  1
  O  O27  1  0.14828500  0.98338300  0.83042500  1
  O  O28  1  0.47291000  0.64963900  0.14574700  1
  O  O29  1  0.52709000  0.35036100  0.85425300  1
  O  O30  1  0.85171500  0.01661700  0.16957500  1
  O  O31  1  0.19295400  0.68330800  0.51756000  1
  O  O32  1  0.07663000  0.45094700  0.75084800  1
  O  O33  1  0.41118200  0.11839300  0.08688100  1
  O  O34  1  0.73019300  0.77477900  0.41132900  1
  O  O35  1  0.04458500  0.26980700  0.41132900  1
  O  O36  1  0.37431700  0.92337000  0.75084800  1
  O  O37  1  0.70721100  0.58881800  0.08688100  1
  O  O38  1  0.16490200  0.14828500  0.16957500  1
  O  O39  1  0.49035400  0.80704600  0.51756000  1
  O  O40  1  0.82327100  0.47291000  0.85425300  1
  O  O41  1  0.17672900  0.52709000  0.14574700  1
  O  O42  1  0.50964600  0.19295400  0.48244000  1
  O  O43  1  0.83509800  0.85171500  0.83042500  1
  O  O44  1  0.29278900  0.41118200  0.91311900  1
  O  O45  1  0.62568300  0.07663000  0.24915200  1
  O  O46  1  0.95541500  0.73019300  0.58867100  1
  O  O47  1  0.01661700  0.16490200  0.83042500  1
  O  O48  1  0.35036100  0.82327100  0.14574700  1
  O  O49  1  0.68330800  0.49035400  0.48244000  1
  O  O50  1  0.45094700  0.37431700  0.24915200  1
  O  O51  1  0.77477900  0.04458500  0.58867100  1
  O  O52  1  0.11839300  0.70721100  0.91311900  1
  O  O53  1  0.88160700  0.29278900  0.08688100  1
  O  O54  1  0.22522100  0.95541500  0.41132900  1
  O  O55  1  0.54905300  0.62568300  0.75084800  1
  O  O56  1  0.31669200  0.50964600  0.51756000  1
  O  O57  1  0.64963900  0.17672900  0.85425300  1
  O  O58  1  0.98338300  0.83509800  0.16957500  1
