# generated using pymatgen
data_Dy3VH3O8
_symmetry_space_group_name_H-M   'P 1'
_cell_length_a   5.60010151
_cell_length_b   6.03003203
_cell_length_c   10.47010100
_cell_angle_alpha   90.00000000
_cell_angle_beta   90.00000000
_cell_angle_gamma   105.94572821
_symmetry_Int_Tables_number   1
_chemical_formula_structural   Dy3VH3O8
_chemical_formula_sum   'Dy6 V2 H6 O16'
_cell_volume   339.95839846
_cell_formula_units_Z   2
loop_
 _symmetry_equiv_pos_site_id
 _symmetry_equiv_pos_as_xyz
  1  'x, y, z'
loop_
 _atom_site_type_symbol
 _atom_site_label
 _atom_site_symmetry_multiplicity
 _atom_site_fract_x
 _atom_site_fract_y
 _atom_site_fract_z
 _atom_site_occupancy
  Dy  Dy0  1  0.67693300  0.30581600  0.53142200  1
  Dy  Dy1  1  0.32306700  0.69418400  0.03142200  1
  Dy  Dy2  1  0.32181300  0.70136400  0.46058600  1
  Dy  Dy3  1  0.67818700  0.29863600  0.96058600  1
  Dy  Dy4  1  0.77580000  0.77996900  0.74750400  1
  Dy  Dy5  1  0.22420000  0.22003100  0.24750400  1
  V  V6  1  0.19033800  0.45673100  0.74604500  1
  V  V7  1  0.80966200  0.54326900  0.24604500  1
  H  H8  1  0.84477700  0.90776700  0.46265100  1
  H  H9  1  0.15522300  0.09223300  0.96265100  1
  H  H10  1  0.15821700  0.09915100  0.53595500  1
  H  H11  1  0.84178300  0.90084900  0.03595500  1
  H  H12  1  0.76828400  0.16537000  0.74321200  1
  H  H13  1  0.23171600  0.83463000  0.24321200  1
  O  O14  1  0.00234700  0.59174600  0.62141400  1
  O  O15  1  0.99765300  0.40825400  0.12141400  1
  O  O16  1  0.99540100  0.41139200  0.37226000  1
  O  O17  1  0.00459900  0.58860800  0.87226000  1
  O  O18  1  0.46215000  0.53970900  0.62572200  1
  O  O19  1  0.53785000  0.46029100  0.12572200  1
  O  O20  1  0.53658900  0.46611800  0.36645700  1
  O  O21  1  0.46341100  0.53388200  0.86645600  1
  O  O22  1  0.72761300  0.94090600  0.52396600  1
  O  O23  1  0.27238700  0.05909400  0.02396600  1
  O  O24  1  0.26825500  0.06539100  0.47059600  1
  O  O25  1  0.73174500  0.93460900  0.97059600  1
  O  O26  1  0.05919500  0.16107800  0.74526300  1
  O  O27  1  0.94080500  0.83892200  0.24526300  1
  O  O28  1  0.58427000  0.11866300  0.74704600  1
  O  O29  1  0.41573000  0.88133700  0.24704600  1
