# generated using pymatgen
data_Cu4IBr3
_symmetry_space_group_name_H-M   'P 1'
_cell_length_a   12.76059275
_cell_length_b   12.76059275
_cell_length_c   12.76059273
_cell_angle_alpha   17.49183434
_cell_angle_beta   17.49183434
_cell_angle_gamma   17.49183568
_symmetry_Int_Tables_number   1
_chemical_formula_structural   Cu4IBr3
_chemical_formula_sum   'Cu4 I1 Br3'
_cell_volume   163.83007281
_cell_formula_units_Z   1
loop_
 _symmetry_equiv_pos_site_id
 _symmetry_equiv_pos_as_xyz
  1  'x, y, z'
loop_
 _atom_site_type_symbol
 _atom_site_label
 _atom_site_symmetry_multiplicity
 _atom_site_fract_x
 _atom_site_fract_y
 _atom_site_fract_z
 _atom_site_occupancy
  Cu  Cu0  1  0.62513800  0.62513800  0.62513800  1
  Cu  Cu1  1  0.37486200  0.37486200  0.37486200  1
  Cu  Cu2  1  0.87599600  0.87599600  0.87599600  1
  Cu  Cu3  1  0.12400400  0.12400400  0.12400400  1
  I  I4  1  0.50000000  0.50000000  0.50000000  1
  Br  Br5  1  0.74814700  0.74814700  0.74814700  1
  Br  Br6  1  0.00000000  0.00000000  0.00000000  1
  Br  Br7  1  0.25185300  0.25185300  0.25185300  1
