# generated using pymatgen
data_Dy2Fe15Si2CN
_symmetry_space_group_name_H-M   'P 1'
_cell_length_a   6.45075500
_cell_length_b   6.46757084
_cell_length_c   6.47457429
_cell_angle_alpha   82.84190538
_cell_angle_beta   82.31335451
_cell_angle_gamma   82.68783856
_symmetry_Int_Tables_number   1
_chemical_formula_structural   Dy2Fe15Si2CN
_chemical_formula_sum   'Dy2 Fe15 Si2 C1 N1'
_cell_volume   263.92444277
_cell_formula_units_Z   1
loop_
 _symmetry_equiv_pos_site_id
 _symmetry_equiv_pos_as_xyz
  1  'x, y, z'
loop_
 _atom_site_type_symbol
 _atom_site_label
 _atom_site_symmetry_multiplicity
 _atom_site_fract_x
 _atom_site_fract_y
 _atom_site_fract_z
 _atom_site_occupancy
  Dy  Dy0  1  0.34034600  0.34287600  0.35021900  1
  Dy  Dy1  1  0.65965400  0.65712400  0.64978100  1
  Fe  Fe2  1  0.65390200  0.65786800  0.14742700  1
  Fe  Fe3  1  0.14881300  0.65808400  0.65437400  1
  Fe  Fe4  1  0.65572400  0.14569900  0.65742500  1
  Fe  Fe5  1  0.34609800  0.34213200  0.85257300  1
  Fe  Fe6  1  0.85118700  0.34191600  0.34562600  1
  Fe  Fe7  1  0.34427600  0.85430100  0.34257500  1
  Fe  Fe8  1  0.00000000  0.00000000  0.50000000  1
  Fe  Fe9  1  0.50000000  0.00000000  0.00000000  1
  Fe  Fe10  1  0.00000000  0.50000000  0.00000000  1
  Fe  Fe11  1  0.28409800  0.71729600  0.99779800  1
  Fe  Fe12  1  0.99844800  0.27988800  0.72112200  1
  Fe  Fe13  1  0.70705600  0.00124800  0.29210000  1
  Fe  Fe14  1  0.00155200  0.72011200  0.27887800  1
  Fe  Fe15  1  0.29294400  0.99875200  0.70790000  1
  Fe  Fe16  1  0.71590200  0.28270400  0.00220200  1
  Si  Si17  1  0.10132400  0.10097400  0.10062200  1
  Si  Si18  1  0.89867600  0.89902600  0.89937800  1
  C  C19  1  0.50000000  0.50000000  0.00000000  1
  N  N20  1  0.00000000  0.50000000  0.50000000  1
