# generated using pymatgen
data_Cu6SnGe
_symmetry_space_group_name_H-M   'P 1'
_cell_length_a   4.27350600
_cell_length_b   4.63837100
_cell_length_c   5.54169600
_cell_angle_alpha   90.00000000
_cell_angle_beta   90.00000000
_cell_angle_gamma   90.00000000
_symmetry_Int_Tables_number   1
_chemical_formula_structural   Cu6SnGe
_chemical_formula_sum   'Cu6 Sn1 Ge1'
_cell_volume   109.84808719
_cell_formula_units_Z   1
loop_
 _symmetry_equiv_pos_site_id
 _symmetry_equiv_pos_as_xyz
  1  'x, y, z'
loop_
 _atom_site_type_symbol
 _atom_site_label
 _atom_site_symmetry_multiplicity
 _atom_site_fract_x
 _atom_site_fract_y
 _atom_site_fract_z
 _atom_site_occupancy
  Cu  Cu0  1  0.50000000  0.84298900  0.73465400  1
  Cu  Cu1  1  0.00000000  0.16581600  0.26502200  1
  Cu  Cu2  1  0.00000000  0.16581600  0.73497800  1
  Cu  Cu3  1  0.50000000  0.84298900  0.26534600  1
  Cu  Cu4  1  0.00000000  0.66735500  0.50000000  1
  Cu  Cu5  1  0.50000000  0.30611800  0.00000000  1
  Sn  Sn6  1  0.00000000  0.67243500  0.00000000  1
  Ge  Ge7  1  0.50000000  0.33648300  0.50000000  1
