# generated using pymatgen
data_Er2Ge2S7
_symmetry_space_group_name_H-M   'P 1'
_cell_length_a   6.21267100
_cell_length_b   9.53692100
_cell_length_c   9.59525235
_cell_angle_alpha   61.83645161
_cell_angle_beta   90.00000000
_cell_angle_gamma   90.00000000
_symmetry_Int_Tables_number   1
_chemical_formula_structural   Er2Ge2S7
_chemical_formula_sum   'Er4 Ge4 S14'
_cell_volume   501.20621756
_cell_formula_units_Z   2
loop_
 _symmetry_equiv_pos_site_id
 _symmetry_equiv_pos_as_xyz
  1  'x, y, z'
loop_
 _atom_site_type_symbol
 _atom_site_label
 _atom_site_symmetry_multiplicity
 _atom_site_fract_x
 _atom_site_fract_y
 _atom_site_fract_z
 _atom_site_occupancy
  Er  Er0  1  0.17301700  0.14834600  0.60657600  1
  Er  Er1  1  0.17181900  0.60238000  0.22352400  1
  Er  Er2  1  0.67301700  0.85165400  0.39342400  1
  Er  Er3  1  0.67181900  0.39762000  0.77647600  1
  Ge  Ge4  1  0.48248400  0.99192800  0.00891600  1
  Ge  Ge5  1  0.98248400  0.00807200  0.99108400  1
  Ge  Ge6  1  0.10152500  0.66822600  0.66916500  1
  Ge  Ge7  1  0.60152500  0.33177400  0.33083500  1
  S  S8  1  0.27646900  0.22097600  0.86331900  1
  S  S9  1  0.24279300  0.86511200  0.90652200  1
  S  S10  1  0.28363900  0.88027400  0.23917400  1
  S  S11  1  0.77646900  0.77902400  0.13668100  1
  S  S12  1  0.74279300  0.13488800  0.09347800  1
  S  S13  1  0.78363900  0.11972600  0.76082600  1
  S  S14  1  0.47612700  0.08410000  0.44721700  1
  S  S15  1  0.43737300  0.42494600  0.48326000  1
  S  S16  1  0.46235600  0.48893200  0.09803800  1
  S  S17  1  0.97612700  0.91590000  0.55278300  1
  S  S18  1  0.93737300  0.57505400  0.51674000  1
  S  S19  1  0.96235600  0.51106800  0.90196200  1
  S  S20  1  0.46017700  0.67519200  0.67058400  1
  S  S21  1  0.96017700  0.32480800  0.32941600  1
