# generated using pymatgen
data_Dy6Ga19Pt3
_symmetry_space_group_name_H-M   'P 1'
_cell_length_a   8.10227986
_cell_length_b   8.10227986
_cell_length_c   15.62596792
_cell_angle_alpha   77.28472008
_cell_angle_beta   77.28472008
_cell_angle_gamma   31.58812731
_symmetry_Int_Tables_number   1
_chemical_formula_structural   Dy6Ga19Pt3
_chemical_formula_sum   'Dy6 Ga19 Pt3'
_cell_volume   523.07608527
_cell_formula_units_Z   1
loop_
 _symmetry_equiv_pos_site_id
 _symmetry_equiv_pos_as_xyz
  1  'x, y, z'
loop_
 _atom_site_type_symbol
 _atom_site_label
 _atom_site_symmetry_multiplicity
 _atom_site_fract_x
 _atom_site_fract_y
 _atom_site_fract_z
 _atom_site_occupancy
  Dy  Dy0  1  0.74921500  0.74921500  0.75165700  1
  Dy  Dy1  1  0.25148800  0.25148800  0.24746300  1
  Dy  Dy2  1  0.60126300  0.60126300  0.59383700  1
  Dy  Dy3  1  0.09318500  0.09318500  0.09186100  1
  Dy  Dy4  1  0.90750400  0.90750400  0.90737000  1
  Dy  Dy5  1  0.39954100  0.39954100  0.40728100  1
  Ga  Ga6  1  0.82009500  0.82009500  0.54014800  1
  Ga  Ga7  1  0.31798000  0.31798000  0.04531400  1
  Ga  Ga8  1  0.68373100  0.68373100  0.95599600  1
  Ga  Ga9  1  0.17977900  0.17977900  0.45816200  1
  Ga  Ga10  1  0.54566100  0.54566100  0.81526000  1
  Ga  Ga11  1  0.03848500  0.03848500  0.32151900  1
  Ga  Ga12  1  0.96081200  0.96081200  0.67699400  1
  Ga  Ga13  1  0.45500500  0.45500500  0.18106700  1
  Ga  Ga14  1  0.26926400  0.26926400  0.89478100  1
  Ga  Ga15  1  0.76161800  0.76161800  0.39303200  1
  Ga  Ga16  1  0.23859800  0.23859800  0.60435900  1
  Ga  Ga17  1  0.73259000  0.73259000  0.10943300  1
  Ga  Ga18  1  0.39747800  0.39747800  0.76437400  1
  Ga  Ga19  1  0.89166100  0.89166100  0.26769500  1
  Ga  Ga20  1  0.10894200  0.10894200  0.73149000  1
  Ga  Ga21  1  0.60295900  0.60295900  0.23506400  1
  Ga  Ga22  1  0.49576900  0.49576900  0.00272800  1
  Ga  Ga23  1  0.00007000  0.00007000  0.49982200  1
  Ga  Ga24  1  0.10268600  0.10268600  0.89796300  1
  Pt  Pt25  1  0.59556000  0.59556000  0.40029400  1
  Pt  Pt26  1  0.40277000  0.40277000  0.60120100  1
  Pt  Pt27  1  0.89629200  0.89629200  0.10383400  1
