# generated using pymatgen
data_Dy2Si2O7
_symmetry_space_group_name_H-M   'P 1'
_cell_length_a   6.64544600
_cell_length_b   6.68971442
_cell_length_c   18.20318189
_cell_angle_alpha   83.79933197
_cell_angle_beta   88.41957808
_cell_angle_gamma   88.22984560
_symmetry_Int_Tables_number   1
_chemical_formula_structural   Dy2Si2O7
_chemical_formula_sum   'Dy12 Si12 O42'
_cell_volume   803.88552853
_cell_formula_units_Z   6
loop_
 _symmetry_equiv_pos_site_id
 _symmetry_equiv_pos_as_xyz
  1  'x, y, z'
loop_
 _atom_site_type_symbol
 _atom_site_label
 _atom_site_symmetry_multiplicity
 _atom_site_fract_x
 _atom_site_fract_y
 _atom_site_fract_z
 _atom_site_occupancy
  Dy  Dy0  1  0.88296000  0.90037300  0.60758300  1
  Dy  Dy1  1  0.14597900  0.12342400  0.40179200  1
  Dy  Dy2  1  0.38461500  0.65271500  0.90323900  1
  Dy  Dy3  1  0.61663300  0.34751500  0.09679600  1
  Dy  Dy4  1  0.44797300  0.96441400  0.73839400  1
  Dy  Dy5  1  0.54592000  0.03046000  0.25892000  1
  Dy  Dy6  1  0.87806600  0.34753700  0.91032900  1
  Dy  Dy7  1  0.12113700  0.65312900  0.08978000  1
  Dy  Dy8  1  0.18432100  0.47063800  0.73786800  1
  Dy  Dy9  1  0.81414400  0.53189800  0.26447200  1
  Dy  Dy10  1  0.55443700  0.37614200  0.58792100  1
  Dy  Dy11  1  0.40862200  0.61032100  0.41435900  1
  Si  Si12  1  0.87616800  0.81568100  0.93771100  1
  Si  Si13  1  0.12386100  0.18397200  0.06267300  1
  Si  Si14  1  0.66234800  0.49000300  0.74022400  1
  Si  Si15  1  0.33896000  0.51097600  0.25707200  1
  Si  Si16  1  0.99556100  0.95770200  0.78683600  1
  Si  Si17  1  0.00603200  0.04405500  0.21447500  1
  Si  Si18  1  0.36466700  0.17586200  0.91922500  1
  Si  Si19  1  0.63544500  0.82340900  0.08087100  1
  Si  Si20  1  0.34831600  0.86341200  0.57930900  1
  Si  Si21  1  0.65220200  0.12993800  0.41861600  1
  Si  Si22  1  0.04211600  0.39334700  0.55283900  1
  Si  Si23  1  0.90135600  0.72893100  0.44353800  1
  O  O24  1  0.22504900  0.78276300  0.65834200  1
  O  O25  1  0.78959700  0.22227000  0.34679000  1
  O  O26  1  0.49686200  0.62757800  0.78407400  1
  O  O27  1  0.50620400  0.37252500  0.21515300  1
  O  O28  1  0.54615500  0.30491800  0.94998900  1
  O  O29  1  0.45417900  0.69463800  0.05001400  1
  O  O30  1  0.45499000  0.68773400  0.53280300  1
  O  O31  1  0.55919300  0.29767900  0.46884400  1
  O  O32  1  0.80708500  0.94019000  0.73321900  1
  O  O33  1  0.19933200  0.06339300  0.26476800  1
  O  O34  1  0.15047300  0.12878100  0.75248900  1
  O  O35  1  0.85054800  0.87123200  0.24781300  1
  O  O36  1  0.85656700  0.41392000  0.78885500  1
  O  O37  1  0.14101900  0.58492100  0.21075200  1
  O  O38  1  0.73104800  0.59955900  0.65978400  1
  O  O39  1  0.27342700  0.40052400  0.33750900  1
  O  O40  1  0.86666600  0.23923500  0.58454600  1
  O  O41  1  0.11740700  0.78476000  0.40501900  1
  O  O42  1  0.72684900  0.65202000  0.91254300  1
  O  O43  1  0.27348000  0.34820400  0.08744700  1
  O  O44  1  0.43402900  0.99162000  0.87212300  1
  O  O45  1  0.56519600  0.00812000  0.12764300  1
  O  O46  1  0.17397500  0.98844700  0.53151700  1
  O  O47  1  0.80764000  0.95962800  0.46541100  1
  O  O48  1  0.08164300  0.68936400  0.96408200  1
  O  O49  1  0.91860300  0.31081300  0.03592800  1
  O  O50  1  0.52589200  0.00368900  0.61087900  1
  O  O51  1  0.47225800  0.00035700  0.38617300  1
  O  O52  1  0.20920500  0.40033300  0.61581400  1
  O  O53  1  0.75365200  0.63181200  0.38965800  1
  O  O54  1  0.51309100  0.30891500  0.71943900  1
  O  O55  1  0.48420200  0.69211900  0.27840800  1
  O  O56  1  0.91363600  0.62253600  0.53166600  1
  O  O57  1  0.13637800  0.37988300  0.47027300  1
  O  O58  1  0.78055400  0.91930600  0.00965000  1
  O  O59  1  0.21931700  0.08050600  0.99054600  1
  O  O60  1  0.22070600  0.35678000  0.87560400  1
  O  O61  1  0.77924800  0.64331500  0.12480600  1
  O  O62  1  0.13158200  0.75079400  0.80739900  1
  O  O63  1  0.86801500  0.25026000  0.19390300  1
  O  O64  1  0.90922700  0.01085000  0.87345200  1
  O  O65  1  0.08868100  0.98945700  0.12673100  1
