# generated using pymatgen
data_Er2U3O11
_symmetry_space_group_name_H-M   'P 1'
_cell_length_a   9.91108491
_cell_length_b   9.91108491
_cell_length_c   9.91108491
_cell_angle_alpha   158.03261521
_cell_angle_beta   148.32556216
_cell_angle_gamma   38.88181593
_symmetry_Int_Tables_number   1
_chemical_formula_structural   Er2U3O11
_chemical_formula_sum   'Er2 U3 O11'
_cell_volume   190.94258872
_cell_formula_units_Z   1
loop_
 _symmetry_equiv_pos_site_id
 _symmetry_equiv_pos_as_xyz
  1  'x, y, z'
loop_
 _atom_site_type_symbol
 _atom_site_label
 _atom_site_symmetry_multiplicity
 _atom_site_fract_x
 _atom_site_fract_y
 _atom_site_fract_z
 _atom_site_occupancy
  Er  Er0  1  0.70309400  0.70309400  0.00000000  1
  Er  Er1  1  0.29690600  0.29690600  0.00000000  1
  U  U2  1  0.90109200  0.90109200  0.00000000  1
  U  U3  1  0.50000000  0.50000000  0.00000000  1
  U  U4  1  0.09890800  0.09890800  0.00000000  1
  O  O5  1  0.28010100  0.00000000  0.28010100  1
  O  O6  1  0.83868800  0.60158900  0.23710000  1
  O  O7  1  0.43233400  0.19363000  0.23870300  1
  O  O8  1  0.04507300  0.80637000  0.23870300  1
  O  O9  1  0.63551100  0.39841100  0.23710000  1
  O  O10  1  0.71989900  0.00000000  0.71989900  1
  O  O11  1  0.36448900  0.60158900  0.76290000  1
  O  O12  1  0.95492700  0.19363000  0.76129700  1
  O  O13  1  0.56766600  0.80637000  0.76129700  1
  O  O14  1  0.16131200  0.39841100  0.76290000  1
  O  O15  1  0.00000000  0.50000000  0.50000000  1
