# generated using pymatgen
data_Er3Ga8Ni3
_symmetry_space_group_name_H-M   'P 1'
_cell_length_a   7.96507008
_cell_length_b   7.96507008
_cell_length_c   9.50361869
_cell_angle_alpha   54.23683748
_cell_angle_beta   54.23683748
_cell_angle_gamma   30.00960940
_symmetry_Int_Tables_number   1
_chemical_formula_structural   Er3Ga8Ni3
_chemical_formula_sum   'Er3 Ga8 Ni3'
_cell_volume   240.08935434
_cell_formula_units_Z   1
loop_
 _symmetry_equiv_pos_site_id
 _symmetry_equiv_pos_as_xyz
  1  'x, y, z'
loop_
 _atom_site_type_symbol
 _atom_site_label
 _atom_site_symmetry_multiplicity
 _atom_site_fract_x
 _atom_site_fract_y
 _atom_site_fract_z
 _atom_site_occupancy
  Er  Er0  1  0.69471700  0.69471700  0.29991000  1
  Er  Er1  1  0.31288800  0.31288800  0.68364700  1
  Er  Er2  1  0.99052600  0.99052600  0.01322300  1
  Ga  Ga3  1  0.49640000  0.49640000  0.71480900  1
  Ga  Ga4  1  0.49948500  0.49948500  0.28064300  1
  Ga  Ga5  1  0.84616800  0.84616800  0.41635300  1
  Ga  Ga6  1  0.15880100  0.15880100  0.56465800  1
  Ga  Ga7  1  0.84157700  0.84157700  0.89159700  1
  Ga  Ga8  1  0.16032400  0.16032400  0.10425900  1
  Ga  Ga9  1  0.99978300  0.99978300  0.49900100  1
  Ga  Ga10  1  0.65510100  0.65510100  0.73928500  1
  Ni  Ni11  1  0.34199200  0.34199200  0.28556400  1
  Ni  Ni12  1  0.65662500  0.65662500  0.98218700  1
  Ni  Ni13  1  0.34561200  0.34561200  0.02486300  1
