# generated using pymatgen
data_Er4CoSn8
_symmetry_space_group_name_H-M   'P 1'
_cell_length_a   4.41005900
_cell_length_b   4.43114900
_cell_length_c   16.47685300
_cell_angle_alpha   90.00000000
_cell_angle_beta   90.00000000
_cell_angle_gamma   90.00000000
_symmetry_Int_Tables_number   1
_chemical_formula_structural   Er4CoSn8
_chemical_formula_sum   'Er4 Co1 Sn8'
_cell_volume   321.98454063
_cell_formula_units_Z   1
loop_
 _symmetry_equiv_pos_site_id
 _symmetry_equiv_pos_as_xyz
  1  'x, y, z'
loop_
 _atom_site_type_symbol
 _atom_site_label
 _atom_site_symmetry_multiplicity
 _atom_site_fract_x
 _atom_site_fract_y
 _atom_site_fract_z
 _atom_site_occupancy
  Er  Er0  1  0.25000000  0.00000000  0.09517100  1
  Er  Er1  1  0.25000000  0.50000000  0.60151500  1
  Er  Er2  1  0.75000000  0.50000000  0.39561600  1
  Er  Er3  1  0.75000000  0.00000000  0.89901800  1
  Co  Co4  1  0.25000000  0.00000000  0.30399900  1
  Sn  Sn5  1  0.25000000  0.50000000  0.23490000  1
  Sn  Sn6  1  0.25000000  0.00000000  0.74797600  1
  Sn  Sn7  1  0.75000000  0.00000000  0.23525300  1
  Sn  Sn8  1  0.75000000  0.50000000  0.75218500  1
  Sn  Sn9  1  0.25000000  0.00000000  0.45193600  1
  Sn  Sn10  1  0.25000000  0.50000000  0.93415300  1
  Sn  Sn11  1  0.75000000  0.50000000  0.06250500  1
  Sn  Sn12  1  0.75000000  0.00000000  0.57177300  1
