# generated using pymatgen
data_K7Mo12H31Pt2O59
_symmetry_space_group_name_H-M   'P 1'
_cell_length_a   10.35339100
_cell_length_b   12.37143876
_cell_length_c   12.75897263
_cell_angle_alpha   112.37085838
_cell_angle_beta   111.51287217
_cell_angle_gamma   83.83247098
_symmetry_Int_Tables_number   1
_chemical_formula_structural   K7Mo12H31Pt2O59
_chemical_formula_sum   'K7 Mo12 H31 Pt2 O59'
_cell_volume   1404.99360181
_cell_formula_units_Z   1
loop_
 _symmetry_equiv_pos_site_id
 _symmetry_equiv_pos_as_xyz
  1  'x, y, z'
loop_
 _atom_site_type_symbol
 _atom_site_label
 _atom_site_symmetry_multiplicity
 _atom_site_fract_x
 _atom_site_fract_y
 _atom_site_fract_z
 _atom_site_occupancy
  K  K0  1  0.06363400  0.42002600  0.13693000  1
  K  K1  1  0.93051000  0.57644600  0.85967200  1
  K  K2  1  0.26270100  0.09346900  0.87820300  1
  K  K3  1  0.75049100  0.90523400  0.13339900  1
  K  K4  1  0.59790700  0.35585400  0.16615700  1
  K  K5  1  0.39742100  0.63568300  0.82633300  1
  K  K6  1  0.00086600  0.00118800  0.50482900  1
  Mo  Mo7  1  0.70482000  0.22925300  0.68078400  1
  Mo  Mo8  1  0.29745300  0.77305300  0.32319500  1
  Mo  Mo9  1  0.60530700  0.14014400  0.37412800  1
  Mo  Mo10  1  0.39242900  0.85886700  0.62083600  1
  Mo  Mo11  1  0.26247600  0.14013400  0.20398800  1
  Mo  Mo12  1  0.73592600  0.86218100  0.79786200  1
  Mo  Mo13  1  0.47271000  0.32433400  0.80998700  1
  Mo  Mo14  1  0.52725500  0.67606900  0.19066600  1
  Mo  Mo15  1  0.12791600  0.31441800  0.64356400  1
  Mo  Mo16  1  0.87168900  0.68501300  0.35751100  1
  Mo  Mo17  1  0.02025900  0.22417500  0.33684700  1
  Mo  Mo18  1  0.97833100  0.77601600  0.66416000  1
  H  H19  1  0.24289900  0.47703000  0.00172700  1
  H  H20  1  0.75684800  0.52379100  0.99933400  1
  H  H21  1  0.96361500  0.18600100  0.85566500  1
  H  H22  1  0.04272100  0.81293800  0.14313500  1
  H  H23  1  0.42085000  0.53698400  0.35318400  1
  H  H24  1  0.57775300  0.46405400  0.64618400  1
  H  H25  1  0.78941100  0.41661700  0.45072900  1
  H  H26  1  0.20991900  0.58245900  0.54736500  1
  H  H27  1  0.41685500  0.41018900  0.35771700  1
  H  H28  1  0.58401400  0.59066300  0.64173800  1
  H  H29  1  0.14570700  0.37228600  0.89585200  1
  H  H30  1  0.85495900  0.62762600  0.10559400  1
  H  H31  1  0.69345100  0.47344000  0.53064500  1
  H  H32  1  0.30790300  0.52545000  0.46941300  1
  H  H33  1  0.24423700  0.41112000  0.51801900  1
  H  H34  1  0.75786900  0.58848800  0.48224000  1
  H  H35  1  0.97857900  0.11159100  0.93202700  1
  H  H36  1  0.02494600  0.89135600  0.07004600  1
  H  H37  1  0.21073700  0.02297600  0.34845400  1
  H  H38  1  0.78649400  0.97551900  0.65136800  1
  H  H39  1  0.81043800  0.16958900  0.05497900  1
  H  H40  1  0.18164400  0.83125800  0.94686000  1
  H  H41  1  0.72953200  0.21831900  0.95499300  1
  H  H42  1  0.27420400  0.78678600  0.04850700  1
  H  H43  1  0.41800000  0.94851300  0.23309000  1
  H  H44  1  0.58179600  0.05150500  0.76978500  1
  H  H45  1  0.31258800  0.10636000  0.62821200  1
  H  H46  1  0.68545400  0.89219300  0.37318500  1
  H  H47  1  0.50048700  0.01633500  0.50119600  1
  H  H48  1  0.41343500  0.91772700  0.01009600  1
  H  H49  1  0.49685000  0.90595400  0.92761500  1
  Pt  Pt50  1  0.36966300  0.21181000  0.50431900  1
  Pt  Pt51  1  0.62805500  0.78592300  0.49628200  1
  O  O52  1  0.02674500  0.20017600  0.48192300  1
  O  O53  1  0.97333900  0.79973400  0.51960600  1
  O  O54  1  0.52578100  0.09893700  0.50792800  1
  O  O55  1  0.47020800  0.89520500  0.49326700  1
  O  O56  1  0.30209900  0.40450000  0.75516400  1
  O  O57  1  0.69785800  0.59524700  0.24500500  1
  O  O58  1  0.70454400  0.24547900  0.53110700  1
  O  O59  1  0.28702100  0.75138800  0.46798400  1
  O  O60  1  0.12551100  0.24922800  0.24533900  1
  O  O61  1  0.87300100  0.75242100  0.75729000  1
  O  O62  1  0.10379300  0.24196300  0.72998500  1
  O  O63  1  0.89608000  0.75830300  0.27164200  1
  O  O64  1  0.71085900  0.46747800  0.45645600  1
  O  O65  1  0.28828200  0.53111700  0.54285800  1
  O  O66  1  0.14667300  0.44492500  0.96353700  1
  O  O67  1  0.85268600  0.55643100  0.03600200  1
  O  O68  1  0.61429200  0.20196200  0.78171500  1
  O  O69  1  0.38780000  0.79983000  0.22052400  1
  O  O70  1  0.21197900  0.32740700  0.50325500  1
  O  O71  1  0.79031700  0.67172900  0.49755200  1
  O  O72  1  0.21769900  0.10740900  0.35419900  1
  O  O73  1  0.77967900  0.89206600  0.64635000  1
  O  O74  1  0.51621700  0.32228500  0.64961400  1
  O  O75  1  0.48296600  0.67531000  0.35024900  1
  O  O76  1  0.80902500  0.10415800  0.67123500  1
  O  O77  1  0.19115400  0.89728800  0.32911800  1
  O  O78  1  0.81626300  0.34649900  0.78661500  1
  O  O79  1  0.18810900  0.65455200  0.21598700  1
  O  O80  1  0.01503000  0.42854400  0.65277900  1
  O  O81  1  0.98491900  0.57115400  0.34800300  1
  O  O82  1  0.70689600  0.01267800  0.36569400  1
  O  O83  1  0.29159900  0.98752600  0.63381900  1
  O  O84  1  0.91180000  0.34162100  0.34263100  1
  O  O85  1  0.08784100  0.65918500  0.66129100  1
  O  O86  1  0.63931500  0.19663300  0.28179100  1
  O  O87  1  0.36744300  0.80297700  0.71873000  1
  O  O88  1  0.43132900  0.27001500  0.90270400  1
  O  O89  1  0.57004100  0.73070200  0.09876000  1
  O  O90  1  0.36015700  0.47650100  0.34702100  1
  O  O91  1  0.64000100  0.52474200  0.65515400  1
  O  O92  1  0.42276100  0.23623900  0.37719900  1
  O  O93  1  0.57721500  0.76231600  0.62450800  1
  O  O94  1  0.43119100  0.03064500  0.24198100  1
  O  O95  1  0.56714300  0.96946600  0.75925300  1
  O  O96  1  0.58090400  0.44867400  0.90592500  1
  O  O97  1  0.41817400  0.55245400  0.09293500  1
  O  O98  1  0.76623100  0.23994800  0.04325700  1
  O  O99  1  0.25713700  0.77914700  0.96493600  1
  O  O100  1  0.91775400  0.10151100  0.22666300  1
  O  O101  1  0.08032900  0.89936300  0.77352900  1
  O  O102  1  0.32250600  0.20262600  0.12829900  1
  O  O103  1  0.67410200  0.80519000  0.87754900  1
  O  O104  1  0.16166900  0.01538900  0.09408900  1
  O  O105  1  0.83761600  0.98734200  0.90483000  1
  O  O106  1  0.02259500  0.17803400  0.93199700  1
  O  O107  1  0.98546300  0.82057600  0.06613300  1
  O  O108  1  0.31841500  0.19075500  0.63459700  1
  O  O109  1  0.68022100  0.80828200  0.36654600  1
  O  O110  1  0.47541400  0.96193100  0.99698600  1
