# generated using pymatgen
data_CsInAgF6
_symmetry_space_group_name_H-M   'P 1'
_cell_length_a   8.07076381
_cell_length_b   8.07076381
_cell_length_c   8.07076381
_cell_angle_alpha   122.18699218
_cell_angle_beta   119.63816163
_cell_angle_gamma   88.44107413
_symmetry_Int_Tables_number   1
_chemical_formula_structural   CsInAgF6
_chemical_formula_sum   'Cs2 In2 Ag2 F12'
_cell_volume   366.22192868
_cell_formula_units_Z   2
loop_
 _symmetry_equiv_pos_site_id
 _symmetry_equiv_pos_as_xyz
  1  'x, y, z'
loop_
 _atom_site_type_symbol
 _atom_site_label
 _atom_site_symmetry_multiplicity
 _atom_site_fract_x
 _atom_site_fract_y
 _atom_site_fract_z
 _atom_site_occupancy
  Cs  Cs0  1  0.37332900  0.62332900  0.75000000  1
  Cs  Cs1  1  0.62667100  0.37667100  0.25000000  1
  In  In2  1  0.00000000  0.00000000  0.00000000  1
  In  In3  1  0.50000000  0.00000000  0.50000000  1
  Ag  Ag4  1  0.00000000  0.00000000  0.50000000  1
  Ag  Ag5  1  0.00000000  0.50000000  0.00000000  1
  F  F6  1  0.31015600  0.06015600  0.25000000  1
  F  F7  1  0.94061300  0.69061300  0.25000000  1
  F  F8  1  0.34293600  0.68232300  0.26401300  1
  F  F9  1  0.91831000  0.07892300  0.23598700  1
  F  F10  1  0.34293600  0.07892300  0.66061300  1
  F  F11  1  0.91831000  0.68232300  0.83938700  1
  F  F12  1  0.68984400  0.93984400  0.75000000  1
  F  F13  1  0.05938700  0.30938700  0.75000000  1
  F  F14  1  0.65706400  0.31767700  0.73598700  1
  F  F15  1  0.08169000  0.92107700  0.76401300  1
  F  F16  1  0.65706400  0.92107700  0.33938700  1
  F  F17  1  0.08169000  0.31767700  0.16061300  1
