# generated using pymatgen
data_CsSbWO6
_symmetry_space_group_name_H-M   'P 1'
_cell_length_a   7.40960801
_cell_length_b   7.40960801
_cell_length_c   7.40960801
_cell_angle_alpha   120.72693071
_cell_angle_beta   119.69423594
_cell_angle_gamma   89.63798581
_symmetry_Int_Tables_number   1
_chemical_formula_structural   CsSbWO6
_chemical_formula_sum   'Cs2 Sb2 W2 O12'
_cell_volume   286.70305437
_cell_formula_units_Z   2
loop_
 _symmetry_equiv_pos_site_id
 _symmetry_equiv_pos_as_xyz
  1  'x, y, z'
loop_
 _atom_site_type_symbol
 _atom_site_label
 _atom_site_symmetry_multiplicity
 _atom_site_fract_x
 _atom_site_fract_y
 _atom_site_fract_z
 _atom_site_occupancy
  Cs  Cs0  1  0.61717700  0.88205700  0.23512000  1
  Cs  Cs1  1  0.35306300  0.11794300  0.73512000  1
  Sb  Sb2  1  0.99890000  0.50000000  0.49890000  1
  Sb  Sb3  1  0.99890000  0.00000000  0.99890000  1
  W  W4  1  0.99799700  0.49976700  0.99823000  1
  W  W5  1  0.49846300  0.50023300  0.49823000  1
  O  O6  1  0.07448000  0.82343800  0.75104200  1
  O  O7  1  0.69101000  0.44180200  0.74920900  1
  O  O8  1  0.68020500  0.81082600  0.74618100  1
  O  O9  1  0.06398600  0.43562900  0.75358400  1
  O  O10  1  0.06398600  0.81040200  0.12835700  1
  O  O11  1  0.68020500  0.43402400  0.36937900  1
  O  O12  1  0.92760400  0.17656200  0.25104200  1
  O  O13  1  0.30740700  0.55819800  0.24920900  1
  O  O14  1  0.31795400  0.18959800  0.25358400  1
  O  O15  1  0.93535500  0.56597600  0.24618100  1
  O  O16  1  0.93535500  0.18917400  0.86937900  1
  O  O17  1  0.31795400  0.56437100  0.62835700  1
