# generated using pymatgen
data_Er9Ge4S21
_symmetry_space_group_name_H-M   'P 1'
_cell_length_a   11.35409387
_cell_length_b   11.35409387
_cell_length_c   11.35409394
_cell_angle_alpha   95.34382608
_cell_angle_beta   95.34382608
_cell_angle_gamma   95.34382666
_symmetry_Int_Tables_number   1
_chemical_formula_structural   Er9Ge4S21
_chemical_formula_sum   'Er18 Ge8 S42'
_cell_volume   1443.35044174
_cell_formula_units_Z   2
loop_
 _symmetry_equiv_pos_site_id
 _symmetry_equiv_pos_as_xyz
  1  'x, y, z'
loop_
 _atom_site_type_symbol
 _atom_site_label
 _atom_site_symmetry_multiplicity
 _atom_site_fract_x
 _atom_site_fract_y
 _atom_site_fract_z
 _atom_site_occupancy
  Er  Er0  1  0.29256400  0.43814800  0.07278900  1
  Er  Er1  1  0.62899200  0.76782700  0.41974700  1
  Er  Er2  1  0.96684200  0.11273600  0.74866200  1
  Er  Er3  1  0.41974700  0.62899200  0.76782700  1
  Er  Er4  1  0.74866200  0.96684200  0.11273600  1
  Er  Er5  1  0.07278900  0.29256400  0.43814800  1
  Er  Er6  1  0.11273600  0.74866200  0.96684200  1
  Er  Er7  1  0.43814800  0.07278900  0.29256400  1
  Er  Er8  1  0.76782700  0.41974700  0.62899200  1
  Er  Er9  1  0.08239600  0.94315100  0.29108700  1
  Er  Er10  1  0.41819300  0.27265800  0.63684100  1
  Er  Er11  1  0.74344500  0.59773900  0.96303100  1
  Er  Er12  1  0.96303100  0.74344500  0.59773900  1
  Er  Er13  1  0.29108700  0.08239600  0.94315100  1
  Er  Er14  1  0.63684100  0.41819300  0.27265800  1
  Er  Er15  1  0.27265800  0.63684100  0.41819300  1
  Er  Er16  1  0.59773900  0.96303100  0.74344500  1
  Er  Er17  1  0.94315100  0.29108700  0.08239600  1
  Ge  Ge18  1  0.96295900  0.62998700  0.29735100  1
  Ge  Ge19  1  0.29735100  0.96295900  0.62998700  1
  Ge  Ge20  1  0.62998700  0.29735100  0.96295900  1
  Ge  Ge21  1  0.79743200  0.12954000  0.46333400  1
  Ge  Ge22  1  0.12954000  0.46333400  0.79743200  1
  Ge  Ge23  1  0.46333400  0.79743200  0.12954000  1
  Ge  Ge24  1  0.83634900  0.83634900  0.83634900  1
  Ge  Ge25  1  0.33625500  0.33625500  0.33625500  1
  S  S26  1  0.71971700  0.56898100  0.46311500  1
  S  S27  1  0.04352000  0.89859300  0.79525700  1
  S  S28  1  0.38863200  0.23827200  0.13462400  1
  S  S29  1  0.13462400  0.38863200  0.23827200  1
  S  S30  1  0.46311500  0.71971700  0.56898100  1
  S  S31  1  0.79525700  0.04352000  0.89859300  1
  S  S32  1  0.89859300  0.79525700  0.04352000  1
  S  S33  1  0.23827200  0.13462400  0.38863200  1
  S  S34  1  0.56898100  0.46311500  0.71971700  1
  S  S35  1  0.94826200  0.09910800  0.20482900  1
  S  S36  1  0.28140700  0.42604100  0.52971700  1
  S  S37  1  0.61892800  0.76935800  0.87306600  1
  S  S38  1  0.52971700  0.28140700  0.42604100  1
  S  S39  1  0.87306600  0.61892800  0.76935800  1
  S  S40  1  0.20482900  0.94826200  0.09910800  1
  S  S41  1  0.76935800  0.87306600  0.61892800  1
  S  S42  1  0.09910800  0.20482900  0.94826200  1
  S  S43  1  0.42604100  0.52971700  0.28140700  1
  S  S44  1  0.84051600  0.50382900  0.17068100  1
  S  S45  1  0.17068100  0.84051600  0.50382900  1
  S  S46  1  0.50382900  0.17068100  0.84051600  1
  S  S47  1  0.67090300  0.00375100  0.34034500  1
  S  S48  1  0.00375100  0.34034500  0.67090300  1
  S  S49  1  0.34034500  0.67090300  0.00375100  1
  S  S50  1  0.73822200  0.17009400  0.64440900  1
  S  S51  1  0.07287800  0.50228200  0.97970500  1
  S  S52  1  0.40694700  0.83107900  0.31295400  1
  S  S53  1  0.97970500  0.07287800  0.50228200  1
  S  S54  1  0.31295400  0.40694700  0.83107900  1
  S  S55  1  0.64440900  0.73822200  0.17009400  1
  S  S56  1  0.83107900  0.31295400  0.40694700  1
  S  S57  1  0.17009400  0.64440900  0.73822200  1
  S  S58  1  0.50228200  0.97970500  0.07287800  1
  S  S59  1  0.79744800  0.36473800  0.89015200  1
  S  S60  1  0.12738200  0.70242100  0.22249400  1
  S  S61  1  0.46259200  0.03544800  0.55583700  1
  S  S62  1  0.55583700  0.46259200  0.03544800  1
  S  S63  1  0.89015200  0.79744800  0.36473800  1
  S  S64  1  0.22249400  0.12738200  0.70242100  1
  S  S65  1  0.70242100  0.22249400  0.12738200  1
  S  S66  1  0.03544800  0.55583700  0.46259200  1
  S  S67  1  0.36473800  0.89015200  0.79744800  1
