# generated using pymatgen
data_CsCrO3F
_symmetry_space_group_name_H-M   'P 1'
_cell_length_a   5.88993844
_cell_length_b   5.88993844
_cell_length_c   8.69078201
_cell_angle_alpha   69.48658123
_cell_angle_beta   69.48658123
_cell_angle_gamma   89.99222888
_symmetry_Int_Tables_number   1
_chemical_formula_structural   CsCrO3F
_chemical_formula_sum   'Cs2 Cr2 O6 F2'
_cell_volume   261.87342214
_cell_formula_units_Z   2
loop_
 _symmetry_equiv_pos_site_id
 _symmetry_equiv_pos_as_xyz
  1  'x, y, z'
loop_
 _atom_site_type_symbol
 _atom_site_label
 _atom_site_symmetry_multiplicity
 _atom_site_fract_x
 _atom_site_fract_y
 _atom_site_fract_z
 _atom_site_occupancy
  Cs  Cs0  1  0.86845000  0.62452300  0.24783300  1
  Cs  Cs1  1  0.12452300  0.36845000  0.74783300  1
  Cr  Cr2  1  0.38166600  0.12305000  0.25330100  1
  Cr  Cr3  1  0.62305000  0.88166600  0.75330100  1
  O  O4  1  0.68651300  0.17104800  0.62781300  1
  O  O5  1  0.67104800  0.18651300  0.12781300  1
  O  O6  1  0.78947900  0.81695500  0.87391100  1
  O  O7  1  0.31695500  0.28947900  0.37391100  1
  O  O8  1  0.31527900  0.83323800  0.37747400  1
  O  O9  1  0.33323800  0.81527900  0.87747400  1
  F  F10  1  0.19931000  0.19048700  0.11966800  1
  F  F11  1  0.69048700  0.69931000  0.61966800  1
