# generated using pymatgen
data_CoRe
_symmetry_space_group_name_H-M   'P 1'
_cell_length_a   2.68334394
_cell_length_b   2.68334394
_cell_length_c   4.15199300
_cell_angle_alpha   90.00000000
_cell_angle_beta   90.00000000
_cell_angle_gamma   119.99999848
_symmetry_Int_Tables_number   1
_chemical_formula_structural   CoRe
_chemical_formula_sum   'Co1 Re1'
_cell_volume   25.89047004
_cell_formula_units_Z   1
loop_
 _symmetry_equiv_pos_site_id
 _symmetry_equiv_pos_as_xyz
  1  'x, y, z'
loop_
 _atom_site_type_symbol
 _atom_site_label
 _atom_site_symmetry_multiplicity
 _atom_site_fract_x
 _atom_site_fract_y
 _atom_site_fract_z
 _atom_site_occupancy
  Co  Co0  1  0.00000000  0.00000000  0.00000000  1
  Re  Re1  1  0.33333300  0.66666700  0.50000000  1
