# generated using pymatgen
data_K2InMo15Se19
_symmetry_space_group_name_H-M   'P 1'
_cell_length_a   19.90958300
_cell_length_b   9.94706000
_cell_length_c   9.96194223
_cell_angle_alpha   60.55971413
_cell_angle_beta   90.00000000
_cell_angle_gamma   90.00000000
_symmetry_Int_Tables_number   1
_chemical_formula_structural   K2InMo15Se19
_chemical_formula_sum   'K4 In2 Mo30 Se38'
_cell_volume   1718.11990029
_cell_formula_units_Z   2
loop_
 _symmetry_equiv_pos_site_id
 _symmetry_equiv_pos_as_xyz
  1  'x, y, z'
loop_
 _atom_site_type_symbol
 _atom_site_label
 _atom_site_symmetry_multiplicity
 _atom_site_fract_x
 _atom_site_fract_y
 _atom_site_fract_z
 _atom_site_occupancy
  K  K0  1  0.63002200  0.33449500  0.33026900  1
  K  K1  1  0.13002200  0.66550500  0.66973100  1
  K  K2  1  0.36997800  0.66550500  0.66973100  1
  K  K3  1  0.86997800  0.33449500  0.33026900  1
  In  In4  1  0.75000000  0.17626600  0.78867100  1
  In  In5  1  0.25000000  0.82373400  0.21132900  1
  Mo  Mo6  1  0.75000000  0.65898100  0.82699700  1
  Mo  Mo7  1  0.75000000  0.82924200  0.51141500  1
  Mo  Mo8  1  0.75000000  0.50927100  0.65865300  1
  Mo  Mo9  1  0.25000000  0.34101900  0.17300300  1
  Mo  Mo10  1  0.25000000  0.17075800  0.48858500  1
  Mo  Mo11  1  0.25000000  0.49072900  0.34134700  1
  Mo  Mo12  1  0.63462700  0.81266600  0.68146300  1
  Mo  Mo13  1  0.63656100  0.68281200  0.50658200  1
  Mo  Mo14  1  0.63505100  0.50777000  0.81181300  1
  Mo  Mo15  1  0.13462700  0.18733400  0.31853700  1
  Mo  Mo16  1  0.13656100  0.31718800  0.49341800  1
  Mo  Mo17  1  0.13505100  0.49223000  0.18818700  1
  Mo  Mo18  1  0.36537300  0.18733400  0.31853700  1
  Mo  Mo19  1  0.36343900  0.31718800  0.49341800  1
  Mo  Mo20  1  0.36494900  0.49223000  0.18818700  1
  Mo  Mo21  1  0.86537300  0.81266600  0.68146300  1
  Mo  Mo22  1  0.86343900  0.68281200  0.50658200  1
  Mo  Mo23  1  0.86494900  0.50777000  0.81181300  1
  Mo  Mo24  1  0.55498100  0.85277700  0.98402300  1
  Mo  Mo25  1  0.55498200  0.98803300  0.16242100  1
  Mo  Mo26  1  0.55638300  0.16319100  0.85184900  1
  Mo  Mo27  1  0.05498100  0.14722300  0.01597700  1
  Mo  Mo28  1  0.05498200  0.01196700  0.83757900  1
  Mo  Mo29  1  0.05638300  0.83680900  0.14815100  1
  Mo  Mo30  1  0.44501900  0.14722300  0.01597700  1
  Mo  Mo31  1  0.44501800  0.01196700  0.83757900  1
  Mo  Mo32  1  0.44361700  0.83680900  0.14815100  1
  Mo  Mo33  1  0.94501900  0.85277700  0.98402300  1
  Mo  Mo34  1  0.94501800  0.98803300  0.16242100  1
  Mo  Mo35  1  0.94361700  0.16319100  0.85184900  1
  Se  Se36  1  0.75000000  0.95913800  0.68385200  1
  Se  Se37  1  0.75000000  0.68134200  0.35896800  1
  Se  Se38  1  0.75000000  0.35900600  0.96155200  1
  Se  Se39  1  0.25000000  0.04086200  0.31614800  1
  Se  Se40  1  0.25000000  0.31865800  0.64103200  1
  Se  Se41  1  0.25000000  0.64099400  0.03844800  1
  Se  Se42  1  0.65795600  0.99260200  0.00644400  1
  Se  Se43  1  0.15795600  0.00739800  0.99355600  1
  Se  Se44  1  0.34204400  0.00739800  0.99355600  1
  Se  Se45  1  0.84204400  0.99260200  0.00644400  1
  Se  Se46  1  0.55133200  0.03345800  0.68123300  1
  Se  Se47  1  0.55016900  0.68504400  0.28647400  1
  Se  Se48  1  0.55235200  0.28827100  0.02911600  1
  Se  Se49  1  0.05133200  0.96654200  0.31876700  1
  Se  Se50  1  0.05016900  0.31495600  0.71352600  1
  Se  Se51  1  0.05235200  0.71172900  0.97088400  1
  Se  Se52  1  0.44866800  0.96654200  0.31876700  1
  Se  Se53  1  0.44983100  0.31495600  0.71352600  1
  Se  Se54  1  0.44764800  0.71172900  0.97088400  1
  Se  Se55  1  0.94866800  0.03345800  0.68123300  1
  Se  Se56  1  0.94983100  0.68504400  0.28647400  1
  Se  Se57  1  0.94764800  0.28827100  0.02911600  1
  Se  Se58  1  0.64188500  0.63935100  0.98261600  1
  Se  Se59  1  0.64191400  0.98353600  0.37953000  1
  Se  Se60  1  0.63584300  0.38378200  0.63135800  1
  Se  Se61  1  0.14188500  0.36064900  0.01738400  1
  Se  Se62  1  0.14191400  0.01646400  0.62047000  1
  Se  Se63  1  0.13584300  0.61621800  0.36864200  1
  Se  Se64  1  0.35811500  0.36064900  0.01738400  1
  Se  Se65  1  0.35808600  0.01646400  0.62047000  1
  Se  Se66  1  0.36415700  0.61621800  0.36864200  1
  Se  Se67  1  0.85811500  0.63935100  0.98261600  1
  Se  Se68  1  0.85808600  0.98353600  0.37953000  1
  Se  Se69  1  0.86415700  0.38378200  0.63135800  1
  Se  Se70  1  0.03367200  0.33295800  0.33262900  1
  Se  Se71  1  0.53367200  0.66704200  0.66737100  1
  Se  Se72  1  0.96632800  0.66704200  0.66737100  1
  Se  Se73  1  0.46632800  0.33295800  0.33262900  1
