# generated using pymatgen
data_Mg3Si4
_symmetry_space_group_name_H-M   'P 1'
_cell_length_a   9.60486109
_cell_length_b   9.07856629
_cell_length_c   5.75480300
_cell_angle_alpha   133.06422479
_cell_angle_beta   128.00169281
_cell_angle_gamma   50.48493713
_symmetry_Int_Tables_number   1
_chemical_formula_structural   Mg3Si4
_chemical_formula_sum   'Mg6 Si8'
_cell_volume   267.81036287
_cell_formula_units_Z   2
loop_
 _symmetry_equiv_pos_site_id
 _symmetry_equiv_pos_as_xyz
  1  'x, y, z'
loop_
 _atom_site_type_symbol
 _atom_site_label
 _atom_site_symmetry_multiplicity
 _atom_site_fract_x
 _atom_site_fract_y
 _atom_site_fract_z
 _atom_site_occupancy
  Mg  Mg0  1  0.37895400  0.96892500  0.92664800  1
  Mg  Mg1  1  0.61740800  0.50306000  0.36719700  1
  Mg  Mg2  1  0.73273800  0.14287500  0.71888500  1
  Mg  Mg3  1  0.96865600  0.07376700  0.40798600  1
  Mg  Mg4  1  0.06266600  0.34528700  0.43014300  1
  Mg  Mg5  1  0.13031400  0.76503700  0.74148000  1
  Si  Si6  1  0.09793200  0.37899300  0.01614300  1
  Si  Si7  1  0.59862200  0.09555100  0.95818500  1
  Si  Si8  1  0.83833400  0.73385100  0.88170300  1
  Si  Si9  1  0.19244700  0.64074700  0.14019300  1
  Si  Si10  1  0.42371800  0.37094500  0.34448400  1
  Si  Si11  1  0.53180900  0.60508700  0.95519800  1
  Si  Si12  1  0.81284600  0.68446900  0.21709400  1
  Si  Si13  1  0.36732400  0.94501800  0.40188100  1
