# generated using pymatgen
data_Cr6C3N
_symmetry_space_group_name_H-M   'P 1'
_cell_length_a   4.82393513
_cell_length_b   4.82393513
_cell_length_c   7.00034600
_cell_angle_alpha   90.00000000
_cell_angle_beta   90.00000000
_cell_angle_gamma   146.46003586
_symmetry_Int_Tables_number   1
_chemical_formula_structural   Cr6C3N
_chemical_formula_sum   'Cr6 C3 N1'
_cell_volume   90.00554003
_cell_formula_units_Z   1
loop_
 _symmetry_equiv_pos_site_id
 _symmetry_equiv_pos_as_xyz
  1  'x, y, z'
loop_
 _atom_site_type_symbol
 _atom_site_label
 _atom_site_symmetry_multiplicity
 _atom_site_fract_x
 _atom_site_fract_y
 _atom_site_fract_z
 _atom_site_occupancy
  Cr  Cr0  1  0.59692600  0.40307400  0.00000000  1
  Cr  Cr1  1  0.38966900  0.61033100  0.50000000  1
  Cr  Cr2  1  0.86312300  0.13687700  0.17016700  1
  Cr  Cr3  1  0.14738100  0.85261900  0.31640500  1
  Cr  Cr4  1  0.86312300  0.13687700  0.82983300  1
  Cr  Cr5  1  0.14738100  0.85261900  0.68359500  1
  C  C6  1  0.50143800  0.49856200  0.25615600  1
  C  C7  1  0.50143800  0.49856200  0.74384400  1
  C  C8  1  0.24595900  0.75404100  0.00000000  1
  N  N9  1  0.74356200  0.25643800  0.50000000  1
