# generated using pymatgen
data_Co5Te6
_symmetry_space_group_name_H-M   'P 1'
_cell_length_a   6.61332305
_cell_length_b   6.61332305
_cell_length_c   6.61332280
_cell_angle_alpha   61.35721123
_cell_angle_beta   61.35721123
_cell_angle_gamma   61.35721799
_symmetry_Int_Tables_number   1
_chemical_formula_structural   Co5Te6
_chemical_formula_sum   'Co5 Te6'
_cell_volume   210.76118915
_cell_formula_units_Z   1
loop_
 _symmetry_equiv_pos_site_id
 _symmetry_equiv_pos_as_xyz
  1  'x, y, z'
loop_
 _atom_site_type_symbol
 _atom_site_label
 _atom_site_symmetry_multiplicity
 _atom_site_fract_x
 _atom_site_fract_y
 _atom_site_fract_z
 _atom_site_occupancy
  Co  Co0  1  0.83778800  0.83778800  0.83778800  1
  Co  Co1  1  0.50000000  0.50000000  0.50000000  1
  Co  Co2  1  0.16221200  0.16221200  0.16221200  1
  Co  Co3  1  0.66718100  0.66718100  0.66718100  1
  Co  Co4  1  0.33281900  0.33281900  0.33281900  1
  Te  Te5  1  0.08284500  0.42258300  0.75147700  1
  Te  Te6  1  0.75147700  0.08284500  0.42258300  1
  Te  Te7  1  0.42258300  0.75147700  0.08284500  1
  Te  Te8  1  0.91715500  0.57741700  0.24852300  1
  Te  Te9  1  0.57741700  0.24852300  0.91715500  1
  Te  Te10  1  0.24852300  0.91715500  0.57741700  1
