# generated using pymatgen
data_Cs8Na4YHo3Cl24
_symmetry_space_group_name_H-M   'P 1'
_cell_length_a   25.56824509
_cell_length_b   25.56824509
_cell_length_c   25.56824534
_cell_angle_alpha   17.34203854
_cell_angle_beta   17.34203854
_cell_angle_gamma   17.34203680
_symmetry_Int_Tables_number   1
_chemical_formula_structural   Cs8Na4YHo3Cl24
_chemical_formula_sum   'Cs8 Na4 Y1 Ho3 Cl24'
_cell_volume   1295.94882278
_cell_formula_units_Z   1
loop_
 _symmetry_equiv_pos_site_id
 _symmetry_equiv_pos_as_xyz
  1  'x, y, z'
loop_
 _atom_site_type_symbol
 _atom_site_label
 _atom_site_symmetry_multiplicity
 _atom_site_fract_x
 _atom_site_fract_y
 _atom_site_fract_z
 _atom_site_occupancy
  Cs  Cs0  1  0.81250200  0.81250200  0.81250200  1
  Cs  Cs1  1  0.06251300  0.06251300  0.06251300  1
  Cs  Cs2  1  0.31248500  0.31248500  0.31248500  1
  Cs  Cs3  1  0.56250200  0.56250200  0.56250200  1
  Cs  Cs4  1  0.43749800  0.43749800  0.43749800  1
  Cs  Cs5  1  0.68751500  0.68751500  0.68751500  1
  Cs  Cs6  1  0.93748700  0.93748700  0.93748700  1
  Cs  Cs7  1  0.18749800  0.18749800  0.18749800  1
  Na  Na8  1  0.12500000  0.12500000  0.12500000  1
  Na  Na9  1  0.37501100  0.37501100  0.37501100  1
  Na  Na10  1  0.62498900  0.62498900  0.62498900  1
  Na  Na11  1  0.87500000  0.87500000  0.87500000  1
  Y  Y12  1  0.00000000  0.00000000  0.00000000  1
  Ho  Ho13  1  0.24999800  0.24999800  0.24999800  1
  Ho  Ho14  1  0.50000000  0.50000000  0.50000000  1
  Ho  Ho15  1  0.75000200  0.75000200  0.75000200  1
  Cl  Cl16  1  0.80160600  0.31903700  0.31903700  1
  Cl  Cl17  1  0.05157100  0.56905900  0.56905900  1
  Cl  Cl18  1  0.30367400  0.81779500  0.81779500  1
  Cl  Cl19  1  0.55162200  0.06902800  0.06902800  1
  Cl  Cl20  1  0.93097200  0.93097200  0.44837800  1
  Cl  Cl21  1  0.18220500  0.18220500  0.69632600  1
  Cl  Cl22  1  0.43094100  0.43094100  0.94842900  1
  Cl  Cl23  1  0.68096300  0.68096300  0.19839400  1
  Cl  Cl24  1  0.31903700  0.80160600  0.31903700  1
  Cl  Cl25  1  0.56905900  0.05157100  0.56905900  1
  Cl  Cl26  1  0.81779500  0.30367400  0.81779500  1
  Cl  Cl27  1  0.06902800  0.55162200  0.06902800  1
  Cl  Cl28  1  0.44837800  0.93097200  0.93097200  1
  Cl  Cl29  1  0.69632600  0.18220500  0.18220500  1
  Cl  Cl30  1  0.94842900  0.43094100  0.43094100  1
  Cl  Cl31  1  0.19839400  0.68096300  0.68096300  1
  Cl  Cl32  1  0.31903700  0.31903700  0.80160600  1
  Cl  Cl33  1  0.56905900  0.56905900  0.05157100  1
  Cl  Cl34  1  0.81779500  0.81779500  0.30367400  1
  Cl  Cl35  1  0.06902800  0.06902800  0.55162200  1
  Cl  Cl36  1  0.93097200  0.44837800  0.93097200  1
  Cl  Cl37  1  0.18220500  0.69632600  0.18220500  1
  Cl  Cl38  1  0.43094100  0.94842900  0.43094100  1
  Cl  Cl39  1  0.68096300  0.19839400  0.68096300  1
