# generated using pymatgen
data_Er2Si2PbO8
_symmetry_space_group_name_H-M   'P 1'
_cell_length_a   9.76821582
_cell_length_b   9.76821582
_cell_length_c   6.90955500
_cell_angle_alpha   90.00000000
_cell_angle_beta   90.00000000
_cell_angle_gamma   119.99999879
_symmetry_Int_Tables_number   1
_chemical_formula_structural   Er2Si2PbO8
_chemical_formula_sum   'Er6 Si6 Pb3 O24'
_cell_volume   570.96726280
_cell_formula_units_Z   3
loop_
 _symmetry_equiv_pos_site_id
 _symmetry_equiv_pos_as_xyz
  1  'x, y, z'
loop_
 _atom_site_type_symbol
 _atom_site_label
 _atom_site_symmetry_multiplicity
 _atom_site_fract_x
 _atom_site_fract_y
 _atom_site_fract_z
 _atom_site_occupancy
  Er  Er0  1  0.72358900  0.00271100  0.24870100  1
  Er  Er1  1  0.99728900  0.72087700  0.24870100  1
  Er  Er2  1  0.27912300  0.27641100  0.24870100  1
  Er  Er3  1  0.27227000  0.99122800  0.75400400  1
  Er  Er4  1  0.00877200  0.28104200  0.75400400  1
  Er  Er5  1  0.71895800  0.72773000  0.75400400  1
  Si  Si6  1  0.63464200  0.98989200  0.75112900  1
  Si  Si7  1  0.01010800  0.64475000  0.75112900  1
  Si  Si8  1  0.35525000  0.36535800  0.75112900  1
  Si  Si9  1  0.36019100  0.00754000  0.25251900  1
  Si  Si10  1  0.99246000  0.35265100  0.25251900  1
  Si  Si11  1  0.64734900  0.63980900  0.25251900  1
  Pb  Pb12  1  0.33333300  0.66666700  0.45569200  1
  Pb  Pb13  1  0.66666700  0.33333300  0.99655400  1
  Pb  Pb14  1  0.66666700  0.33333300  0.50806000  1
  O  O15  1  0.69029000  0.92069600  0.56802300  1
  O  O16  1  0.07930400  0.76959400  0.56802300  1
  O  O17  1  0.23040600  0.30971000  0.56802300  1
  O  O18  1  0.31575600  0.08538300  0.06806100  1
  O  O19  1  0.91461700  0.23037300  0.06806100  1
  O  O20  1  0.76962700  0.68424400  0.06806100  1
  O  O21  1  0.31060900  0.08393900  0.43500200  1
  O  O22  1  0.91606100  0.22667000  0.43500200  1
  O  O23  1  0.77333000  0.68939100  0.43500200  1
  O  O24  1  0.70273600  0.92813900  0.92920800  1
  O  O25  1  0.07186100  0.77459600  0.92920800  1
  O  O26  1  0.22540400  0.29726400  0.92920800  1
  O  O27  1  0.44516100  0.92715000  0.74648200  1
  O  O28  1  0.07285000  0.51801200  0.74648200  1
  O  O29  1  0.48198800  0.55483900  0.74648200  1
  O  O30  1  0.55283500  0.07346800  0.25740900  1
  O  O31  1  0.92653200  0.47936700  0.25740900  1
  O  O32  1  0.52063300  0.44716500  0.25740900  1
  O  O33  1  0.72753800  0.18713700  0.75238700  1
  O  O34  1  0.81286300  0.54040200  0.75238700  1
  O  O35  1  0.45959800  0.27246200  0.75238700  1
  O  O36  1  0.26005600  0.81602200  0.24878100  1
  O  O37  1  0.18397800  0.44403400  0.24878100  1
  O  O38  1  0.55596600  0.73994400  0.24878100  1
