# generated using pymatgen
data_CsAlFe3(SiO4)3
_symmetry_space_group_name_H-M   'P 1'
_cell_length_a   5.40154600
_cell_length_b   5.40281294
_cell_length_c   10.89781887
_cell_angle_alpha   94.61044540
_cell_angle_beta   95.09608897
_cell_angle_gamma   119.90797616
_symmetry_Int_Tables_number   1
_chemical_formula_structural   CsAlFe3(SiO4)3
_chemical_formula_sum   'Cs1 Al1 Fe3 Si3 O12'
_cell_volume   271.71571951
_cell_formula_units_Z   1
loop_
 _symmetry_equiv_pos_site_id
 _symmetry_equiv_pos_as_xyz
  1  'x, y, z'
loop_
 _atom_site_type_symbol
 _atom_site_label
 _atom_site_symmetry_multiplicity
 _atom_site_fract_x
 _atom_site_fract_y
 _atom_site_fract_z
 _atom_site_occupancy
  Cs  Cs0  1  0.50818200  0.50860000  0.02014400  1
  Al  Al1  1  0.91799700  0.25660800  0.23786500  1
  Fe  Fe2  1  0.00359100  0.00383300  0.49735200  1
  Fe  Fe3  1  0.65310500  0.34310000  0.49519300  1
  Fe  Fe4  1  0.34181300  0.64873600  0.49749200  1
  Si  Si5  1  0.25589500  0.91574600  0.23257000  1
  Si  Si6  1  0.07981100  0.74318900  0.76119800  1
  Si  Si7  1  0.74053200  0.07959300  0.76088000  1
  O  O8  1  0.96158800  0.32584400  0.40370400  1
  O  O9  1  0.32137300  0.95982800  0.39030700  1
  O  O10  1  0.04067600  0.68576100  0.60964500  1
  O  O11  1  0.67767900  0.03578600  0.60910900  1
  O  O12  1  0.06217100  0.05099000  0.18658600  1
  O  O13  1  0.93016800  0.93084400  0.81009500  1
  O  O14  1  0.63724000  0.63924700  0.40991600  1
  O  O15  1  0.37031500  0.36399900  0.59156200  1
  O  O16  1  0.08607100  0.57712200  0.17571800  1
  O  O17  1  0.55522300  0.07417600  0.17529800  1
  O  O18  1  0.92635200  0.42981100  0.81682800  1
  O  O19  1  0.43021800  0.92718800  0.81853600  1
