# generated using pymatgen
data_CoH7C3NO6
_symmetry_space_group_name_H-M   'P 1'
_cell_length_a   7.36955762
_cell_length_b   7.45957347
_cell_length_c   8.20487873
_cell_angle_alpha   91.23403105
_cell_angle_beta   90.00000146
_cell_angle_gamma   119.60161841
_symmetry_Int_Tables_number   1
_chemical_formula_structural   CoH7C3NO6
_chemical_formula_sum   'Co2 H14 C6 N2 O12'
_cell_volume   392.06168560
_cell_formula_units_Z   2
loop_
 _symmetry_equiv_pos_site_id
 _symmetry_equiv_pos_as_xyz
  1  'x, y, z'
loop_
 _atom_site_type_symbol
 _atom_site_label
 _atom_site_symmetry_multiplicity
 _atom_site_fract_x
 _atom_site_fract_y
 _atom_site_fract_z
 _atom_site_occupancy
  Co  Co0  1  0.33429900  0.66696000  0.25034900  1
  Co  Co1  1  0.66734000  0.33304000  0.74965100  1
  H  H2  1  0.99869000  0.40920900  0.49863000  1
  H  H3  1  0.41001500  0.00000000  0.50000000  1
  H  H4  1  0.58948100  0.59079100  0.50137000  1
  H  H5  1  0.99813200  0.59002800  0.99897100  1
  H  H6  1  0.58828000  0.00000000  0.00000000  1
  H  H7  1  0.40810400  0.40997200  0.00102900  1
  H  H8  1  0.89440900  0.92020700  0.34491700  1
  H  H9  1  0.08400800  0.15129600  0.28142100  1
  H  H10  1  0.97420200  0.07979300  0.65508300  1
  H  H11  1  0.93271200  0.84870400  0.71857900  1
  H  H12  1  0.91866300  0.02758500  0.84541800  1
  H  H13  1  0.15300400  0.06740100  0.78103800  1
  H  H14  1  0.89107800  0.97241500  0.15458200  1
  H  H15  1  0.08560300  0.93259900  0.21896200  1
  C  C16  1  0.00147600  0.55880900  0.50153200  1
  C  C17  1  0.55982300  0.00000000  0.50000000  1
  C  C18  1  0.44266800  0.44119100  0.49846800  1
  C  C19  1  0.00026200  0.44278500  0.99926900  1
  C  C20  1  0.43815800  0.00000000  0.00000000  1
  C  C21  1  0.55747700  0.55721500  0.00073100  1
  N  N22  1  0.99152500  0.99576100  0.25000000  1
  N  N23  1  0.99576400  0.00423900  0.75000000  1
  O  O24  1  0.11278600  0.69137900  0.39831300  1
  O  O25  1  0.58490500  0.88630900  0.39545600  1
  O  O26  1  0.30574900  0.41410400  0.39126700  1
  O  O27  1  0.42140700  0.30862100  0.60168700  1
  O  O28  1  0.69859600  0.11369100  0.60454400  1
  O  O29  1  0.89164500  0.58589600  0.60873300  1
  O  O30  1  0.88722500  0.30397300  0.89502400  1
  O  O31  1  0.41206100  0.10723200  0.89376200  1
  O  O32  1  0.69266400  0.57805800  0.89617300  1
  O  O33  1  0.58325200  0.69602700  0.10497600  1
  O  O34  1  0.30482900  0.89276800  0.10623800  1
  O  O35  1  0.11460600  0.42194200  0.10382700  1
