# generated using pymatgen
data_CsP8(WO5)8
_symmetry_space_group_name_H-M   'P 1'
_cell_length_a   5.41513776
_cell_length_b   12.52385900
_cell_length_c   13.36835411
_cell_angle_alpha   90.00000000
_cell_angle_beta   90.13443747
_cell_angle_gamma   90.00000000
_symmetry_Int_Tables_number   1
_chemical_formula_structural   CsP8(WO5)8
_chemical_formula_sum   'Cs1 P8 W8 O40'
_cell_volume   906.61818227
_cell_formula_units_Z   1
loop_
 _symmetry_equiv_pos_site_id
 _symmetry_equiv_pos_as_xyz
  1  'x, y, z'
loop_
 _atom_site_type_symbol
 _atom_site_label
 _atom_site_symmetry_multiplicity
 _atom_site_fract_x
 _atom_site_fract_y
 _atom_site_fract_z
 _atom_site_occupancy
  Cs  Cs0  1  0.25422800  0.25000000  0.79686400  1
  P  P1  1  0.26516100  0.36979800  0.51818500  1
  P  P2  1  0.76457300  0.12992000  0.98071500  1
  P  P3  1  0.73647900  0.86878800  0.48062700  1
  P  P4  1  0.23506200  0.63122900  0.01999000  1
  P  P5  1  0.73647900  0.63121200  0.48062700  1
  P  P6  1  0.23506200  0.86877100  0.01999000  1
  P  P7  1  0.26516100  0.13020200  0.51818500  1
  P  P8  1  0.76457300  0.37008000  0.98071500  1
  W  W9  1  0.24806000  0.90265500  0.65178100  1
  W  W10  1  0.74788200  0.59939700  0.84971100  1
  W  W11  1  0.75469700  0.40239100  0.34786800  1
  W  W12  1  0.25402600  0.09797000  0.14993600  1
  W  W13  1  0.75469700  0.09760900  0.34786800  1
  W  W14  1  0.25402600  0.40203000  0.14993600  1
  W  W15  1  0.24806000  0.59734500  0.65178100  1
  W  W16  1  0.74788200  0.90060300  0.84971100  1
  O  O17  1  0.01474600  0.57245200  0.75952700  1
  O  O18  1  0.51561100  0.92782300  0.73348100  1
  O  O19  1  0.98296900  0.07697800  0.24352300  1
  O  O20  1  0.48592500  0.42139400  0.26680700  1
  O  O21  1  0.98296900  0.42302200  0.24352300  1
  O  O22  1  0.48592500  0.07860600  0.26680700  1
  O  O23  1  0.01474600  0.92754800  0.75952700  1
  O  O24  1  0.51561100  0.57217700  0.73348100  1
  O  O25  1  0.24967900  0.25000000  0.56205500  1
  O  O26  1  0.74517900  0.25000000  0.93407200  1
  O  O27  1  0.75606100  0.75000000  0.43430400  1
  O  O28  1  0.25479900  0.75000000  0.06627500  1
  O  O29  1  0.95217500  0.61415800  0.55213100  1
  O  O30  1  0.44524100  0.88540100  0.94726400  1
  O  O31  1  0.04989600  0.11585600  0.44602600  1
  O  O32  1  0.55526700  0.38337500  0.05374200  1
  O  O33  1  0.04989600  0.38414400  0.44602600  1
  O  O34  1  0.55526700  0.11662500  0.05374200  1
  O  O35  1  0.95217500  0.88584200  0.55213100  1
  O  O36  1  0.44524100  0.61459900  0.94726400  1
  O  O37  1  0.23341300  0.43284600  0.61500300  1
  O  O38  1  0.73262800  0.06449400  0.88448900  1
  O  O39  1  0.76534100  0.94062000  0.38775600  1
  O  O40  1  0.26409200  0.55944500  0.11333400  1
  O  O41  1  0.76534100  0.55938000  0.38775600  1
  O  O42  1  0.26409200  0.94055500  0.11333400  1
  O  O43  1  0.23341300  0.06715400  0.61500300  1
  O  O44  1  0.73262800  0.43550600  0.88448900  1
  O  O45  1  0.48268300  0.61900000  0.52713100  1
  O  O46  1  0.97876300  0.88197600  0.97517800  1
  O  O47  1  0.51896700  0.11844100  0.47062700  1
  O  O48  1  0.02286100  0.37996800  0.02426600  1
  O  O49  1  0.51896700  0.38155900  0.47062700  1
  O  O50  1  0.02286100  0.12003200  0.02426600  1
  O  O51  1  0.48268300  0.88100000  0.52713100  1
  O  O52  1  0.97876300  0.61802400  0.97517800  1
  O  O53  1  0.22582500  0.75000000  0.67001900  1
  O  O54  1  0.73733300  0.75000000  0.83580900  1
  O  O55  1  0.76074700  0.25000000  0.33470000  1
  O  O56  1  0.25811300  0.25000000  0.16590800  1
