# generated using pymatgen
data_Cs(NbS2)2
_symmetry_space_group_name_H-M   'P 1'
_cell_length_a   3.47247180
_cell_length_b   3.47184500
_cell_length_c   17.15766900
_cell_angle_alpha   90.00000000
_cell_angle_beta   90.00064680
_cell_angle_gamma   60.00598041
_symmetry_Int_Tables_number   1
_chemical_formula_structural   Cs(NbS2)2
_chemical_formula_sum   'Cs1 Nb2 S4'
_cell_volume   179.14889792
_cell_formula_units_Z   1
loop_
 _symmetry_equiv_pos_site_id
 _symmetry_equiv_pos_as_xyz
  1  'x, y, z'
loop_
 _atom_site_type_symbol
 _atom_site_label
 _atom_site_symmetry_multiplicity
 _atom_site_fract_x
 _atom_site_fract_y
 _atom_site_fract_z
 _atom_site_occupancy
  Cs  Cs0  1  0.00000000  0.00000000  0.50000000  1
  Nb  Nb1  1  0.00004800  0.99997600  0.74787500  1
  Nb  Nb2  1  0.99995200  0.00002400  0.25212500  1
  S  S3  1  0.33339200  0.33330400  0.65717200  1
  S  S4  1  0.66660800  0.66669600  0.34282800  1
  S  S5  1  0.66660800  0.66669600  0.16512300  1
  S  S6  1  0.33339200  0.33330400  0.83487700  1
