# generated using pymatgen
data_Cs3Tl2Br9
_symmetry_space_group_name_H-M   'P 1'
_cell_length_a   8.12167500
_cell_length_b   9.99251850
_cell_length_c   14.40306538
_cell_angle_alpha   93.65339766
_cell_angle_beta   90.00000000
_cell_angle_gamma   90.00000000
_symmetry_Int_Tables_number   1
_chemical_formula_structural   Cs3Tl2Br9
_chemical_formula_sum   'Cs6 Tl4 Br18'
_cell_volume   1166.51954043
_cell_formula_units_Z   2
loop_
 _symmetry_equiv_pos_site_id
 _symmetry_equiv_pos_as_xyz
  1  'x, y, z'
loop_
 _atom_site_type_symbol
 _atom_site_label
 _atom_site_symmetry_multiplicity
 _atom_site_fract_x
 _atom_site_fract_y
 _atom_site_fract_z
 _atom_site_occupancy
  Cs  Cs0  1  0.74965000  0.32488100  0.42427200  1
  Cs  Cs1  1  0.24965000  0.67511900  0.57572800  1
  Cs  Cs2  1  0.25009700  0.36176900  0.88634700  1
  Cs  Cs3  1  0.75009700  0.63823100  0.11365300  1
  Cs  Cs4  1  0.25036600  0.97274900  0.27496300  1
  Cs  Cs5  1  0.75036600  0.02725100  0.72503700  1
  Tl  Tl6  1  0.74707500  0.20260700  0.07016900  1
  Tl  Tl7  1  0.24707500  0.79739300  0.92983100  1
  Tl  Tl8  1  0.75000400  0.80709300  0.41486600  1
  Tl  Tl9  1  0.25000400  0.19290700  0.58513400  1
  Br  Br10  1  0.49534300  0.29915400  0.16756200  1
  Br  Br11  1  0.99534300  0.70084600  0.83243800  1
  Br  Br12  1  0.50288000  0.70492900  0.83445700  1
  Br  Br13  1  0.00288000  0.29507100  0.16554300  1
  Br  Br14  1  0.75025800  0.96951300  0.26744600  1
  Br  Br15  1  0.25025800  0.03048700  0.73255400  1
  Br  Br16  1  0.50022800  0.65124400  0.33931000  1
  Br  Br17  1  0.00022800  0.34875600  0.66069000  1
  Br  Br18  1  0.49973600  0.34905500  0.66080900  1
  Br  Br19  1  0.99973600  0.65094500  0.33919100  1
  Br  Br20  1  0.75161700  0.34706400  0.91979400  1
  Br  Br21  1  0.25161700  0.65293600  0.08020600  1
  Br  Br22  1  0.74995800  0.68946800  0.57923900  1
  Br  Br23  1  0.24995800  0.31053200  0.42076100  1
  Br  Br24  1  0.00007300  0.99995100  0.49992700  1
  Br  Br25  1  0.50007300  0.00004900  0.50007300  1
  Br  Br26  1  0.71601500  0.96046600  0.99337500  1
  Br  Br27  1  0.21601500  0.03953400  0.00662500  1
