# generated using pymatgen
data_CsRb3(Mo3O10)2
_symmetry_space_group_name_H-M   'P 1'
_cell_length_a   8.59458316
_cell_length_b   8.67730956
_cell_length_c   8.84149218
_cell_angle_alpha   63.12704157
_cell_angle_beta   85.73939272
_cell_angle_gamma   74.44576942
_symmetry_Int_Tables_number   1
_chemical_formula_structural   CsRb3(Mo3O10)2
_chemical_formula_sum   'Cs1 Rb3 Mo6 O20'
_cell_volume   565.78810824
_cell_formula_units_Z   1
loop_
 _symmetry_equiv_pos_site_id
 _symmetry_equiv_pos_as_xyz
  1  'x, y, z'
loop_
 _atom_site_type_symbol
 _atom_site_label
 _atom_site_symmetry_multiplicity
 _atom_site_fract_x
 _atom_site_fract_y
 _atom_site_fract_z
 _atom_site_occupancy
  Cs  Cs0  1  0.69078700  0.76548300  0.90871800  1
  Rb  Rb1  1  0.15383600  0.97514800  0.72445100  1
  Rb  Rb2  1  0.84625200  0.02482300  0.27554500  1
  Rb  Rb3  1  0.30854600  0.23733100  0.08929400  1
  Mo  Mo4  1  0.45451200  0.30497200  0.53430000  1
  Mo  Mo5  1  0.54534800  0.69585500  0.46486000  1
  Mo  Mo6  1  0.03461400  0.55712700  0.64465000  1
  Mo  Mo7  1  0.96656900  0.44160300  0.35619900  1
  Mo  Mo8  1  0.76404800  0.34457400  0.79827300  1
  Mo  Mo9  1  0.23527100  0.65557000  0.20167100  1
  O  O10  1  0.42506200  0.12838800  0.72580500  1
  O  O11  1  0.57229800  0.87442000  0.27342100  1
  O  O12  1  0.24073200  0.45869700  0.70527800  1
  O  O13  1  0.75976200  0.53924500  0.29856900  1
  O  O14  1  0.60008100  0.20174900  0.43776100  1
  O  O15  1  0.40029300  0.79730100  0.56314000  1
  O  O16  1  0.73256500  0.62814400  0.60308400  1
  O  O17  1  0.26768400  0.37183100  0.39577700  1
  O  O18  1  0.59443400  0.40336800  0.62297800  1
  O  O19  1  0.40547100  0.59672400  0.37686400  1
  O  O20  1  0.94274100  0.40829000  0.85632400  1
  O  O21  1  0.05647800  0.59206600  0.14374000  1
  O  O22  1  0.98717100  0.76076200  0.65883800  1
  O  O23  1  0.01454600  0.23910700  0.33976900  1
  O  O24  1  0.82962300  0.11221600  0.86942100  1
  O  O25  1  0.17147500  0.88808400  0.13050500  1
  O  O26  1  0.63866400  0.36608100  0.95629200  1
  O  O27  1  0.35977800  0.63221800  0.04383800  1
  O  O28  1  0.96812500  0.35305700  0.59601500  1
  O  O29  1  0.03323300  0.64576900  0.40462100  1
