# generated using pymatgen
data_Gd2Ti12(CuO4)9
_symmetry_space_group_name_H-M   'P 1'
_cell_length_a   6.44420588
_cell_length_b   10.51308119
_cell_length_c   10.51308119
_cell_angle_alpha   60.00000000
_cell_angle_beta   90.00000000
_cell_angle_gamma   90.00000000
_symmetry_Int_Tables_number   1
_chemical_formula_structural   Gd2Ti12(CuO4)9
_chemical_formula_sum   'Gd2 Ti12 Cu9 O36'
_cell_volume   616.82231262
_cell_formula_units_Z   1
loop_
 _symmetry_equiv_pos_site_id
 _symmetry_equiv_pos_as_xyz
  1  'x, y, z'
loop_
 _atom_site_type_symbol
 _atom_site_label
 _atom_site_symmetry_multiplicity
 _atom_site_fract_x
 _atom_site_fract_y
 _atom_site_fract_z
 _atom_site_occupancy
  Gd  Gd0  1  0.00385300  0.00000000  0.00000000  1
  Gd  Gd1  1  0.66281400  0.33333300  0.33333300  1
  Ti  Ti2  1  0.83333300  0.16666700  0.16666700  1
  Ti  Ti3  1  0.49670600  0.50636200  0.50841100  1
  Ti  Ti4  1  0.16996100  0.82697100  0.82492200  1
  Ti  Ti5  1  0.83333300  0.66666700  0.66666700  1
  Ti  Ti6  1  0.49282600  0.00000000  0.00000000  1
  Ti  Ti7  1  0.17384100  0.33333300  0.33333300  1
  Ti  Ti8  1  0.83333300  0.16666700  0.66666700  1
  Ti  Ti9  1  0.49670600  0.50841100  0.98522800  1
  Ti  Ti10  1  0.16996100  0.82492200  0.34810500  1
  Ti  Ti11  1  0.16996100  0.34810500  0.82697100  1
  Ti  Ti12  1  0.83333300  0.66666700  0.16666700  1
  Ti  Ti13  1  0.49670600  0.98522800  0.50636200  1
  Cu  Cu14  1  0.99673700  0.49919100  0.49867600  1
  Cu  Cu15  1  0.66993000  0.83414200  0.83465700  1
  Cu  Cu16  1  0.33333300  0.16666700  0.16666700  1
  Cu  Cu17  1  0.66993000  0.33120000  0.83414200  1
  Cu  Cu18  1  0.33333300  0.66666700  0.16666700  1
  Cu  Cu19  1  0.99673700  0.00213300  0.49919100  1
  Cu  Cu20  1  0.33333300  0.16666700  0.66666700  1
  Cu  Cu21  1  0.99673700  0.49867600  0.00213300  1
  Cu  Cu22  1  0.66993000  0.83465700  0.33120000  1
  O  O23  1  0.24535600  0.44277900  0.62281200  1
  O  O24  1  0.91860500  0.78348800  0.95918600  1
  O  O25  1  0.58371700  0.11639600  0.29228900  1
  O  O26  1  0.34898900  0.35028400  0.17527900  1
  O  O27  1  0.00445400  0.68333400  0.50282300  1
  O  O28  1  0.68524600  0.01675700  0.84221900  1
  O  O29  1  0.98142000  0.31657700  0.49111500  1
  O  O30  1  0.66221300  0.64999900  0.83051000  1
  O  O31  1  0.31767800  0.98304900  0.15805400  1
  O  O32  1  0.08294900  0.21693800  0.04104500  1
  O  O33  1  0.74806200  0.54984500  0.37414700  1
  O  O34  1  0.42131100  0.89055400  0.71052100  1
  O  O35  1  0.42131100  0.39892400  0.89055400  1
  O  O36  1  0.08294900  0.74201900  0.21693800  1
  O  O37  1  0.74806200  0.07600900  0.54984500  1
  O  O38  1  0.66221300  0.51949100  0.64999900  1
  O  O39  1  0.31767800  0.85889600  0.98304900  1
  O  O40  1  0.98142000  0.19230900  0.31657700  1
  O  O41  1  0.68524600  0.14102500  0.01675700  1
  O  O42  1  0.34898900  0.47443800  0.35028400  1
  O  O43  1  0.00445400  0.81384200  0.68333400  1
  O  O44  1  0.91860500  0.25732400  0.78348800  1
  O  O45  1  0.58371700  0.59131500  0.11639600  1
  O  O46  1  0.24535600  0.93440900  0.44277900  1
  O  O47  1  0.00445400  0.50282300  0.81384200  1
  O  O48  1  0.68524600  0.84221900  0.14102500  1
  O  O49  1  0.34898900  0.17527900  0.47443800  1
  O  O50  1  0.58371700  0.29228900  0.59131500  1
  O  O51  1  0.24535600  0.62281200  0.93440900  1
  O  O52  1  0.91860500  0.95918600  0.25732400  1
  O  O53  1  0.74806200  0.37414700  0.07600900  1
  O  O54  1  0.42131100  0.71052100  0.39892400  1
  O  O55  1  0.08294900  0.04104500  0.74201900  1
  O  O56  1  0.31767800  0.15805400  0.85889600  1
  O  O57  1  0.98142000  0.49111500  0.19230900  1
  O  O58  1  0.66221300  0.83051000  0.51949100  1
