# generated using pymatgen
data_Cu5Sn(BO5)2
_symmetry_space_group_name_H-M   'P 1'
_cell_length_a   6.47402526
_cell_length_b   9.63949900
_cell_length_c   12.28677914
_cell_angle_alpha   90.00000000
_cell_angle_beta   94.58899064
_cell_angle_gamma   90.00000000
_symmetry_Int_Tables_number   1
_chemical_formula_structural   Cu5Sn(BO5)2
_chemical_formula_sum   'Cu20 Sn4 B8 O40'
_cell_volume   764.31509510
_cell_formula_units_Z   4
loop_
 _symmetry_equiv_pos_site_id
 _symmetry_equiv_pos_as_xyz
  1  'x, y, z'
loop_
 _atom_site_type_symbol
 _atom_site_label
 _atom_site_symmetry_multiplicity
 _atom_site_fract_x
 _atom_site_fract_y
 _atom_site_fract_z
 _atom_site_occupancy
  Cu  Cu0  1  0.01851900  0.49880000  0.27757400  1
  Cu  Cu1  1  0.98148100  0.99880000  0.22242600  1
  Cu  Cu2  1  0.98148100  0.50120000  0.72242600  1
  Cu  Cu3  1  0.01851900  0.00120000  0.77757400  1
  Cu  Cu4  1  0.00000000  0.50000000  0.00000000  1
  Cu  Cu5  1  0.00000000  0.00000000  0.50000000  1
  Cu  Cu6  1  0.52826000  0.48275200  0.27567200  1
  Cu  Cu7  1  0.47174000  0.98275200  0.22432800  1
  Cu  Cu8  1  0.47174000  0.51724800  0.72432800  1
  Cu  Cu9  1  0.52826000  0.01724800  0.77567200  1
  Cu  Cu10  1  0.50000000  0.50000000  0.00000000  1
  Cu  Cu11  1  0.50000000  0.00000000  0.50000000  1
  Cu  Cu12  1  0.74087600  0.48456100  0.49886800  1
  Cu  Cu13  1  0.25912400  0.98456100  0.00113200  1
  Cu  Cu14  1  0.25912400  0.51543900  0.50113200  1
  Cu  Cu15  1  0.74087600  0.01543900  0.99886800  1
  Cu  Cu16  1  0.78671800  0.26483300  0.87699500  1
  Cu  Cu17  1  0.21328200  0.76483300  0.62300500  1
  Cu  Cu18  1  0.21328200  0.73516700  0.12300500  1
  Cu  Cu19  1  0.78671800  0.23516700  0.37699500  1
  Sn  Sn20  1  0.28262700  0.26344100  0.87718700  1
  Sn  Sn21  1  0.71737300  0.76344100  0.62281300  1
  Sn  Sn22  1  0.71737300  0.73655900  0.12281300  1
  Sn  Sn23  1  0.28262700  0.23655900  0.37718700  1
  B  B24  1  0.18634500  0.72755400  0.86763400  1
  B  B25  1  0.81365500  0.22755400  0.63236600  1
  B  B26  1  0.81365500  0.27244600  0.13236600  1
  B  B27  1  0.18634500  0.77244600  0.36763400  1
  B  B28  1  0.69047900  0.74345300  0.86991700  1
  B  B29  1  0.30952100  0.24345300  0.63008300  1
  B  B30  1  0.30952100  0.25654700  0.13008300  1
  B  B31  1  0.69047900  0.75654700  0.36991700  1
  O  O32  1  0.82050100  0.34448000  0.03532200  1
  O  O33  1  0.17949900  0.84448000  0.46467800  1
  O  O34  1  0.17949900  0.65552000  0.96467800  1
  O  O35  1  0.82050100  0.15552000  0.53532200  1
  O  O36  1  0.49887600  0.41349600  0.85647100  1
  O  O37  1  0.50112400  0.91349600  0.64352900  1
  O  O38  1  0.50112400  0.58650400  0.14352900  1
  O  O39  1  0.49887600  0.08650400  0.35647100  1
  O  O40  1  0.16929600  0.66025700  0.76661300  1
  O  O41  1  0.83070400  0.16025700  0.73338700  1
  O  O42  1  0.83070400  0.33974300  0.23338700  1
  O  O43  1  0.16929600  0.83974300  0.26661300  1
  O  O44  1  0.78226500  0.37002900  0.63316700  1
  O  O45  1  0.21773500  0.87002900  0.86683300  1
  O  O46  1  0.21773500  0.62997100  0.36683300  1
  O  O47  1  0.78226500  0.12997100  0.13316700  1
  O  O48  1  0.68352100  0.66927100  0.77312500  1
  O  O49  1  0.31647900  0.16927100  0.72687500  1
  O  O50  1  0.31647900  0.33072900  0.22687500  1
  O  O51  1  0.68352100  0.83072900  0.27312500  1
  O  O52  1  0.08275600  0.10773400  0.91220100  1
  O  O53  1  0.91724400  0.60773400  0.58779900  1
  O  O54  1  0.91724400  0.89226600  0.08779900  1
  O  O55  1  0.08275600  0.39226600  0.41220100  1
  O  O56  1  0.55932500  0.13402900  0.90618200  1
  O  O57  1  0.44067500  0.63402900  0.59381800  1
  O  O58  1  0.44067500  0.86597100  0.09381800  1
  O  O59  1  0.55932500  0.36597100  0.40618200  1
  O  O60  1  0.01909300  0.39567000  0.85574200  1
  O  O61  1  0.98090700  0.89567000  0.64425800  1
  O  O62  1  0.98090700  0.60433000  0.14425800  1
  O  O63  1  0.01909300  0.10433000  0.35574200  1
  O  O64  1  0.28619300  0.38438900  0.62988200  1
  O  O65  1  0.71380700  0.88438900  0.87011800  1
  O  O66  1  0.71380700  0.61561100  0.37011800  1
  O  O67  1  0.28619300  0.11561100  0.12988200  1
  O  O68  1  0.31958800  0.33577200  0.03679400  1
  O  O69  1  0.68041200  0.83577200  0.46320600  1
  O  O70  1  0.68041200  0.66422800  0.96320600  1
  O  O71  1  0.31958800  0.16422800  0.53679400  1
