# generated using pymatgen
data_Cr4CdFeS8
_symmetry_space_group_name_H-M   'P 1'
_cell_length_a   7.20559063
_cell_length_b   7.20559063
_cell_length_c   7.20559063
_cell_angle_alpha   60.00000000
_cell_angle_beta   60.00000000
_cell_angle_gamma   60.00000000
_symmetry_Int_Tables_number   1
_chemical_formula_structural   Cr4CdFeS8
_chemical_formula_sum   'Cr4 Cd1 Fe1 S8'
_cell_volume   264.54146721
_cell_formula_units_Z   1
loop_
 _symmetry_equiv_pos_site_id
 _symmetry_equiv_pos_as_xyz
  1  'x, y, z'
loop_
 _atom_site_type_symbol
 _atom_site_label
 _atom_site_symmetry_multiplicity
 _atom_site_fract_x
 _atom_site_fract_y
 _atom_site_fract_z
 _atom_site_occupancy
  Cr  Cr0  1  0.62387000  0.12537700  0.12537700  1
  Cr  Cr1  1  0.12537700  0.62387000  0.12537700  1
  Cr  Cr2  1  0.12537700  0.12537700  0.62387000  1
  Cr  Cr3  1  0.12537700  0.12537700  0.12537700  1
  Cd  Cd4  1  0.75000000  0.75000000  0.75000000  1
  Fe  Fe5  1  0.50000000  0.50000000  0.50000000  1
  S  S6  1  0.32652400  0.89115900  0.89115900  1
  S  S7  1  0.89115900  0.32652400  0.89115900  1
  S  S8  1  0.89115900  0.89115900  0.32652400  1
  S  S9  1  0.89115900  0.89115900  0.89115900  1
  S  S10  1  0.89957100  0.36681000  0.36681000  1
  S  S11  1  0.36681000  0.89957100  0.36681000  1
  S  S12  1  0.36681000  0.36681000  0.89957100  1
  S  S13  1  0.36681000  0.36681000  0.36681000  1
