# generated using pymatgen
data_Cr7Se10
_symmetry_space_group_name_H-M   'P 1'
_cell_length_a   29.86441997
_cell_length_b   29.86441997
_cell_length_c   6.37051907
_cell_angle_alpha   85.19569636
_cell_angle_beta   85.19569636
_cell_angle_gamma   7.03440916
_symmetry_Int_Tables_number   1
_chemical_formula_structural   Cr7Se10
_chemical_formula_sum   'Cr14 Se20'
_cell_volume   693.36520318
_cell_formula_units_Z   2
loop_
 _symmetry_equiv_pos_site_id
 _symmetry_equiv_pos_as_xyz
  1  'x, y, z'
loop_
 _atom_site_type_symbol
 _atom_site_label
 _atom_site_symmetry_multiplicity
 _atom_site_fract_x
 _atom_site_fract_y
 _atom_site_fract_z
 _atom_site_occupancy
  Cr  Cr0  1  0.05009200  0.05009200  0.93316000  1
  Cr  Cr1  1  0.65190800  0.65190800  0.32751800  1
  Cr  Cr2  1  0.25213000  0.25213000  0.72734400  1
  Cr  Cr3  1  0.85239100  0.85239100  0.12739400  1
  Cr  Cr4  1  0.45287200  0.45287200  0.53037500  1
  Cr  Cr5  1  0.54712800  0.54712800  0.46962500  1
  Cr  Cr6  1  0.14760900  0.14760900  0.87260600  1
  Cr  Cr7  1  0.74787000  0.74787000  0.27265600  1
  Cr  Cr8  1  0.34809200  0.34809200  0.67248200  1
  Cr  Cr9  1  0.94990800  0.94990800  0.06684000  1
  Cr  Cr10  1  0.59906700  0.59906700  0.40494800  1
  Cr  Cr11  1  0.19992600  0.19992600  0.80029400  1
  Cr  Cr12  1  0.80007400  0.80007400  0.19970600  1
  Cr  Cr13  1  0.40093300  0.40093300  0.59505200  1
  Se  Se14  1  0.07429400  0.07429400  0.26621800  1
  Se  Se15  1  0.67344200  0.67344200  0.66788500  1
  Se  Se16  1  0.27336800  0.27336800  0.06815600  1
  Se  Se17  1  0.87338500  0.87338500  0.46843100  1
  Se  Se18  1  0.47162300  0.47162300  0.86824900  1
  Se  Se19  1  0.52837700  0.52837700  0.13175100  1
  Se  Se20  1  0.12661500  0.12661500  0.53156900  1
  Se  Se21  1  0.72663200  0.72663200  0.93184400  1
  Se  Se22  1  0.32655800  0.32655800  0.33211500  1
  Se  Se23  1  0.92570600  0.92570600  0.73378200  1
  Se  Se24  1  0.02496800  0.02496800  0.64244900  1
  Se  Se25  1  0.62430600  0.62430600  0.04633900  1
  Se  Se26  1  0.22435100  0.22435100  0.44482300  1
  Se  Se27  1  0.82449200  0.82449200  0.84497400  1
  Se  Se28  1  0.42489900  0.42489900  0.24404200  1
  Se  Se29  1  0.57510100  0.57510100  0.75595800  1
  Se  Se30  1  0.17550800  0.17550800  0.15502600  1
  Se  Se31  1  0.77564900  0.77564900  0.55517700  1
  Se  Se32  1  0.37569400  0.37569400  0.95366100  1
  Se  Se33  1  0.97503200  0.97503200  0.35755100  1
