# generated using pymatgen
data_Cs12Sn2Bi6O
_symmetry_space_group_name_H-M   'P 1'
_cell_length_a   13.64488745
_cell_length_b   13.64488745
_cell_length_c   6.59217500
_cell_angle_alpha   90.00000000
_cell_angle_beta   90.00000000
_cell_angle_gamma   119.99999731
_symmetry_Int_Tables_number   1
_chemical_formula_structural   Cs12Sn2Bi6O
_chemical_formula_sum   'Cs12 Sn2 Bi6 O1'
_cell_volume   1062.91683717
_cell_formula_units_Z   1
loop_
 _symmetry_equiv_pos_site_id
 _symmetry_equiv_pos_as_xyz
  1  'x, y, z'
loop_
 _atom_site_type_symbol
 _atom_site_label
 _atom_site_symmetry_multiplicity
 _atom_site_fract_x
 _atom_site_fract_y
 _atom_site_fract_z
 _atom_site_occupancy
  Cs  Cs0  1  0.90229600  0.45114800  0.24945000  1
  Cs  Cs1  1  0.54885200  0.45114800  0.24945000  1
  Cs  Cs2  1  0.54885200  0.09770400  0.24945000  1
  Cs  Cs3  1  0.09770400  0.54885200  0.75055000  1
  Cs  Cs4  1  0.45114800  0.54885200  0.75055000  1
  Cs  Cs5  1  0.45114800  0.90229600  0.75055000  1
  Cs  Cs6  1  0.22226800  0.11113400  0.27657400  1
  Cs  Cs7  1  0.88886600  0.11113400  0.27657400  1
  Cs  Cs8  1  0.88886600  0.77773200  0.27657400  1
  Cs  Cs9  1  0.77773200  0.88886600  0.72342600  1
  Cs  Cs10  1  0.11113400  0.88886600  0.72342600  1
  Cs  Cs11  1  0.11113400  0.22226800  0.72342600  1
  Sn  Sn12  1  0.66666700  0.33333300  0.75079300  1
  Sn  Sn13  1  0.33333300  0.66666700  0.24920700  1
  Bi  Bi14  1  0.57699900  0.78850000  0.24908200  1
  Bi  Bi15  1  0.21150000  0.78850000  0.24908200  1
  Bi  Bi16  1  0.21150000  0.42300100  0.24908200  1
  Bi  Bi17  1  0.42300100  0.21150000  0.75091800  1
  Bi  Bi18  1  0.78850000  0.21150000  0.75091800  1
  Bi  Bi19  1  0.78850000  0.57699900  0.75091800  1
  O  O20  1  0.00000000  0.00000000  0.50000000  1
