# generated using pymatgen
data_K4Re6Se8O11
_symmetry_space_group_name_H-M   'P 1'
_cell_length_a   8.33141300
_cell_length_b   8.89009498
_cell_length_c   9.61148520
_cell_angle_alpha   90.16653711
_cell_angle_beta   106.26082656
_cell_angle_gamma   110.33904384
_symmetry_Int_Tables_number   1
_chemical_formula_structural   K4Re6Se8O11
_chemical_formula_sum   'K4 Re6 Se8 O11'
_cell_volume   636.82196780
_cell_formula_units_Z   1
loop_
 _symmetry_equiv_pos_site_id
 _symmetry_equiv_pos_as_xyz
  1  'x, y, z'
loop_
 _atom_site_type_symbol
 _atom_site_label
 _atom_site_symmetry_multiplicity
 _atom_site_fract_x
 _atom_site_fract_y
 _atom_site_fract_z
 _atom_site_occupancy
  K  K0  1  0.72797500  0.34110000  0.35374900  1
  K  K1  1  0.25341500  0.62375200  0.65699700  1
  K  K2  1  0.54223400  0.82540200  0.37880900  1
  K  K3  1  0.43633000  0.17011500  0.62605300  1
  Re  Re4  1  0.17627600  0.27376400  0.02581200  1
  Re  Re5  1  0.86203300  0.78508100  0.00576200  1
  Re  Re6  1  0.20750700  0.01518200  0.16628100  1
  Re  Re7  1  0.79014800  0.01007200  0.85558600  1
  Re  Re8  1  0.08614800  0.95433000  0.85585900  1
  Re  Re9  1  0.91240100  0.06967800  0.17802500  1
  Se  Se10  1  0.39827000  0.13074900  0.00018100  1
  Se  Se11  1  0.59496200  0.88086700  0.01851100  1
  Se  Se12  1  0.86299700  0.27220500  0.00227600  1
  Se  Se13  1  0.15333000  0.74966200  0.02591800  1
  Se  Se14  1  0.02140000  0.19219600  0.74716100  1
  Se  Se15  1  0.98601400  0.82111900  0.27632400  1
  Se  Se16  1  0.19675800  0.31510600  0.29239900  1
  Se  Se17  1  0.67829500  0.55749800  0.61176500  1
  O  O18  1  0.75383400  0.39797800  0.63263500  1
  O  O19  1  0.17712700  0.63616400  0.35173900  1
  O  O20  1  0.34893200  0.45364200  0.02207000  1
  O  O21  1  0.70986000  0.58867600  0.93460200  1
  O  O22  1  0.67450700  0.59950200  0.43601500  1
  O  O23  1  0.45151600  0.46901200  0.59809100  1
  O  O24  1  0.39502900  0.07987400  0.33513800  1
  O  O25  1  0.60563900  0.91556400  0.69739200  1
  O  O26  1  0.08487700  0.84607900  0.69941700  1
  O  O27  1  0.83037600  0.07015600  0.33340000  1
  O  O28  1  0.08280900  0.47347500  0.34103500  1
