# generated using pymatgen
data_Dy3Si4
_symmetry_space_group_name_H-M   'P 1'
_cell_length_a   3.87812321
_cell_length_b   4.14757700
_cell_length_c   36.40865248
_cell_angle_alpha   86.73474049
_cell_angle_beta   90.40354713
_cell_angle_gamma   90.00000000
_symmetry_Int_Tables_number   1
_chemical_formula_structural   Dy3Si4
_chemical_formula_sum   'Dy12 Si16'
_cell_volume   584.66113351
_cell_formula_units_Z   4
loop_
 _symmetry_equiv_pos_site_id
 _symmetry_equiv_pos_as_xyz
  1  'x, y, z'
loop_
 _atom_site_type_symbol
 _atom_site_label
 _atom_site_symmetry_multiplicity
 _atom_site_fract_x
 _atom_site_fract_y
 _atom_site_fract_z
 _atom_site_occupancy
  Dy  Dy0  1  0.25269500  0.90008400  0.19983200  1
  Dy  Dy1  1  0.25168400  0.23359300  0.53281200  1
  Dy  Dy2  1  0.24931500  0.56772900  0.86454300  1
  Dy  Dy3  1  0.75117800  0.43192200  0.13615500  1
  Dy  Dy4  1  0.74989000  0.76591000  0.46818100  1
  Dy  Dy5  1  0.74988500  0.09980500  0.80039000  1
  Dy  Dy6  1  0.25096000  0.47674100  0.04651700  1
  Dy  Dy7  1  0.24537400  0.80952400  0.38095200  1
  Dy  Dy8  1  0.24566300  0.14287200  0.71425700  1
  Dy  Dy9  1  0.76661000  0.85672000  0.28655900  1
  Dy  Dy10  1  0.76570000  0.18998000  0.62003900  1
  Dy  Dy11  1  0.74941800  0.52314500  0.95371100  1
  Si  Si12  1  0.26006400  0.37066900  0.25866100  1
  Si  Si13  1  0.25966900  0.70405900  0.59188200  1
  Si  Si14  1  0.25141100  0.03992100  0.92015900  1
  Si  Si15  1  0.74866500  0.95989100  0.08021800  1
  Si  Si16  1  0.74670800  0.29647300  0.40705600  1
  Si  Si17  1  0.74669300  0.63010700  0.73978500  1
  Si  Si18  1  0.25027900  0.94010500  0.11978900  1
  Si  Si19  1  0.24963900  0.27550300  0.44899500  1
  Si  Si20  1  0.24994000  0.60929500  0.78141000  1
  Si  Si21  1  0.75348100  0.39089200  0.21821600  1
  Si  Si22  1  0.75227700  0.72458800  0.55082200  1
  Si  Si23  1  0.74981600  0.05979700  0.88040600  1
  Si  Si24  1  0.30390100  0.33847100  0.32305700  1
  Si  Si25  1  0.30674000  0.67175800  0.65648500  1
  Si  Si26  1  0.24903500  0.00826800  0.98346400  1
  Si  Si27  1  0.75131100  0.99157700  0.01684500  1
