# generated using pymatgen
data_Cs3Cl5O
_symmetry_space_group_name_H-M   'P 1'
_cell_length_a   10.35422262
_cell_length_b   10.35422262
_cell_length_c   6.91242700
_cell_angle_alpha   90.00000000
_cell_angle_beta   90.00000000
_cell_angle_gamma   120.00000394
_symmetry_Int_Tables_number   1
_chemical_formula_structural   Cs3Cl5O
_chemical_formula_sum   'Cs6 Cl10 O2'
_cell_volume   641.79476238
_cell_formula_units_Z   2
loop_
 _symmetry_equiv_pos_site_id
 _symmetry_equiv_pos_as_xyz
  1  'x, y, z'
loop_
 _atom_site_type_symbol
 _atom_site_label
 _atom_site_symmetry_multiplicity
 _atom_site_fract_x
 _atom_site_fract_y
 _atom_site_fract_z
 _atom_site_occupancy
  Cs  Cs0  1  0.98763400  0.62969400  0.75084900  1
  Cs  Cs1  1  0.64206000  0.01236600  0.75084900  1
  Cs  Cs2  1  0.37030600  0.35794000  0.75084900  1
  Cs  Cs3  1  0.01236600  0.37030600  0.25084900  1
  Cs  Cs4  1  0.35794000  0.98763400  0.25084900  1
  Cs  Cs5  1  0.62969400  0.64206000  0.25084900  1
  Cl  Cl6  1  0.33333300  0.66666700  0.94180700  1
  Cl  Cl7  1  0.66666700  0.33333300  0.44180700  1
  Cl  Cl8  1  0.66666700  0.33333300  0.05706800  1
  Cl  Cl9  1  0.33333300  0.66666700  0.55706800  1
  Cl  Cl10  1  0.00554900  0.23886300  0.76132400  1
  Cl  Cl11  1  0.23331400  0.99445100  0.76132400  1
  Cl  Cl12  1  0.76113700  0.76668600  0.76132400  1
  Cl  Cl13  1  0.99445100  0.76113700  0.26132400  1
  Cl  Cl14  1  0.76668600  0.00554900  0.26132400  1
  Cl  Cl15  1  0.23886300  0.23331400  0.26132400  1
  O  O16  1  0.00000000  0.00000000  0.85447200  1
  O  O17  1  0.00000000  0.00000000  0.35447200  1
