# generated using pymatgen
data_Cs5CoAgCl8
_symmetry_space_group_name_H-M   'P 1'
_cell_length_a   13.77276033
_cell_length_b   13.76869057
_cell_length_c   9.43765284
_cell_angle_alpha   69.98353173
_cell_angle_beta   69.93710877
_cell_angle_gamma   40.07935950
_symmetry_Int_Tables_number   1
_chemical_formula_structural   Cs5CoAgCl8
_chemical_formula_sum   'Cs10 Co2 Ag2 Cl16'
_cell_volume   1072.89870554
_cell_formula_units_Z   2
loop_
 _symmetry_equiv_pos_site_id
 _symmetry_equiv_pos_as_xyz
  1  'x, y, z'
loop_
 _atom_site_type_symbol
 _atom_site_label
 _atom_site_symmetry_multiplicity
 _atom_site_fract_x
 _atom_site_fract_y
 _atom_site_fract_z
 _atom_site_occupancy
  Cs  Cs0  1  0.24930800  0.25069200  0.25069200  1
  Cs  Cs1  1  0.74930800  0.75069200  0.75069200  1
  Cs  Cs2  1  0.05971700  0.75270800  0.25555800  1
  Cs  Cs3  1  0.74444200  0.06798400  0.94028300  1
  Cs  Cs4  1  0.24774800  0.56577900  0.75225200  1
  Cs  Cs5  1  0.56605400  0.24664000  0.43394600  1
  Cs  Cs6  1  0.93201600  0.25555800  0.75270800  1
  Cs  Cs7  1  0.24729200  0.94028300  0.06798400  1
  Cs  Cs8  1  0.75336000  0.43394600  0.24664000  1
  Cs  Cs9  1  0.43422100  0.75225200  0.56577900  1
  Co  Co10  1  0.24992300  0.24997400  0.75007700  1
  Co  Co11  1  0.75002600  0.75007700  0.24997400  1
  Ag  Ag12  1  0.46953800  0.53046200  0.03244000  1
  Ag  Ag13  1  0.96756000  0.03244000  0.53046200  1
  Cl  Cl14  1  0.16951300  0.44278500  0.55818100  1
  Cl  Cl15  1  0.44181900  0.17047900  0.83048700  1
  Cl  Cl16  1  0.94232400  0.66993900  0.05767600  1
  Cl  Cl17  1  0.66942000  0.94262600  0.33058000  1
  Cl  Cl18  1  0.82952100  0.55818100  0.44278500  1
  Cl  Cl19  1  0.55721500  0.83048700  0.17047900  1
  Cl  Cl20  1  0.05737400  0.33058000  0.94262600  1
  Cl  Cl21  1  0.33006100  0.05767600  0.66993900  1
  Cl  Cl22  1  0.36150200  0.63849800  0.34164900  1
  Cl  Cl23  1  0.65835100  0.34164900  0.63849800  1
  Cl  Cl24  1  0.14646400  0.85353600  0.85353600  1
  Cl  Cl25  1  0.85432300  0.14567700  0.14567700  1
  Cl  Cl26  1  0.39470100  0.40553300  0.10266800  1
  Cl  Cl27  1  0.89733200  0.90290200  0.60529900  1
  Cl  Cl28  1  0.59446700  0.60529900  0.90290200  1
  Cl  Cl29  1  0.09709800  0.10266800  0.40553300  1
