# generated using pymatgen
data_Cr2FeSeS3
_symmetry_space_group_name_H-M   'P 1'
_cell_length_a   6.41449186
_cell_length_b   6.41449186
_cell_length_c   5.86412611
_cell_angle_alpha   64.02701268
_cell_angle_beta   64.02701268
_cell_angle_gamma   30.53620899
_symmetry_Int_Tables_number   1
_chemical_formula_structural   Cr2FeSeS3
_chemical_formula_sum   'Cr2 Fe1 Se1 S3'
_cell_volume   109.23155488
_cell_formula_units_Z   1
loop_
 _symmetry_equiv_pos_site_id
 _symmetry_equiv_pos_as_xyz
  1  'x, y, z'
loop_
 _atom_site_type_symbol
 _atom_site_label
 _atom_site_symmetry_multiplicity
 _atom_site_fract_x
 _atom_site_fract_y
 _atom_site_fract_z
 _atom_site_occupancy
  Cr  Cr0  1  0.74217400  0.74217400  0.31506600  1
  Cr  Cr1  1  0.26606500  0.26606500  0.68085800  1
  Fe  Fe2  1  0.98975400  0.98975400  0.00085200  1
  Se  Se3  1  0.63594000  0.63594000  0.02325300  1
  S  S4  1  0.35936200  0.35936200  0.98216600  1
  S  S5  1  0.89300500  0.89300500  0.43624200  1
  S  S6  1  0.11370100  0.11370100  0.56156200  1
