# generated using pymatgen
data_Cr3Fe3GeAs2
_symmetry_space_group_name_H-M   'P 1'
_cell_length_a   6.01300021
_cell_length_b   6.01300021
_cell_length_c   3.76856400
_cell_angle_alpha   90.00000000
_cell_angle_beta   90.00000000
_cell_angle_gamma   120.00000235
_symmetry_Int_Tables_number   1
_chemical_formula_structural   Cr3Fe3GeAs2
_chemical_formula_sum   'Cr3 Fe3 Ge1 As2'
_cell_volume   118.00188777
_cell_formula_units_Z   1
loop_
 _symmetry_equiv_pos_site_id
 _symmetry_equiv_pos_as_xyz
  1  'x, y, z'
loop_
 _atom_site_type_symbol
 _atom_site_label
 _atom_site_symmetry_multiplicity
 _atom_site_fract_x
 _atom_site_fract_y
 _atom_site_fract_z
 _atom_site_occupancy
  Cr  Cr0  1  0.42072200  0.42072200  0.50000000  1
  Cr  Cr1  1  0.57927800  0.00000000  0.50000000  1
  Cr  Cr2  1  0.00000000  0.57927800  0.50000000  1
  Fe  Fe3  1  0.75482700  0.75482700  0.00000000  1
  Fe  Fe4  1  0.24517300  0.00000000  0.00000000  1
  Fe  Fe5  1  0.00000000  0.24517300  0.00000000  1
  Ge  Ge6  1  0.00000000  0.00000000  0.50000000  1
  As  As7  1  0.66666700  0.33333300  0.00000000  1
  As  As8  1  0.33333300  0.66666700  0.00000000  1
