# generated using pymatgen
data_CsAlSi5O12
_symmetry_space_group_name_H-M   'P 1'
_cell_length_a   5.10394476
_cell_length_b   7.43077344
_cell_length_c   17.35443401
_cell_angle_alpha   89.83632179
_cell_angle_beta   89.52341201
_cell_angle_gamma   69.91383398
_symmetry_Int_Tables_number   1
_chemical_formula_structural   CsAlSi5O12
_chemical_formula_sum   'Cs2 Al2 Si10 O24'
_cell_volume   618.13446151
_cell_formula_units_Z   2
loop_
 _symmetry_equiv_pos_site_id
 _symmetry_equiv_pos_as_xyz
  1  'x, y, z'
loop_
 _atom_site_type_symbol
 _atom_site_label
 _atom_site_symmetry_multiplicity
 _atom_site_fract_x
 _atom_site_fract_y
 _atom_site_fract_z
 _atom_site_occupancy
  Cs  Cs0  1  0.81007500  0.41080300  0.26784900  1
  Cs  Cs1  1  0.22087800  0.58919700  0.76784900  1
  Al  Al2  1  0.98625600  0.85333300  0.34169600  1
  Al  Al3  1  0.83958800  0.14666700  0.84169600  1
  Si  Si4  1  0.36671900  0.05006200  0.41154600  1
  Si  Si5  1  0.42886700  0.95004400  0.58681600  1
  Si  Si6  1  0.37891100  0.04995600  0.08681600  1
  Si  Si7  1  0.41678000  0.94993800  0.91154600  1
  Si  Si8  1  0.30024500  0.48366200  0.44607400  1
  Si  Si9  1  0.77974800  0.52039900  0.55141900  1
  Si  Si10  1  0.30014700  0.47960100  0.05141900  1
  Si  Si11  1  0.78390700  0.51633800  0.94607400  1
  Si  Si12  1  0.84429400  0.15007800  0.65460100  1
  Si  Si13  1  0.99437300  0.84992200  0.15460100  1
  O  O14  1  0.12124600  0.03724700  0.35582900  1
  O  O15  1  0.16304400  0.99192100  0.64651100  1
  O  O16  1  0.15496500  0.00807900  0.14651100  1
  O  O17  1  0.15849300  0.96275300  0.85582900  1
  O  O18  1  0.21182400  0.63368000  0.37644200  1
  O  O19  1  0.84159800  0.35396800  0.61720000  1
  O  O20  1  0.19556500  0.64603200  0.11720000  1
  O  O21  1  0.84550400  0.36632000  0.87644200  1
  O  O22  1  0.59884700  0.48090800  0.48144000  1
  O  O23  1  0.07575300  0.52758200  0.51825700  1
  O  O24  1  0.60333500  0.47241800  0.01825700  1
  O  O25  1  0.07975500  0.51909200  0.98144000  1
  O  O26  1  0.93753200  0.81843300  0.24344300  1
  O  O27  1  0.75596500  0.18156700  0.74344300  1
  O  O28  1  0.66787800  0.90624900  0.38770000  1
  O  O29  1  0.62189200  0.07753000  0.60771700  1
  O  O30  1  0.69942200  0.92247000  0.10771700  1
  O  O31  1  0.57412600  0.09375100  0.88770000  1
  O  O32  1  0.30204200  0.00331100  0.50144400  1
  O  O33  1  0.30535300  0.99668900  0.00144400  1
  O  O34  1  0.35004500  0.27540400  0.40729800  1
  O  O35  1  0.61386700  0.72184400  0.59671700  1
  O  O36  1  0.33571100  0.27815600  0.09671700  1
  O  O37  1  0.62544900  0.72459600  0.90729800  1
