# generated using pymatgen
data_FeH9C5NO6
_symmetry_space_group_name_H-M   'P 1'
_cell_length_a   8.30358379
_cell_length_b   8.25471118
_cell_length_c   8.85253924
_cell_angle_alpha   90.33688759
_cell_angle_beta   117.91345993
_cell_angle_gamma   59.77676753
_symmetry_Int_Tables_number   1
_chemical_formula_structural   FeH9C5NO6
_chemical_formula_sum   'Fe2 H18 C10 N2 O12'
_cell_volume   441.83087836
_cell_formula_units_Z   2
loop_
 _symmetry_equiv_pos_site_id
 _symmetry_equiv_pos_as_xyz
  1  'x, y, z'
loop_
 _atom_site_type_symbol
 _atom_site_label
 _atom_site_symmetry_multiplicity
 _atom_site_fract_x
 _atom_site_fract_y
 _atom_site_fract_z
 _atom_site_occupancy
  Fe  Fe0  1  0.99956300  0.49916500  0.49995400  1
  Fe  Fe1  1  0.00104100  0.99923800  0.99987500  1
  H  H2  1  0.49952100  0.87525100  0.24693600  1
  H  H3  1  0.11598600  0.62826900  0.24183800  1
  H  H4  1  0.89149800  0.24120300  0.26195400  1
  H  H5  1  0.49786300  0.12802400  0.74240900  1
  H  H6  1  0.87197300  0.37465200  0.74662400  1
  H  H7  1  0.12897100  0.74050500  0.76097800  1
  H  H8  1  0.49934700  0.33802800  0.40281900  1
  H  H9  1  0.75519600  0.16368600  0.42873700  1
  H  H10  1  0.65092200  0.08501500  0.52676000  1
  H  H11  1  0.51083000  0.66378300  0.92980400  1
  H  H12  1  0.56556900  0.83807200  0.90197100  1
  H  H13  1  0.79146100  0.58505500  0.02614800  1
  H  H14  1  0.38908800  0.73321200  0.47356100  1
  H  H15  1  0.26115600  0.83550700  0.59822500  1
  H  H16  1  0.40621600  0.91906100  0.56960600  1
  H  H17  1  0.50164300  0.33492700  0.09833100  1
  H  H18  1  0.35219200  0.23200000  0.97403300  1
  H  H19  1  0.24362100  0.41894100  0.06850000  1
  C  C20  1  0.60384300  0.18325800  0.40946200  1
  C  C21  1  0.62276300  0.68312500  0.90933400  1
  C  C22  1  0.40755300  0.78592100  0.59050900  1
  C  C23  1  0.39697800  0.28559600  0.09056100  1
  C  C24  1  0.50042100  0.73983200  0.24467600  1
  C  C25  1  0.99065000  0.76164500  0.25093100  1
  C  C26  1  0.01850800  0.24571300  0.25429700  1
  C  C27  1  0.49905800  0.26127600  0.75104300  1
  C  C28  1  0.00454800  0.23888900  0.74502200  1
  C  C29  1  0.99025200  0.74524100  0.75456500  1
  N  N30  1  0.49924300  0.13872000  0.25020900  1
  N  N31  1  0.61135500  0.63790300  0.74978300  1
  O  O32  1  0.68444100  0.57163000  0.33495300  1
  O  O33  1  0.92474000  0.74171000  0.34847900  1
  O  O34  1  0.09446100  0.33770700  0.34498700  1
  O  O35  1  0.68289900  0.24063100  0.84843900  1
  O  O36  1  0.07869200  0.07134100  0.83511600  1
  O  O37  1  0.91418900  0.83758400  0.84607600  1
  O  O38  1  0.31612700  0.42870600  0.66354300  1
  O  O39  1  0.08063100  0.25338600  0.65280100  1
  O  O40  1  0.91191300  0.65994000  0.65595200  1
  O  O41  1  0.31830100  0.75464400  0.15260300  1
  O  O42  1  0.91921100  0.92899300  0.16338800  1
  O  O43  1  0.08213500  0.16034500  0.15467000  1
