# generated using pymatgen
data_Mg5Si9
_symmetry_space_group_name_H-M   'P 1'
_cell_length_a   6.78976100
_cell_length_b   6.89075023
_cell_length_c   13.20064899
_cell_angle_alpha   92.37549541
_cell_angle_beta   100.82195721
_cell_angle_gamma   116.18727197
_symmetry_Int_Tables_number   1
_chemical_formula_structural   Mg5Si9
_chemical_formula_sum   'Mg10 Si18'
_cell_volume   538.92118522
_cell_formula_units_Z   2
loop_
 _symmetry_equiv_pos_site_id
 _symmetry_equiv_pos_as_xyz
  1  'x, y, z'
loop_
 _atom_site_type_symbol
 _atom_site_label
 _atom_site_symmetry_multiplicity
 _atom_site_fract_x
 _atom_site_fract_y
 _atom_site_fract_z
 _atom_site_occupancy
  Mg  Mg0  1  0.44751900  0.42919800  0.70193900  1
  Mg  Mg1  1  0.71296700  0.75596300  0.44273200  1
  Mg  Mg2  1  0.56644000  0.15010800  0.52458300  1
  Mg  Mg3  1  0.23898100  0.72293700  0.35823200  1
  Mg  Mg4  1  0.00794100  0.60560400  0.59147100  1
  Mg  Mg5  1  0.16128700  0.29563400  0.46543900  1
  Mg  Mg6  1  0.57322500  0.72263200  0.08497500  1
  Mg  Mg7  1  0.30773100  0.29419100  0.92853300  1
  Mg  Mg8  1  0.36104300  0.02839700  0.11674600  1
  Mg  Mg9  1  0.62977700  0.05205400  0.90313900  1
  Si  Si10  1  0.07966500  0.38445800  0.09123000  1
  Si  Si11  1  0.76686300  0.49579800  0.89649400  1
  Si  Si12  1  0.33563100  0.14750300  0.32482700  1
  Si  Si13  1  0.75719100  0.97263200  0.69906200  1
  Si  Si14  1  0.66607000  0.04167900  0.30416900  1
  Si  Si15  1  0.22904600  0.93588000  0.77996300  1
  Si  Si16  1  0.75702000  0.57074200  0.24285500  1
  Si  Si17  1  0.20236700  0.56390800  0.79189700  1
  Si  Si18  1  0.94708800  0.95914300  0.24425800  1
  Si  Si19  1  0.06001300  0.01763900  0.61757200  1
  Si  Si20  1  0.91448800  0.86695200  0.85843000  1
  Si  Si21  1  0.95699700  0.00665800  0.04187600  1
  Si  Si22  1  0.37190100  0.47266800  0.25233800  1
  Si  Si23  1  0.80027800  0.33956200  0.72938100  1
  Si  Si24  1  0.71362200  0.39003900  0.07505100  1
  Si  Si25  1  0.17715500  0.64058800  0.96905100  1
  Si  Si26  1  0.42838000  0.72532800  0.57113400  1
  Si  Si27  1  0.82925700  0.41197000  0.39245600  1
