# generated using pymatgen
data_CeThSi4
_symmetry_space_group_name_H-M   'P 1'
_cell_length_a   7.67211142
_cell_length_b   7.67211142
_cell_length_c   7.67211142
_cell_angle_alpha   148.84436151
_cell_angle_beta   148.84436151
_cell_angle_gamma   44.64044851
_symmetry_Int_Tables_number   1
_chemical_formula_structural   CeThSi4
_chemical_formula_sum   'Ce1 Th1 Si4'
_cell_volume   120.50980264
_cell_formula_units_Z   1
loop_
 _symmetry_equiv_pos_site_id
 _symmetry_equiv_pos_as_xyz
  1  'x, y, z'
loop_
 _atom_site_type_symbol
 _atom_site_label
 _atom_site_symmetry_multiplicity
 _atom_site_fract_x
 _atom_site_fract_y
 _atom_site_fract_z
 _atom_site_occupancy
  Ce  Ce0  1  0.25000000  0.75000000  0.50000000  1
  Th  Th1  1  0.00000000  0.00000000  0.00000000  1
  Si  Si2  1  0.66725400  0.16725400  0.50000000  1
  Si  Si3  1  0.58407200  0.58407200  0.00000000  1
  Si  Si4  1  0.83274600  0.33274600  0.50000000  1
  Si  Si5  1  0.41592800  0.41592800  0.00000000  1
