# generated using pymatgen
data_Cr3B12Rh25
_symmetry_space_group_name_H-M   'P 1'
_cell_length_a   4.82352000
_cell_length_b   7.52212303
_cell_length_c   12.98472579
_cell_angle_alpha   90.05001639
_cell_angle_beta   90.09226651
_cell_angle_gamma   90.00541567
_symmetry_Int_Tables_number   1
_chemical_formula_structural   Cr3B12Rh25
_chemical_formula_sum   'Cr3 B12 Rh25'
_cell_volume   471.12545307
_cell_formula_units_Z   1
loop_
 _symmetry_equiv_pos_site_id
 _symmetry_equiv_pos_as_xyz
  1  'x, y, z'
loop_
 _atom_site_type_symbol
 _atom_site_label
 _atom_site_symmetry_multiplicity
 _atom_site_fract_x
 _atom_site_fract_y
 _atom_site_fract_z
 _atom_site_occupancy
  Cr  Cr0  1  0.00923400  0.68469400  0.77454200  1
  Cr  Cr1  1  0.01265700  0.99913500  0.45921800  1
  Cr  Cr2  1  0.00877800  0.50606900  0.95435700  1
  B  B3  1  0.72696400  0.22499200  0.40591700  1
  B  B4  1  0.72592800  0.72406100  0.90677800  1
  B  B5  1  0.72468200  0.77630200  0.40569700  1
  B  B6  1  0.72600600  0.27725600  0.90637800  1
  B  B7  1  0.73488200  0.00056000  0.18797400  1
  B  B8  1  0.72694900  0.49859900  0.68603500  1
  B  B9  1  0.23629300  0.28363500  0.09348100  1
  B  B10  1  0.23460400  0.78384400  0.59511700  1
  B  B11  1  0.23579700  0.71608900  0.09385900  1
  B  B12  1  0.23648100  0.21453500  0.59372400  1
  B  B13  1  0.23651400  0.49974300  0.31055800  1
  B  B14  1  0.23758700  0.99821800  0.80995800  1
  Rh  Rh15  1  0.49869400  0.00042600  0.33370400  1
  Rh  Rh16  1  0.50088300  0.50299200  0.83297700  1
  Rh  Rh17  1  0.00526000  0.50012300  0.16446500  1
  Rh  Rh18  1  0.00741400  0.99675500  0.66705900  1
  Rh  Rh19  1  0.83712600  0.19247100  0.05962600  1
  Rh  Rh20  1  0.83242200  0.68956500  0.56513300  1
  Rh  Rh21  1  0.83407400  0.80735200  0.06134500  1
  Rh  Rh22  1  0.83448900  0.30760500  0.56069300  1
  Rh  Rh23  1  0.83790100  0.50194700  0.37697400  1
  Rh  Rh24  1  0.83633300  0.99448900  0.87431300  1
  Rh  Rh25  1  0.32669700  0.31060800  0.43882400  1
  Rh  Rh26  1  0.31516400  0.80624600  0.93518300  1
  Rh  Rh27  1  0.32565500  0.68934100  0.43940400  1
  Rh  Rh28  1  0.32559500  0.18814800  0.93691700  1
  Rh  Rh29  1  0.33695700  0.99932400  0.12198100  1
  Rh  Rh30  1  0.32337200  0.50167400  0.62524300  1
  Rh  Rh31  1  0.48726100  0.68519200  0.22697000  1
  Rh  Rh32  1  0.48912200  0.18424300  0.72784500  1
  Rh  Rh33  1  0.48715200  0.31582600  0.22658600  1
  Rh  Rh34  1  0.50281200  0.80850700  0.72972000  1
  Rh  Rh35  1  0.50157000  0.50003300  0.03848000  1
  Rh  Rh36  1  0.50248600  0.99780300  0.54045400  1
  Rh  Rh37  1  0.98440200  0.81945100  0.27786200  1
  Rh  Rh38  1  0.98665900  0.33150100  0.77731200  1
  Rh  Rh39  1  0.98570700  0.18064800  0.27734100  1
