# generated using pymatgen
data_CeNd3C8
_symmetry_space_group_name_H-M   'P 1'
_cell_length_a   3.84655800
_cell_length_b   3.84655800
_cell_length_c   12.85673900
_cell_angle_alpha   90.00000000
_cell_angle_beta   90.00000000
_cell_angle_gamma   90.00000000
_symmetry_Int_Tables_number   1
_chemical_formula_structural   CeNd3C8
_chemical_formula_sum   'Ce1 Nd3 C8'
_cell_volume   190.22841885
_cell_formula_units_Z   1
loop_
 _symmetry_equiv_pos_site_id
 _symmetry_equiv_pos_as_xyz
  1  'x, y, z'
loop_
 _atom_site_type_symbol
 _atom_site_label
 _atom_site_symmetry_multiplicity
 _atom_site_fract_x
 _atom_site_fract_y
 _atom_site_fract_z
 _atom_site_occupancy
  Ce  Ce0  1  0.00000000  0.00000000  0.00000000  1
  Nd  Nd1  1  0.50000000  0.50000000  0.75130100  1
  Nd  Nd2  1  0.00000000  0.00000000  0.50000000  1
  Nd  Nd3  1  0.50000000  0.50000000  0.24869900  1
  C  C4  1  0.00000000  0.00000000  0.80102000  1
  C  C5  1  0.50000000  0.50000000  0.55019900  1
  C  C6  1  0.00000000  0.00000000  0.30014800  1
  C  C7  1  0.50000000  0.50000000  0.05071500  1
  C  C8  1  0.50000000  0.50000000  0.94928500  1
  C  C9  1  0.00000000  0.00000000  0.69985200  1
  C  C10  1  0.50000000  0.50000000  0.44980100  1
  C  C11  1  0.00000000  0.00000000  0.19898000  1
