# generated using pymatgen
data_CeGaAg
_symmetry_space_group_name_H-M   'P 1'
_cell_length_a   5.75581964
_cell_length_b   5.75581964
_cell_length_c   7.32166323
_cell_angle_alpha   52.44835831
_cell_angle_beta   52.44835831
_cell_angle_gamma   47.91602906
_symmetry_Int_Tables_number   1
_chemical_formula_structural   CeGaAg
_chemical_formula_sum   'Ce2 Ga2 Ag2'
_cell_volume   134.13626230
_cell_formula_units_Z   2
loop_
 _symmetry_equiv_pos_site_id
 _symmetry_equiv_pos_as_xyz
  1  'x, y, z'
loop_
 _atom_site_type_symbol
 _atom_site_label
 _atom_site_symmetry_multiplicity
 _atom_site_fract_x
 _atom_site_fract_y
 _atom_site_fract_z
 _atom_site_occupancy
  Ce  Ce0  1  0.53194800  0.53194800  0.70947700  1
  Ce  Ce1  1  0.46805200  0.46805200  0.29052300  1
  Ga  Ga2  1  0.84125000  0.84125000  0.11163400  1
  Ga  Ga3  1  0.15875000  0.15875000  0.88836600  1
  Ag  Ag4  1  0.17230200  0.17230200  0.27611700  1
  Ag  Ag5  1  0.82769800  0.82769800  0.72388300  1
