# generated using pymatgen
data_CoH15Br2(N3O)2
_symmetry_space_group_name_H-M   'P 1'
_cell_length_a   7.03790200
_cell_length_b   7.03964852
_cell_length_c   11.23114122
_cell_angle_alpha   86.16430619
_cell_angle_beta   86.25694156
_cell_angle_gamma   79.51018997
_symmetry_Int_Tables_number   1
_chemical_formula_structural   CoH15Br2(N3O)2
_chemical_formula_sum   'Co2 H30 Br4 N12 O4'
_cell_volume   545.11417572
_cell_formula_units_Z   2
loop_
 _symmetry_equiv_pos_site_id
 _symmetry_equiv_pos_as_xyz
  1  'x, y, z'
loop_
 _atom_site_type_symbol
 _atom_site_label
 _atom_site_symmetry_multiplicity
 _atom_site_fract_x
 _atom_site_fract_y
 _atom_site_fract_z
 _atom_site_occupancy
  Co  Co0  1  0.70763600  0.29253800  0.75012900  1
  Co  Co1  1  0.29236400  0.70746200  0.24987100  1
  H  H2  1  0.59446200  0.98038100  0.71216200  1
  H  H3  1  0.01925300  0.40566000  0.78829400  1
  H  H4  1  0.40553800  0.01961900  0.28783800  1
  H  H5  1  0.98074700  0.59434000  0.21170600  1
  H  H6  1  0.55119000  0.27244300  0.95838500  1
  H  H7  1  0.72762900  0.44861700  0.54168600  1
  H  H8  1  0.44881000  0.72755700  0.04161500  1
  H  H9  1  0.27237100  0.55138300  0.45831400  1
  H  H10  1  0.41500300  0.16546500  0.69762300  1
  H  H11  1  0.83470300  0.58555200  0.80236600  1
  H  H12  1  0.58499700  0.83453500  0.30237700  1
  H  H13  1  0.16529700  0.41444800  0.19763400  1
  H  H14  1  0.72786200  0.40066700  0.95811900  1
  H  H15  1  0.59955200  0.27216100  0.54187900  1
  H  H16  1  0.27213800  0.59933300  0.04188100  1
  H  H17  1  0.40044800  0.72783900  0.45812100  1
  H  H18  1  0.47369400  0.07600900  0.83334500  1
  H  H19  1  0.92380400  0.52639800  0.66671100  1
  H  H20  1  0.52630600  0.92399100  0.16665500  1
  H  H21  1  0.07619600  0.47360200  0.33328900  1
  H  H22  1  0.77888400  0.16080600  0.96158200  1
  H  H23  1  0.83975600  0.22074300  0.53876000  1
  H  H24  1  0.22111600  0.83919400  0.03841800  1
  H  H25  1  0.16024400  0.77925700  0.46124000  1
  H  H26  1  0.06053900  0.11200100  0.72649700  1
  H  H27  1  0.93946100  0.88799900  0.27350300  1
  H  H28  1  0.91634200  0.96904100  0.68936100  1
  H  H29  1  0.08365800  0.03095900  0.31063900  1
  H  H30  1  0.94398400  0.99521100  0.83310400  1
  H  H31  1  0.05601600  0.00478900  0.16689600  1
  Br  Br32  1  0.77665800  0.80934300  0.51166800  1
  Br  Br33  1  0.19037200  0.22317000  0.98876500  1
  Br  Br34  1  0.22334200  0.19065700  0.48833200  1
  Br  Br35  1  0.80962800  0.77683000  0.01123500  1
  N  N36  1  0.49078600  0.50917400  0.74998500  1
  N  N37  1  0.50921400  0.49082600  0.25001500  1
  N  N38  1  0.52944700  0.10732300  0.74912300  1
  N  N39  1  0.89243800  0.47090100  0.75103500  1
  N  N40  1  0.47055300  0.89267700  0.25087700  1
  N  N41  1  0.10756200  0.52909900  0.24896500  1
  N  N42  1  0.68993600  0.28029400  0.92588900  1
  N  N43  1  0.72012200  0.30974900  0.57415300  1
  N  N44  1  0.31006400  0.71970600  0.07411100  1
  N  N45  1  0.27987800  0.69025100  0.42584700  1
  N  N46  1  0.93200600  0.06744500  0.75039900  1
  N  N47  1  0.06799400  0.93255500  0.24960100  1
  O  O48  1  0.49460900  0.64929800  0.81194200  1
  O  O49  1  0.35066300  0.50524600  0.68801100  1
  O  O50  1  0.50539100  0.35070200  0.18805800  1
  O  O51  1  0.64933700  0.49475400  0.31198900  1
