# generated using pymatgen
data_Cs2CuBr3
_symmetry_space_group_name_H-M   'P 1'
_cell_length_a   7.60923100
_cell_length_b   10.58888100
_cell_length_c   13.47241800
_cell_angle_alpha   90.00000000
_cell_angle_beta   90.00000000
_cell_angle_gamma   90.00000000
_symmetry_Int_Tables_number   1
_chemical_formula_structural   Cs2CuBr3
_chemical_formula_sum   'Cs8 Cu4 Br12'
_cell_volume   1085.51638992
_cell_formula_units_Z   4
loop_
 _symmetry_equiv_pos_site_id
 _symmetry_equiv_pos_as_xyz
  1  'x, y, z'
loop_
 _atom_site_type_symbol
 _atom_site_label
 _atom_site_symmetry_multiplicity
 _atom_site_fract_x
 _atom_site_fract_y
 _atom_site_fract_z
 _atom_site_occupancy
  Cs  Cs0  1  0.76747300  0.37445500  0.60377000  1
  Cs  Cs1  1  0.73252700  0.87445500  0.89623000  1
  Cs  Cs2  1  0.26747300  0.62554500  0.39623000  1
  Cs  Cs3  1  0.23252700  0.12554500  0.10377000  1
  Cs  Cs4  1  0.74445500  0.49872700  0.15959800  1
  Cs  Cs5  1  0.75554500  0.99872700  0.34040200  1
  Cs  Cs6  1  0.24445500  0.50127300  0.84040200  1
  Cs  Cs7  1  0.25554500  0.00127300  0.65959800  1
  Cu  Cu8  1  0.80162600  0.28975500  0.93748800  1
  Cu  Cu9  1  0.69837400  0.78975500  0.56251200  1
  Cu  Cu10  1  0.30162600  0.71024500  0.06251200  1
  Cu  Cu11  1  0.19837400  0.21024500  0.43748800  1
  Br  Br12  1  0.70805100  0.16243600  0.07267700  1
  Br  Br13  1  0.79194900  0.66243600  0.42732300  1
  Br  Br14  1  0.20805100  0.83756400  0.92732300  1
  Br  Br15  1  0.29194900  0.33756400  0.57267700  1
  Br  Br16  1  0.72657800  0.49466400  0.88132400  1
  Br  Br17  1  0.77342200  0.99466400  0.61867600  1
  Br  Br18  1  0.22657800  0.50533600  0.11867600  1
  Br  Br19  1  0.27342200  0.00533600  0.38132400  1
  Br  Br20  1  0.03832200  0.19239400  0.84455000  1
  Br  Br21  1  0.46167800  0.69239400  0.65545000  1
  Br  Br22  1  0.53832200  0.80760600  0.15545000  1
  Br  Br23  1  0.96167800  0.30760600  0.34455000  1
