# generated using pymatgen
data_CdHgTe2
_symmetry_space_group_name_H-M   'P 1'
_cell_length_a   8.14089926
_cell_length_b   8.14089926
_cell_length_c   8.14089882
_cell_angle_alpha   33.60085254
_cell_angle_beta   33.60085254
_cell_angle_gamma   33.60085660
_symmetry_Int_Tables_number   1
_chemical_formula_structural   CdHgTe2
_chemical_formula_sum   'Cd1 Hg1 Te2'
_cell_volume   147.18911558
_cell_formula_units_Z   1
loop_
 _symmetry_equiv_pos_site_id
 _symmetry_equiv_pos_as_xyz
  1  'x, y, z'
loop_
 _atom_site_type_symbol
 _atom_site_label
 _atom_site_symmetry_multiplicity
 _atom_site_fract_x
 _atom_site_fract_y
 _atom_site_fract_z
 _atom_site_occupancy
  Cd  Cd0  1  0.99995200  0.99995200  0.99995200  1
  Hg  Hg1  1  0.50001500  0.50001500  0.50001500  1
  Te  Te2  1  0.12475700  0.12475700  0.12475700  1
  Te  Te3  1  0.62527600  0.62527600  0.62527600  1
