# generated using pymatgen
data_CeFeNi4
_symmetry_space_group_name_H-M   'P 1'
_cell_length_a   4.95021033
_cell_length_b   4.95021033
_cell_length_c   4.06166600
_cell_angle_alpha   90.00000000
_cell_angle_beta   90.00000000
_cell_angle_gamma   120.00000447
_symmetry_Int_Tables_number   1
_chemical_formula_structural   CeFeNi4
_chemical_formula_sum   'Ce1 Fe1 Ni4'
_cell_volume   86.19501005
_cell_formula_units_Z   1
loop_
 _symmetry_equiv_pos_site_id
 _symmetry_equiv_pos_as_xyz
  1  'x, y, z'
loop_
 _atom_site_type_symbol
 _atom_site_label
 _atom_site_symmetry_multiplicity
 _atom_site_fract_x
 _atom_site_fract_y
 _atom_site_fract_z
 _atom_site_occupancy
  Ce  Ce0  1  0.00000000  0.00000000  0.00000000  1
  Fe  Fe1  1  0.33333300  0.66666700  0.00000000  1
  Ni  Ni2  1  0.66666700  0.33333300  0.00000000  1
  Ni  Ni3  1  0.99991500  0.49995700  0.50000000  1
  Ni  Ni4  1  0.50004300  0.49995700  0.50000000  1
  Ni  Ni5  1  0.50004300  0.00008500  0.50000000  1
