# generated using pymatgen
data_CePdPt4
_symmetry_space_group_name_H-M   'P 1'
_cell_length_a   5.37393009
_cell_length_b   5.37393009
_cell_length_c   4.44985800
_cell_angle_alpha   90.00000000
_cell_angle_beta   90.00000000
_cell_angle_gamma   120.00000109
_symmetry_Int_Tables_number   1
_chemical_formula_structural   CePdPt4
_chemical_formula_sum   'Ce1 Pd1 Pt4'
_cell_volume   111.29119449
_cell_formula_units_Z   1
loop_
 _symmetry_equiv_pos_site_id
 _symmetry_equiv_pos_as_xyz
  1  'x, y, z'
loop_
 _atom_site_type_symbol
 _atom_site_label
 _atom_site_symmetry_multiplicity
 _atom_site_fract_x
 _atom_site_fract_y
 _atom_site_fract_z
 _atom_site_occupancy
  Ce  Ce0  1  0.33333300  0.66666700  0.00000000  1
  Pd  Pd1  1  0.00000000  0.00000000  0.00000000  1
  Pt  Pt2  1  0.66666700  0.33333300  0.00000000  1
  Pt  Pt3  1  0.83394900  0.16605100  0.50000000  1
  Pt  Pt4  1  0.83394900  0.66789800  0.50000000  1
  Pt  Pt5  1  0.33210200  0.16605100  0.50000000  1
