# generated using pymatgen
data_CdIn4As4S
_symmetry_space_group_name_H-M   'P 1'
_cell_length_a   4.35606910
_cell_length_b   4.35606910
_cell_length_c   17.89518586
_cell_angle_alpha   83.00916115
_cell_angle_beta   90.00000000
_cell_angle_gamma   120.00000000
_symmetry_Int_Tables_number   1
_chemical_formula_structural   CdIn4As4S
_chemical_formula_sum   'Cd1 In4 As4 S1'
_cell_volume   291.15516699
_cell_formula_units_Z   1
loop_
 _symmetry_equiv_pos_site_id
 _symmetry_equiv_pos_as_xyz
  1  'x, y, z'
loop_
 _atom_site_type_symbol
 _atom_site_label
 _atom_site_symmetry_multiplicity
 _atom_site_fract_x
 _atom_site_fract_y
 _atom_site_fract_z
 _atom_site_occupancy
  Cd  Cd0  1  0.00022600  0.00045200  0.99932200  1
  In  In1  1  0.60032500  0.20065000  0.19902500  1
  In  In2  1  0.20007500  0.40015000  0.39977500  1
  In  In3  1  0.79992200  0.59984400  0.60023400  1
  In  In4  1  0.39908900  0.79817800  0.80273300  1
  As  As5  1  0.95039400  0.90078700  0.14881900  1
  As  As6  1  0.54990900  0.09981800  0.35027300  1
  As  As7  1  0.14980800  0.29961600  0.55057600  1
  As  As8  1  0.74924500  0.49849000  0.75226500  1
  S  S9  1  0.35100700  0.70201400  0.94697900  1
