# generated using pymatgen
data_Ce3Sn
_symmetry_space_group_name_H-M   'P 1'
_cell_length_a   11.08930683
_cell_length_b   11.08930683
_cell_length_c   11.08930694
_cell_angle_alpha   17.90104386
_cell_angle_beta   17.90104386
_cell_angle_gamma   17.90104588
_symmetry_Int_Tables_number   1
_chemical_formula_structural   Ce3Sn
_chemical_formula_sum   'Ce3 Sn1'
_cell_volume   112.48532082
_cell_formula_units_Z   1
loop_
 _symmetry_equiv_pos_site_id
 _symmetry_equiv_pos_as_xyz
  1  'x, y, z'
loop_
 _atom_site_type_symbol
 _atom_site_label
 _atom_site_symmetry_multiplicity
 _atom_site_fract_x
 _atom_site_fract_y
 _atom_site_fract_z
 _atom_site_occupancy
  Ce  Ce0  1  0.25009700  0.25009700  0.25009700  1
  Ce  Ce1  1  0.50000000  0.50000000  0.50000000  1
  Ce  Ce2  1  0.74990300  0.74990300  0.74990300  1
  Sn  Sn3  1  0.00000000  0.00000000  0.00000000  1
