# generated using pymatgen
data_Ce2Fe3Rh
_symmetry_space_group_name_H-M   'P 1'
_cell_length_a   5.27964063
_cell_length_b   5.27964063
_cell_length_c   5.27964066
_cell_angle_alpha   56.32332067
_cell_angle_beta   56.32332067
_cell_angle_gamma   56.32331792
_symmetry_Int_Tables_number   1
_chemical_formula_structural   Ce2Fe3Rh
_chemical_formula_sum   'Ce2 Fe3 Rh1'
_cell_volume   95.21264954
_cell_formula_units_Z   1
loop_
 _symmetry_equiv_pos_site_id
 _symmetry_equiv_pos_as_xyz
  1  'x, y, z'
loop_
 _atom_site_type_symbol
 _atom_site_label
 _atom_site_symmetry_multiplicity
 _atom_site_fract_x
 _atom_site_fract_y
 _atom_site_fract_z
 _atom_site_occupancy
  Ce  Ce0  1  0.12142400  0.12142400  0.12142400  1
  Ce  Ce1  1  0.87857600  0.87857600  0.87857600  1
  Fe  Fe2  1  0.50000000  0.00000000  0.50000000  1
  Fe  Fe3  1  0.00000000  0.50000000  0.50000000  1
  Fe  Fe4  1  0.50000000  0.50000000  0.00000000  1
  Rh  Rh5  1  0.50000000  0.50000000  0.50000000  1
