# generated using pymatgen
data_Cd3FeSe4
_symmetry_space_group_name_H-M   'P 1'
_cell_length_a   4.30394414
_cell_length_b   4.30394414
_cell_length_c   14.12132200
_cell_angle_alpha   90.00000000
_cell_angle_beta   90.00000000
_cell_angle_gamma   120.00000212
_symmetry_Int_Tables_number   1
_chemical_formula_structural   Cd3FeSe4
_chemical_formula_sum   'Cd3 Fe1 Se4'
_cell_volume   226.53704453
_cell_formula_units_Z   1
loop_
 _symmetry_equiv_pos_site_id
 _symmetry_equiv_pos_as_xyz
  1  'x, y, z'
loop_
 _atom_site_type_symbol
 _atom_site_label
 _atom_site_symmetry_multiplicity
 _atom_site_fract_x
 _atom_site_fract_y
 _atom_site_fract_z
 _atom_site_occupancy
  Cd  Cd0  1  0.33333300  0.66666700  0.76277400  1
  Cd  Cd1  1  0.33333300  0.66666700  0.24231300  1
  Cd  Cd2  1  0.00000000  0.00000000  0.50114100  1
  Fe  Fe3  1  0.00000000  0.00000000  0.99586500  1
  Se  Se4  1  0.33333300  0.66666700  0.95336000  1
  Se  Se5  1  0.33333300  0.66666700  0.43178400  1
  Se  Se6  1  0.00000000  0.00000000  0.69163500  1
  Se  Se7  1  0.00000000  0.00000000  0.17112800  1
