# generated using pymatgen
data_K4Re6TeC6S7N6
_symmetry_space_group_name_H-M   'P 1'
_cell_length_a   15.21500851
_cell_length_b   15.21500851
_cell_length_c   15.21500851
_cell_angle_alpha   70.52877937
_cell_angle_beta   70.52877937
_cell_angle_gamma   109.47122063
_symmetry_Int_Tables_number   1
_chemical_formula_structural   K4Re6TeC6S7N6
_chemical_formula_sum   'K16 Re24 Te4 C24 S28 N24'
_cell_volume   2711.40697053
_cell_formula_units_Z   4
loop_
 _symmetry_equiv_pos_site_id
 _symmetry_equiv_pos_as_xyz
  1  'x, y, z'
loop_
 _atom_site_type_symbol
 _atom_site_label
 _atom_site_symmetry_multiplicity
 _atom_site_fract_x
 _atom_site_fract_y
 _atom_site_fract_z
 _atom_site_occupancy
  K  K0  1  -0.00000000  -0.00000000  0.50060098  1
  K  K1  1  0.49939902  0.50000000  0.50000000  1
  K  K2  1  0.00060098  0.50060098  0.99939902  1
  K  K3  1  0.50000000  0.99939902  0.00000000  1
  K  K4  1  0.25000000  0.94268732  0.30731268  1
  K  K5  1  0.75000000  0.55731268  0.19268732  1
  K  K6  1  0.69268732  0.75000000  0.55731268  1
  K  K7  1  0.80731268  0.25000000  0.94268732  1
  K  K8  1  0.05731268  0.30731268  0.25000000  1
  K  K9  1  0.44268732  0.19268732  0.75000000  1
  K  K10  1  0.75000000  0.05686882  0.69313118  1
  K  K11  1  0.25000000  0.44313118  0.80686882  1
  K  K12  1  0.30686882  0.25000000  0.44313118  1
  K  K13  1  0.19313118  0.75000000  0.05686882  1
  K  K14  1  0.94313118  0.69313118  0.75000000  1
  K  K15  1  0.55686882  0.80686882  0.25000000  1
  Re  Re16  1  0.10207719  0.99034774  0.03894835  1
  Re  Re17  1  0.97070390  0.50965226  0.38827055  1
  Re  Re18  1  0.52929610  0.14102555  0.46105165  1
  Re  Re19  1  0.39792281  0.35897445  0.11172945  1
  Re  Re20  1  0.88827055  0.89792281  0.14102555  1
  Re  Re21  1  0.53894835  0.02929610  0.35897445  1
  Re  Re22  1  0.61172945  0.47070390  0.99034774  1
  Re  Re23  1  0.96105165  0.60207719  0.50965226  1
  Re  Re24  1  0.00965226  0.11172945  0.02929610  1
  Re  Re25  1  0.49034774  0.46105165  0.89792281  1
  Re  Re26  1  0.85897445  0.38827055  0.60207719  1
  Re  Re27  1  0.64102555  0.03894835  0.47070390  1
  Re  Re28  1  0.89917525  0.00952208  0.95816667  1
  Re  Re29  1  0.03231125  0.49047792  0.61034683  1
  Re  Re30  1  0.46768875  0.85734192  0.54183333  1
  Re  Re31  1  0.60082475  0.64265808  0.88965317  1
  Re  Re32  1  0.11034683  0.10082475  0.85734192  1
  Re  Re33  1  0.45816667  0.96768875  0.64265808  1
  Re  Re34  1  0.38965317  0.53231125  0.00952208  1
  Re  Re35  1  0.04183333  0.39917525  0.49047792  1
  Re  Re36  1  0.99047792  0.88965317  0.96768875  1
  Re  Re37  1  0.50952208  0.54183333  0.10082475  1
  Re  Re38  1  0.14265808  0.61034683  0.39917525  1
  Re  Re39  1  0.35734192  0.95816667  0.53231125  1
  Te  Te40  1  -0.00000000  0.00000000  0.21826711  1
  Te  Te41  1  0.78173289  0.50000000  0.50000000  1
  Te  Te42  1  0.71826711  0.21826711  0.28173289  1
  Te  Te43  1  0.50000000  0.28173289  0.00000000  1
  C  C44  1  0.22126183  0.98442987  0.07745861  1
  C  C45  1  0.93811152  0.51557013  0.26316804  1
  C  C46  1  0.56188848  0.29872044  0.42254139  1
  C  C47  1  0.27873817  0.20127956  0.23683196  1
  C  C48  1  0.76316804  0.77873817  0.29872044  1
  C  C49  1  0.57745861  0.06188848  0.20127956  1
  C  C50  1  0.73683196  0.43811152  0.98442987  1
  C  C51  1  0.92254139  0.72126183  0.51557013  1
  C  C52  1  0.01557013  0.23683196  0.06188848  1
  C  C53  1  0.48442987  0.42254139  0.77873817  1
  C  C54  1  0.70127956  0.26316804  0.72126183  1
  C  C55  1  0.79872044  0.07745861  0.43811152  1
  C  C56  1  0.77934741  0.01554631  0.92082778  1
  C  C57  1  0.06362592  0.48445369  0.73619889  1
  C  C58  1  0.43637408  0.70017519  0.57917222  1
  C  C59  1  0.72065259  0.79982481  0.76380111  1
  C  C60  1  0.23619889  0.22065259  0.70017519  1
  C  C61  1  0.42082778  0.93637408  0.79982481  1
  C  C62  1  0.26380111  0.56362592  0.01554631  1
  C  C63  1  0.07917222  0.27934741  0.48445369  1
  C  C64  1  0.98445369  0.76380111  0.93637408  1
  C  C65  1  0.51554631  0.57917222  0.22065259  1
  C  C66  1  0.29982481  0.73619889  0.27934741  1
  C  C67  1  0.20017519  0.92082778  0.56362592  1
  S  S68  1  0.98183748  0.79711333  0.13658516  1
  S  S69  1  0.06630151  0.70288667  0.31527585  1
  S  S70  1  0.43369849  0.11842264  0.36341484  1
  S  S71  1  0.51816252  0.38157736  0.18472415  1
  S  S72  1  0.81527585  0.01816252  0.11842264  1
  S  S73  1  0.63658516  0.93369849  0.38157736  1
  S  S74  1  0.68472415  0.56630151  0.79711333  1
  S  S75  1  0.86341484  0.48183748  0.70288667  1
  S  S76  1  0.20288667  0.18472415  0.93369849  1
  S  S77  1  0.29711333  0.36341484  0.01816252  1
  S  S78  1  0.88157736  0.31527585  0.48183748  1
  S  S79  1  0.61842264  0.13658516  0.56630151  1
  S  S80  1  0.01818919  0.20303452  0.86035387  1
  S  S81  1  0.93661161  0.29696548  0.68484533  1
  S  S82  1  0.56338839  0.87854306  0.63964613  1
  S  S83  1  0.48181081  0.62145694  0.81515467  1
  S  S84  1  0.18484533  0.98181081  0.87854306  1
  S  S85  1  0.36035387  0.06338839  0.62145694  1
  S  S86  1  0.31515467  0.43661161  0.20303452  1
  S  S87  1  0.13964613  0.51818919  0.29696548  1
  S  S88  1  0.79696548  0.81515467  0.06338839  1
  S  S89  1  0.70303452  0.63964613  0.98181081  1
  S  S90  1  0.12145694  0.68484533  0.51818919  1
  S  S91  1  0.37854306  0.86035387  0.43661161  1
  S  S92  1  -0.00000000  0.00000000  0.80301049  1
  S  S93  1  0.19698951  0.50000000  0.50000000  1
  S  S94  1  0.30301049  0.80301049  0.69698951  1
  S  S95  1  0.50000000  0.69698951  -0.00000000  1
  N  N96  1  0.29001696  0.98336379  0.09673873  1
  N  N97  1  0.91989748  0.51663621  0.19334683  1
  N  N98  1  0.58010252  0.38675570  0.40326127  1
  N  N99  1  0.20998304  0.11324430  0.30665317  1
  N  N100  1  0.69334683  0.70998304  0.38675570  1
  N  N101  1  0.59673873  0.08010252  0.11324430  1
  N  N102  1  0.80665317  0.41989748  0.98336379  1
  N  N103  1  0.90326127  0.79001696  0.51663621  1
  N  N104  1  0.01663621  0.30665317  0.08010252  1
  N  N105  1  0.48336379  0.40326127  0.70998304  1
  N  N106  1  0.61324430  0.19334683  0.79001696  1
  N  N107  1  0.88675570  0.09673873  0.41989748  1
  N  N108  1  0.70977090  0.01701123  0.90333197  1
  N  N109  1  0.07965680  0.48298877  0.80724033  1
  N  N110  1  0.42034320  0.61310287  0.59666803  1
  N  N111  1  0.79022910  0.88689713  0.69275967  1
  N  N112  1  0.30724033  0.29022910  0.61310287  1
  N  N113  1  0.40333197  0.92034320  0.88689713  1
  N  N114  1  0.19275967  0.57965680  0.01701123  1
  N  N115  1  0.09666803  0.20977090  0.48298877  1
  N  N116  1  0.98298877  0.69275967  0.92034320  1
  N  N117  1  0.51701123  0.59666803  0.29022910  1
  N  N118  1  0.38689713  0.80724033  0.20977090  1
  N  N119  1  0.11310287  0.90333197  0.57965680  1
