# generated using pymatgen
data_Cd2TeS
_symmetry_space_group_name_H-M   'P 1'
_cell_length_a   4.44221745
_cell_length_b   4.44221745
_cell_length_c   7.26963500
_cell_angle_alpha   90.00000000
_cell_angle_beta   90.00000000
_cell_angle_gamma   119.99999178
_symmetry_Int_Tables_number   1
_chemical_formula_structural   Cd2TeS
_chemical_formula_sum   'Cd2 Te1 S1'
_cell_volume   124.23469578
_cell_formula_units_Z   1
loop_
 _symmetry_equiv_pos_site_id
 _symmetry_equiv_pos_as_xyz
  1  'x, y, z'
loop_
 _atom_site_type_symbol
 _atom_site_label
 _atom_site_symmetry_multiplicity
 _atom_site_fract_x
 _atom_site_fract_y
 _atom_site_fract_z
 _atom_site_occupancy
  Cd  Cd0  1  0.66666700  0.33333300  0.47354200  1
  Cd  Cd1  1  0.00000000  0.00000000  0.02425500  1
  Te  Te2  1  0.00000000  0.00000000  0.63003800  1
  S  S3  1  0.66666700  0.33333300  0.12016500  1
