# generated using pymatgen
data_Cd3InAu12
_symmetry_space_group_name_H-M   'P 1'
_cell_length_a   5.95465432
_cell_length_b   5.95465432
_cell_length_c   9.77728900
_cell_angle_alpha   90.00000000
_cell_angle_beta   90.00000000
_cell_angle_gamma   120.00000351
_symmetry_Int_Tables_number   1
_chemical_formula_structural   Cd3InAu12
_chemical_formula_sum   'Cd3 In1 Au12'
_cell_volume   300.23559383
_cell_formula_units_Z   1
loop_
 _symmetry_equiv_pos_site_id
 _symmetry_equiv_pos_as_xyz
  1  'x, y, z'
loop_
 _atom_site_type_symbol
 _atom_site_label
 _atom_site_symmetry_multiplicity
 _atom_site_fract_x
 _atom_site_fract_y
 _atom_site_fract_z
 _atom_site_occupancy
  Cd  Cd0  1  0.33333300  0.66666700  0.00000000  1
  Cd  Cd1  1  0.00000000  0.00000000  0.75045200  1
  Cd  Cd2  1  0.00000000  0.00000000  0.24954800  1
  In  In3  1  0.66666700  0.33333300  0.50000000  1
  Au  Au4  1  0.16682300  0.83317700  0.50000000  1
  Au  Au5  1  0.16682300  0.33364600  0.50000000  1
  Au  Au6  1  0.66635400  0.83317700  0.50000000  1
  Au  Au7  1  0.83305600  0.16694400  0.00000000  1
  Au  Au8  1  0.83305600  0.66611200  0.00000000  1
  Au  Au9  1  0.33388800  0.16694400  0.00000000  1
  Au  Au10  1  0.00015100  0.50007500  0.75053300  1
  Au  Au11  1  0.49992500  0.50007500  0.75053300  1
  Au  Au12  1  0.49992500  0.99984900  0.75053300  1
  Au  Au13  1  0.00015100  0.50007500  0.24946700  1
  Au  Au14  1  0.49992500  0.50007500  0.24946700  1
  Au  Au15  1  0.49992500  0.99984900  0.24946700  1
