# generated using pymatgen
data_Ce2In2PdRh
_symmetry_space_group_name_H-M   'P 1'
_cell_length_a   4.09667000
_cell_length_b   7.68478800
_cell_length_c   13.13872024
_cell_angle_alpha   89.98915024
_cell_angle_beta   90.00000000
_cell_angle_gamma   90.00000000
_symmetry_Int_Tables_number   1
_chemical_formula_structural   Ce2In2PdRh
_chemical_formula_sum   'Ce6 In6 Pd3 Rh3'
_cell_volume   413.63371458
_cell_formula_units_Z   3
loop_
 _symmetry_equiv_pos_site_id
 _symmetry_equiv_pos_as_xyz
  1  'x, y, z'
loop_
 _atom_site_type_symbol
 _atom_site_label
 _atom_site_symmetry_multiplicity
 _atom_site_fract_x
 _atom_site_fract_y
 _atom_site_fract_z
 _atom_site_occupancy
  Ce  Ce0  1  0.50000000  0.40760800  0.00126600  1
  Ce  Ce1  1  0.50000000  0.90988200  0.49391500  1
  Ce  Ce2  1  0.50000000  0.79824700  0.79712700  1
  Ce  Ce3  1  0.50000000  0.28797800  0.29904200  1
  Ce  Ce4  1  0.50000000  0.29737600  0.70187100  1
  Ce  Ce5  1  0.50000000  0.80503300  0.20704300  1
  In  In6  1  0.00000000  0.74959900  0.00140300  1
  In  In7  1  0.00000000  0.24791700  0.49919700  1
  In  In8  1  0.00000000  0.62785400  0.62385300  1
  In  In9  1  0.00000000  0.12580300  0.12521200  1
  In  In10  1  0.00000000  0.12627700  0.87536600  1
  In  In11  1  0.00000000  0.62503200  0.37491000  1
  Pd  Pd12  1  0.00000000  0.00017900  0.66645900  1
  Pd  Pd13  1  0.00000000  0.49981200  0.16625600  1
  Pd  Pd14  1  0.00000000  0.49971700  0.83361100  1
  Rh  Rh15  1  0.00000000  0.99989200  0.33343000  1
  Rh  Rh16  1  0.50000000  0.99657900  0.99981200  1
  Rh  Rh17  1  0.50000000  0.49541500  0.50022800  1
