# generated using pymatgen
data_Cs2ZrAl2(MoO4)6
_symmetry_space_group_name_H-M   'P 1'
_cell_length_a   8.63722700
_cell_length_b   8.64229142
_cell_length_c   8.82232309
_cell_angle_alpha   99.13010007
_cell_angle_beta   98.95535346
_cell_angle_gamma   99.56192419
_symmetry_Int_Tables_number   1
_chemical_formula_structural   Cs2ZrAl2(MoO4)6
_chemical_formula_sum   'Cs2 Zr1 Al2 Mo6 O24'
_cell_volume   629.86428452
_cell_formula_units_Z   1
loop_
 _symmetry_equiv_pos_site_id
 _symmetry_equiv_pos_as_xyz
  1  'x, y, z'
loop_
 _atom_site_type_symbol
 _atom_site_label
 _atom_site_symmetry_multiplicity
 _atom_site_fract_x
 _atom_site_fract_y
 _atom_site_fract_z
 _atom_site_occupancy
  Cs  Cs0  1  0.17264200  0.17295600  0.17794900  1
  Cs  Cs1  1  0.82735800  0.82704400  0.82205100  1
  Zr  Zr2  1  0.50000000  0.50000000  0.00000000  1
  Al  Al3  1  0.50000000  0.00000000  0.50000000  1
  Al  Al4  1  0.00000000  0.50000000  0.50000000  1
  Mo  Mo5  1  0.68067200  0.21089200  0.23854700  1
  Mo  Mo6  1  0.20957800  0.22263400  0.66034000  1
  Mo  Mo7  1  0.22387000  0.68052300  0.22870600  1
  Mo  Mo8  1  0.31932800  0.78910800  0.76145300  1
  Mo  Mo9  1  0.79042200  0.77736600  0.33966000  1
  Mo  Mo10  1  0.77613000  0.31947700  0.77129400  1
  O  O11  1  0.71524500  0.04398300  0.12065100  1
  O  O12  1  0.03849500  0.09699400  0.68142800  1
  O  O13  1  0.10497700  0.71068100  0.06207300  1
  O  O14  1  0.28475500  0.95601700  0.87934900  1
  O  O15  1  0.96150500  0.90300600  0.31857200  1
  O  O16  1  0.89502300  0.28931900  0.93792700  1
  O  O17  1  0.56967200  0.32458300  0.11746100  1
  O  O18  1  0.33895100  0.11388700  0.56252000  1
  O  O19  1  0.10660100  0.57329200  0.34496200  1
  O  O20  1  0.43032800  0.67541700  0.88253900  1
  O  O21  1  0.66104900  0.88611300  0.43748000  1
  O  O22  1  0.89339900  0.42670800  0.65503800  1
  O  O23  1  0.55185300  0.15005300  0.37024600  1
  O  O24  1  0.15345800  0.36476000  0.54147700  1
  O  O25  1  0.35602800  0.54646200  0.16699700  1
  O  O26  1  0.44814700  0.84994700  0.62975400  1
  O  O27  1  0.84654200  0.63524000  0.45852300  1
  O  O28  1  0.64397200  0.45353800  0.83300300  1
  O  O29  1  0.87026300  0.32841200  0.34442800  1
  O  O30  1  0.31042500  0.33000600  0.85698200  1
  O  O31  1  0.34309000  0.87103000  0.33115900  1
  O  O32  1  0.12973700  0.67158800  0.65557200  1
  O  O33  1  0.68957500  0.66999400  0.14301800  1
  O  O34  1  0.65691000  0.12897000  0.66884100  1
