# generated using pymatgen
data_Ca4ZnCo(Si2O7)2
_symmetry_space_group_name_H-M   'P 1'
_cell_length_a   7.90866100
_cell_length_b   12.84832633
_cell_length_c   12.84827122
_cell_angle_alpha   104.02234684
_cell_angle_beta   90.00140489
_cell_angle_gamma   90.00099421
_symmetry_Int_Tables_number   1
_chemical_formula_structural   Ca4ZnCo(Si2O7)2
_chemical_formula_sum   'Ca16 Zn4 Co4 Si16 O56'
_cell_volume   1266.64835963
_cell_formula_units_Z   4
loop_
 _symmetry_equiv_pos_site_id
 _symmetry_equiv_pos_as_xyz
  1  'x, y, z'
loop_
 _atom_site_type_symbol
 _atom_site_label
 _atom_site_symmetry_multiplicity
 _atom_site_fract_x
 _atom_site_fract_y
 _atom_site_fract_z
 _atom_site_occupancy
  Ca  Ca0  1  0.33049200  0.70871100  0.46038400  1
  Ca  Ca1  1  0.33048800  0.95871100  0.21038800  1
  Ca  Ca2  1  0.33049400  0.45871000  0.71037900  1
  Ca  Ca3  1  0.33049000  0.20870900  0.96038600  1
  Ca  Ca4  1  0.16905000  0.96061600  0.70894300  1
  Ca  Ca5  1  0.16904000  0.21061100  0.45894000  1
  Ca  Ca6  1  0.16904600  0.71061200  0.95893800  1
  Ca  Ca7  1  0.16904700  0.46061600  0.20893800  1
  Ca  Ca8  1  0.66950100  0.03962300  0.79129400  1
  Ca  Ca9  1  0.66949700  0.28960800  0.54128200  1
  Ca  Ca10  1  0.66950600  0.78961300  0.04128100  1
  Ca  Ca11  1  0.66951000  0.53962200  0.29129100  1
  Ca  Ca12  1  0.83095000  0.79105200  0.53937800  1
  Ca  Ca13  1  0.83095300  0.04105700  0.28938200  1
  Ca  Ca14  1  0.83094600  0.54105400  0.78938500  1
  Ca  Ca15  1  0.83095000  0.29105800  0.03939300  1
  Zn  Zn16  1  0.49999800  0.00000800  0.49998900  1
  Zn  Zn17  1  0.50000200  0.25001200  0.24999100  1
  Zn  Zn18  1  0.50000200  0.75001200  0.74998900  1
  Zn  Zn19  1  0.49999700  0.50001200  0.99999300  1
  Co  Co20  1  0.00000300  0.49998900  0.50001200  1
  Co  Co21  1  0.00000400  0.24998900  0.75001400  1
  Co  Co22  1  0.99999900  0.74999200  0.25001300  1
  Co  Co23  1  0.99999900  0.99998500  0.00001000  1
  Si  Si24  1  0.14072600  0.69621700  0.66310500  1
  Si  Si25  1  0.14072800  0.94621500  0.41310800  1
  Si  Si26  1  0.14073300  0.44621700  0.91310300  1
  Si  Si27  1  0.14072800  0.19622000  0.16310700  1
  Si  Si28  1  0.35932000  0.16307900  0.69618900  1
  Si  Si29  1  0.35931000  0.41308100  0.44619300  1
  Si  Si30  1  0.35931500  0.91307500  0.94619500  1
  Si  Si31  1  0.35932100  0.66307500  0.19619500  1
  Si  Si32  1  0.85927400  0.83689300  0.80378200  1
  Si  Si33  1  0.85926300  0.08689100  0.55378700  1
  Si  Si34  1  0.85927400  0.58689100  0.05377900  1
  Si  Si35  1  0.85927300  0.33689900  0.30378500  1
  Si  Si36  1  0.64068900  0.80380600  0.33692300  1
  Si  Si37  1  0.64068600  0.05380500  0.08692200  1
  Si  Si38  1  0.64069200  0.55381100  0.58692200  1
  Si  Si39  1  0.64068800  0.30381200  0.83692100  1
  O  O40  1  0.50000300  0.70386500  0.29613700  1
  O  O41  1  0.49999600  0.95386800  0.04614200  1
  O  O42  1  0.50000500  0.45386300  0.54613300  1
  O  O43  1  0.50001000  0.20386500  0.79613000  1
  O  O44  1  0.99999900  0.79614200  0.70386300  1
  O  O45  1  0.00000300  0.04613500  0.45386700  1
  O  O46  1  0.99998900  0.54613300  0.95385200  1
  O  O47  1  0.99999000  0.29613000  0.20385500  1
  O  O48  1  0.31415700  0.76401100  0.65370000  1
  O  O49  1  0.31416100  0.01400800  0.40369900  1
  O  O50  1  0.31416400  0.51401100  0.90369600  1
  O  O51  1  0.31415500  0.26401700  0.15370800  1
  O  O52  1  0.68583700  0.84630300  0.73599700  1
  O  O53  1  0.68584000  0.09629100  0.48598100  1
  O  O54  1  0.68583400  0.59630000  0.98599400  1
  O  O55  1  0.68583600  0.34630500  0.23599800  1
  O  O56  1  0.58217300  0.85190200  0.46221300  1
  O  O57  1  0.58217300  0.10189700  0.21221400  1
  O  O58  1  0.58216000  0.60190000  0.71221100  1
  O  O59  1  0.58215500  0.35190100  0.96221600  1
  O  O60  1  0.41784400  0.03778500  0.64809800  1
  O  O61  1  0.41783400  0.28778800  0.39810000  1
  O  O62  1  0.41782800  0.78778700  0.89810500  1
  O  O63  1  0.41783800  0.53778700  0.14810200  1
  O  O64  1  0.18595200  0.15334600  0.76390900  1
  O  O65  1  0.18595000  0.40334900  0.51391200  1
  O  O66  1  0.18594600  0.90334500  0.01391100  1
  O  O67  1  0.18594400  0.65335300  0.26390600  1
  O  O68  1  0.81405600  0.73608900  0.34665100  1
  O  O69  1  0.81405000  0.98608800  0.09665300  1
  O  O70  1  0.81406100  0.48609600  0.59665800  1
  O  O71  1  0.81406300  0.23609800  0.84665800  1
  O  O72  1  0.91739500  0.96228500  0.85171800  1
  O  O73  1  0.91738500  0.21228300  0.60171800  1
  O  O74  1  0.91739400  0.71228300  0.10171700  1
  O  O75  1  0.91740600  0.46228500  0.35171700  1
  O  O76  1  0.08259300  0.64828500  0.53771500  1
  O  O77  1  0.08260600  0.89828900  0.28771400  1
  O  O78  1  0.08261100  0.39827800  0.78771500  1
  O  O79  1  0.08261100  0.14827900  0.03771600  1
  O  O80  1  0.14136400  0.86566100  0.49191500  1
  O  O81  1  0.14136100  0.11566100  0.24192300  1
  O  O82  1  0.14136300  0.61566100  0.74191900  1
  O  O83  1  0.14136800  0.36565500  0.99191300  1
  O  O84  1  0.35756200  0.99246900  0.86620900  1
  O  O85  1  0.35756300  0.24246600  0.61620700  1
  O  O86  1  0.35756600  0.74246900  0.11620800  1
  O  O87  1  0.35755500  0.49247300  0.36620900  1
  O  O88  1  0.85863000  0.00808200  0.63434000  1
  O  O89  1  0.85863600  0.25808300  0.38434200  1
  O  O90  1  0.85863600  0.75808400  0.88434500  1
  O  O91  1  0.85864700  0.50807700  0.13433400  1
  O  O92  1  0.64243400  0.63379000  0.50752700  1
  O  O93  1  0.64244400  0.88379200  0.25753100  1
  O  O94  1  0.64244600  0.38378800  0.75752900  1
  O  O95  1  0.64243200  0.13379400  0.00753100  1
