# generated using pymatgen
data_Cd4FeS5
_symmetry_space_group_name_H-M   'P 1'
_cell_length_a   17.94694269
_cell_length_b   17.94694269
_cell_length_c   6.79451000
_cell_angle_alpha   89.27717376
_cell_angle_beta   89.27717376
_cell_angle_gamma   13.26804860
_symmetry_Int_Tables_number   1
_chemical_formula_structural   Cd4FeS5
_chemical_formula_sum   'Cd8 Fe2 S10'
_cell_volume   502.22693867
_cell_formula_units_Z   2
loop_
 _symmetry_equiv_pos_site_id
 _symmetry_equiv_pos_as_xyz
  1  'x, y, z'
loop_
 _atom_site_type_symbol
 _atom_site_label
 _atom_site_symmetry_multiplicity
 _atom_site_fract_x
 _atom_site_fract_y
 _atom_site_fract_z
 _atom_site_occupancy
  Cd  Cd0  1  0.93030300  0.93030300  0.49818500  1
  Cd  Cd1  1  0.33188900  0.33188900  0.49444800  1
  Cd  Cd2  1  0.73454400  0.73454400  0.49514900  1
  Cd  Cd3  1  0.13279500  0.13279500  0.50055800  1
  Cd  Cd4  1  0.53187400  0.53187400  0.50030900  1
  Cd  Cd5  1  0.46215200  0.46215200  0.00303900  1
  Cd  Cd6  1  0.66956800  0.66956800  0.00236700  1
  Cd  Cd7  1  0.06566200  0.06566200  0.00142700  1
  Fe  Fe8  1  0.86138600  0.86138600  0.99737600  1
  Fe  Fe9  1  0.26862900  0.26862900  0.00286400  1
  S  S10  1  0.92440500  0.92440500  0.11842000  1
  S  S11  1  0.33212800  0.33212800  0.10868700  1
  S  S12  1  0.73965300  0.73965300  0.11037500  1
  S  S13  1  0.13355600  0.13355600  0.12209300  1
  S  S14  1  0.53031300  0.53031300  0.12252700  1
  S  S15  1  0.46445700  0.46445700  0.62333400  1
  S  S16  1  0.86403500  0.86403500  0.64985300  1
  S  S17  1  0.26571700  0.26571700  0.65236200  1
  S  S18  1  0.66671800  0.66671800  0.62257100  1
  S  S19  1  0.06544600  0.06544600  0.62405600  1
