# generated using pymatgen
data_CaLaFeO4
_symmetry_space_group_name_H-M   'P 1'
_cell_length_a   6.73534308
_cell_length_b   6.73534308
_cell_length_c   6.73534308
_cell_angle_alpha   146.28370564
_cell_angle_beta   146.28370564
_cell_angle_gamma   48.42555670
_symmetry_Int_Tables_number   1
_chemical_formula_structural   CaLaFeO4
_chemical_formula_sum   'Ca1 La1 Fe1 O4'
_cell_volume   93.74610003
_cell_formula_units_Z   1
loop_
 _symmetry_equiv_pos_site_id
 _symmetry_equiv_pos_as_xyz
  1  'x, y, z'
loop_
 _atom_site_type_symbol
 _atom_site_label
 _atom_site_symmetry_multiplicity
 _atom_site_fract_x
 _atom_site_fract_y
 _atom_site_fract_z
 _atom_site_occupancy
  Ca  Ca0  1  0.64126200  0.64126200  0.00000000  1
  La  La1  1  0.35732400  0.35732400  0.00000000  1
  Fe  Fe2  1  0.00749300  0.00749300  0.00000000  1
  O  O3  1  0.82616600  0.82616600  0.00000000  1
  O  O4  1  0.17194200  0.17194200  0.00000000  1
  O  O5  1  0.99790700  0.49790700  0.50000000  1
  O  O6  1  0.49790700  0.99790700  0.50000000  1
