# generated using pymatgen
data_CaPrCoO4
_symmetry_space_group_name_H-M   'P 1'
_cell_length_a   6.67865861
_cell_length_b   6.67865861
_cell_length_c   6.67865861
_cell_angle_alpha   146.96828069
_cell_angle_beta   146.96828069
_cell_angle_gamma   47.41075012
_symmetry_Int_Tables_number   1
_chemical_formula_structural   CaPrCoO4
_chemical_formula_sum   'Ca1 Pr1 Co1 O4'
_cell_volume   88.17392622
_cell_formula_units_Z   1
loop_
 _symmetry_equiv_pos_site_id
 _symmetry_equiv_pos_as_xyz
  1  'x, y, z'
loop_
 _atom_site_type_symbol
 _atom_site_label
 _atom_site_symmetry_multiplicity
 _atom_site_fract_x
 _atom_site_fract_y
 _atom_site_fract_z
 _atom_site_occupancy
  Ca  Ca0  1  0.64054700  0.64054700  0.00000000  1
  Pr  Pr1  1  0.35826500  0.35826500  0.00000000  1
  Co  Co2  1  0.00509700  0.00509700  0.00000000  1
  O  O3  1  0.83065900  0.83065900  0.00000000  1
  O  O4  1  0.17012400  0.17012400  0.00000000  1
  O  O5  1  0.49765400  0.99765400  0.50000000  1
  O  O6  1  0.99765400  0.49765400  0.50000000  1
