# generated using pymatgen
data_CaNdCoO4
_symmetry_space_group_name_H-M   'P 1'
_cell_length_a   6.64447935
_cell_length_b   6.64447935
_cell_length_c   5.34466800
_cell_angle_alpha   90.00000000
_cell_angle_beta   90.00000000
_cell_angle_gamma   132.71489776
_symmetry_Int_Tables_number   1
_chemical_formula_structural   CaNdCoO4
_chemical_formula_sum   'Ca2 Nd2 Co2 O8'
_cell_volume   173.37053413
_cell_formula_units_Z   2
loop_
 _symmetry_equiv_pos_site_id
 _symmetry_equiv_pos_as_xyz
  1  'x, y, z'
loop_
 _atom_site_type_symbol
 _atom_site_label
 _atom_site_symmetry_multiplicity
 _atom_site_fract_x
 _atom_site_fract_y
 _atom_site_fract_z
 _atom_site_occupancy
  Ca  Ca0  1  0.60624600  0.39375400  0.25000000  1
  Ca  Ca1  1  0.39375400  0.60624600  0.75000000  1
  Nd  Nd2  1  0.11129000  0.88871000  0.75000000  1
  Nd  Nd3  1  0.88871000  0.11129000  0.25000000  1
  Co  Co4  1  0.25118500  0.74881500  0.25000000  1
  Co  Co5  1  0.74881500  0.25118500  0.75000000  1
  O  O6  1  0.00000000  0.50000000  0.50000000  1
  O  O7  1  0.50000000  0.00000000  0.00000000  1
  O  O8  1  0.50000000  0.00000000  0.50000000  1
  O  O9  1  0.00000000  0.50000000  0.00000000  1
  O  O10  1  0.92210100  0.07789900  0.75000000  1
  O  O11  1  0.41865800  0.58134200  0.25000000  1
  O  O12  1  0.07789900  0.92210100  0.25000000  1
  O  O13  1  0.58134200  0.41865800  0.75000000  1
