# generated using pymatgen
data_Cr46(BC3)3
_symmetry_space_group_name_H-M   'P 1'
_cell_length_a   7.48411600
_cell_length_b   7.48985682
_cell_length_c   12.95033497
_cell_angle_alpha   73.50145664
_cell_angle_beta   73.40631115
_cell_angle_gamma   60.13797973
_symmetry_Int_Tables_number   1
_chemical_formula_structural   Cr46(BC3)3
_chemical_formula_sum   'Cr46 B3 C9'
_cell_volume   594.48283578
_cell_formula_units_Z   1
loop_
 _symmetry_equiv_pos_site_id
 _symmetry_equiv_pos_as_xyz
  1  'x, y, z'
loop_
 _atom_site_type_symbol
 _atom_site_label
 _atom_site_symmetry_multiplicity
 _atom_site_fract_x
 _atom_site_fract_y
 _atom_site_fract_z
 _atom_site_occupancy
  Cr  Cr0  1  0.65935500  0.34003700  0.99990200  1
  Cr  Cr1  1  0.15672200  0.84673900  0.49755500  1
  Cr  Cr2  1  0.82738700  0.17661600  0.82819000  1
  Cr  Cr3  1  0.32773700  0.67713900  0.32720400  1
  Cr  Cr4  1  0.65306500  0.00231600  0.00249100  1
  Cr  Cr5  1  0.14967100  0.50081300  0.49973500  1
  Cr  Cr6  1  0.16987600  0.16946500  0.82977100  1
  Cr  Cr7  1  0.66917900  0.66894000  0.33024500  1
  Cr  Cr8  1  0.99945900  0.33722700  0.00062600  1
  Cr  Cr9  1  0.49940400  0.83847600  0.49994500  1
  Cr  Cr10  1  0.83551000  0.49976100  0.49990600  1
  Cr  Cr11  1  0.33719800  0.99991900  0.00011000  1
  Cr  Cr12  1  0.33124700  0.32315900  0.67225500  1
  Cr  Cr13  1  0.82945700  0.82971800  0.17014100  1
  Cr  Cr14  1  0.66804600  0.33136200  0.66942600  1
  Cr  Cr15  1  0.16847400  0.83153400  0.16869900  1
  Cr  Cr16  1  0.33356100  0.67110900  0.67125400  1
  Cr  Cr17  1  0.83135800  0.16843000  0.16870000  1
  Cr  Cr18  1  0.34007200  0.65953400  0.99970700  1
  Cr  Cr19  1  0.83876700  0.16085200  0.49957100  1
  Cr  Cr20  1  0.50180100  0.15279300  0.50189300  1
  Cr  Cr21  1  0.00211700  0.65316000  0.00268100  1
  Cr  Cr22  1  0.17684300  0.82821400  0.82771700  1
  Cr  Cr23  1  0.67609800  0.32898600  0.32842100  1
  Cr  Cr24  1  0.05173100  0.56693500  0.81167100  1
  Cr  Cr25  1  0.55102800  0.06866100  0.30915000  1
  Cr  Cr26  1  0.57400700  0.57260000  0.80968600  1
  Cr  Cr27  1  0.07281800  0.07378000  0.30848200  1
  Cr  Cr28  1  0.80830300  0.81065900  0.57085400  1
  Cr  Cr29  1  0.30897000  0.30937200  0.07293300  1
  Cr  Cr30  1  0.56996600  0.04922800  0.80999000  1
  Cr  Cr31  1  0.06881700  0.55030000  0.30881600  1
  Cr  Cr32  1  0.45639800  0.92645600  0.69103700  1
  Cr  Cr33  1  0.95355400  0.42784300  0.19075600  1
  Cr  Cr34  1  0.92951800  0.93296900  0.68946400  1
  Cr  Cr35  1  0.42996100  0.42995000  0.18867900  1
  Cr  Cr36  1  0.68930200  0.68882200  0.93014200  1
  Cr  Cr37  1  0.18947700  0.18963300  0.42864800  1
  Cr  Cr38  1  0.92764300  0.45090900  0.69120000  1
  Cr  Cr39  1  0.42769900  0.95437300  0.19039100  1
  Cr  Cr40  1  0.99457700  0.99457500  0.99530800  1
  Cr  Cr41  1  0.48157800  0.49870800  0.49996900  1
  Cr  Cr42  1  0.37660000  0.37499900  0.87565100  1
  Cr  Cr43  1  0.87655000  0.87599900  0.37422000  1
  Cr  Cr44  1  0.12720800  0.12500900  0.62539200  1
  Cr  Cr45  1  0.62520100  0.62557700  0.12575000  1
  B  B46  1  0.86460900  0.86359000  0.86449100  1
  B  B47  1  0.36501700  0.36365800  0.36273600  1
  B  B48  1  0.09083700  0.63713200  0.63740100  1
  C  C49  1  0.58441900  0.13942600  0.13952300  1
  C  C50  1  0.86294100  0.41621400  0.86227000  1
  C  C51  1  0.36308300  0.91786100  0.36062700  1
  C  C52  1  0.64087300  0.63844300  0.63822300  1
  C  C53  1  0.13869200  0.13848400  0.13840900  1
  C  C54  1  0.41753400  0.86193600  0.86189900  1
  C  C55  1  0.91776200  0.36196600  0.36152000  1
  C  C56  1  0.64153700  0.08298300  0.63915400  1
  C  C57  1  0.13938900  0.58465300  0.13941300  1
