# generated using pymatgen
data_CaSmAl3O7
_symmetry_space_group_name_H-M   'P 1'
_cell_length_a   7.79996097
_cell_length_b   7.79996097
_cell_length_c   5.14050400
_cell_angle_alpha   90.00000000
_cell_angle_beta   90.00000000
_cell_angle_gamma   90.51078486
_symmetry_Int_Tables_number   1
_chemical_formula_structural   CaSmAl3O7
_chemical_formula_sum   'Ca2 Sm2 Al6 O14'
_cell_volume   312.73270552
_cell_formula_units_Z   2
loop_
 _symmetry_equiv_pos_site_id
 _symmetry_equiv_pos_as_xyz
  1  'x, y, z'
loop_
 _atom_site_type_symbol
 _atom_site_label
 _atom_site_symmetry_multiplicity
 _atom_site_fract_x
 _atom_site_fract_y
 _atom_site_fract_z
 _atom_site_occupancy
  Ca  Ca0  1  0.66043300  0.66043300  0.48320200  1
  Ca  Ca1  1  0.33956700  0.33956700  0.48320200  1
  Sm  Sm2  1  0.83746100  0.16253900  0.51179900  1
  Sm  Sm3  1  0.16253900  0.83746100  0.51179900  1
  Al  Al4  1  0.50000000  0.00000000  0.00281600  1
  Al  Al5  1  0.00000000  0.50000000  0.00281600  1
  Al  Al6  1  0.85597900  0.85597900  0.04135900  1
  Al  Al7  1  0.64348100  0.35651900  0.95703200  1
  Al  Al8  1  0.14402100  0.14402100  0.04135900  1
  Al  Al9  1  0.35651900  0.64348100  0.95703200  1
  O  O10  1  0.86580600  0.86580600  0.70210300  1
  O  O11  1  0.64826300  0.35173700  0.29530200  1
  O  O12  1  0.13419400  0.13419400  0.70210300  1
  O  O13  1  0.35173700  0.64826300  0.29530200  1
  O  O14  1  0.66331500  0.91385800  0.20019800  1
  O  O15  1  0.84206100  0.40476300  0.80064300  1
  O  O16  1  0.33668500  0.08614200  0.20019800  1
  O  O17  1  0.15793900  0.59523700  0.80064300  1
  O  O18  1  0.40476300  0.84206100  0.80064300  1
  O  O19  1  0.08614200  0.33668500  0.20019800  1
  O  O20  1  0.59523700  0.15793900  0.80064300  1
  O  O21  1  0.91385800  0.66331500  0.20019800  1
  O  O22  1  0.50000000  0.50000000  0.81335800  1
  O  O23  1  0.00000000  0.00000000  0.19605100  1
