# generated using pymatgen
data_CaMgCd
_symmetry_space_group_name_H-M   'P 1'
_cell_length_a   6.01290352
_cell_length_b   6.01290352
_cell_length_c   10.10377700
_cell_angle_alpha   90.00000000
_cell_angle_beta   90.00000000
_cell_angle_gamma   119.33950934
_symmetry_Int_Tables_number   1
_chemical_formula_structural   CaMgCd
_chemical_formula_sum   'Ca4 Mg4 Cd4'
_cell_volume   318.44542454
_cell_formula_units_Z   4
loop_
 _symmetry_equiv_pos_site_id
 _symmetry_equiv_pos_as_xyz
  1  'x, y, z'
loop_
 _atom_site_type_symbol
 _atom_site_label
 _atom_site_symmetry_multiplicity
 _atom_site_fract_x
 _atom_site_fract_y
 _atom_site_fract_z
 _atom_site_occupancy
  Ca  Ca0  1  0.66758900  0.33241100  0.31306300  1
  Ca  Ca1  1  0.33434600  0.66565400  0.19473200  1
  Ca  Ca2  1  0.33434600  0.66565400  0.80526800  1
  Ca  Ca3  1  0.66758900  0.33241100  0.68693700  1
  Mg  Mg4  1  0.16483600  0.83516400  0.50000000  1
  Mg  Mg5  1  0.33608800  0.16773100  0.00000000  1
  Mg  Mg6  1  0.83226900  0.66391200  0.00000000  1
  Mg  Mg7  1  0.83178900  0.16821100  0.00000000  1
  Cd  Cd8  1  0.00182600  0.99817400  0.24774200  1
  Cd  Cd9  1  0.00182600  0.99817400  0.75225800  1
  Cd  Cd10  1  0.65851000  0.83095800  0.50000000  1
  Cd  Cd11  1  0.16904200  0.34149000  0.50000000  1
