# generated using pymatgen
data_CaMg2Al4SiO12
_symmetry_space_group_name_H-M   'P 1'
_cell_length_a   5.28551351
_cell_length_b   5.29428265
_cell_length_c   9.74066389
_cell_angle_alpha   84.81105370
_cell_angle_beta   80.28992278
_cell_angle_gamma   60.19114454
_symmetry_Int_Tables_number   1
_chemical_formula_structural   CaMg2Al4SiO12
_chemical_formula_sum   'Ca1 Mg2 Al4 Si1 O12'
_cell_volume   233.11331429
_cell_formula_units_Z   1
loop_
 _symmetry_equiv_pos_site_id
 _symmetry_equiv_pos_as_xyz
  1  'x, y, z'
loop_
 _atom_site_type_symbol
 _atom_site_label
 _atom_site_symmetry_multiplicity
 _atom_site_fract_x
 _atom_site_fract_y
 _atom_site_fract_z
 _atom_site_occupancy
  Ca  Ca0  1  0.00243300  0.99983100  0.98675900  1
  Mg  Mg1  1  0.82510000  0.34588300  0.50200400  1
  Mg  Mg2  1  0.17128700  0.65333000  0.50153000  1
  Al  Al3  1  0.49931300  0.00559700  0.50293600  1
  Al  Al4  1  0.27242300  0.32748000  0.20873400  1
  Al  Al5  1  0.39935400  0.32940200  0.79534800  1
  Al  Al6  1  0.72561900  0.67276100  0.79559200  1
  Si  Si7  1  0.60257400  0.67019000  0.20740300  1
  O  O8  1  0.54517200  0.68384800  0.37961300  1
  O  O9  1  0.22765800  0.30718800  0.39226100  1
  O  O10  1  0.46229400  0.31276000  0.60925800  1
  O  O11  1  0.76399400  0.69242300  0.60825000  1
  O  O12  1  0.35525600  0.61236700  0.15326700  1
  O  O13  1  0.93672900  0.40453200  0.15222600  1
  O  O14  1  0.67635300  0.37106900  0.85238200  1
  O  O15  1  0.04802800  0.63012900  0.84975100  1
  O  O16  1  0.84469100  0.99888400  0.40930300  1
  O  O17  1  0.15987500  0.99715100  0.58924700  1
  O  O18  1  0.56909600  0.98486000  0.14470300  1
  O  O19  1  0.41275300  0.00031500  0.85943400  1
