# generated using pymatgen
data_K5Na3Ta5Nb3O24
_symmetry_space_group_name_H-M   'P 1'
_cell_length_a   8.03855400
_cell_length_b   8.03919500
_cell_length_c   8.03998500
_cell_angle_alpha   89.99876710
_cell_angle_beta   89.99858898
_cell_angle_gamma   89.99848906
_symmetry_Int_Tables_number   1
_chemical_formula_structural   K5Na3Ta5Nb3O24
_chemical_formula_sum   'K5 Na3 Ta5 Nb3 O24'
_cell_volume   519.57199576
_cell_formula_units_Z   1
loop_
 _symmetry_equiv_pos_site_id
 _symmetry_equiv_pos_as_xyz
  1  'x, y, z'
loop_
 _atom_site_type_symbol
 _atom_site_label
 _atom_site_symmetry_multiplicity
 _atom_site_fract_x
 _atom_site_fract_y
 _atom_site_fract_z
 _atom_site_occupancy
  K  K0  1  0.74995400  0.74995000  0.25014200  1
  K  K1  1  0.74995900  0.74995200  0.74986100  1
  K  K2  1  0.74995400  0.25005100  0.25013500  1
  K  K3  1  0.74995400  0.25003700  0.74986000  1
  K  K4  1  0.25005400  0.25005200  0.74986300  1
  Na  Na5  1  0.25000600  0.74999200  0.25002400  1
  Na  Na6  1  0.25000600  0.74999300  0.74997500  1
  Na  Na7  1  0.25000600  0.25000700  0.25002400  1
  Ta  Ta8  1  0.00071400  0.99976400  0.00023400  1
  Ta  Ta9  1  0.49928100  0.99976400  0.00024000  1
  Ta  Ta10  1  0.00072300  0.99976100  0.49976200  1
  Ta  Ta11  1  0.00071100  0.50023600  0.00024000  1
  Ta  Ta12  1  0.49928600  0.50023600  0.00023800  1
  Nb  Nb13  1  0.49931000  0.99976900  0.49977100  1
  Nb  Nb14  1  0.00070800  0.50022900  0.49977100  1
  Nb  Nb15  1  0.49928500  0.50023400  0.49977300  1
  O  O16  1  0.00149300  0.75008100  0.00007000  1
  O  O17  1  0.49850400  0.75000800  0.00007000  1
  O  O18  1  0.00149200  0.75105500  0.49993300  1
  O  O19  1  0.49852400  0.75007700  0.49993600  1
  O  O20  1  0.00086300  0.24991800  0.00071900  1
  O  O21  1  0.49913600  0.24999300  0.00072200  1
  O  O22  1  0.00085600  0.24893500  0.49928000  1
  O  O23  1  0.49915800  0.24992000  0.49928800  1
  O  O24  1  0.00149600  0.99992900  0.24983800  1
  O  O25  1  0.49851200  0.99993500  0.24885900  1
  O  O26  1  0.00086400  0.99928000  0.75016800  1
  O  O27  1  0.49914500  0.99928300  0.75115600  1
  O  O28  1  0.00148800  0.50006700  0.24885900  1
  O  O29  1  0.49850800  0.50006600  0.24879100  1
  O  O30  1  0.00085300  0.50071600  0.75115500  1
  O  O31  1  0.49914500  0.50071900  0.75122500  1
  O  O32  1  0.75008400  0.99992600  0.00007300  1
  O  O33  1  0.24992400  0.99929500  0.00070500  1
  O  O34  1  0.75107500  0.99993200  0.49993000  1
  O  O35  1  0.24896200  0.99929400  0.49929400  1
  O  O36  1  0.75000600  0.50007400  0.00007100  1
  O  O37  1  0.24999300  0.50070700  0.00070800  1
  O  O38  1  0.75008200  0.50006700  0.49993400  1
  O  O39  1  0.24992500  0.50070000  0.49930200  1
