# generated using pymatgen
data_CaH2CO4
_symmetry_space_group_name_H-M   'P 1'
_cell_length_a   6.14759300
_cell_length_b   6.14759300
_cell_length_c   7.57789600
_cell_angle_alpha   90.00000000
_cell_angle_beta   90.00000000
_cell_angle_gamma   120.00001077
_symmetry_Int_Tables_number   1
_chemical_formula_structural   CaH2CO4
_chemical_formula_sum   'Ca3 H6 C3 O12'
_cell_volume   248.02156309
_cell_formula_units_Z   3
loop_
 _symmetry_equiv_pos_site_id
 _symmetry_equiv_pos_as_xyz
  1  'x, y, z'
loop_
 _atom_site_type_symbol
 _atom_site_label
 _atom_site_symmetry_multiplicity
 _atom_site_fract_x
 _atom_site_fract_y
 _atom_site_fract_z
 _atom_site_occupancy
  Ca  Ca0  1  0.72350800  0.72466500  0.66429700  1
  Ca  Ca1  1  0.27533500  0.99884300  0.99763000  1
  Ca  Ca2  1  0.00115700  0.27649200  0.33096400  1
  H  H3  1  0.54552200  0.44859100  0.24573100  1
  H  H4  1  0.55140900  0.09693000  0.57906400  1
  H  H5  1  0.90307000  0.45447800  0.91239800  1
  H  H6  1  0.45854300  0.90804900  0.41772000  1
  H  H7  1  0.09195100  0.55049400  0.75105300  1
  H  H8  1  0.44950600  0.54145700  0.08438700  1
  C  C9  1  0.25543800  0.27882800  0.70306500  1
  C  C10  1  0.72117200  0.97661000  0.03639900  1
  C  C11  1  0.02339000  0.74456200  0.36973200  1
  O  O12  1  0.81242500  0.53823700  0.40216700  1
  O  O13  1  0.46176300  0.27418800  0.73550000  1
  O  O14  1  0.72581200  0.18757500  0.06883400  1
  O  O15  1  0.18952500  0.73430300  0.26683200  1
  O  O16  1  0.26569700  0.45522100  0.60016600  1
  O  O17  1  0.54477900  0.81047500  0.93349900  1
  O  O18  1  0.39742000  0.39813400  0.16759700  1
  O  O19  1  0.60186600  0.99928700  0.50093100  1
  O  O20  1  0.00071300  0.60258000  0.83426400  1
  O  O21  1  0.87781700  0.92908400  0.11505400  1
  O  O22  1  0.07091600  0.94873400  0.44838800  1
  O  O23  1  0.05126600  0.12218300  0.78172100  1
