# generated using pymatgen
data_Ca4TiSi4Sn3O20
_symmetry_space_group_name_H-M   'P 1'
_cell_length_a   6.74979600
_cell_length_b   8.00434304
_cell_length_c   8.01493748
_cell_angle_alpha   67.86580874
_cell_angle_beta   86.64060960
_cell_angle_gamma   86.67912955
_symmetry_Int_Tables_number   1
_chemical_formula_structural   Ca4TiSi4Sn3O20
_chemical_formula_sum   'Ca4 Ti1 Si4 Sn3 O20'
_cell_volume   400.12571612
_cell_formula_units_Z   1
loop_
 _symmetry_equiv_pos_site_id
 _symmetry_equiv_pos_as_xyz
  1  'x, y, z'
loop_
 _atom_site_type_symbol
 _atom_site_label
 _atom_site_symmetry_multiplicity
 _atom_site_fract_x
 _atom_site_fract_y
 _atom_site_fract_z
 _atom_site_occupancy
  Ca  Ca0  1  0.37734200  0.45548800  0.78987800  1
  Ca  Ca1  1  0.86949400  0.96216000  0.28665800  1
  Ca  Ca2  1  0.13050600  0.03784000  0.71334200  1
  Ca  Ca3  1  0.62265800  0.54451200  0.21012200  1
  Ti  Ti4  1  0.50000000  0.00000000  0.00000000  1
  Si  Si5  1  0.12873800  0.69633100  0.05577200  1
  Si  Si6  1  0.62456800  0.19322800  0.55833100  1
  Si  Si7  1  0.37543200  0.80677200  0.44166900  1
  Si  Si8  1  0.87126200  0.30366900  0.94422800  1
  Sn  Sn9  1  0.00000000  0.50000000  0.50000000  1
  Sn  Sn10  1  0.25095400  0.24808900  0.24922000  1
  Sn  Sn11  1  0.74904600  0.75191100  0.75078000  1
  O  O12  1  0.12608600  0.28659800  0.46291200  1
  O  O13  1  0.62047300  0.80068200  0.95896700  1
  O  O14  1  0.37952700  0.19931800  0.04103300  1
  O  O15  1  0.87391400  0.71340200  0.53708800  1
  O  O16  1  0.53943500  0.85537500  0.26938300  1
  O  O17  1  0.04479400  0.34697800  0.77968100  1
  O  O18  1  0.29789100  0.52768900  0.09784600  1
  O  O19  1  0.79715000  0.02836500  0.59873800  1
  O  O20  1  0.95520600  0.65302200  0.22031900  1
  O  O21  1  0.46056500  0.14462500  0.73061700  1
  O  O22  1  0.20285000  0.97163500  0.40126200  1
  O  O23  1  0.70210900  0.47231100  0.90215400  1
  O  O24  1  0.53157000  0.22842800  0.36058500  1
  O  O25  1  0.03120600  0.73104600  0.86056700  1
  O  O26  1  0.76965600  0.11010900  0.97772800  1
  O  O27  1  0.28358100  0.60850700  0.47764600  1
  O  O28  1  0.96879400  0.26895400  0.13943300  1
  O  O29  1  0.46843000  0.77157200  0.63941500  1
  O  O30  1  0.71641900  0.39149300  0.52235400  1
  O  O31  1  0.23034400  0.88989100  0.02227200  1
