# generated using pymatgen
data_CaPrCrO4
_symmetry_space_group_name_H-M   'P 1'
_cell_length_a   6.59461371
_cell_length_b   6.59461371
_cell_length_c   5.61068900
_cell_angle_alpha   90.00000000
_cell_angle_beta   90.00000000
_cell_angle_gamma   131.18393611
_symmetry_Int_Tables_number   1
_chemical_formula_structural   CaPrCrO4
_chemical_formula_sum   'Ca2 Pr2 Cr2 O8'
_cell_volume   183.63644469
_cell_formula_units_Z   2
loop_
 _symmetry_equiv_pos_site_id
 _symmetry_equiv_pos_as_xyz
  1  'x, y, z'
loop_
 _atom_site_type_symbol
 _atom_site_label
 _atom_site_symmetry_multiplicity
 _atom_site_fract_x
 _atom_site_fract_y
 _atom_site_fract_z
 _atom_site_occupancy
  Ca  Ca0  1  0.89637100  0.10362900  0.51861100  1
  Ca  Ca1  1  0.10362900  0.89637100  0.01861100  1
  Pr  Pr2  1  0.61200000  0.38800000  0.48329500  1
  Pr  Pr3  1  0.38800000  0.61200000  0.98329500  1
  Cr  Cr4  1  0.24904500  0.75095500  0.49875000  1
  Cr  Cr5  1  0.75095500  0.24904500  0.99875000  1
  O  O6  1  0.08159100  0.91840900  0.44230400  1
  O  O7  1  0.42138200  0.57861800  0.55383000  1
  O  O8  1  0.91840900  0.08159100  0.94230400  1
  O  O9  1  0.57861800  0.42138200  0.05383000  1
  O  O10  1  0.52135400  0.98432400  0.25160500  1
  O  O11  1  0.47864600  0.01567600  0.75160500  1
  O  O12  1  0.98432400  0.52135400  0.75160500  1
  O  O13  1  0.01567600  0.47864600  0.25160500  1
