# generated using pymatgen
data_CeTa7O19
_symmetry_space_group_name_H-M   'P 1'
_cell_length_a   6.29247011
_cell_length_b   6.29247011
_cell_length_c   20.14978700
_cell_angle_alpha   90.00000000
_cell_angle_beta   90.00000000
_cell_angle_gamma   120.00000116
_symmetry_Int_Tables_number   1
_chemical_formula_structural   CeTa7O19
_chemical_formula_sum   'Ce2 Ta14 O38'
_cell_volume   690.94488934
_cell_formula_units_Z   2
loop_
 _symmetry_equiv_pos_site_id
 _symmetry_equiv_pos_as_xyz
  1  'x, y, z'
loop_
 _atom_site_type_symbol
 _atom_site_label
 _atom_site_symmetry_multiplicity
 _atom_site_fract_x
 _atom_site_fract_y
 _atom_site_fract_z
 _atom_site_occupancy
  Ce  Ce0  1  0.66666700  0.33333300  0.75000000  1
  Ce  Ce1  1  0.33333300  0.66666700  0.25000000  1
  Ta  Ta2  1  0.35561900  0.35097900  0.40516000  1
  Ta  Ta3  1  0.64902100  0.00463900  0.40516000  1
  Ta  Ta4  1  0.99536100  0.64438100  0.40516000  1
  Ta  Ta5  1  0.64902100  0.64438100  0.09484000  1
  Ta  Ta6  1  0.35561900  0.00463900  0.09484000  1
  Ta  Ta7  1  0.99536100  0.35097900  0.09484000  1
  Ta  Ta8  1  0.64438100  0.64902100  0.90516000  1
  Ta  Ta9  1  0.35097900  0.99536100  0.90516000  1
  Ta  Ta10  1  0.00463900  0.35561900  0.90516000  1
  Ta  Ta11  1  0.35097900  0.35561900  0.59484000  1
  Ta  Ta12  1  0.64438100  0.99536100  0.59484000  1
  Ta  Ta13  1  0.00463900  0.64902100  0.59484000  1
  Ta  Ta14  1  0.33333300  0.66666700  0.75000000  1
  Ta  Ta15  1  0.66666700  0.33333300  0.25000000  1
  O  O16  1  0.75412600  0.74931600  0.59560700  1
  O  O17  1  0.25068400  0.00480900  0.59560700  1
  O  O18  1  0.99519100  0.24587400  0.59560700  1
  O  O19  1  0.25068400  0.24587400  0.90439300  1
  O  O20  1  0.75412600  0.00480900  0.90439300  1
  O  O21  1  0.99519100  0.74931600  0.90439300  1
  O  O22  1  0.24587400  0.25068400  0.09560700  1
  O  O23  1  0.74931600  0.99519100  0.09560700  1
  O  O24  1  0.00480900  0.75412600  0.09560700  1
  O  O25  1  0.74931600  0.75412600  0.40439300  1
  O  O26  1  0.24587400  0.99519100  0.40439300  1
  O  O27  1  0.00480900  0.25068400  0.40439300  1
  O  O28  1  0.62778000  0.57542000  0.19461400  1
  O  O29  1  0.42458000  0.05236100  0.19461400  1
  O  O30  1  0.94763900  0.37222000  0.19461400  1
  O  O31  1  0.42458000  0.37222000  0.30538600  1
  O  O32  1  0.62778000  0.05236100  0.30538600  1
  O  O33  1  0.94763900  0.57542000  0.30538600  1
  O  O34  1  0.37222000  0.42458000  0.69461400  1
  O  O35  1  0.57542000  0.94763900  0.69461400  1
  O  O36  1  0.05236100  0.62778000  0.69461400  1
  O  O37  1  0.57542000  0.62778000  0.80538600  1
  O  O38  1  0.37222000  0.94763900  0.80538600  1
  O  O39  1  0.05236100  0.42458000  0.80538600  1
  O  O40  1  0.66666700  0.33333300  0.61562600  1
  O  O41  1  0.33333300  0.66666700  0.59172000  1
  O  O42  1  0.33333300  0.66666700  0.90828000  1
  O  O43  1  0.66666700  0.33333300  0.88437400  1
  O  O44  1  0.33333300  0.66666700  0.11562600  1
  O  O45  1  0.66666700  0.33333300  0.09172000  1
  O  O46  1  0.66666700  0.33333300  0.40828000  1
  O  O47  1  0.33333300  0.66666700  0.38437400  1
  O  O48  1  0.39640300  0.39640300  0.50000000  1
  O  O49  1  0.60359700  0.00000000  0.50000000  1
  O  O50  1  0.00000000  0.60359700  0.50000000  1
  O  O51  1  0.60359700  0.60359700  0.00000000  1
  O  O52  1  0.39640300  0.00000000  0.00000000  1
  O  O53  1  0.00000000  0.39640300  0.00000000  1
