# generated using pymatgen
data_K2Mo2O5
_symmetry_space_group_name_H-M   'P 1'
_cell_length_a   8.99677824
_cell_length_b   8.99677824
_cell_length_c   8.99677824
_cell_angle_alpha   142.03042239
_cell_angle_beta   141.35331203
_cell_angle_gamma   55.29513150
_symmetry_Int_Tables_number   1
_chemical_formula_structural   K2Mo2O5
_chemical_formula_sum   'K4 Mo4 O10'
_cell_volume   277.75897556
_cell_formula_units_Z   2
loop_
 _symmetry_equiv_pos_site_id
 _symmetry_equiv_pos_as_xyz
  1  'x, y, z'
loop_
 _atom_site_type_symbol
 _atom_site_label
 _atom_site_symmetry_multiplicity
 _atom_site_fract_x
 _atom_site_fract_y
 _atom_site_fract_z
 _atom_site_occupancy
  K  K0  1  0.87316600  0.39044000  0.47845900  1
  K  K1  1  0.12683400  0.60529300  0.51727400  1
  K  K2  1  0.41198100  0.89044000  0.51727400  1
  K  K3  1  0.58801900  0.10529300  0.47845900  1
  Mo  Mo4  1  0.00000000  0.98284600  0.98284600  1
  Mo  Mo5  1  0.50000000  0.48284600  0.98284600  1
  Mo  Mo6  1  0.81334800  0.80339900  0.11674700  1
  Mo  Mo7  1  0.18665200  0.30339900  0.99005100  1
  O  O8  1  0.75773900  0.74821900  0.48832200  1
  O  O9  1  0.24226100  0.73058400  0.99048000  1
  O  O10  1  0.75989700  0.24821900  0.99048000  1
  O  O11  1  0.24010300  0.23058400  0.48832200  1
  O  O12  1  0.81990300  0.84050500  0.93685400  1
  O  O13  1  0.18009700  0.11695100  0.02060200  1
  O  O14  1  0.40365100  0.34050500  0.02060200  1
  O  O15  1  0.59634900  0.61695100  0.93685400  1
  O  O16  1  0.90028500  0.11776300  0.51804800  1
  O  O17  1  0.09971500  0.61776300  0.21747900  1
