# generated using pymatgen
data_CaLa3Mn4O12
_symmetry_space_group_name_H-M   'P 1'
_cell_length_a   7.85192300
_cell_length_b   5.54385300
_cell_length_c   5.54622220
_cell_angle_alpha   89.44820336
_cell_angle_beta   90.00000000
_cell_angle_gamma   90.00000000
_symmetry_Int_Tables_number   1
_chemical_formula_structural   CaLa3Mn4O12
_chemical_formula_sum   'Ca1 La3 Mn4 O12'
_cell_volume   241.41534001
_cell_formula_units_Z   1
loop_
 _symmetry_equiv_pos_site_id
 _symmetry_equiv_pos_as_xyz
  1  'x, y, z'
loop_
 _atom_site_type_symbol
 _atom_site_label
 _atom_site_symmetry_multiplicity
 _atom_site_fract_x
 _atom_site_fract_y
 _atom_site_fract_z
 _atom_site_occupancy
  Ca  Ca0  1  0.00000000  0.49235400  0.47022000  1
  La  La1  1  0.00000000  0.00647200  0.97228900  1
  La  La2  1  0.50000000  0.50604400  0.52629700  1
  La  La3  1  0.50000000  0.99491900  0.02809400  1
  Mn  Mn4  1  0.24673100  0.50018000  0.00034400  1
  Mn  Mn5  1  0.75372800  0.00021600  0.50005300  1
  Mn  Mn6  1  0.75326900  0.50018000  0.00034400  1
  Mn  Mn7  1  0.24627200  0.00021600  0.50005300  1
  O  O8  1  0.21439900  0.21821700  0.21697100  1
  O  O9  1  0.78966000  0.27823100  0.71880800  1
  O  O10  1  0.71056100  0.77973700  0.78152000  1
  O  O11  1  0.29154300  0.72564500  0.27832300  1
  O  O12  1  0.28943900  0.77973700  0.78152000  1
  O  O13  1  0.70845700  0.72564500  0.27832300  1
  O  O14  1  0.78560100  0.21821700  0.21697100  1
  O  O15  1  0.21034000  0.27823100  0.71880800  1
  O  O16  1  0.00000000  0.57301300  0.01756700  1
  O  O17  1  0.00000000  0.92055800  0.51320700  1
  O  O18  1  0.50000000  0.43096000  0.98928000  1
  O  O19  1  0.50000000  0.07122600  0.49100600  1
