# generated using pymatgen
data_CaLa3(FeO3)4
_symmetry_space_group_name_H-M   'P 1'
_cell_length_a   7.86406400
_cell_length_b   5.55936600
_cell_length_c   5.56820098
_cell_angle_alpha   89.94068947
_cell_angle_beta   90.00000000
_cell_angle_gamma   90.00000000
_symmetry_Int_Tables_number   1
_chemical_formula_structural   CaLa3(FeO3)4
_chemical_formula_sum   'Ca1 La3 Fe4 O12'
_cell_volume   243.43721781
_cell_formula_units_Z   1
loop_
 _symmetry_equiv_pos_site_id
 _symmetry_equiv_pos_as_xyz
  1  'x, y, z'
loop_
 _atom_site_type_symbol
 _atom_site_label
 _atom_site_symmetry_multiplicity
 _atom_site_fract_x
 _atom_site_fract_y
 _atom_site_fract_z
 _atom_site_occupancy
  Ca  Ca0  1  0.00000000  0.49249200  0.46812500  1
  La  La1  1  0.00000000  0.00709800  0.96951800  1
  La  La2  1  0.50000000  0.50653700  0.52997800  1
  La  La3  1  0.50000000  0.99475400  0.03115000  1
  Fe  Fe4  1  0.24564900  0.00077500  0.49973800  1
  Fe  Fe5  1  0.75384400  0.49955000  0.00055000  1
  Fe  Fe6  1  0.75435100  0.00077500  0.49973800  1
  Fe  Fe7  1  0.24615600  0.49955000  0.00055000  1
  O  O8  1  0.78715100  0.21330300  0.21318800  1
  O  O9  1  0.20801600  0.28403900  0.71539400  1
  O  O10  1  0.29157800  0.78372900  0.78410600  1
  O  O11  1  0.70609400  0.72011800  0.28098000  1
  O  O12  1  0.70842200  0.78372900  0.78410600  1
  O  O13  1  0.29390600  0.72011800  0.28098000  1
  O  O14  1  0.21284900  0.21330300  0.21318800  1
  O  O15  1  0.79198400  0.28403900  0.71539400  1
  O  O16  1  0.00000000  0.57718700  0.02199200  1
  O  O17  1  0.00000000  0.91680000  0.51679900  1
  O  O18  1  0.50000000  0.42676600  0.98593000  1
  O  O19  1  0.50000000  0.07533900  0.48859400  1
