# generated using pymatgen
data_CaNd3Cr4O16
_symmetry_space_group_name_H-M   'P 1'
_cell_length_a   7.42307000
_cell_length_b   7.42307000
_cell_length_c   6.40470300
_cell_angle_alpha   90.00000000
_cell_angle_beta   90.00000000
_cell_angle_gamma   90.00000000
_symmetry_Int_Tables_number   1
_chemical_formula_structural   CaNd3Cr4O16
_chemical_formula_sum   'Ca1 Nd3 Cr4 O16'
_cell_volume   352.91174120
_cell_formula_units_Z   1
loop_
 _symmetry_equiv_pos_site_id
 _symmetry_equiv_pos_as_xyz
  1  'x, y, z'
loop_
 _atom_site_type_symbol
 _atom_site_label
 _atom_site_symmetry_multiplicity
 _atom_site_fract_x
 _atom_site_fract_y
 _atom_site_fract_z
 _atom_site_occupancy
  Ca  Ca0  1  0.50000000  0.50000000  0.50000000  1
  Nd  Nd1  1  0.00000000  0.00000000  0.00000000  1
  Nd  Nd2  1  0.00000000  0.50000000  0.74831500  1
  Nd  Nd3  1  0.50000000  0.00000000  0.25168500  1
  Cr  Cr4  1  0.50000000  0.00000000  0.74650900  1
  Cr  Cr5  1  0.00000000  0.50000000  0.25349100  1
  Cr  Cr6  1  0.00000000  0.00000000  0.50000000  1
  Cr  Cr7  1  0.50000000  0.50000000  0.00000000  1
  O  O8  1  0.32077600  0.00000000  0.92166200  1
  O  O9  1  0.81836100  0.50000000  0.41913700  1
  O  O10  1  0.00000000  0.18089000  0.66862500  1
  O  O11  1  0.50000000  0.67683400  0.15952400  1
  O  O12  1  0.00000000  0.81911000  0.66862500  1
  O  O13  1  0.50000000  0.32316600  0.15952400  1
  O  O14  1  0.67922400  0.00000000  0.92166200  1
  O  O15  1  0.18163900  0.50000000  0.41913700  1
  O  O16  1  0.18089000  0.00000000  0.33137500  1
  O  O17  1  0.67683400  0.50000000  0.84047600  1
  O  O18  1  0.50000000  0.81836100  0.58086300  1
  O  O19  1  0.00000000  0.32077600  0.07833800  1
  O  O20  1  0.50000000  0.18163900  0.58086300  1
  O  O21  1  0.00000000  0.67922400  0.07833800  1
  O  O22  1  0.81911000  0.00000000  0.33137500  1
  O  O23  1  0.32316600  0.50000000  0.84047600  1
