# generated using pymatgen
data_Ca6Al3(Si4N9)2
_symmetry_space_group_name_H-M   'P 1'
_cell_length_a   7.58633200
_cell_length_b   7.58924522
_cell_length_c   7.64594635
_cell_angle_alpha   81.10779069
_cell_angle_beta   79.60528511
_cell_angle_gamma   80.13866198
_symmetry_Int_Tables_number   1
_chemical_formula_structural   Ca6Al3(Si4N9)2
_chemical_formula_sum   'Ca6 Al3 Si8 N18'
_cell_volume   423.10135493
_cell_formula_units_Z   1
loop_
 _symmetry_equiv_pos_site_id
 _symmetry_equiv_pos_as_xyz
  1  'x, y, z'
loop_
 _atom_site_type_symbol
 _atom_site_label
 _atom_site_symmetry_multiplicity
 _atom_site_fract_x
 _atom_site_fract_y
 _atom_site_fract_z
 _atom_site_occupancy
  Ca  Ca0  1  0.56746300  0.55956500  0.86088800  1
  Ca  Ca1  1  0.25498400  0.22307000  0.52279700  1
  Ca  Ca2  1  0.82401900  0.93293800  0.23631200  1
  Ca  Ca3  1  0.27934200  0.26744600  0.95512900  1
  Ca  Ca4  1  0.93728100  0.93897600  0.62319000  1
  Ca  Ca5  1  0.59505400  0.55267400  0.27729400  1
  Al  Al6  1  0.95588900  0.61375500  0.95334900  1
  Al  Al7  1  0.90716400  0.54557400  0.57042500  1
  Al  Al8  1  0.22444100  0.89147800  0.90875900  1
  Si  Si9  1  0.64109100  0.27349000  0.60874800  1
  Si  Si10  1  0.30578000  0.94044600  0.27996500  1
  Si  Si11  1  0.60966700  0.96117100  0.94158300  1
  Si  Si12  1  0.28525400  0.62615900  0.61038700  1
  Si  Si13  1  0.95698400  0.28537700  0.28081500  1
  Si  Si14  1  0.54344600  0.88936500  0.57045800  1
  Si  Si15  1  0.19542400  0.58696900  0.23308800  1
  Si  Si16  1  0.88905200  0.22710500  0.89797400  1
  N  N17  1  0.72569200  0.74643300  0.98349300  1
  N  N18  1  0.43139800  0.41863600  0.63140600  1
  N  N19  1  0.09370500  0.07649100  0.31859300  1
  N  N20  1  0.73892300  0.74380400  0.51514300  1
  N  N21  1  0.37871700  0.46665200  0.11690300  1
  N  N22  1  0.08858400  0.09846100  0.81167600  1
  N  N23  1  0.46287300  0.00024600  0.38446400  1
  N  N24  1  0.09170300  0.73027000  0.07051200  1
  N  N25  1  0.79547900  0.35660000  0.71518500  1
  N  N26  1  0.04634500  0.45107600  0.36671600  1
  N  N27  1  0.71391800  0.11631900  0.00415800  1
  N  N28  1  0.36776100  0.78232800  0.71065500  1
  N  N29  1  0.94503400  0.36563000  0.04908500  1
  N  N30  1  0.59408500  0.04768800  0.70529300  1
  N  N31  1  0.27522900  0.71138100  0.37728800  1
  N  N32  1  0.38298200  0.95527400  0.04680700  1
  N  N33  1  0.06397600  0.61137700  0.70984200  1
  N  N34  1  0.74432900  0.26344100  0.39298400  1
