# generated using pymatgen
data_Cr23Ga26Fe3
_symmetry_space_group_name_H-M   'P 1'
_cell_length_a   7.78815217
_cell_length_b   7.75968025
_cell_length_c   12.73249688
_cell_angle_alpha   90.07704530
_cell_angle_beta   89.55146746
_cell_angle_gamma   109.38974334
_symmetry_Int_Tables_number   1
_chemical_formula_structural   Cr23Ga26Fe3
_chemical_formula_sum   'Cr23 Ga26 Fe3'
_cell_volume   725.80463272
_cell_formula_units_Z   1
loop_
 _symmetry_equiv_pos_site_id
 _symmetry_equiv_pos_as_xyz
  1  'x, y, z'
loop_
 _atom_site_type_symbol
 _atom_site_label
 _atom_site_symmetry_multiplicity
 _atom_site_fract_x
 _atom_site_fract_y
 _atom_site_fract_z
 _atom_site_occupancy
  Cr  Cr0  1  0.40348000  0.75013400  0.40379100  1
  Cr  Cr1  1  0.90569900  0.24929800  0.90078300  1
  Cr  Cr2  1  0.73895900  0.39800200  0.40367200  1
  Cr  Cr3  1  0.23486000  0.90091100  0.90080900  1
  Cr  Cr4  1  0.73496600  0.72855500  0.07143800  1
  Cr  Cr5  1  0.23255000  0.22814700  0.57452400  1
  Cr  Cr6  1  0.10041300  0.75933800  0.10022500  1
  Cr  Cr7  1  0.60175000  0.26079900  0.59979200  1
  Cr  Cr8  1  0.75579300  0.09578100  0.09714600  1
  Cr  Cr9  1  0.25880100  0.59846500  0.59657500  1
  Cr  Cr10  1  0.76710900  0.76701900  0.42795400  1
  Cr  Cr11  1  0.27059200  0.26938100  0.92984400  1
  Cr  Cr12  1  0.24427500  0.24348700  0.24431700  1
  Cr  Cr13  1  0.74914900  0.74610800  0.74601900  1
  Cr  Cr14  1  0.01684400  0.01900900  0.80327400  1
  Cr  Cr15  1  0.41101900  0.19564000  0.41070500  1
  Cr  Cr16  1  0.90829100  0.69418300  0.91148400  1
  Cr  Cr17  1  0.30595300  0.08772700  0.08844400  1
  Cr  Cr18  1  0.80388600  0.58695700  0.58814200  1
  Cr  Cr19  1  0.98127400  0.97951200  0.19776300  1
  Cr  Cr20  1  0.48223400  0.48178000  0.69599600  1
  Cr  Cr21  1  0.09142300  0.30587800  0.08980500  1
  Cr  Cr22  1  0.58946500  0.80329800  0.58966300  1
  Ga  Ga23  1  0.27281600  0.91864200  0.27272400  1
  Ga  Ga24  1  0.77081900  0.41915600  0.77247300  1
  Ga  Ga25  1  0.92103400  0.27425100  0.27334800  1
  Ga  Ga26  1  0.42181200  0.77380200  0.77404300  1
  Ga  Ga27  1  0.44998500  0.45059500  0.09793800  1
  Ga  Ga28  1  0.94724500  0.94844300  0.59511800  1
  Ga  Ga29  1  0.23117300  0.57671800  0.23187400  1
  Ga  Ga30  1  0.72464600  0.07616400  0.73060600  1
  Ga  Ga31  1  0.57922500  0.23353000  0.22715700  1
  Ga  Ga32  1  0.07920400  0.72685000  0.72645000  1
  Ga  Ga33  1  0.05141200  0.05816500  0.40315600  1
  Ga  Ga34  1  0.55105400  0.55800100  0.90329500  1
  Ga  Ga35  1  0.05782100  0.66640700  0.44195700  1
  Ga  Ga36  1  0.55830100  0.16584100  0.94249800  1
  Ga  Ga37  1  0.85511300  0.63345500  0.25139100  1
  Ga  Ga38  1  0.36322600  0.13685900  0.75071100  1
  Ga  Ga39  1  0.83092700  0.44260600  0.05772600  1
  Ga  Ga40  1  0.33106400  0.94373300  0.55727500  1
  Ga  Ga41  1  0.44719500  0.83089400  0.05391600  1
  Ga  Ga42  1  0.94954400  0.33144100  0.55360800  1
  Ga  Ga43  1  0.63451100  0.85876600  0.25040200  1
  Ga  Ga44  1  0.13776200  0.36496100  0.74983300  1
  Ga  Ga45  1  0.67020500  0.05645000  0.44405100  1
  Ga  Ga46  1  0.17001400  0.55796900  0.94373200  1
  Ga  Ga47  1  0.99663900  0.00130900  0.00012800  1
  Ga  Ga48  1  0.49678700  0.50077100  0.49759200  1
  Fe  Fe49  1  0.19865400  0.41314300  0.40987900  1
  Fe  Fe50  1  0.69717300  0.91198900  0.91127400  1
  Fe  Fe51  1  0.51585500  0.51967800  0.30367900  1
