# generated using pymatgen
data_BaSr7Ti6Mn2O24
_symmetry_space_group_name_H-M   'P 1'
_cell_length_a   7.86846871
_cell_length_b   7.86846871
_cell_length_c   7.92468100
_cell_angle_alpha   90.00000000
_cell_angle_beta   90.00000000
_cell_angle_gamma   90.01994697
_symmetry_Int_Tables_number   1
_chemical_formula_structural   BaSr7Ti6Mn2O24
_chemical_formula_sum   'Ba1 Sr7 Ti6 Mn2 O24'
_cell_volume   490.63915915
_cell_formula_units_Z   1
loop_
 _symmetry_equiv_pos_site_id
 _symmetry_equiv_pos_as_xyz
  1  'x, y, z'
loop_
 _atom_site_type_symbol
 _atom_site_label
 _atom_site_symmetry_multiplicity
 _atom_site_fract_x
 _atom_site_fract_y
 _atom_site_fract_z
 _atom_site_occupancy
  Ba  Ba0  1  0.24778400  0.24778400  0.50000000  1
  Sr  Sr1  1  0.75258000  0.24717200  0.50000000  1
  Sr  Sr2  1  0.75287000  0.24716600  0.00000000  1
  Sr  Sr3  1  0.24710100  0.24710100  0.00000000  1
  Sr  Sr4  1  0.75279600  0.75279600  0.50000000  1
  Sr  Sr5  1  0.75296900  0.75296900  0.00000000  1
  Sr  Sr6  1  0.24717200  0.75258000  0.50000000  1
  Sr  Sr7  1  0.24716600  0.75287000  0.00000000  1
  Ti  Ti8  1  0.50176700  0.99885200  0.75110200  1
  Ti  Ti9  1  0.50176700  0.99885200  0.24889800  1
  Ti  Ti10  1  0.99885200  0.50176700  0.75110200  1
  Ti  Ti11  1  0.99885200  0.50176700  0.24889800  1
  Ti  Ti12  1  0.50110300  0.50110300  0.75114800  1
  Ti  Ti13  1  0.50110300  0.50110300  0.24885200  1
  Mn  Mn14  1  0.99934800  0.99934800  0.75108700  1
  Mn  Mn15  1  0.99934800  0.99934800  0.24891300  1
  O  O16  1  0.99653600  0.24787300  0.75346600  1
  O  O17  1  0.99653600  0.24787300  0.24653400  1
  O  O18  1  0.50294400  0.24903500  0.75304200  1
  O  O19  1  0.50294400  0.24903500  0.24695800  1
  O  O20  1  0.99914200  0.75204500  0.75088400  1
  O  O21  1  0.99914200  0.75204500  0.24911600  1
  O  O22  1  0.50097800  0.75090600  0.75107300  1
  O  O23  1  0.50097800  0.75090600  0.24892700  1
  O  O24  1  0.75204500  0.99914200  0.75088400  1
  O  O25  1  0.75204500  0.99914200  0.24911600  1
  O  O26  1  0.24787300  0.99653600  0.75346600  1
  O  O27  1  0.24787300  0.99653600  0.24653400  1
  O  O28  1  0.75090600  0.50097800  0.75107300  1
  O  O29  1  0.75090600  0.50097800  0.24892700  1
  O  O30  1  0.24903500  0.50294400  0.75304200  1
  O  O31  1  0.24903500  0.50294400  0.24695800  1
  O  O32  1  0.99534000  0.99534000  0.50000000  1
  O  O33  1  0.99922000  0.99922000  0.00000000  1
  O  O34  1  0.50309400  0.99676300  0.50000000  1
  O  O35  1  0.50104500  0.99892900  0.00000000  1
  O  O36  1  0.99676300  0.50309400  0.50000000  1
  O  O37  1  0.99892900  0.50104500  0.00000000  1
  O  O38  1  0.50310300  0.50310300  0.50000000  1
  O  O39  1  0.50100700  0.50100700  0.00000000  1
