# generated using pymatgen
data_Ca8Zn3Co(Si2O7)4
_symmetry_space_group_name_H-M   'P 1'
_cell_length_a   11.20088600
_cell_length_b   11.20088600
_cell_length_c   5.04397400
_cell_angle_alpha   90.00000000
_cell_angle_beta   90.00000000
_cell_angle_gamma   90.00000000
_symmetry_Int_Tables_number   1
_chemical_formula_structural   Ca8Zn3Co(Si2O7)4
_chemical_formula_sum   'Ca8 Zn3 Co1 Si8 O28'
_cell_volume   632.81620725
_cell_formula_units_Z   1
loop_
 _symmetry_equiv_pos_site_id
 _symmetry_equiv_pos_as_xyz
  1  'x, y, z'
loop_
 _atom_site_type_symbol
 _atom_site_label
 _atom_site_symmetry_multiplicity
 _atom_site_fract_x
 _atom_site_fract_y
 _atom_site_fract_z
 _atom_site_occupancy
  Ca  Ca0  1  0.24994000  0.08154000  0.50642000  1
  Ca  Ca1  1  0.74993400  0.58160300  0.50652900  1
  Ca  Ca2  1  0.41839700  0.74993400  0.49347100  1
  Ca  Ca3  1  0.91846000  0.24994000  0.49358000  1
  Ca  Ca4  1  0.75006000  0.91846000  0.50642000  1
  Ca  Ca5  1  0.25006600  0.41839700  0.50652900  1
  Ca  Ca6  1  0.58160300  0.25006600  0.49347100  1
  Ca  Ca7  1  0.08154000  0.75006000  0.49358000  1
  Zn  Zn8  1  0.50000000  0.00000000  0.99980300  1
  Zn  Zn9  1  0.00000000  0.50000000  0.00019700  1
  Zn  Zn10  1  0.00000000  0.00000000  0.00000000  1
  Co  Co11  1  0.50000000  0.50000000  0.00000000  1
  Si  Si12  1  0.24997800  0.89045300  0.93737500  1
  Si  Si13  1  0.75014300  0.39036100  0.93681400  1
  Si  Si14  1  0.60963900  0.75014300  0.06318600  1
  Si  Si15  1  0.10954700  0.24997800  0.06262500  1
  Si  Si16  1  0.75002200  0.10954700  0.93737500  1
  Si  Si17  1  0.24985700  0.60963900  0.93681400  1
  Si  Si18  1  0.39036100  0.24985700  0.06318600  1
  Si  Si19  1  0.89045300  0.75002200  0.06262500  1
  O  O20  1  0.24991400  0.24986000  0.18186400  1
  O  O21  1  0.75008600  0.75014000  0.18186400  1
  O  O22  1  0.24986000  0.75008600  0.81813600  1
  O  O23  1  0.75014000  0.24991400  0.81813600  1
  O  O24  1  0.36518100  0.94878400  0.78175200  1
  O  O25  1  0.86544200  0.44863600  0.78154600  1
  O  O26  1  0.55131800  0.63499400  0.21881100  1
  O  O27  1  0.05119800  0.13477600  0.21825100  1
  O  O28  1  0.63481900  0.05121600  0.78175200  1
  O  O29  1  0.13455800  0.55136400  0.78154600  1
  O  O30  1  0.44868200  0.36500600  0.21881100  1
  O  O31  1  0.94880200  0.86522400  0.21825100  1
  O  O32  1  0.44863600  0.13455800  0.21845400  1
  O  O33  1  0.94878400  0.63481900  0.21824800  1
  O  O34  1  0.86522400  0.05119800  0.78174900  1
  O  O35  1  0.36500600  0.55131800  0.78118900  1
  O  O36  1  0.55136400  0.86544200  0.21845400  1
  O  O37  1  0.05121600  0.36518100  0.21824800  1
  O  O38  1  0.13477600  0.94880200  0.78174900  1
  O  O39  1  0.63499400  0.44868200  0.78118900  1
  O  O40  1  0.24997300  0.89069900  0.25690200  1
  O  O41  1  0.74971800  0.39086000  0.25645100  1
  O  O42  1  0.60914000  0.74971800  0.74354900  1
  O  O43  1  0.10930100  0.24997300  0.74309800  1
  O  O44  1  0.75002700  0.10930100  0.25690200  1
  O  O45  1  0.25028200  0.60914000  0.25645100  1
  O  O46  1  0.39086000  0.25028200  0.74354900  1
  O  O47  1  0.89069900  0.75002700  0.74309800  1
