# generated using pymatgen
data_CaMg7(SiO3)8
_symmetry_space_group_name_H-M   'P 1'
_cell_length_a   5.29904400
_cell_length_b   8.98335467
_cell_length_c   9.54989824
_cell_angle_alpha   89.68563513
_cell_angle_beta   76.90505678
_cell_angle_gamma   89.89645322
_symmetry_Int_Tables_number   1
_chemical_formula_structural   CaMg7(SiO3)8
_chemical_formula_sum   'Ca1 Mg7 Si8 O24'
_cell_volume   442.77731759
_cell_formula_units_Z   1
loop_
 _symmetry_equiv_pos_site_id
 _symmetry_equiv_pos_as_xyz
  1  'x, y, z'
loop_
 _atom_site_type_symbol
 _atom_site_label
 _atom_site_symmetry_multiplicity
 _atom_site_fract_x
 _atom_site_fract_y
 _atom_site_fract_z
 _atom_site_occupancy
  Ca  Ca0  1  0.52861500  0.53709800  0.73885900  1
  Mg  Mg1  1  0.52226400  0.15377300  0.74891900  1
  Mg  Mg2  1  0.97789100  0.65142400  0.25084900  1
  Mg  Mg3  1  0.47686500  0.84879200  0.25066800  1
  Mg  Mg4  1  0.01943200  0.34283400  0.75044600  1
  Mg  Mg5  1  0.97143200  0.01157400  0.25131800  1
  Mg  Mg6  1  0.47153300  0.48850500  0.25186000  1
  Mg  Mg7  1  0.02613500  0.99152400  0.74963900  1
  Si  Si8  1  0.81189200  0.33470100  0.44981900  1
  Si  Si9  1  0.68926600  0.84264000  0.54749600  1
  Si  Si10  1  0.18411200  0.66064700  0.54318300  1
  Si  Si11  1  0.30967100  0.16092100  0.44961200  1
  Si  Si12  1  0.26138500  0.84406300  0.95924200  1
  Si  Si13  1  0.24014500  0.33928100  0.04310900  1
  Si  Si14  1  0.74136200  0.15876300  0.04382200  1
  Si  Si15  1  0.76692700  0.65918600  0.96348600  1
  O  O16  1  0.74878900  0.48555800  0.37022100  1
  O  O17  1  0.74714100  0.98705800  0.63357800  1
  O  O18  1  0.21651700  0.50500200  0.61940800  1
  O  O19  1  0.24875000  0.01283300  0.36778400  1
  O  O20  1  0.74371500  0.33131500  0.62537700  1
  O  O21  1  0.75879900  0.84512700  0.37213400  1
  O  O22  1  0.26083800  0.66142200  0.36795500  1
  O  O23  1  0.24015600  0.15494300  0.62578500  1
  O  O24  1  0.19107600  0.84306800  0.13444000  1
  O  O25  1  0.30242400  0.33401200  0.86836900  1
  O  O26  1  0.80590000  0.15725900  0.86845100  1
  O  O27  1  0.69373600  0.66095200  0.13853700  1
  O  O28  1  0.01714200  0.77074100  0.89711700  1
  O  O29  1  0.48985200  0.27006000  0.10476300  1
  O  O30  1  0.98798000  0.22785600  0.10755700  1
  O  O31  1  0.52048800  0.73605800  0.90385300  1
  O  O32  1  0.62666400  0.20317500  0.39646600  1
  O  O33  1  0.87315700  0.70976700  0.59921400  1
  O  O34  1  0.37766000  0.78547400  0.60212000  1
  O  O35  1  0.12941500  0.29470000  0.39451700  1
  O  O36  1  0.29200600  0.00076200  0.87549800  1
  O  O37  1  0.20935300  0.49929700  0.12228100  1
  O  O38  1  0.70805100  0.99884800  0.12335400  1
  O  O39  1  0.81146500  0.49898700  0.88889500  1
