# generated using pymatgen
data_Cr8Co7
_symmetry_space_group_name_H-M   'P 1'
_cell_length_a   4.51085300
_cell_length_b   8.58433900
_cell_length_c   8.58433900
_cell_angle_alpha   90.00000000
_cell_angle_beta   90.00000000
_cell_angle_gamma   90.00000000
_symmetry_Int_Tables_number   1
_chemical_formula_structural   Cr8Co7
_chemical_formula_sum   'Cr16 Co14'
_cell_volume   332.40870938
_cell_formula_units_Z   2
loop_
 _symmetry_equiv_pos_site_id
 _symmetry_equiv_pos_as_xyz
  1  'x, y, z'
loop_
 _atom_site_type_symbol
 _atom_site_label
 _atom_site_symmetry_multiplicity
 _atom_site_fract_x
 _atom_site_fract_y
 _atom_site_fract_z
 _atom_site_occupancy
  Cr  Cr0  1  0.49978200  0.36932800  0.96511100  1
  Cr  Cr1  1  0.49978200  0.63067200  0.03488900  1
  Cr  Cr2  1  0.99978200  0.13067200  0.46511100  1
  Cr  Cr3  1  0.99978200  0.86932800  0.53488900  1
  Cr  Cr4  1  0.49978200  0.96511100  0.36932800  1
  Cr  Cr5  1  0.49978200  0.03488900  0.63067200  1
  Cr  Cr6  1  0.99978200  0.46511100  0.13067200  1
  Cr  Cr7  1  0.99978200  0.53488900  0.86932800  1
  Cr  Cr8  1  0.50013500  0.10003100  0.89996900  1
  Cr  Cr9  1  0.50013500  0.89996900  0.10003100  1
  Cr  Cr10  1  0.00013500  0.39996900  0.39996900  1
  Cr  Cr11  1  0.00013500  0.60003100  0.60003100  1
  Cr  Cr12  1  0.74246800  0.68931500  0.31068500  1
  Cr  Cr13  1  0.74246800  0.31068500  0.68931500  1
  Cr  Cr14  1  0.24246800  0.81068500  0.81068500  1
  Cr  Cr15  1  0.24246800  0.18931500  0.18931500  1
  Co  Co16  1  0.50539300  0.23820400  0.43579800  1
  Co  Co17  1  0.50539300  0.76179600  0.56420200  1
  Co  Co18  1  0.00539300  0.26179600  0.93579800  1
  Co  Co19  1  0.00539300  0.73820400  0.06420200  1
  Co  Co20  1  0.50539300  0.43579800  0.23820400  1
  Co  Co21  1  0.50539300  0.56420200  0.76179600  1
  Co  Co22  1  0.00539300  0.93579800  0.26179600  1
  Co  Co23  1  0.00539300  0.06420200  0.73820400  1
  Co  Co24  1  0.50862500  0.50000000  0.50000000  1
  Co  Co25  1  0.00862500  0.00000000  0.00000000  1
  Co  Co26  1  0.24273500  0.32003500  0.67996500  1
  Co  Co27  1  0.24273500  0.67996500  0.32003500  1
  Co  Co28  1  0.74273500  0.17996500  0.17996500  1
  Co  Co29  1  0.74273500  0.82003500  0.82003500  1
