# generated using pymatgen
data_BaSrO2
_symmetry_space_group_name_H-M   'P 1'
_cell_length_a   6.63453011
_cell_length_b   6.63453011
_cell_length_c   6.63453064
_cell_angle_alpha   33.47356984
_cell_angle_beta   33.47356984
_cell_angle_gamma   33.47356154
_symmetry_Int_Tables_number   1
_chemical_formula_structural   BaSrO2
_chemical_formula_sum   'Ba1 Sr1 O2'
_cell_volume   79.12013296
_cell_formula_units_Z   1
loop_
 _symmetry_equiv_pos_site_id
 _symmetry_equiv_pos_as_xyz
  1  'x, y, z'
loop_
 _atom_site_type_symbol
 _atom_site_label
 _atom_site_symmetry_multiplicity
 _atom_site_fract_x
 _atom_site_fract_y
 _atom_site_fract_z
 _atom_site_occupancy
  Ba  Ba0  1  0.00000000  0.00000000  0.00000000  1
  Sr  Sr1  1  0.50000000  0.50000000  0.50000000  1
  O  O2  1  0.24449900  0.24449900  0.24449900  1
  O  O3  1  0.75550100  0.75550100  0.75550100  1
