# generated using pymatgen
data_BeZnS2
_symmetry_space_group_name_H-M   'P 1'
_cell_length_a   6.34462353
_cell_length_b   6.34462353
_cell_length_c   6.34462374
_cell_angle_alpha   33.48368992
_cell_angle_beta   33.48368992
_cell_angle_gamma   33.48368851
_symmetry_Int_Tables_number   1
_chemical_formula_structural   BeZnS2
_chemical_formula_sum   'Be1 Zn1 S2'
_cell_volume   69.23302304
_cell_formula_units_Z   1
loop_
 _symmetry_equiv_pos_site_id
 _symmetry_equiv_pos_as_xyz
  1  'x, y, z'
loop_
 _atom_site_type_symbol
 _atom_site_label
 _atom_site_symmetry_multiplicity
 _atom_site_fract_x
 _atom_site_fract_y
 _atom_site_fract_z
 _atom_site_occupancy
  Be  Be0  1  0.50045100  0.50045100  0.50045100  1
  Zn  Zn1  1  0.00103200  0.00103200  0.00103200  1
  S  S2  1  0.13149500  0.13149500  0.13149500  1
  S  S3  1  0.61702300  0.61702300  0.61702300  1
