# generated using pymatgen
data_Sm2V2O5
_symmetry_space_group_name_H-M   'P 1'
_cell_length_a   8.79537259
_cell_length_b   8.79537259
_cell_length_c   8.79537259
_cell_angle_alpha   143.82060021
_cell_angle_beta   141.41618154
_cell_angle_gamma   53.92319259
_symmetry_Int_Tables_number   1
_chemical_formula_structural   Sm2V2O5
_chemical_formula_sum   'Sm4 V4 O10'
_cell_volume   248.84927442
_cell_formula_units_Z   2
loop_
 _symmetry_equiv_pos_site_id
 _symmetry_equiv_pos_as_xyz
  1  'x, y, z'
loop_
 _atom_site_type_symbol
 _atom_site_label
 _atom_site_symmetry_multiplicity
 _atom_site_fract_x
 _atom_site_fract_y
 _atom_site_fract_z
 _atom_site_occupancy
  Sm  Sm0  1  0.87698700  0.39224300  0.48988800  1
  Sm  Sm1  1  0.12301300  0.61290100  0.51525600  1
  Sm  Sm2  1  0.40235500  0.89224300  0.51525600  1
  Sm  Sm3  1  0.59764500  0.11290100  0.48988800  1
  V  V4  1  0.00000000  0.98196500  0.98196500  1
  V  V5  1  0.50000000  0.48196500  0.98196500  1
  V  V6  1  0.80206800  0.78312900  0.08519700  1
  V  V7  1  0.19793200  0.28312900  0.98106100  1
  O  O8  1  0.76929200  0.77819800  0.48309500  1
  O  O9  1  0.23070800  0.71380300  0.00890600  1
  O  O10  1  0.79510400  0.27819800  0.00890600  1
  O  O11  1  0.20489600  0.21380300  0.48309500  1
  O  O12  1  0.77098900  0.81232600  0.85265300  1
  O  O13  1  0.22901100  0.08166400  0.04133700  1
  O  O14  1  0.45967300  0.31232600  0.04133700  1
  O  O15  1  0.54032700  0.58166400  0.85265300  1
  O  O16  1  0.84216800  0.17977100  0.52193800  1
  O  O17  1  0.15783200  0.67977100  0.33760300  1
