# generated using pymatgen
data_Cd3NO8
_symmetry_space_group_name_H-M   'P 1'
_cell_length_a   3.51971000
_cell_length_b   10.61074000
_cell_length_c   10.62985821
_cell_angle_alpha   87.95739564
_cell_angle_beta   90.00000000
_cell_angle_gamma   90.00000000
_symmetry_Int_Tables_number   1
_chemical_formula_structural   Cd3NO8
_chemical_formula_sum   'Cd6 N2 O16'
_cell_volume   396.73817226
_cell_formula_units_Z   2
loop_
 _symmetry_equiv_pos_site_id
 _symmetry_equiv_pos_as_xyz
  1  'x, y, z'
loop_
 _atom_site_type_symbol
 _atom_site_label
 _atom_site_symmetry_multiplicity
 _atom_site_fract_x
 _atom_site_fract_y
 _atom_site_fract_z
 _atom_site_occupancy
  Cd  Cd0  1  0.25000000  0.23638200  0.35015900  1
  Cd  Cd1  1  0.75000000  0.76361800  0.64984100  1
  Cd  Cd2  1  0.25000000  0.60142200  0.89089200  1
  Cd  Cd3  1  0.25000000  0.90719500  0.89101000  1
  Cd  Cd4  1  0.75000000  0.39857800  0.10910800  1
  Cd  Cd5  1  0.75000000  0.09280500  0.10899000  1
  N  N6  1  0.25000000  0.28443700  0.65007500  1
  N  N7  1  0.75000000  0.71556300  0.34992500  1
  O  O8  1  0.25000000  0.19714900  0.56887700  1
  O  O9  1  0.75000000  0.80285100  0.43112300  1
  O  O10  1  0.75000000  0.75577200  0.88269500  1
  O  O11  1  0.25000000  0.24422800  0.11730500  1
  O  O12  1  0.75000000  0.46867800  0.91068100  1
  O  O13  1  0.75000000  0.03787500  0.90976000  1
  O  O14  1  0.25000000  0.53132200  0.08931900  1
  O  O15  1  0.25000000  0.96212500  0.09024000  1
  O  O16  1  0.25000000  0.64313900  0.68592400  1
  O  O17  1  0.25000000  0.88358800  0.68492000  1
  O  O18  1  0.75000000  0.35686100  0.31407600  1
  O  O19  1  0.75000000  0.11641200  0.31508000  1
  O  O20  1  0.25000000  0.25048400  0.76352900  1
  O  O21  1  0.75000000  0.74951600  0.23647100  1
  O  O22  1  0.25000000  0.39729800  0.61405800  1
  O  O23  1  0.75000000  0.60270200  0.38594200  1
