# generated using pymatgen
data_BaTb2Mn2O7
_symmetry_space_group_name_H-M   'P 1'
_cell_length_a   10.43078322
_cell_length_b   10.43078322
_cell_length_c   10.43078322
_cell_angle_alpha   158.22612923
_cell_angle_beta   158.22612923
_cell_angle_gamma   30.98410177
_symmetry_Int_Tables_number   1
_chemical_formula_structural   BaTb2Mn2O7
_chemical_formula_sum   'Ba1 Tb2 Mn2 O7'
_cell_volume   156.05258788
_cell_formula_units_Z   1
loop_
 _symmetry_equiv_pos_site_id
 _symmetry_equiv_pos_as_xyz
  1  'x, y, z'
loop_
 _atom_site_type_symbol
 _atom_site_label
 _atom_site_symmetry_multiplicity
 _atom_site_fract_x
 _atom_site_fract_y
 _atom_site_fract_z
 _atom_site_occupancy
  Ba  Ba0  1  0.50000000  0.50000000  0.00000000  1
  Tb  Tb1  1  0.68258800  0.68258800  0.00000000  1
  Tb  Tb2  1  0.31741200  0.31741200  0.00000000  1
  Mn  Mn3  1  0.89692700  0.89692700  0.00000000  1
  Mn  Mn4  1  0.10307300  0.10307300  0.00000000  1
  O  O5  1  0.88786100  0.38786100  0.50000000  1
  O  O6  1  0.38786100  0.88786100  0.50000000  1
  O  O7  1  0.11213900  0.61213900  0.50000000  1
  O  O8  1  0.61213900  0.11213900  0.50000000  1
  O  O9  1  0.79052600  0.79052600  0.00000000  1
  O  O10  1  0.20947400  0.20947400  0.00000000  1
  O  O11  1  0.00000000  0.00000000  0.00000000  1
