# generated using pymatgen
data_Ca2La2Ti3CuO12
_symmetry_space_group_name_H-M   'P 1'
_cell_length_a   3.88876400
_cell_length_b   3.88876400
_cell_length_c   15.88928500
_cell_angle_alpha   90.00000000
_cell_angle_beta   90.00000000
_cell_angle_gamma   90.00000000
_symmetry_Int_Tables_number   1
_chemical_formula_structural   Ca2La2Ti3CuO12
_chemical_formula_sum   'Ca2 La2 Ti3 Cu1 O12'
_cell_volume   240.28548119
_cell_formula_units_Z   1
loop_
 _symmetry_equiv_pos_site_id
 _symmetry_equiv_pos_as_xyz
  1  'x, y, z'
loop_
 _atom_site_type_symbol
 _atom_site_label
 _atom_site_symmetry_multiplicity
 _atom_site_fract_x
 _atom_site_fract_y
 _atom_site_fract_z
 _atom_site_occupancy
  Ca  Ca0  1  0.50000000  0.50000000  0.62311900  1
  Ca  Ca1  1  0.50000000  0.50000000  0.37688100  1
  La  La2  1  0.50000000  0.50000000  0.88516900  1
  La  La3  1  0.50000000  0.50000000  0.11483100  1
  Ti  Ti4  1  0.00000000  0.00000000  0.74717300  1
  Ti  Ti5  1  0.00000000  0.00000000  0.25282700  1
  Ti  Ti6  1  0.00000000  0.00000000  0.50000000  1
  Cu  Cu7  1  0.00000000  0.00000000  0.00000000  1
  O  O8  1  0.00000000  0.00000000  0.86747600  1
  O  O9  1  0.00000000  0.00000000  0.13252400  1
  O  O10  1  0.50000000  0.00000000  0.74847400  1
  O  O11  1  0.00000000  0.50000000  0.74847400  1
  O  O12  1  0.50000000  0.00000000  0.25152600  1
  O  O13  1  0.00000000  0.50000000  0.25152600  1
  O  O14  1  0.50000000  0.00000000  0.00000000  1
  O  O15  1  0.00000000  0.50000000  0.00000000  1
  O  O16  1  0.00000000  0.00000000  0.62338000  1
  O  O17  1  0.00000000  0.00000000  0.37662000  1
  O  O18  1  0.50000000  0.00000000  0.50000000  1
  O  O19  1  0.00000000  0.50000000  0.50000000  1
