# generated using pymatgen
data_BaSrSm(CuO2)3
_symmetry_space_group_name_H-M   'P 1'
_cell_length_a   3.87938700
_cell_length_b   3.87938700
_cell_length_c   11.93821500
_cell_angle_alpha   90.00000000
_cell_angle_beta   90.00000000
_cell_angle_gamma   90.00000000
_symmetry_Int_Tables_number   1
_chemical_formula_structural   BaSrSm(CuO2)3
_chemical_formula_sum   'Ba1 Sr1 Sm1 Cu3 O6'
_cell_volume   179.66587973
_cell_formula_units_Z   1
loop_
 _symmetry_equiv_pos_site_id
 _symmetry_equiv_pos_as_xyz
  1  'x, y, z'
loop_
 _atom_site_type_symbol
 _atom_site_label
 _atom_site_symmetry_multiplicity
 _atom_site_fract_x
 _atom_site_fract_y
 _atom_site_fract_z
 _atom_site_occupancy
  Ba  Ba0  1  0.50000000  0.50000000  0.80973000  1
  Sr  Sr1  1  0.50000000  0.50000000  0.20037400  1
  Sm  Sm2  1  0.50000000  0.50000000  0.49852300  1
  Cu  Cu3  1  0.00000000  0.00000000  0.64092200  1
  Cu  Cu4  1  0.00000000  0.00000000  0.35330300  1
  Cu  Cu5  1  0.00000000  0.00000000  0.00464200  1
  O  O6  1  0.00000000  0.00000000  0.85129900  1
  O  O7  1  0.00000000  0.00000000  0.15583300  1
  O  O8  1  0.50000000  0.00000000  0.62307300  1
  O  O9  1  0.00000000  0.50000000  0.62307300  1
  O  O10  1  0.50000000  0.00000000  0.36961400  1
  O  O11  1  0.00000000  0.50000000  0.36961400  1
