# generated using pymatgen
data_Bi4(TeSe)3
_symmetry_space_group_name_H-M   'P 1'
_cell_length_a   20.81931764
_cell_length_b   20.81931764
_cell_length_c   20.81931815
_cell_angle_alpha   11.86860416
_cell_angle_beta   11.86860416
_cell_angle_gamma   11.86860271
_symmetry_Int_Tables_number   1
_chemical_formula_structural   Bi4(TeSe)3
_chemical_formula_sum   'Bi4 Te3 Se3'
_cell_volume   331.75198524
_cell_formula_units_Z   1
loop_
 _symmetry_equiv_pos_site_id
 _symmetry_equiv_pos_as_xyz
  1  'x, y, z'
loop_
 _atom_site_type_symbol
 _atom_site_label
 _atom_site_symmetry_multiplicity
 _atom_site_fract_x
 _atom_site_fract_y
 _atom_site_fract_z
 _atom_site_occupancy
  Bi  Bi0  1  0.19856100  0.19856100  0.19856100  1
  Bi  Bi1  1  0.69624900  0.69624900  0.69624900  1
  Bi  Bi2  1  0.30212800  0.30212800  0.30212800  1
  Bi  Bi3  1  0.80481100  0.80481100  0.80481100  1
  Te  Te4  1  0.39187400  0.39187400  0.39187400  1
  Te  Te5  1  0.60652600  0.60652600  0.60652600  1
  Te  Te6  1  0.10912000  0.10912000  0.10912000  1
  Se  Se7  1  0.99940800  0.99940800  0.99940800  1
  Se  Se8  1  0.50176900  0.50176900  0.50176900  1
  Se  Se9  1  0.88955600  0.88955600  0.88955600  1
