# generated using pymatgen
data_Be(GaO2)2
_symmetry_space_group_name_H-M   'P 1'
_cell_length_a   3.03395400
_cell_length_b   7.78447500
_cell_length_c   7.85704818
_cell_angle_alpha   60.83877007
_cell_angle_beta   90.00000000
_cell_angle_gamma   90.00000000
_symmetry_Int_Tables_number   1
_chemical_formula_structural   Be(GaO2)2
_chemical_formula_sum   'Be2 Ga4 O8'
_cell_volume   162.04562977
_cell_formula_units_Z   2
loop_
 _symmetry_equiv_pos_site_id
 _symmetry_equiv_pos_as_xyz
  1  'x, y, z'
loop_
 _atom_site_type_symbol
 _atom_site_label
 _atom_site_symmetry_multiplicity
 _atom_site_fract_x
 _atom_site_fract_y
 _atom_site_fract_z
 _atom_site_occupancy
  Be  Be0  1  0.75000000  0.82484000  0.76920300  1
  Be  Be1  1  0.25000000  0.17516000  0.23079700  1
  Ga  Ga2  1  0.75000000  0.79076100  0.40354400  1
  Ga  Ga3  1  0.75000000  0.40958900  0.83997200  1
  Ga  Ga4  1  0.25000000  0.20923900  0.59645600  1
  Ga  Ga5  1  0.25000000  0.59041100  0.16002800  1
  O  O6  1  0.75000000  0.67759700  0.67255400  1
  O  O7  1  0.25000000  0.32240300  0.32744600  1
  O  O8  1  0.75000000  0.30093300  0.66981900  1
  O  O9  1  0.75000000  0.67612300  0.00983800  1
  O  O10  1  0.75000000  0.05842300  0.28372000  1
  O  O11  1  0.25000000  0.69906700  0.33018100  1
  O  O12  1  0.25000000  0.32387700  0.99016200  1
  O  O13  1  0.25000000  0.94157700  0.71628000  1
