# generated using pymatgen
data_Ca2Nd2Nb3FeO14
_symmetry_space_group_name_H-M   'P 1'
_cell_length_a   7.41645385
_cell_length_b   7.41645385
_cell_length_c   7.37254728
_cell_angle_alpha   60.88051295
_cell_angle_beta   60.88051295
_cell_angle_gamma   61.14177343
_symmetry_Int_Tables_number   1
_chemical_formula_structural   Ca2Nd2Nb3FeO14
_chemical_formula_sum   'Ca2 Nd2 Nb3 Fe1 O14'
_cell_volume   292.99157777
_cell_formula_units_Z   1
loop_
 _symmetry_equiv_pos_site_id
 _symmetry_equiv_pos_as_xyz
  1  'x, y, z'
loop_
 _atom_site_type_symbol
 _atom_site_label
 _atom_site_symmetry_multiplicity
 _atom_site_fract_x
 _atom_site_fract_y
 _atom_site_fract_z
 _atom_site_occupancy
  Ca  Ca0  1  0.50000000  0.50000000  0.50000000  1
  Ca  Ca1  1  0.50000000  0.50000000  0.00000000  1
  Nd  Nd2  1  0.00000000  0.50000000  0.50000000  1
  Nd  Nd3  1  0.50000000  0.00000000  0.50000000  1
  Nb  Nb4  1  0.00000000  0.00000000  0.50000000  1
  Nb  Nb5  1  0.50000000  0.00000000  0.00000000  1
  Nb  Nb6  1  0.00000000  0.50000000  0.00000000  1
  Fe  Fe7  1  0.00000000  0.00000000  0.00000000  1
  O  O8  1  0.68053200  0.68053200  0.06949300  1
  O  O9  1  0.07702300  0.07702300  0.67063500  1
  O  O10  1  0.07021100  0.67904400  0.67591600  1
  O  O11  1  0.67454800  0.06984100  0.07811300  1
  O  O12  1  0.06984100  0.67454800  0.07811300  1
  O  O13  1  0.67904400  0.07021100  0.67591600  1
  O  O14  1  0.31946800  0.31946800  0.93050700  1
  O  O15  1  0.92297700  0.92297700  0.32936500  1
  O  O16  1  0.92978900  0.32095600  0.32408400  1
  O  O17  1  0.32545200  0.93015900  0.92188700  1
  O  O18  1  0.93015900  0.32545200  0.92188700  1
  O  O19  1  0.32095600  0.92978900  0.32408400  1
  O  O20  1  0.62481400  0.62481400  0.62454300  1
  O  O21  1  0.37518600  0.37518600  0.37545700  1
