# generated using pymatgen
data_La2Ag2O5
_symmetry_space_group_name_H-M   'P 1'
_cell_length_a   9.16362371
_cell_length_b   9.16362371
_cell_length_c   9.16362371
_cell_angle_alpha   143.45267695
_cell_angle_beta   140.92857414
_cell_angle_gamma   54.56871737
_symmetry_Int_Tables_number   1
_chemical_formula_structural   La2Ag2O5
_chemical_formula_sum   'La4 Ag4 O10'
_cell_volume   286.82146814
_cell_formula_units_Z   2
loop_
 _symmetry_equiv_pos_site_id
 _symmetry_equiv_pos_as_xyz
  1  'x, y, z'
loop_
 _atom_site_type_symbol
 _atom_site_label
 _atom_site_symmetry_multiplicity
 _atom_site_fract_x
 _atom_site_fract_y
 _atom_site_fract_z
 _atom_site_occupancy
  La  La0  1  0.86866000  0.39380900  0.49659200  1
  La  La1  1  0.13134000  0.62793200  0.52514900  1
  La  La2  1  0.39721600  0.89380900  0.52514900  1
  La  La3  1  0.60278400  0.12793200  0.49659200  1
  Ag  Ag4  1  0.00000000  0.98518600  0.98518600  1
  Ag  Ag5  1  0.50000000  0.48518600  0.98518600  1
  Ag  Ag6  1  0.79263900  0.76877000  0.06140900  1
  Ag  Ag7  1  0.20736100  0.26877000  0.97613100  1
  O  O8  1  0.77394200  0.77786500  0.48391900  1
  O  O9  1  0.22605800  0.70997800  0.00392300  1
  O  O10  1  0.79394500  0.27786500  0.00392300  1
  O  O11  1  0.20605500  0.20997800  0.48391900  1
  O  O12  1  0.76280900  0.80427500  0.82280800  1
  O  O13  1  0.23719100  0.05999900  0.04146700  1
  O  O14  1  0.48146800  0.30427500  0.04146700  1
  O  O15  1  0.51853200  0.55999900  0.82280800  1
  O  O16  1  0.82523700  0.20818600  0.53342300  1
  O  O17  1  0.17476300  0.70818600  0.38294900  1
