# generated using pymatgen
data_Ce4P5SO28
_symmetry_space_group_name_H-M   'P 1'
_cell_length_a   9.45354076
_cell_length_b   9.45354076
_cell_length_c   10.25336662
_cell_angle_alpha   61.39854504
_cell_angle_beta   61.39854504
_cell_angle_gamma   62.97258584
_symmetry_Int_Tables_number   1
_chemical_formula_structural   Ce4P5SO28
_chemical_formula_sum   'Ce4 P5 S1 O28'
_cell_volume   675.51283362
_cell_formula_units_Z   1
loop_
 _symmetry_equiv_pos_site_id
 _symmetry_equiv_pos_as_xyz
  1  'x, y, z'
loop_
 _atom_site_type_symbol
 _atom_site_label
 _atom_site_symmetry_multiplicity
 _atom_site_fract_x
 _atom_site_fract_y
 _atom_site_fract_z
 _atom_site_occupancy
  Ce  Ce0  1  0.74484700  0.02339500  0.83917300  1
  Ce  Ce1  1  0.97660500  0.25515300  0.16082700  1
  Ce  Ce2  1  0.25096900  0.97718900  0.67390100  1
  Ce  Ce3  1  0.02281100  0.74903100  0.32609900  1
  P  P4  1  0.94411900  0.34403300  0.50037100  1
  P  P5  1  0.65596700  0.05588100  0.49962900  1
  P  P6  1  0.05874500  0.65513300  0.99469100  1
  P  P7  1  0.34486700  0.94125500  0.00530900  1
  P  P8  1  0.87073600  0.12926400  0.00000000  1
  S  S9  1  0.12972700  0.87027300  0.50000000  1
  O  O10  1  0.92003700  0.52513700  0.47943800  1
  O  O11  1  0.47486300  0.07996300  0.52056200  1
  O  O12  1  0.08447900  0.47163300  0.02012300  1
  O  O13  1  0.52836700  0.91552100  0.97987700  1
  O  O14  1  0.11661400  0.22769100  0.52080200  1
  O  O15  1  0.77230900  0.88338600  0.47919800  1
  O  O16  1  0.88536200  0.76743100  0.97276500  1
  O  O17  1  0.23256900  0.11463800  0.02723500  1
  O  O18  1  0.71496800  0.49689900  0.18435300  1
  O  O19  1  0.50310100  0.28503200  0.81564700  1
  O  O20  1  0.28732400  0.51345600  0.29941000  1
  O  O21  1  0.48654400  0.71267600  0.70059000  1
  O  O22  1  0.99126700  0.06960400  0.85473800  1
  O  O23  1  0.93039600  0.00873300  0.14526200  1
  O  O24  1  0.01229000  0.92779200  0.63919900  1
  O  O25  1  0.07220800  0.98771000  0.36080100  1
  O  O26  1  0.80014700  0.27595600  0.64539100  1
  O  O27  1  0.72404400  0.19985300  0.35460900  1
  O  O28  1  0.19908700  0.72323200  0.84564600  1
  O  O29  1  0.27676800  0.80091300  0.15435400  1
  O  O30  1  0.69784000  0.12549100  0.02442300  1
  O  O31  1  0.87450900  0.30216000  0.97557700  1
  O  O32  1  0.29775400  0.87258800  0.47210700  1
  O  O33  1  0.12741200  0.70224600  0.52789300  1
  O  O34  1  0.93442400  0.34110900  0.35453000  1
  O  O35  1  0.65889100  0.06557600  0.64547000  1
  O  O36  1  0.05990200  0.66286900  0.14184600  1
  O  O37  1  0.33713100  0.94009800  0.85815400  1
