# generated using pymatgen
data_BaTiFe3(BiO4)3
_symmetry_space_group_name_H-M   'P 1'
_cell_length_a   9.98012454
_cell_length_b   9.98012454
_cell_length_c   9.98012428
_cell_angle_alpha   32.99552780
_cell_angle_beta   32.99552780
_cell_angle_gamma   32.99552717
_symmetry_Int_Tables_number   1
_chemical_formula_structural   BaTiFe3(BiO4)3
_chemical_formula_sum   'Ba1 Ti1 Fe3 Bi3 O12'
_cell_volume   262.34076064
_cell_formula_units_Z   1
loop_
 _symmetry_equiv_pos_site_id
 _symmetry_equiv_pos_as_xyz
  1  'x, y, z'
loop_
 _atom_site_type_symbol
 _atom_site_label
 _atom_site_symmetry_multiplicity
 _atom_site_fract_x
 _atom_site_fract_y
 _atom_site_fract_z
 _atom_site_occupancy
  Ba  Ba0  1  0.25935600  0.25935600  0.25935600  1
  Ti  Ti1  1  0.87902800  0.87902800  0.87902800  1
  Fe  Fe2  1  0.38562300  0.38562300  0.38562300  1
  Fe  Fe3  1  0.63359700  0.63359700  0.63359700  1
  Fe  Fe4  1  0.13693700  0.13693700  0.13693700  1
  Bi  Bi5  1  0.74393600  0.74393600  0.74393600  1
  Bi  Bi6  1  0.99301500  0.99301500  0.99301500  1
  Bi  Bi7  1  0.49345800  0.49345800  0.49345800  1
  O  O8  1  0.80045200  0.75398800  0.24771300  1
  O  O9  1  0.35076800  0.20584300  0.75080400  1
  O  O10  1  0.75398800  0.24771300  0.80045200  1
  O  O11  1  0.20584300  0.75080400  0.35076800  1
  O  O12  1  0.24771300  0.80045200  0.75398800  1
  O  O13  1  0.75080400  0.35076800  0.20584300  1
  O  O14  1  0.07359700  0.51934900  0.95190800  1
  O  O15  1  0.58398800  0.00488400  0.46369700  1
  O  O16  1  0.51934900  0.95190800  0.07359700  1
  O  O17  1  0.00488400  0.46369700  0.58398800  1
  O  O18  1  0.95190800  0.07359700  0.51934900  1
  O  O19  1  0.46369700  0.58398800  0.00488400  1
