# generated using pymatgen
data_Bi4IBr3
_symmetry_space_group_name_H-M   'P 1'
_cell_length_a   7.52560485
_cell_length_b   7.52560485
_cell_length_c   20.63349800
_cell_angle_alpha   90.00000000
_cell_angle_beta   90.00000000
_cell_angle_gamma   146.54897738
_symmetry_Int_Tables_number   1
_chemical_formula_structural   Bi4IBr3
_chemical_formula_sum   'Bi8 I2 Br6'
_cell_volume   644.14519526
_cell_formula_units_Z   2
loop_
 _symmetry_equiv_pos_site_id
 _symmetry_equiv_pos_as_xyz
  1  'x, y, z'
loop_
 _atom_site_type_symbol
 _atom_site_label
 _atom_site_symmetry_multiplicity
 _atom_site_fract_x
 _atom_site_fract_y
 _atom_site_fract_z
 _atom_site_occupancy
  Bi  Bi0  1  0.25503000  0.74497000  0.86450400  1
  Bi  Bi1  1  0.74497000  0.25503000  0.36450400  1
  Bi  Bi2  1  0.05629200  0.94370800  0.50380200  1
  Bi  Bi3  1  0.94370800  0.05629200  0.00380200  1
  Bi  Bi4  1  0.29478000  0.70522000  0.01109300  1
  Bi  Bi5  1  0.70522000  0.29478000  0.51109300  1
  Bi  Bi6  1  0.01617400  0.98382600  0.65099600  1
  Bi  Bi7  1  0.98382600  0.01617400  0.15099600  1
  I  I8  1  0.34088200  0.65911800  0.19567000  1
  I  I9  1  0.65911800  0.34088200  0.69567000  1
  Br  Br10  1  0.38131400  0.61868600  0.62461700  1
  Br  Br11  1  0.61868600  0.38131400  0.12461700  1
  Br  Br12  1  0.11709400  0.88290600  0.32592500  1
  Br  Br13  1  0.88290600  0.11709400  0.82592500  1
  Br  Br14  1  0.37586300  0.62413700  0.39829200  1
  Br  Br15  1  0.62413700  0.37586300  0.89829200  1
