# generated using pymatgen
data_Ca2NbO6F
_symmetry_space_group_name_H-M   'P 1'
_cell_length_a   7.34082353
_cell_length_b   7.34082353
_cell_length_c   7.34082353
_cell_angle_alpha   120.43189446
_cell_angle_beta   117.17824937
_cell_angle_gamma   92.10471415
_symmetry_Int_Tables_number   1
_chemical_formula_structural   Ca2NbO6F
_chemical_formula_sum   'Ca4 Nb2 O12 F2'
_cell_volume   284.28736115
_cell_formula_units_Z   2
loop_
 _symmetry_equiv_pos_site_id
 _symmetry_equiv_pos_as_xyz
  1  'x, y, z'
loop_
 _atom_site_type_symbol
 _atom_site_label
 _atom_site_symmetry_multiplicity
 _atom_site_fract_x
 _atom_site_fract_y
 _atom_site_fract_z
 _atom_site_occupancy
  Ca  Ca0  1  0.00000000  0.00000000  0.00000000  1
  Ca  Ca1  1  0.50000000  0.00000000  0.50000000  1
  Ca  Ca2  1  0.00000000  0.00000000  0.50000000  1
  Ca  Ca3  1  0.00000000  0.50000000  0.00000000  1
  Nb  Nb4  1  0.50000000  0.50000000  0.00000000  1
  Nb  Nb5  1  0.00000000  0.50000000  0.50000000  1
  O  O6  1  0.85157800  0.59837800  0.68618600  1
  O  O7  1  0.85157800  0.16539200  0.25320000  1
  O  O8  1  0.41341800  0.16341800  0.25000000  1
  O  O9  1  0.41219200  0.16539200  0.81381400  1
  O  O10  1  0.41219200  0.59837800  0.24680000  1
  O  O11  1  0.82225000  0.57225000  0.25000000  1
  O  O12  1  0.14842200  0.40162200  0.31381400  1
  O  O13  1  0.14842200  0.83460800  0.74680000  1
  O  O14  1  0.58658200  0.83658200  0.75000000  1
  O  O15  1  0.58780800  0.83460800  0.18618600  1
  O  O16  1  0.58780800  0.40162200  0.75320000  1
  O  O17  1  0.17775000  0.42775000  0.75000000  1
  F  F18  1  0.12529900  0.87529900  0.25000000  1
  F  F19  1  0.87470100  0.12470100  0.75000000  1
