# generated using pymatgen
data_Ca2Ga2GeO7
_symmetry_space_group_name_H-M   'P 1'
_cell_length_a   7.97994300
_cell_length_b   5.25789700
_cell_length_c   7.99530228
_cell_angle_alpha   89.98483636
_cell_angle_beta   90.00000000
_cell_angle_gamma   90.00000000
_symmetry_Int_Tables_number   1
_chemical_formula_structural   Ca2Ga2GeO7
_chemical_formula_sum   'Ca4 Ga4 Ge2 O14'
_cell_volume   335.46462952
_cell_formula_units_Z   2
loop_
 _symmetry_equiv_pos_site_id
 _symmetry_equiv_pos_as_xyz
  1  'x, y, z'
loop_
 _atom_site_type_symbol
 _atom_site_label
 _atom_site_symmetry_multiplicity
 _atom_site_fract_x
 _atom_site_fract_y
 _atom_site_fract_z
 _atom_site_occupancy
  Ca  Ca0  1  0.65817500  0.48431500  0.57547200  1
  Ca  Ca1  1  0.15817500  0.51568500  0.42452800  1
  Ca  Ca2  1  0.33570400  0.48617600  0.89628900  1
  Ca  Ca3  1  0.83570400  0.51382400  0.10371100  1
  Ga  Ga4  1  0.50052700  0.99993300  0.25280300  1
  Ga  Ga5  1  0.00052700  0.00006700  0.74719700  1
  Ga  Ga6  1  0.85514700  0.03290000  0.39536000  1
  Ga  Ga7  1  0.35514700  0.96710000  0.60464000  1
  Ge  Ge8  1  0.14371800  0.04234200  0.10633500  1
  Ge  Ge9  1  0.64371800  0.95765800  0.89366500  1
  O  O10  1  0.50566700  0.80130200  0.75187300  1
  O  O11  1  0.00566700  0.19869800  0.24812700  1
  O  O12  1  0.86024700  0.69088600  0.38635000  1
  O  O13  1  0.36024700  0.30911400  0.61365000  1
  O  O14  1  0.14127000  0.71248600  0.10510100  1
  O  O15  1  0.64127000  0.28751400  0.89489900  1
  O  O16  1  0.59201300  0.79572000  0.08402400  1
  O  O17  1  0.09201300  0.20428000  0.91597600  1
  O  O18  1  0.40884900  0.78769100  0.41029100  1
  O  O19  1  0.90884900  0.21230900  0.58970900  1
  O  O20  1  0.66261900  0.21471100  0.33425500  1
  O  O21  1  0.16261900  0.78528900  0.66574500  1
  O  O22  1  0.33606400  0.20164000  0.15208100  1
  O  O23  1  0.83606400  0.79836000  0.84791900  1
