# generated using pymatgen
data_Bi2Se2S
_symmetry_space_group_name_H-M   'P 1'
_cell_length_a   4.13357300
_cell_length_b   11.47033200
_cell_length_c   11.89988700
_cell_angle_alpha   90.00000000
_cell_angle_beta   90.00000000
_cell_angle_gamma   90.00000000
_symmetry_Int_Tables_number   1
_chemical_formula_structural   Bi2Se2S
_chemical_formula_sum   'Bi8 Se8 S4'
_cell_volume   564.21475269
_cell_formula_units_Z   4
loop_
 _symmetry_equiv_pos_site_id
 _symmetry_equiv_pos_as_xyz
  1  'x, y, z'
loop_
 _atom_site_type_symbol
 _atom_site_label
 _atom_site_symmetry_multiplicity
 _atom_site_fract_x
 _atom_site_fract_y
 _atom_site_fract_z
 _atom_site_occupancy
  Bi  Bi0  1  0.25000000  0.16553900  0.51583000  1
  Bi  Bi1  1  0.25000000  0.33446100  0.01583000  1
  Bi  Bi2  1  0.75000000  0.83446100  0.48417000  1
  Bi  Bi3  1  0.75000000  0.66553900  0.98417000  1
  Bi  Bi4  1  0.75000000  0.46398100  0.65782000  1
  Bi  Bi5  1  0.75000000  0.03601900  0.15782000  1
  Bi  Bi6  1  0.25000000  0.53601900  0.34218000  1
  Bi  Bi7  1  0.25000000  0.96398100  0.84218000  1
  Se  Se8  1  0.25000000  0.63468500  0.55261200  1
  Se  Se9  1  0.25000000  0.86531500  0.05261200  1
  Se  Se10  1  0.75000000  0.36531500  0.44738800  1
  Se  Se11  1  0.75000000  0.13468500  0.94738800  1
  Se  Se12  1  0.25000000  0.30299200  0.72000300  1
  Se  Se13  1  0.25000000  0.19700800  0.22000300  1
  Se  Se14  1  0.75000000  0.69700800  0.27999700  1
  Se  Se15  1  0.75000000  0.80299200  0.77999700  1
  S  S16  1  0.75000000  0.05430000  0.61710400  1
  S  S17  1  0.75000000  0.44570000  0.11710400  1
  S  S18  1  0.25000000  0.94570000  0.38289600  1
  S  S19  1  0.25000000  0.55430000  0.88289600  1
