# generated using pymatgen
data_BaSrSi4
_symmetry_space_group_name_H-M   'P 1'
_cell_length_a   6.63728100
_cell_length_b   8.95659600
_cell_length_c   11.35300500
_cell_angle_alpha   90.00000000
_cell_angle_beta   90.00000000
_cell_angle_gamma   90.00000000
_symmetry_Int_Tables_number   1
_chemical_formula_structural   BaSrSi4
_chemical_formula_sum   'Ba4 Sr4 Si16'
_cell_volume   674.90713414
_cell_formula_units_Z   4
loop_
 _symmetry_equiv_pos_site_id
 _symmetry_equiv_pos_as_xyz
  1  'x, y, z'
loop_
 _atom_site_type_symbol
 _atom_site_label
 _atom_site_symmetry_multiplicity
 _atom_site_fract_x
 _atom_site_fract_y
 _atom_site_fract_z
 _atom_site_occupancy
  Ba  Ba0  1  0.25000000  0.01749800  0.30913600  1
  Ba  Ba1  1  0.25000000  0.51749800  0.19086400  1
  Ba  Ba2  1  0.75000000  0.98250200  0.69086400  1
  Ba  Ba3  1  0.75000000  0.48250200  0.80913600  1
  Sr  Sr4  1  0.25000000  0.84904300  0.90676700  1
  Sr  Sr5  1  0.25000000  0.34904300  0.59323300  1
  Sr  Sr6  1  0.75000000  0.15095700  0.09323300  1
  Sr  Sr7  1  0.75000000  0.65095700  0.40676700  1
  Si  Si8  1  0.25000000  0.19927600  0.03664500  1
  Si  Si9  1  0.25000000  0.69927600  0.46335500  1
  Si  Si10  1  0.75000000  0.80072400  0.96335500  1
  Si  Si11  1  0.75000000  0.30072400  0.53664500  1
  Si  Si12  1  0.25000000  0.41663000  0.90540000  1
  Si  Si13  1  0.25000000  0.91663000  0.59460000  1
  Si  Si14  1  0.75000000  0.58337000  0.09460000  1
  Si  Si15  1  0.75000000  0.08337000  0.40540000  1
  Si  Si16  1  0.06859000  0.19057200  0.85341800  1
  Si  Si17  1  0.43141000  0.69057200  0.64658200  1
  Si  Si18  1  0.56859000  0.80942800  0.14658200  1
  Si  Si19  1  0.93141000  0.30942800  0.35341800  1
  Si  Si20  1  0.93141000  0.80942800  0.14658200  1
  Si  Si21  1  0.56859000  0.30942800  0.35341800  1
  Si  Si22  1  0.43141000  0.19057200  0.85341800  1
  Si  Si23  1  0.06859000  0.69057200  0.64658200  1
