# generated using pymatgen
data_CaLa2(FeO3)3
_symmetry_space_group_name_H-M   'P 1'
_cell_length_a   5.54440600
_cell_length_b   7.84792800
_cell_length_c   16.66323600
_cell_angle_alpha   90.00000000
_cell_angle_beta   90.00000000
_cell_angle_gamma   90.00000000
_symmetry_Int_Tables_number   1
_chemical_formula_structural   CaLa2(FeO3)3
_chemical_formula_sum   'Ca4 La8 Fe12 O36'
_cell_volume   725.05237600
_cell_formula_units_Z   4
loop_
 _symmetry_equiv_pos_site_id
 _symmetry_equiv_pos_as_xyz
  1  'x, y, z'
loop_
 _atom_site_type_symbol
 _atom_site_label
 _atom_site_symmetry_multiplicity
 _atom_site_fract_x
 _atom_site_fract_y
 _atom_site_fract_z
 _atom_site_occupancy
  Ca  Ca0  1  0.00648000  0.75000000  0.34455800  1
  Ca  Ca1  1  0.49352000  0.75000000  0.84455800  1
  Ca  Ca2  1  0.99352000  0.25000000  0.65544200  1
  Ca  Ca3  1  0.50648000  0.25000000  0.15544200  1
  La  La4  1  0.00311600  0.75000000  0.00840600  1
  La  La5  1  0.00765300  0.75000000  0.67758700  1
  La  La6  1  0.49234700  0.75000000  0.17758700  1
  La  La7  1  0.49688400  0.75000000  0.50840600  1
  La  La8  1  0.99234700  0.25000000  0.32241300  1
  La  La9  1  0.99688400  0.25000000  0.99159400  1
  La  La10  1  0.50311600  0.25000000  0.49159400  1
  La  La11  1  0.50765300  0.25000000  0.82241300  1
  Fe  Fe12  1  0.49963800  0.50138700  0.33247400  1
  Fe  Fe13  1  0.50000000  0.50000000  0.00000000  1
  Fe  Fe14  1  0.50036200  0.49861300  0.66752600  1
  Fe  Fe15  1  0.00000000  0.00000000  0.50000000  1
  Fe  Fe16  1  0.99963800  0.00138700  0.16752600  1
  Fe  Fe17  1  0.00036200  0.99861300  0.83247400  1
  Fe  Fe18  1  0.49963800  0.99861300  0.33247400  1
  Fe  Fe19  1  0.50000000  0.00000000  0.00000000  1
  Fe  Fe20  1  0.50036200  0.00138700  0.66752600  1
  Fe  Fe21  1  0.00000000  0.50000000  0.50000000  1
  Fe  Fe22  1  0.99963800  0.49861300  0.16752600  1
  Fe  Fe23  1  0.00036200  0.50138700  0.83247400  1
  O  O24  1  0.28728600  0.96547100  0.42889000  1
  O  O25  1  0.28108300  0.96026400  0.09450700  1
  O  O26  1  0.28759300  0.95914900  0.76269900  1
  O  O27  1  0.21240700  0.54085100  0.26269900  1
  O  O28  1  0.21271400  0.53452900  0.92889000  1
  O  O29  1  0.21891700  0.53973600  0.59450700  1
  O  O30  1  0.71240700  0.45914900  0.23730100  1
  O  O31  1  0.71891700  0.46026400  0.90549300  1
  O  O32  1  0.71271400  0.46547100  0.57111000  1
  O  O33  1  0.78108300  0.03973600  0.40549300  1
  O  O34  1  0.78728600  0.03452900  0.07111000  1
  O  O35  1  0.78759300  0.04085100  0.73730100  1
  O  O36  1  0.71240700  0.04085100  0.23730100  1
  O  O37  1  0.71891700  0.03973600  0.90549300  1
  O  O38  1  0.71271400  0.03452900  0.57111000  1
  O  O39  1  0.78108300  0.46026400  0.40549300  1
  O  O40  1  0.78728600  0.46547100  0.07111000  1
  O  O41  1  0.78759300  0.45914900  0.73730100  1
  O  O42  1  0.28728600  0.53452900  0.42889000  1
  O  O43  1  0.28108300  0.53973600  0.09450700  1
  O  O44  1  0.28759300  0.54085100  0.76269900  1
  O  O45  1  0.21240700  0.95914900  0.26269900  1
  O  O46  1  0.21271400  0.96547100  0.92889000  1
  O  O47  1  0.21891700  0.96026400  0.59450700  1
  O  O48  1  0.93047800  0.75000000  0.49648000  1
  O  O49  1  0.92827500  0.75000000  0.16127700  1
  O  O50  1  0.92233600  0.75000000  0.82835100  1
  O  O51  1  0.57766400  0.75000000  0.32835100  1
  O  O52  1  0.56952200  0.75000000  0.99648000  1
  O  O53  1  0.57172500  0.75000000  0.66127700  1
  O  O54  1  0.07766400  0.25000000  0.17164900  1
  O  O55  1  0.07172500  0.25000000  0.83872300  1
  O  O56  1  0.06952200  0.25000000  0.50352000  1
  O  O57  1  0.42827500  0.25000000  0.33872300  1
  O  O58  1  0.43047800  0.25000000  0.00352000  1
  O  O59  1  0.42233600  0.25000000  0.67164900  1
