# generated using pymatgen
data_Ce4Ga2S5O4
_symmetry_space_group_name_H-M   'P 1'
_cell_length_a   3.89321500
_cell_length_b   7.86217298
_cell_length_c   9.67314132
_cell_angle_alpha   101.52669260
_cell_angle_beta   101.59531901
_cell_angle_gamma   90.20632484
_symmetry_Int_Tables_number   1
_chemical_formula_structural   Ce4Ga2S5O4
_chemical_formula_sum   'Ce4 Ga2 S5 O4'
_cell_volume   283.89854183
_cell_formula_units_Z   1
loop_
 _symmetry_equiv_pos_site_id
 _symmetry_equiv_pos_as_xyz
  1  'x, y, z'
loop_
 _atom_site_type_symbol
 _atom_site_label
 _atom_site_symmetry_multiplicity
 _atom_site_fract_x
 _atom_site_fract_y
 _atom_site_fract_z
 _atom_site_occupancy
  Ce  Ce0  1  0.81066400  0.41546800  0.64413800  1
  Ce  Ce1  1  0.80831000  0.91962000  0.63325600  1
  Ce  Ce2  1  0.16806700  0.59315500  0.36075000  1
  Ce  Ce3  1  0.17235400  0.10615000  0.36204900  1
  Ga  Ga4  1  0.49254700  0.65347600  0.00023900  1
  Ga  Ga5  1  0.83209100  0.16195800  0.99982900  1
  S  S6  1  0.59956700  0.30744000  0.22490400  1
  S  S7  1  0.59780000  0.82775400  0.22059000  1
  S  S8  1  0.37891100  0.71727000  0.77897300  1
  S  S9  1  0.37545000  0.19002400  0.77675100  1
  S  S10  1  0.98613500  0.48795500  0.99745500  1
  O  O11  1  0.24394100  0.38490600  0.50733500  1
  O  O12  1  0.23752400  0.87927800  0.49443100  1
  O  O13  1  0.73940800  0.63088200  0.49956600  1
  O  O14  1  0.74123100  0.13266400  0.49973200  1
