# generated using pymatgen
data_Ca2AlFeO5
_symmetry_space_group_name_H-M   'P 1'
_cell_length_a   5.30985200
_cell_length_b   5.44750300
_cell_length_c   15.04272700
_cell_angle_alpha   90.00000000
_cell_angle_beta   90.00000000
_cell_angle_gamma   90.00000000
_symmetry_Int_Tables_number   1
_chemical_formula_structural   Ca2AlFeO5
_chemical_formula_sum   'Ca8 Al4 Fe4 O20'
_cell_volume   435.11741754
_cell_formula_units_Z   4
loop_
 _symmetry_equiv_pos_site_id
 _symmetry_equiv_pos_as_xyz
  1  'x, y, z'
loop_
 _atom_site_type_symbol
 _atom_site_label
 _atom_site_symmetry_multiplicity
 _atom_site_fract_x
 _atom_site_fract_y
 _atom_site_fract_z
 _atom_site_occupancy
  Ca  Ca0  1  0.50856700  0.98092700  0.10528500  1
  Ca  Ca1  1  0.00856700  0.51907300  0.39471500  1
  Ca  Ca2  1  0.49143300  0.01907300  0.60528500  1
  Ca  Ca3  1  0.99143300  0.48092700  0.89471500  1
  Ca  Ca4  1  0.49143300  0.01907300  0.89471500  1
  Ca  Ca5  1  0.99143300  0.48092700  0.60528500  1
  Ca  Ca6  1  0.50856700  0.98092700  0.39471500  1
  Ca  Ca7  1  0.00856700  0.51907300  0.10528500  1
  Al  Al8  1  0.00000000  0.00000000  0.00000000  1
  Al  Al9  1  0.50000000  0.50000000  0.50000000  1
  Al  Al10  1  0.00000000  0.00000000  0.50000000  1
  Al  Al11  1  0.50000000  0.50000000  0.00000000  1
  Fe  Fe12  1  0.05163000  0.06083400  0.25000000  1
  Fe  Fe13  1  0.55163000  0.43916600  0.25000000  1
  Fe  Fe14  1  0.94837000  0.93916600  0.75000000  1
  Fe  Fe15  1  0.44837000  0.56083400  0.75000000  1
  O  O16  1  0.41842400  0.10796800  0.25000000  1
  O  O17  1  0.91842400  0.39203200  0.25000000  1
  O  O18  1  0.58157600  0.89203200  0.75000000  1
  O  O19  1  0.08157600  0.60796800  0.75000000  1
  O  O20  1  0.74824700  0.75186800  0.98861400  1
  O  O21  1  0.24824700  0.74813200  0.51138600  1
  O  O22  1  0.25175300  0.24813200  0.48861400  1
  O  O23  1  0.75175300  0.25186800  0.01138600  1
  O  O24  1  0.25175300  0.24813200  0.01138600  1
  O  O25  1  0.75175300  0.25186800  0.48861400  1
  O  O26  1  0.74824700  0.75186800  0.51138600  1
  O  O27  1  0.24824700  0.74813200  0.98861400  1
  O  O28  1  0.98523100  0.94214600  0.13499000  1
  O  O29  1  0.48523100  0.55785400  0.36501000  1
  O  O30  1  0.01476900  0.05785400  0.63499000  1
  O  O31  1  0.51476900  0.44214600  0.86501000  1
  O  O32  1  0.01476900  0.05785400  0.86501000  1
  O  O33  1  0.51476900  0.44214600  0.63499000  1
  O  O34  1  0.98523100  0.94214600  0.36501000  1
  O  O35  1  0.48523100  0.55785400  0.13499000  1
