# generated using pymatgen
data_Ca2La5Sb5O14
_symmetry_space_group_name_H-M   'P 1'
_cell_length_a   7.35879100
_cell_length_b   7.48224700
_cell_length_c   11.44636176
_cell_angle_alpha   87.12383733
_cell_angle_beta   90.00000000
_cell_angle_gamma   90.00000000
_symmetry_Int_Tables_number   1
_chemical_formula_structural   Ca2La5Sb5O14
_chemical_formula_sum   'Ca2 La5 Sb5 O14'
_cell_volume   629.44611837
_cell_formula_units_Z   1
loop_
 _symmetry_equiv_pos_site_id
 _symmetry_equiv_pos_as_xyz
  1  'x, y, z'
loop_
 _atom_site_type_symbol
 _atom_site_label
 _atom_site_symmetry_multiplicity
 _atom_site_fract_x
 _atom_site_fract_y
 _atom_site_fract_z
 _atom_site_occupancy
  Ca  Ca0  1  0.00000000  0.00000000  0.00000000  1
  Ca  Ca1  1  0.00000000  0.00000000  0.50000000  1
  La  La2  1  0.76145900  0.29477000  0.24392500  1
  La  La3  1  0.23854100  0.70523000  0.75607500  1
  La  La4  1  0.23854100  0.29477000  0.24392500  1
  La  La5  1  0.76145900  0.70523000  0.75607500  1
  La  La6  1  0.00000000  0.50000000  0.50000000  1
  Sb  Sb7  1  0.00000000  0.50000000  0.00000000  1
  Sb  Sb8  1  0.73505000  0.75234700  0.25646400  1
  Sb  Sb9  1  0.26495000  0.24765300  0.74353600  1
  Sb  Sb10  1  0.26495000  0.75234700  0.25646400  1
  Sb  Sb11  1  0.73505000  0.24765300  0.74353600  1
  O  O12  1  0.00000000  0.23508400  0.36878900  1
  O  O13  1  0.00000000  0.76491600  0.63121100  1
  O  O14  1  0.77772500  0.56603500  0.12935800  1
  O  O15  1  0.22227500  0.43396500  0.87064200  1
  O  O16  1  0.22227500  0.56603500  0.12935800  1
  O  O17  1  0.77772500  0.43396500  0.87064200  1
  O  O18  1  0.00000000  0.79556400  0.35300500  1
  O  O19  1  0.00000000  0.20443600  0.64699500  1
  O  O20  1  0.00000000  0.23211800  0.11409100  1
  O  O21  1  0.00000000  0.76788200  0.88590900  1
  O  O22  1  0.74424300  0.52385800  0.36133400  1
  O  O23  1  0.25575700  0.47614200  0.63866600  1
  O  O24  1  0.25575700  0.52385800  0.36133400  1
  O  O25  1  0.74424300  0.47614200  0.63866600  1
