# generated using pymatgen
data_Ca4Mn3SbO12
_symmetry_space_group_name_H-M   'P 1'
_cell_length_a   5.41025988
_cell_length_b   5.50341389
_cell_length_c   7.71371350
_cell_angle_alpha   90.13415322
_cell_angle_beta   89.93801744
_cell_angle_gamma   89.98574124
_symmetry_Int_Tables_number   1
_chemical_formula_structural   Ca4Mn3SbO12
_chemical_formula_sum   'Ca4 Mn3 Sb1 O12'
_cell_volume   229.67427227
_cell_formula_units_Z   1
loop_
 _symmetry_equiv_pos_site_id
 _symmetry_equiv_pos_as_xyz
  1  'x, y, z'
loop_
 _atom_site_type_symbol
 _atom_site_label
 _atom_site_symmetry_multiplicity
 _atom_site_fract_x
 _atom_site_fract_y
 _atom_site_fract_z
 _atom_site_occupancy
  Ca  Ca0  1  0.99290700  0.95852100  0.73314900  1
  Ca  Ca1  1  0.00709500  0.04146600  0.26685100  1
  Ca  Ca2  1  0.51137500  0.44925800  0.73393600  1
  Ca  Ca3  1  0.48861700  0.55074800  0.26606300  1
  Mn  Mn4  1  0.50000900  0.00000600  0.50000500  1
  Mn  Mn5  1  0.49999700  0.00000400  0.99999900  1
  Mn  Mn6  1  0.00000500  0.50000200  0.49999800  1
  Sb  Sb7  1  0.00000300  0.50001200  0.00000000  1
  O  O8  1  0.71135800  0.71020300  0.53853700  1
  O  O9  1  0.30159200  0.29676800  0.04699600  1
  O  O10  1  0.28863900  0.28979100  0.46146400  1
  O  O11  1  0.69840400  0.70322900  0.95300300  1
  O  O12  1  0.08487600  0.52334100  0.74845700  1
  O  O13  1  0.91511800  0.47664900  0.25154100  1
  O  O14  1  0.79079300  0.21207100  0.53843300  1
  O  O15  1  0.20218500  0.79913900  0.04732900  1
  O  O16  1  0.20920700  0.78792600  0.46157000  1
  O  O17  1  0.79781900  0.20086300  0.95266800  1
  O  O18  1  0.42045900  0.02308600  0.75198500  1
  O  O19  1  0.57954200  0.97691500  0.24801600  1
