# generated using pymatgen
data_CdH9C3SBrCl2O
_symmetry_space_group_name_H-M   'P 1'
_cell_length_a   6.94987800
_cell_length_b   10.76487000
_cell_length_c   13.92599400
_cell_angle_alpha   90.00000000
_cell_angle_beta   90.00000000
_cell_angle_gamma   90.00000000
_symmetry_Int_Tables_number   1
_chemical_formula_structural   CdH9C3SBrCl2O
_chemical_formula_sum   'Cd4 H36 C12 S4 Br4 Cl8 O4'
_cell_volume   1041.86674026
_cell_formula_units_Z   4
loop_
 _symmetry_equiv_pos_site_id
 _symmetry_equiv_pos_as_xyz
  1  'x, y, z'
loop_
 _atom_site_type_symbol
 _atom_site_label
 _atom_site_symmetry_multiplicity
 _atom_site_fract_x
 _atom_site_fract_y
 _atom_site_fract_z
 _atom_site_occupancy
  Cd  Cd0  1  0.89836300  0.25033600  0.99992000  1
  Cd  Cd1  1  0.39836300  0.24966400  0.00008000  1
  Cd  Cd2  1  0.10163700  0.75033600  0.50008000  1
  Cd  Cd3  1  0.60163700  0.74966400  0.49992000  1
  H  H4  1  0.99091100  0.11996300  0.61043700  1
  H  H5  1  0.49091100  0.38003700  0.38956300  1
  H  H6  1  0.00908900  0.61996300  0.88956300  1
  H  H7  1  0.50908900  0.88003700  0.11043700  1
  H  H8  1  0.00912900  0.88005300  0.88936000  1
  H  H9  1  0.50912900  0.61994700  0.11064000  1
  H  H10  1  0.99087100  0.38005300  0.61064000  1
  H  H11  1  0.49087100  0.11994700  0.38936000  1
  H  H12  1  0.87245400  0.12538000  0.72722100  1
  H  H13  1  0.37245400  0.37462000  0.27277900  1
  H  H14  1  0.12754600  0.62538000  0.77277900  1
  H  H15  1  0.62754600  0.87462000  0.22722100  1
  H  H16  1  0.12734300  0.87472800  0.77275000  1
  H  H17  1  0.62734300  0.62527200  0.22725000  1
  H  H18  1  0.87265700  0.37472800  0.72725000  1
  H  H19  1  0.37265700  0.12527200  0.27275000  1
  H  H20  1  0.55166500  0.24958300  0.75714400  1
  H  H21  1  0.05166500  0.25041700  0.24285600  1
  H  H22  1  0.44833500  0.74958300  0.74285600  1
  H  H23  1  0.94833500  0.75041700  0.25714400  1
  H  H24  1  0.43105900  0.16529000  0.66142300  1
  H  H25  1  0.93105900  0.33471000  0.33857700  1
  H  H26  1  0.56894100  0.66529000  0.83857700  1
  H  H27  1  0.06894100  0.83471000  0.16142300  1
  H  H28  1  0.56915100  0.83388500  0.83868400  1
  H  H29  1  0.06915100  0.66611500  0.16131600  1
  H  H30  1  0.43084900  0.33388500  0.66131600  1
  H  H31  1  0.93084900  0.16611500  0.33868400  1
  H  H32  1  0.76844000  0.03693200  0.62872200  1
  H  H33  1  0.26844000  0.46306800  0.37127800  1
  H  H34  1  0.23156000  0.53693200  0.87127800  1
  H  H35  1  0.73156000  0.96306800  0.12872200  1
  H  H36  1  0.23198100  0.96297400  0.87144200  1
  H  H37  1  0.73198100  0.53702600  0.12855800  1
  H  H38  1  0.76801900  0.46297400  0.62855800  1
  H  H39  1  0.26801900  0.03702600  0.37144200  1
  C  C40  1  0.85305900  0.11894600  0.64885200  1
  C  C41  1  0.35305900  0.38105400  0.35114800  1
  C  C42  1  0.14694100  0.61894600  0.85114800  1
  C  C43  1  0.64694100  0.88105400  0.14885200  1
  C  C44  1  0.14719700  0.88110300  0.85107100  1
  C  C45  1  0.64719700  0.61889700  0.14892900  1
  C  C46  1  0.85280300  0.38110300  0.64892900  1
  C  C47  1  0.35280300  0.11889700  0.35107100  1
  C  C48  1  0.51055300  0.24957100  0.68057900  1
  C  C49  1  0.01055300  0.25042900  0.31942100  1
  C  C50  1  0.48944700  0.74957100  0.81942100  1
  C  C51  1  0.98944700  0.75042900  0.18057900  1
  S  S52  1  0.72180100  0.24997100  0.61079900  1
  S  S53  1  0.22180100  0.25002900  0.38920100  1
  S  S54  1  0.27819900  0.74997100  0.88920100  1
  S  S55  1  0.77819900  0.75002900  0.11079900  1
  Br  Br56  1  0.14843800  0.42802700  0.08523300  1
  Br  Br57  1  0.64843800  0.07197300  0.91476700  1
  Br  Br58  1  0.85156200  0.92802700  0.41476700  1
  Br  Br59  1  0.35156200  0.57197300  0.58523300  1
  Cl  Cl60  1  0.85247700  0.58836400  0.42088200  1
  Cl  Cl61  1  0.35247700  0.91163600  0.57911800  1
  Cl  Cl62  1  0.14752300  0.08836400  0.07911800  1
  Cl  Cl63  1  0.64752300  0.41163600  0.92088200  1
  Cl  Cl64  1  0.14655300  0.25187200  0.85485500  1
  Cl  Cl65  1  0.64655300  0.24812800  0.14514500  1
  Cl  Cl66  1  0.85344700  0.75187200  0.64514500  1
  Cl  Cl67  1  0.35344700  0.74812800  0.35485500  1
  O  O68  1  0.68367200  0.25031700  0.50812100  1
  O  O69  1  0.18367200  0.24968300  0.49187900  1
  O  O70  1  0.31632800  0.75031700  0.99187900  1
  O  O71  1  0.81632800  0.74968300  0.00812100  1
