# generated using pymatgen
data_CSN2
_symmetry_space_group_name_H-M   'P 1'
_cell_length_a   5.38505300
_cell_length_b   8.39360329
_cell_length_c   7.02928679
_cell_angle_alpha   82.17816469
_cell_angle_beta   90.00000000
_cell_angle_gamma   90.00000000
_symmetry_Int_Tables_number   1
_chemical_formula_structural   CSN2
_chemical_formula_sum   'C2 S2 N4'
_cell_volume   314.76766647
_cell_formula_units_Z   2
loop_
 _symmetry_equiv_pos_site_id
 _symmetry_equiv_pos_as_xyz
  1  'x, y, z'
loop_
 _atom_site_type_symbol
 _atom_site_label
 _atom_site_symmetry_multiplicity
 _atom_site_fract_x
 _atom_site_fract_y
 _atom_site_fract_z
 _atom_site_occupancy
  C  C0  1  0.09600500  0.56353700  0.32588900  1
  C  C1  1  0.90399500  0.06353700  0.32588900  1
  S  S2  1  0.91493800  0.51032800  0.17110900  1
  S  S3  1  0.08506200  0.01032800  0.17110900  1
  N  N4  1  0.23848900  0.60963100  0.44389200  1
  N  N5  1  0.37601300  0.65510400  0.55911000  1
  N  N6  1  0.62398700  0.15510400  0.55911000  1
  N  N7  1  0.76151100  0.10963100  0.44389200  1
