# generated using pymatgen
data_Ca2Al3O6F
_symmetry_space_group_name_H-M   'P 1'
_cell_length_a   7.09846900
_cell_length_b   10.32852569
_cell_length_c   10.36540294
_cell_angle_alpha   114.92563053
_cell_angle_beta   103.19873514
_cell_angle_gamma   102.94247211
_symmetry_Int_Tables_number   1
_chemical_formula_structural   Ca2Al3O6F
_chemical_formula_sum   'Ca8 Al12 O24 F4'
_cell_volume   625.28574850
_cell_formula_units_Z   4
loop_
 _symmetry_equiv_pos_site_id
 _symmetry_equiv_pos_as_xyz
  1  'x, y, z'
loop_
 _atom_site_type_symbol
 _atom_site_label
 _atom_site_symmetry_multiplicity
 _atom_site_fract_x
 _atom_site_fract_y
 _atom_site_fract_z
 _atom_site_occupancy
  Ca  Ca0  1  0.71864400  0.00337800  0.99879400  1
  Ca  Ca1  1  0.28135600  0.99662200  0.00120600  1
  Ca  Ca2  1  0.73959500  0.40216700  0.03006700  1
  Ca  Ca3  1  0.33453600  0.63121100  0.59570700  1
  Ca  Ca4  1  0.69262300  0.96975500  0.35112000  1
  Ca  Ca5  1  0.26040500  0.59783300  0.96993300  1
  Ca  Ca6  1  0.66546400  0.36878900  0.40429300  1
  Ca  Ca7  1  0.30737700  0.03024500  0.64888000  1
  Al  Al8  1  0.83726100  0.68103500  0.72716400  1
  Al  Al9  1  0.15636700  0.04755700  0.32072200  1
  Al  Al10  1  0.10863200  0.27061900  0.95319400  1
  Al  Al11  1  0.16273900  0.31896500  0.27283600  1
  Al  Al12  1  0.84363300  0.95244300  0.67927800  1
  Al  Al13  1  0.89136800  0.72938100  0.04680600  1
  Al  Al14  1  0.49234500  0.54343000  0.23819300  1
  Al  Al15  1  0.94495500  0.69146000  0.45338000  1
  Al  Al16  1  0.25513700  0.76284700  0.30667900  1
  Al  Al17  1  0.50765500  0.45657000  0.76180700  1
  Al  Al18  1  0.05504500  0.30854000  0.54662000  1
  Al  Al19  1  0.74486300  0.23715300  0.69332100  1
  O  O20  1  0.90707200  0.91668000  0.17153500  1
  O  O21  1  0.99293800  0.25644000  0.08607700  1
  O  O22  1  0.73904700  0.83103100  0.74638800  1
  O  O23  1  0.09292800  0.08332000  0.82846500  1
  O  O24  1  0.00706200  0.74356000  0.91392300  1
  O  O25  1  0.26095300  0.16896900  0.25361200  1
  O  O26  1  0.46554200  0.71612900  0.26044500  1
  O  O27  1  0.74637600  0.53757200  0.28159700  1
  O  O28  1  0.20230500  0.74042500  0.45531100  1
  O  O29  1  0.53445800  0.28387100  0.73955500  1
  O  O30  1  0.25362400  0.46242800  0.71840300  1
  O  O31  1  0.79769500  0.25957500  0.54468900  1
  O  O32  1  0.61026900  0.51723900  0.64891500  1
  O  O33  1  0.09512200  0.13395200  0.48486300  1
  O  O34  1  0.96055900  0.35000900  0.86713800  1
  O  O35  1  0.38973100  0.48276100  0.35108500  1
  O  O36  1  0.90487800  0.86604800  0.51513700  1
  O  O37  1  0.03944100  0.64999100  0.13286200  1
  O  O38  1  0.36201900  0.40731800  0.04216800  1
  O  O39  1  0.94955800  0.62848700  0.58781000  1
  O  O40  1  0.32685800  0.95880600  0.36310900  1
  O  O41  1  0.63798100  0.59268200  0.95783200  1
  O  O42  1  0.05044200  0.37151300  0.41219000  1
  O  O43  1  0.67314200  0.04119400  0.63689100  1
  F  F44  1  0.36421900  0.86681100  0.79132200  1
  F  F45  1  0.45381700  0.84673100  0.04877000  1
  F  F46  1  0.63578100  0.13318900  0.20867800  1
  F  F47  1  0.54618300  0.15326900  0.95123000  1
