# generated using pymatgen
data_Cd2Ni2C8N12O
_symmetry_space_group_name_H-M   'P 1'
_cell_length_a   9.73301342
_cell_length_b   9.73301342
_cell_length_c   9.73301342
_cell_angle_alpha   134.75160575
_cell_angle_beta   116.81853382
_cell_angle_gamma   81.07155348
_symmetry_Int_Tables_number   1
_chemical_formula_structural   Cd2Ni2C8N12O
_chemical_formula_sum   'Cd2 Ni2 C8 N12 O1'
_cell_volume   564.84147181
_cell_formula_units_Z   1
loop_
 _symmetry_equiv_pos_site_id
 _symmetry_equiv_pos_as_xyz
  1  'x, y, z'
loop_
 _atom_site_type_symbol
 _atom_site_label
 _atom_site_symmetry_multiplicity
 _atom_site_fract_x
 _atom_site_fract_y
 _atom_site_fract_z
 _atom_site_occupancy
  Cd  Cd0  1  0.25016600  0.25000900  0.00015700  1
  Cd  Cd1  1  0.75014800  0.74999100  0.00015700  1
  Ni  Ni2  1  0.54148200  0.00000000  0.54148200  1
  Ni  Ni3  1  0.95960800  0.50000000  0.45960800  1
  C  C4  1  0.44796300  0.73587400  0.36142300  1
  C  C5  1  0.05226700  0.41342200  0.28799200  1
  C  C6  1  0.87457000  0.23572500  0.28799200  1
  C  C7  1  0.62554900  0.91346000  0.36142300  1
  C  C8  1  0.05226700  0.76427500  0.63884400  1
  C  C9  1  0.44796300  0.08654000  0.71208900  1
  C  C10  1  0.62554900  0.26412600  0.71208900  1
  C  C11  1  0.87457000  0.58657800  0.63884400  1
  N  N12  1  0.47720800  0.22297100  0.25423800  1
  N  N13  1  0.02333300  0.27756000  0.74577300  1
  N  N14  1  0.46821300  0.72244000  0.74577300  1
  N  N15  1  0.03126700  0.77702900  0.25423800  1
  N  N16  1  0.38436800  0.57037500  0.24413900  1
  N  N17  1  0.11547300  0.35961700  0.18570900  1
  N  N18  1  0.82609300  0.07023600  0.18570900  1
  N  N19  1  0.67376400  0.85977100  0.24413900  1
  N  N20  1  0.11547300  0.92976400  0.75585700  1
  N  N21  1  0.38436800  0.14022900  0.81399300  1
  N  N22  1  0.67376400  0.42962500  0.81399300  1
  N  N23  1  0.82609300  0.64038300  0.75585700  1
  O  O24  1  0.29338400  0.50000000  0.79338400  1
