# generated using pymatgen
data_La7Sm(Fe2O5)4
_symmetry_space_group_name_H-M   'P 1'
_cell_length_a   11.05414512
_cell_length_b   11.82518702
_cell_length_c   17.80055852
_cell_angle_alpha   109.41189837
_cell_angle_beta   108.09993099
_cell_angle_gamma   89.95082678
_symmetry_Int_Tables_number   1
_chemical_formula_structural   La7Sm(Fe2O5)4
_chemical_formula_sum   'La28 Sm4 Fe32 O80'
_cell_volume   2072.32143180
_cell_formula_units_Z   4
loop_
 _symmetry_equiv_pos_site_id
 _symmetry_equiv_pos_as_xyz
  1  'x, y, z'
loop_
 _atom_site_type_symbol
 _atom_site_label
 _atom_site_symmetry_multiplicity
 _atom_site_fract_x
 _atom_site_fract_y
 _atom_site_fract_z
 _atom_site_occupancy
  La  La0  1  0.30345600  0.06387300  0.11254900  1
  La  La1  1  0.30528500  0.06352800  0.61079900  1
  La  La2  1  0.30499200  0.56408700  0.61077400  1
  La  La3  1  0.80510600  0.06455500  0.61148300  1
  La  La4  1  0.80583200  0.56445100  0.11074000  1
  La  La5  1  0.80548100  0.56419700  0.61149800  1
  La  La6  1  0.19335100  0.43487600  0.38814700  1
  La  La7  1  0.19136000  0.43682500  0.89021700  1
  La  La8  1  0.19265400  0.93519100  0.38675200  1
  La  La9  1  0.19275700  0.93661900  0.88894200  1
  La  La10  1  0.69361600  0.43632000  0.38836900  1
  La  La11  1  0.69351000  0.93545800  0.38864900  1
  La  La12  1  0.69175000  0.93583100  0.88882300  1
  La  La13  1  0.05504400  0.29745300  0.11183700  1
  La  La14  1  0.05506000  0.29757200  0.61148500  1
  La  La15  1  0.05455400  0.79692200  0.61089700  1
  La  La16  1  0.55608200  0.29645500  0.11112100  1
  La  La17  1  0.55586700  0.29835400  0.61313400  1
  La  La18  1  0.55294100  0.79785400  0.11175100  1
  La  La19  1  0.55502300  0.79688500  0.61101200  1
  La  La20  1  0.44426800  0.20312600  0.38894200  1
  La  La21  1  0.44505200  0.20442400  0.88908600  1
  La  La22  1  0.44273800  0.70219300  0.38686100  1
  La  La23  1  0.44200100  0.70169800  0.88840800  1
  La  La24  1  0.94272300  0.20180700  0.38701900  1
  La  La25  1  0.94089500  0.20344600  0.88914000  1
  La  La26  1  0.94340200  0.70202300  0.38752000  1
  La  La27  1  0.94214500  0.70202900  0.88965200  1
  Sm  Sm28  1  0.30139400  0.56590300  0.10970300  1
  Sm  Sm29  1  0.80257500  0.06435300  0.10903100  1
  Sm  Sm30  1  0.69134700  0.43517400  0.89105400  1
  Sm  Sm31  1  0.05440100  0.79555600  0.11063200  1
  Fe  Fe32  1  0.00495200  0.99917100  0.00144200  1
  Fe  Fe33  1  0.00510600  0.99977100  0.49953400  1
  Fe  Fe34  1  0.00509900  0.50101400  0.00140300  1
  Fe  Fe35  1  0.00485600  0.49962600  0.49980200  1
  Fe  Fe36  1  0.50541700  0.00062400  0.00070300  1
  Fe  Fe37  1  0.50472700  0.00001700  0.49971300  1
  Fe  Fe38  1  0.50531200  0.50077000  0.00043400  1
  Fe  Fe39  1  0.50505200  0.50023000  0.49985100  1
  Fe  Fe40  1  0.25590300  0.25186000  0.00158300  1
  Fe  Fe41  1  0.25471400  0.24939900  0.49971200  1
  Fe  Fe42  1  0.25469700  0.75063500  0.00092200  1
  Fe  Fe43  1  0.25491700  0.75000900  0.49943700  1
  Fe  Fe44  1  0.75538700  0.24956200  0.00043400  1
  Fe  Fe45  1  0.75478000  0.24983600  0.49976300  1
  Fe  Fe46  1  0.75630100  0.75051400  0.00117900  1
  Fe  Fe47  1  0.75454300  0.75023900  0.49960200  1
  Fe  Fe48  1  0.10839200  0.10008900  0.24790300  1
  Fe  Fe49  1  0.11300800  0.10380400  0.75090800  1
  Fe  Fe50  1  0.11397100  0.60341900  0.24820100  1
  Fe  Fe51  1  0.11237600  0.60191900  0.75038700  1
  Fe  Fe52  1  0.61480800  0.10177100  0.24942700  1
  Fe  Fe53  1  0.61282000  0.10453300  0.75079700  1
  Fe  Fe54  1  0.60951300  0.60211100  0.24815900  1
  Fe  Fe55  1  0.61297200  0.60164400  0.75162100  1
  Fe  Fe56  1  0.36196300  0.39953400  0.24893100  1
  Fe  Fe57  1  0.36483500  0.39752400  0.75083000  1
  Fe  Fe58  1  0.35968300  0.89524300  0.24856800  1
  Fe  Fe59  1  0.36237800  0.89758900  0.75031000  1
  Fe  Fe60  1  0.86220700  0.39581700  0.24888100  1
  Fe  Fe61  1  0.86057900  0.39769200  0.75175500  1
  Fe  Fe62  1  0.86318300  0.89860500  0.24774300  1
  Fe  Fe63  1  0.86221300  0.89755600  0.75068100  1
  O  O64  1  0.11439900  0.11605900  0.47648300  1
  O  O65  1  0.11319100  0.11933200  0.97761400  1
  O  O66  1  0.11494300  0.61681400  0.47741800  1
  O  O67  1  0.11472900  0.62131800  0.98124800  1
  O  O68  1  0.61515900  0.11699800  0.47762500  1
  O  O69  1  0.61457300  0.11873100  0.97820600  1
  O  O70  1  0.61474800  0.61767200  0.47792900  1
  O  O71  1  0.61448500  0.61673200  0.97499900  1
  O  O72  1  0.14130400  0.38903400  0.02617300  1
  O  O73  1  0.13715900  0.38251900  0.52178300  1
  O  O74  1  0.13677600  0.88362000  0.02642300  1
  O  O75  1  0.13708000  0.88278900  0.52120400  1
  O  O76  1  0.63678600  0.38331400  0.01985600  1
  O  O77  1  0.63721400  0.38330200  0.52233400  1
  O  O78  1  0.64083100  0.88753500  0.02514600  1
  O  O79  1  0.63766800  0.88376500  0.52206100  1
  O  O80  1  0.36479000  0.11023300  0.47758200  1
  O  O81  1  0.36504700  0.11047200  0.97785300  1
  O  O82  1  0.36502400  0.61065700  0.47740500  1
  O  O83  1  0.36399700  0.60952700  0.97912900  1
  O  O84  1  0.86555400  0.11110300  0.47777300  1
  O  O85  1  0.86312600  0.10701100  0.97991500  1
  O  O86  1  0.86506400  0.61095900  0.47774100  1
  O  O87  1  0.86018300  0.60422800  0.97442600  1
  O  O88  1  0.38760500  0.39345200  0.02624200  1
  O  O89  1  0.38717400  0.38806400  0.52122400  1
  O  O90  1  0.38648300  0.88847200  0.02194700  1
  O  O91  1  0.38784800  0.88862200  0.52207800  1
  O  O92  1  0.88673800  0.38657000  0.02057100  1
  O  O93  1  0.88722800  0.38873800  0.52186400  1
  O  O94  1  0.89101900  0.89013000  0.02935300  1
  O  O95  1  0.88685900  0.88870000  0.52104100  1
  O  O96  1  0.09474300  0.11778600  0.14010100  1
  O  O97  1  0.09121200  0.11483200  0.63974000  1
  O  O98  1  0.10055600  0.61754500  0.13931100  1
  O  O99  1  0.09062600  0.61424700  0.63966000  1
  O  O100  1  0.60248700  0.11447800  0.14012400  1
  O  O101  1  0.59151600  0.11548100  0.63972800  1
  O  O102  1  0.59709400  0.61662600  0.13943000  1
  O  O103  1  0.59090100  0.61403500  0.64077600  1
  O  O104  1  0.45002900  0.38537200  0.35924600  1
  O  O105  1  0.46174800  0.38616500  0.86036300  1
  O  O106  1  0.44986800  0.88504300  0.35996500  1
  O  O107  1  0.45210100  0.88448600  0.86066700  1
  O  O108  1  0.95128300  0.38435000  0.35990500  1
  O  O109  1  0.95525600  0.38493900  0.86129000  1
  O  O110  1  0.94980900  0.88354000  0.35830600  1
  O  O111  1  0.95305100  0.88505000  0.86126200  1
  O  O112  1  0.34597300  0.27248600  0.14043900  1
  O  O113  1  0.34203700  0.27473200  0.63972800  1
  O  O114  1  0.34349800  0.77163000  0.13963400  1
  O  O115  1  0.34077800  0.77524200  0.63948100  1
  O  O116  1  0.84133100  0.27213000  0.13891400  1
  O  O117  1  0.83896300  0.27602000  0.64030700  1
  O  O118  1  0.85634700  0.77176500  0.14026700  1
  O  O119  1  0.84094700  0.77528800  0.63979600  1
  O  O120  1  0.19865300  0.22221600  0.35887900  1
  O  O121  1  0.20466600  0.22694100  0.86097600  1
  O  O122  1  0.20144700  0.72597200  0.35969300  1
  O  O123  1  0.20174600  0.72505200  0.86073900  1
  O  O124  1  0.70100100  0.22578200  0.36007000  1
  O  O125  1  0.70289700  0.22786800  0.86076900  1
  O  O126  1  0.69782200  0.72393200  0.35954000  1
  O  O127  1  0.70464600  0.72742700  0.86097700  1
  O  O128  1  0.42189500  0.06698100  0.25067700  1
  O  O129  1  0.41991200  0.06936500  0.75037400  1
  O  O130  1  0.41338400  0.56957000  0.24418800  1
  O  O131  1  0.41860200  0.56922100  0.74950400  1
  O  O132  1  0.91213800  0.06887000  0.24392100  1
  O  O133  1  0.91969600  0.06935700  0.75064300  1
  O  O134  1  0.92184600  0.56721100  0.24928400  1
  O  O135  1  0.91884800  0.56810800  0.75031900  1
  O  O136  1  0.16988400  0.43221600  0.25030900  1
  O  O137  1  0.17104200  0.43072800  0.75070700  1
  O  O138  1  0.16396700  0.92612600  0.24462300  1
  O  O139  1  0.16910900  0.93123900  0.75013200  1
  O  O140  1  0.66966900  0.43192800  0.24970000  1
  O  O141  1  0.66852300  0.43075100  0.75618200  1
  O  O142  1  0.67111200  0.93008800  0.25006300  1
  O  O143  1  0.66923000  0.93214200  0.74999800  1
