# generated using pymatgen
data_Ca4Bi6O13
_symmetry_space_group_name_H-M   'P 1'
_cell_length_a   7.30313000
_cell_length_b   6.00264200
_cell_length_c   9.33606136
_cell_angle_alpha   71.31450958
_cell_angle_beta   90.00000000
_cell_angle_gamma   90.00000000
_symmetry_Int_Tables_number   1
_chemical_formula_structural   Ca4Bi6O13
_chemical_formula_sum   'Ca4 Bi6 O13'
_cell_volume   387.70266284
_cell_formula_units_Z   1
loop_
 _symmetry_equiv_pos_site_id
 _symmetry_equiv_pos_as_xyz
  1  'x, y, z'
loop_
 _atom_site_type_symbol
 _atom_site_label
 _atom_site_symmetry_multiplicity
 _atom_site_fract_x
 _atom_site_fract_y
 _atom_site_fract_z
 _atom_site_occupancy
  Ca  Ca0  1  0.74709100  0.65058100  0.57029400  1
  Ca  Ca1  1  0.25318300  0.22068600  0.42858000  1
  Ca  Ca2  1  0.25290900  0.65058100  0.57029400  1
  Ca  Ca3  1  0.74681700  0.22068600  0.42858000  1
  Bi  Bi4  1  0.00000000  0.88104100  0.22701600  1
  Bi  Bi5  1  0.00000000  0.10720300  0.77279900  1
  Bi  Bi6  1  0.50000000  0.09880300  0.77689400  1
  Bi  Bi7  1  0.50000000  0.87122100  0.22345800  1
  Bi  Bi8  1  0.77186300  0.50566400  0.00121300  1
  Bi  Bi9  1  0.22813700  0.50566400  0.00121300  1
  O  O10  1  0.50000000  0.36964700  0.56427200  1
  O  O11  1  0.50000000  0.93371100  0.43643000  1
  O  O12  1  0.00000000  0.92271500  0.44278600  1
  O  O13  1  0.00000000  0.36488600  0.55809600  1
  O  O14  1  0.74556400  0.93911600  0.69709400  1
  O  O15  1  0.25496100  0.63595400  0.30519100  1
  O  O16  1  0.25443600  0.93911600  0.69709400  1
  O  O17  1  0.74503900  0.63595400  0.30519100  1
  O  O18  1  0.76230200  0.36316100  0.82090700  1
  O  O19  1  0.23092200  0.18242500  0.17982100  1
  O  O20  1  0.23769800  0.36316100  0.82090700  1
  O  O21  1  0.76907800  0.18242500  0.17982100  1
  O  O22  1  0.50000000  0.60579600  0.02004800  1
