# generated using pymatgen
data_Ca4Mg4P4O17F3
_symmetry_space_group_name_H-M   'P 1'
_cell_length_a   7.93211568
_cell_length_b   7.93211568
_cell_length_c   6.60122868
_cell_angle_alpha   85.48870970
_cell_angle_beta   85.48870970
_cell_angle_gamma   67.61451388
_symmetry_Int_Tables_number   1
_chemical_formula_structural   Ca4Mg4P4O17F3
_chemical_formula_sum   'Ca4 Mg4 P4 O17 F3'
_cell_volume   382.31570828
_cell_formula_units_Z   1
loop_
 _symmetry_equiv_pos_site_id
 _symmetry_equiv_pos_as_xyz
  1  'x, y, z'
loop_
 _atom_site_type_symbol
 _atom_site_label
 _atom_site_symmetry_multiplicity
 _atom_site_fract_x
 _atom_site_fract_y
 _atom_site_fract_z
 _atom_site_occupancy
  Ca  Ca0  1  0.21331900  0.78668100  0.50000000  1
  Ca  Ca1  1  0.71120500  0.28879500  0.00000000  1
  Ca  Ca2  1  0.78729900  0.71172200  0.25097100  1
  Ca  Ca3  1  0.28827800  0.21270100  0.74902900  1
  Mg  Mg4  1  0.25046500  0.49928700  0.12519100  1
  Mg  Mg5  1  0.74741300  0.99948500  0.62434300  1
  Mg  Mg6  1  0.00051500  0.25258700  0.37565700  1
  Mg  Mg7  1  0.50071300  0.74953500  0.87480900  1
  P  P8  1  0.55432600  0.44567400  0.50000000  1
  P  P9  1  0.05467000  0.94533000  0.00000000  1
  P  P10  1  0.44582400  0.05445000  0.24966100  1
  P  P11  1  0.94555000  0.55417600  0.75033900  1
  O  O12  1  0.86932100  0.97535500  0.90760800  1
  O  O13  1  0.36894800  0.47450600  0.40849600  1
  O  O14  1  0.02464500  0.13067900  0.09239200  1
  O  O15  1  0.52549400  0.63105200  0.59150400  1
  O  O16  1  0.13115200  0.52506500  0.84160600  1
  O  O17  1  0.63185100  0.02441800  0.34036500  1
  O  O18  1  0.97558200  0.36814900  0.65963500  1
  O  O19  1  0.47493500  0.86884800  0.15839400  1
  O  O20  1  0.71317200  0.40433600  0.33281700  1
  O  O21  1  0.21404900  0.90359900  0.83360100  1
  O  O22  1  0.59566400  0.28682800  0.66718300  1
  O  O23  1  0.09640100  0.78595100  0.16639900  1
  O  O24  1  0.28754300  0.09767200  0.41643400  1
  O  O25  1  0.78590800  0.59682600  0.91694400  1
  O  O26  1  0.40317400  0.21409200  0.08305600  1
  O  O27  1  0.90232800  0.71245600  0.58356600  1
  O  O28  1  0.95955000  0.04045000  0.50000000  1
  F  F29  1  0.45795000  0.54205000  0.00000000  1
  F  F30  1  0.04179000  0.45903500  0.24947000  1
  F  F31  1  0.54096500  0.95821000  0.75053000  1
