# generated using pymatgen
data_CdP6Pb9O26
_symmetry_space_group_name_H-M   'P 1'
_cell_length_a   7.41425900
_cell_length_b   9.90976588
_cell_length_c   9.91378764
_cell_angle_alpha   60.11695643
_cell_angle_beta   89.89453161
_cell_angle_gamma   89.82004276
_symmetry_Int_Tables_number   1
_chemical_formula_structural   CdP6Pb9O26
_chemical_formula_sum   'Cd1 P6 Pb9 O26'
_cell_volume   631.55307013
_cell_formula_units_Z   1
loop_
 _symmetry_equiv_pos_site_id
 _symmetry_equiv_pos_as_xyz
  1  'x, y, z'
loop_
 _atom_site_type_symbol
 _atom_site_label
 _atom_site_symmetry_multiplicity
 _atom_site_fract_x
 _atom_site_fract_y
 _atom_site_fract_z
 _atom_site_occupancy
  Cd  Cd0  1  0.50419200  0.33209600  0.33385900  1
  P  P1  1  0.73976600  0.62293800  0.97759100  1
  P  P2  1  0.74139200  0.40131300  0.62087400  1
  P  P3  1  0.74036200  0.97888800  0.40194300  1
  P  P4  1  0.25680500  0.37360500  0.03190200  1
  P  P5  1  0.25697000  0.59487200  0.37060700  1
  P  P6  1  0.25655700  0.03295300  0.59614400  1
  Pb  Pb7  1  0.72972800  0.99280400  0.76974200  1
  Pb  Pb8  1  0.73776000  0.23590100  0.99629900  1
  Pb  Pb9  1  0.73461700  0.76907200  0.23567800  1
  Pb  Pb10  1  0.24111300  0.00301600  0.23443600  1
  Pb  Pb11  1  0.23645700  0.75939400  0.00957800  1
  Pb  Pb12  1  0.23997300  0.22993500  0.76682300  1
  Pb  Pb13  1  0.99703500  0.66440700  0.66641100  1
  Pb  Pb14  1  0.49161800  0.66378700  0.66816500  1
  Pb  Pb15  1  0.99454500  0.33101100  0.33659000  1
  O  O16  1  0.72682300  0.51112300  0.15599200  1
  O  O17  1  0.72856000  0.33304400  0.50983400  1
  O  O18  1  0.72773500  0.15708300  0.33622300  1
  O  O19  1  0.24399000  0.49237600  0.85548400  1
  O  O20  1  0.24325900  0.65407900  0.48829800  1
  O  O21  1  0.24302300  0.85598800  0.65602800  1
  O  O22  1  0.57472400  0.73769200  0.91402000  1
  O  O23  1  0.57795900  0.35184300  0.73560700  1
  O  O24  1  0.57708400  0.91655900  0.34953900  1
  O  O25  1  0.08253800  0.27281100  0.09321500  1
  O  O26  1  0.08118100  0.63348300  0.26988600  1
  O  O27  1  0.08156000  0.09603400  0.63484700  1
  O  O28  1  0.41600700  0.25711700  0.06789600  1
  O  O29  1  0.41285500  0.68097100  0.25108700  1
  O  O30  1  0.41496900  0.06760300  0.67840800  1
  O  O31  1  0.91160900  0.72829500  0.93347500  1
  O  O32  1  0.91504400  0.34448000  0.72296300  1
  O  O33  1  0.91332900  0.93375400  0.34328300  1
  O  O34  1  0.74600500  0.53201000  0.88663000  1
  O  O35  1  0.74521600  0.58379800  0.52633100  1
  O  O36  1  0.74415400  0.88922600  0.58491800  1
  O  O37  1  0.28510300  0.46159100  0.12547400  1
  O  O38  1  0.28943200  0.41571100  0.45486200  1
  O  O39  1  0.28645900  0.12673200  0.41588500  1
  O  O40  1  0.68597100  0.99461900  0.99230400  1
  O  O41  1  0.18652000  0.98598800  0.00086800  1
