# generated using pymatgen
data_BaZnFe6O11
_symmetry_space_group_name_H-M   'P 1'
_cell_length_a   5.89571199
_cell_length_b   5.89571199
_cell_length_c   14.95489708
_cell_angle_alpha   78.93677840
_cell_angle_beta   78.93677840
_cell_angle_gamma   59.97641370
_symmetry_Int_Tables_number   1
_chemical_formula_structural   BaZnFe6O11
_chemical_formula_sum   'Ba2 Zn2 Fe12 O22'
_cell_volume   438.88844166
_cell_formula_units_Z   2
loop_
 _symmetry_equiv_pos_site_id
 _symmetry_equiv_pos_as_xyz
  1  'x, y, z'
loop_
 _atom_site_type_symbol
 _atom_site_label
 _atom_site_symmetry_multiplicity
 _atom_site_fract_x
 _atom_site_fract_y
 _atom_site_fract_z
 _atom_site_occupancy
  Ba  Ba0  1  0.29735900  0.29735900  0.10486000  1
  Ba  Ba1  1  0.69946300  0.69946300  0.89557800  1
  Zn  Zn2  1  0.84812100  0.84812100  0.45644100  1
  Zn  Zn3  1  0.15522500  0.15522500  0.54218800  1
  Fe  Fe4  1  0.93189600  0.93189600  0.20115700  1
  Fe  Fe5  1  0.06471900  0.06471900  0.80080600  1
  Fe  Fe6  1  0.99925200  0.99925200  0.00078900  1
  Fe  Fe7  1  0.50655900  0.50655900  0.49901800  1
  Fe  Fe8  1  0.38777900  0.89225200  0.33134800  1
  Fe  Fe9  1  0.89225200  0.38777900  0.33134800  1
  Fe  Fe10  1  0.38624900  0.38624900  0.33066900  1
  Fe  Fe11  1  0.61233200  0.10611100  0.66826900  1
  Fe  Fe12  1  0.10611100  0.61233200  0.66826900  1
  Fe  Fe13  1  0.61235100  0.61235100  0.66849000  1
  Fe  Fe14  1  0.62325900  0.62325900  0.13200800  1
  Fe  Fe15  1  0.37715500  0.37715500  0.86912700  1
  O  O16  1  0.20411800  0.20411800  0.40110000  1
  O  O17  1  0.79923400  0.79923400  0.59591700  1
  O  O18  1  0.68455800  0.68455800  0.40546600  1
  O  O19  1  0.69182900  0.22705400  0.41212900  1
  O  O20  1  0.22705400  0.69182900  0.41212900  1
  O  O21  1  0.32100300  0.32100300  0.59130800  1
  O  O22  1  0.32983200  0.77890800  0.58743800  1
  O  O23  1  0.77890800  0.32983200  0.58743800  1
  O  O24  1  0.08747200  0.08747200  0.25910000  1
  O  O25  1  0.07892100  0.56730800  0.25486300  1
  O  O26  1  0.56730800  0.07892100  0.25486300  1
  O  O27  1  0.90993700  0.90993700  0.74103800  1
  O  O28  1  0.90209500  0.42680100  0.74618900  1
  O  O29  1  0.42680100  0.90209500  0.74618900  1
  O  O30  1  0.57374100  0.57374100  0.26297800  1
  O  O31  1  0.42282800  0.42282800  0.73911200  1
  O  O32  1  0.81301700  0.81301700  0.08762600  1
  O  O33  1  0.81301500  0.28407900  0.08927400  1
  O  O34  1  0.28407900  0.81301500  0.08927400  1
  O  O35  1  0.18607300  0.18607300  0.91138500  1
  O  O36  1  0.18280800  0.71528600  0.91239400  1
  O  O37  1  0.71528600  0.18280800  0.91239400  1
