# generated using pymatgen
data_Ca10V3P3(O12F)2
_symmetry_space_group_name_H-M   'P 1'
_cell_length_a   9.69160600
_cell_length_b   9.69160600
_cell_length_c   6.98894600
_cell_angle_alpha   90.00000000
_cell_angle_beta   90.00000000
_cell_angle_gamma   120.00000000
_symmetry_Int_Tables_number   1
_chemical_formula_structural   Ca10V3P3(O12F)2
_chemical_formula_sum   'Ca10 V3 P3 O24 F2'
_cell_volume   568.50438245
_cell_formula_units_Z   1
loop_
 _symmetry_equiv_pos_site_id
 _symmetry_equiv_pos_as_xyz
  1  'x, y, z'
loop_
 _atom_site_type_symbol
 _atom_site_label
 _atom_site_symmetry_multiplicity
 _atom_site_fract_x
 _atom_site_fract_y
 _atom_site_fract_z
 _atom_site_occupancy
  Ca  Ca0  1  0.66666700  0.33333300  0.25588900  1
  Ca  Ca1  1  0.33333300  0.66666700  0.74773400  1
  Ca  Ca2  1  0.33333300  0.66666700  0.25226600  1
  Ca  Ca3  1  0.66666700  0.33333300  0.74411100  1
  Ca  Ca4  1  0.75527600  0.76186300  0.50000000  1
  Ca  Ca5  1  0.23813700  0.99341300  0.50000000  1
  Ca  Ca6  1  0.00658700  0.24472400  0.50000000  1
  Ca  Ca7  1  0.24368700  0.24549900  0.00000000  1
  Ca  Ca8  1  0.75450100  0.99818800  0.00000000  1
  Ca  Ca9  1  0.00181200  0.75631300  0.00000000  1
  V  V10  1  0.97077400  0.36911700  0.00000000  1
  V  V11  1  0.63088300  0.60165700  0.00000000  1
  V  V12  1  0.39834300  0.02922600  0.00000000  1
  P  P13  1  0.02899600  0.62953000  0.50000000  1
  P  P14  1  0.37047000  0.39946600  0.50000000  1
  P  P15  1  0.60053400  0.97100400  0.50000000  1
  O  O16  1  0.12120400  0.53529600  0.50000000  1
  O  O17  1  0.46470400  0.58590700  0.50000000  1
  O  O18  1  0.41409300  0.87879600  0.50000000  1
  O  O19  1  0.86563500  0.47322700  0.00000000  1
  O  O20  1  0.52677300  0.39240800  0.00000000  1
  O  O21  1  0.60759200  0.13436500  0.00000000  1
  O  O22  1  0.84628300  0.51296100  0.50000000  1
  O  O23  1  0.48703900  0.33332200  0.50000000  1
  O  O24  1  0.66667800  0.15371700  0.50000000  1
  O  O25  1  0.17570300  0.48971400  0.00000000  1
  O  O26  1  0.51028600  0.68598800  0.00000000  1
  O  O27  1  0.31401200  0.82429800  0.00000000  1
  O  O28  1  0.08355000  0.74060700  0.32155000  1
  O  O29  1  0.25939300  0.34294300  0.32155000  1
  O  O30  1  0.65705700  0.91645000  0.32155000  1
  O  O31  1  0.91024400  0.24381700  0.80492700  1
  O  O32  1  0.75618300  0.66642700  0.80492700  1
  O  O33  1  0.33357300  0.08975600  0.80492700  1
  O  O34  1  0.91024400  0.24381700  0.19507300  1
  O  O35  1  0.75618300  0.66642700  0.19507300  1
  O  O36  1  0.33357300  0.08975600  0.19507300  1
  O  O37  1  0.08355000  0.74060700  0.67845000  1
  O  O38  1  0.25939300  0.34294300  0.67845000  1
  O  O39  1  0.65705700  0.91645000  0.67845000  1
  F  F40  1  0.00000000  0.00000000  0.50000000  1
  F  F41  1  0.00000000  0.00000000  0.00000000  1
