# generated using pymatgen
data_BaSrHf2O6
_symmetry_space_group_name_H-M   'P 1'
_cell_length_a   5.90410325
_cell_length_b   5.90410325
_cell_length_c   5.90410325
_cell_angle_alpha   120.20340491
_cell_angle_beta   120.20340491
_cell_angle_gamma   89.64805194
_symmetry_Int_Tables_number   1
_chemical_formula_structural   BaSrHf2O6
_chemical_formula_sum   'Ba1 Sr1 Hf2 O6'
_cell_volume   145.07770398
_cell_formula_units_Z   1
loop_
 _symmetry_equiv_pos_site_id
 _symmetry_equiv_pos_as_xyz
  1  'x, y, z'
loop_
 _atom_site_type_symbol
 _atom_site_label
 _atom_site_symmetry_multiplicity
 _atom_site_fract_x
 _atom_site_fract_y
 _atom_site_fract_z
 _atom_site_occupancy
  Ba  Ba0  1  0.50000000  0.50000000  0.00000000  1
  Sr  Sr1  1  0.00000000  0.00000000  0.00000000  1
  Hf  Hf2  1  0.25000000  0.75000000  0.50000000  1
  Hf  Hf3  1  0.75000000  0.25000000  0.50000000  1
  O  O4  1  0.02630500  0.02630500  0.55717300  1
  O  O5  1  0.46913200  0.46913200  0.44282700  1
  O  O6  1  0.97369500  0.53086800  0.00000000  1
  O  O7  1  0.53086800  0.97369500  0.00000000  1
  O  O8  1  0.50000000  0.00000000  0.50000000  1
  O  O9  1  0.00000000  0.50000000  0.50000000  1
