# generated using pymatgen
data_Bi3Te5Pb
_symmetry_space_group_name_H-M   'P 1'
_cell_length_a   4.62674550
_cell_length_b   4.62674550
_cell_length_c   17.13716400
_cell_angle_alpha   90.00000000
_cell_angle_beta   90.00000000
_cell_angle_gamma   119.99999291
_symmetry_Int_Tables_number   1
_chemical_formula_structural   Bi3Te5Pb
_chemical_formula_sum   'Bi3 Te5 Pb1'
_cell_volume   317.70265108
_cell_formula_units_Z   1
loop_
 _symmetry_equiv_pos_site_id
 _symmetry_equiv_pos_as_xyz
  1  'x, y, z'
loop_
 _atom_site_type_symbol
 _atom_site_label
 _atom_site_symmetry_multiplicity
 _atom_site_fract_x
 _atom_site_fract_y
 _atom_site_fract_z
 _atom_site_occupancy
  Bi  Bi0  1  0.66666700  0.33333300  0.00025000  1
  Bi  Bi1  1  0.00000000  0.00000000  0.77432900  1
  Bi  Bi2  1  0.33333300  0.66666700  0.22211600  1
  Te  Te3  1  0.00000000  0.00000000  0.10771400  1
  Te  Te4  1  0.33333300  0.66666700  0.90007100  1
  Te  Te5  1  0.33333300  0.66666700  0.54386800  1
  Te  Te6  1  0.66666700  0.33333300  0.31586400  1
  Te  Te7  1  0.66666700  0.33333300  0.68390200  1
  Pb  Pb8  1  0.00000000  0.00000000  0.45188700  1
