# generated using pymatgen
data_Ca4Be4P4O17F3
_symmetry_space_group_name_H-M   'P 1'
_cell_length_a   4.83851600
_cell_length_b   7.76273957
_cell_length_c   9.80658721
_cell_angle_alpha   89.94722057
_cell_angle_beta   89.32125734
_cell_angle_gamma   89.97801238
_symmetry_Int_Tables_number   1
_chemical_formula_structural   Ca4Be4P4O17F3
_chemical_formula_sum   'Ca4 Be4 P4 O17 F3'
_cell_volume   368.31075819
_cell_formula_units_Z   1
loop_
 _symmetry_equiv_pos_site_id
 _symmetry_equiv_pos_as_xyz
  1  'x, y, z'
loop_
 _atom_site_type_symbol
 _atom_site_label
 _atom_site_symmetry_multiplicity
 _atom_site_fract_x
 _atom_site_fract_y
 _atom_site_fract_z
 _atom_site_occupancy
  Ca  Ca0  1  0.00293700  0.38734100  0.83145300  1
  Ca  Ca1  1  0.99799600  0.88486900  0.67047600  1
  Ca  Ca2  1  0.99602100  0.61130900  0.16898900  1
  Ca  Ca3  1  0.00509800  0.11112600  0.33036100  1
  Be  Be4  1  0.45736400  0.08551300  0.83931100  1
  Be  Be5  1  0.54095700  0.58652300  0.66166100  1
  Be  Be6  1  0.54121500  0.91398300  0.16132300  1
  Be  Be7  1  0.45923400  0.41416100  0.33850500  1
  P  P8  1  0.52843000  0.23095500  0.58254900  1
  P  P9  1  0.47135600  0.72975200  0.91860900  1
  P  P10  1  0.47255400  0.77017200  0.41803600  1
  P  P11  1  0.52627200  0.27028400  0.08187900  1
  O  O12  1  0.32604800  0.15492500  0.69312400  1
  O  O13  1  0.67423700  0.65490200  0.80726800  1
  O  O14  1  0.67575700  0.84545600  0.30703300  1
  O  O15  1  0.32435100  0.34489200  0.19379700  1
  O  O16  1  0.66161700  0.39431000  0.64597300  1
  O  O17  1  0.33396200  0.89218400  0.85480100  1
  O  O18  1  0.33906300  0.60724400  0.35305800  1
  O  O19  1  0.66184600  0.10692000  0.14583200  1
  O  O20  1  0.75714700  0.10348000  0.54251100  1
  O  O21  1  0.24574800  0.60214800  0.96085800  1
  O  O22  1  0.24556100  0.89748100  0.45922400  1
  O  O23  1  0.75324700  0.39742600  0.04086900  1
  O  O24  1  0.34783800  0.21722700  0.95800900  1
  O  O25  1  0.64754500  0.71780300  0.54344900  1
  O  O26  1  0.64831900  0.78288200  0.04320100  1
  O  O27  1  0.35396200  0.28124600  0.45647300  1
  O  O28  1  0.78858300  0.09530600  0.81826600  1
  F  F29  1  0.21532200  0.59077100  0.67284300  1
  F  F30  1  0.21529000  0.90901700  0.17297000  1
  F  F31  1  0.78512500  0.40839100  0.32729000  1
