# generated using pymatgen
data_Ca4Mg3Fe(SiO3)8
_symmetry_space_group_name_H-M   'P 1'
_cell_length_a   5.32235400
_cell_length_b   6.71163992
_cell_length_c   13.39840141
_cell_angle_alpha   90.40096289
_cell_angle_beta   101.16382497
_cell_angle_gamma   101.72774783
_symmetry_Int_Tables_number   1
_chemical_formula_structural   Ca4Mg3Fe(SiO3)8
_chemical_formula_sum   'Ca4 Mg3 Fe1 Si8 O24'
_cell_volume   459.21964339
_cell_formula_units_Z   1
loop_
 _symmetry_equiv_pos_site_id
 _symmetry_equiv_pos_as_xyz
  1  'x, y, z'
loop_
 _atom_site_type_symbol
 _atom_site_label
 _atom_site_symmetry_multiplicity
 _atom_site_fract_x
 _atom_site_fract_y
 _atom_site_fract_z
 _atom_site_occupancy
  Ca  Ca0  1  0.10041000  0.70097600  0.85064600  1
  Ca  Ca1  1  0.60013500  0.70023200  0.34990200  1
  Ca  Ca2  1  0.39856400  0.29739800  0.64881000  1
  Ca  Ca3  1  0.89970800  0.29915100  0.14954700  1
  Mg  Mg4  1  0.29646300  0.09271600  0.04650200  1
  Mg  Mg5  1  0.70360800  0.90709300  0.95381500  1
  Mg  Mg6  1  0.20411600  0.90808900  0.45375200  1
  Fe  Fe7  1  0.79634300  0.09326200  0.54638300  1
  Si  Si8  1  0.86717700  0.62152100  0.59735400  1
  Si  Si9  1  0.36614700  0.62031000  0.09673000  1
  Si  Si10  1  0.04133100  0.19435100  0.81145900  1
  Si  Si11  1  0.54030100  0.19360600  0.30947100  1
  Si  Si12  1  0.63381000  0.37993000  0.90346000  1
  Si  Si13  1  0.13496500  0.38127000  0.40247800  1
  Si  Si14  1  0.45853900  0.80540700  0.69078300  1
  Si  Si15  1  0.95931600  0.80663100  0.18988700  1
  O  O16  1  0.16904000  0.63206100  0.66719100  1
  O  O17  1  0.66944700  0.63323700  0.16648700  1
  O  O18  1  0.81357800  0.33336800  0.81676200  1
  O  O19  1  0.31423800  0.33401100  0.31588200  1
  O  O20  1  0.33079000  0.36740900  0.83383300  1
  O  O21  1  0.83050500  0.36663700  0.33356400  1
  O  O22  1  0.68708100  0.66800900  0.68366200  1
  O  O23  1  0.18615500  0.66691400  0.18331900  1
  O  O24  1  0.73549900  0.39107300  0.55750700  1
  O  O25  1  0.23692100  0.38886500  0.05734100  1
  O  O26  1  0.01745300  0.11451600  0.69622200  1
  O  O27  1  0.51503000  0.11537200  0.19384800  1
  O  O28  1  0.76324600  0.61136400  0.94260500  1
  O  O29  1  0.26340100  0.61227100  0.44235300  1
  O  O30  1  0.48537900  0.88468500  0.80631600  1
  O  O31  1  0.98485800  0.88515200  0.30558600  1
  O  O32  1  0.87192500  0.79301600  0.51269500  1
  O  O33  1  0.37198100  0.79630700  0.01420900  1
  O  O34  1  0.04050600  0.02837400  0.89880800  1
  O  O35  1  0.53706300  0.02549200  0.39584900  1
  O  O36  1  0.62800300  0.20361200  0.98577000  1
  O  O37  1  0.13644500  0.20546300  0.48474000  1
  O  O38  1  0.45090900  0.96929100  0.60264500  1
  O  O39  1  0.95961100  0.97155500  0.10182600  1
