# generated using pymatgen
data_BaTi6O12
_symmetry_space_group_name_H-M   'P 1'
_cell_length_a   8.43309992
_cell_length_b   8.43309992
_cell_length_c   8.55865403
_cell_angle_alpha   107.29596485
_cell_angle_beta   105.00297456
_cell_angle_gamma   115.81983020
_symmetry_Int_Tables_number   1
_chemical_formula_structural   BaTi6O12
_chemical_formula_sum   'Ba2 Ti12 O24'
_cell_volume   466.67576001
_cell_formula_units_Z   2
loop_
 _symmetry_equiv_pos_site_id
 _symmetry_equiv_pos_as_xyz
  1  'x, y, z'
loop_
 _atom_site_type_symbol
 _atom_site_label
 _atom_site_symmetry_multiplicity
 _atom_site_fract_x
 _atom_site_fract_y
 _atom_site_fract_z
 _atom_site_occupancy
  Ba  Ba0  1  0.05079800  0.05079800  0.00000000  1
  Ba  Ba1  1  0.61586900  0.61586900  0.00000000  1
  Ti  Ti2  1  0.81684200  0.00094300  0.48165900  1
  Ti  Ti3  1  0.48265700  0.66279600  0.47878700  1
  Ti  Ti4  1  0.14738300  0.33148400  0.48165900  1
  Ti  Ti5  1  0.84982500  0.66572400  0.51834100  1
  Ti  Ti6  1  0.51928400  0.33518300  0.51834100  1
  Ti  Ti7  1  0.18400900  0.00387000  0.52121300  1
  Ti  Ti8  1  0.99931600  0.48783900  0.82048900  1
  Ti  Ti9  1  0.66212400  0.15241800  0.81681300  1
  Ti  Ti10  1  0.33106200  0.82135600  0.81681300  1
  Ti  Ti11  1  0.66735000  0.17882700  0.17951100  1
  Ti  Ti12  1  0.33560500  0.84531100  0.18318700  1
  Ti  Ti13  1  0.00454300  0.51424900  0.18318700  1
  O  O14  1  0.68022200  0.37092500  0.38448100  1
  O  O15  1  0.34336100  0.03910000  0.38187900  1
  O  O16  1  0.00944700  0.70518500  0.38187900  1
  O  O17  1  0.98644400  0.29574100  0.61551900  1
  O  O18  1  0.65722000  0.96148200  0.61812100  1
  O  O19  1  0.32330600  0.62756700  0.61812100  1
  O  O20  1  0.96081300  0.31865100  0.27754300  1
  O  O21  1  0.62555900  0.98339700  0.27754300  1
  O  O22  1  0.29392100  0.65583600  0.28309100  1
  O  O23  1  0.70585400  0.34801600  0.72245700  1
  O  O24  1  0.37274500  0.01083000  0.71690900  1
  O  O25  1  0.04110800  0.68327000  0.72245700  1
  O  O26  1  0.70385900  0.34943100  0.05318300  1
  O  O27  1  0.37041900  0.01599100  0.05318300  1
  O  O28  1  0.03428600  0.68532800  0.05294800  1
  O  O29  1  0.96280800  0.31723600  0.94681700  1
  O  O30  1  0.63238000  0.98133800  0.94705200  1
  O  O31  1  0.29624800  0.65067600  0.94681700  1
  O  O32  1  0.00687400  0.97054600  0.64487800  1
  O  O33  1  0.34099900  0.30467100  0.64487800  1
  O  O34  1  0.67594800  0.63933300  0.64861500  1
  O  O35  1  0.32566800  0.36199600  0.35512200  1
  O  O36  1  0.65979300  0.69612100  0.35512200  1
  O  O37  1  0.99071800  0.02733300  0.35138500  1
