# generated using pymatgen
data_La6Sm2V3Cr5O20
_symmetry_space_group_name_H-M   'P 1'
_cell_length_a   11.04163545
_cell_length_b   11.36961749
_cell_length_c   17.91288816
_cell_angle_alpha   108.48953660
_cell_angle_beta   107.99225169
_cell_angle_gamma   90.14021998
_symmetry_Int_Tables_number   1
_chemical_formula_structural   La6Sm2V3Cr5O20
_chemical_formula_sum   'La24 Sm8 V12 Cr20 O80'
_cell_volume   2015.79312863
_cell_formula_units_Z   4
loop_
 _symmetry_equiv_pos_site_id
 _symmetry_equiv_pos_as_xyz
  1  'x, y, z'
loop_
 _atom_site_type_symbol
 _atom_site_label
 _atom_site_symmetry_multiplicity
 _atom_site_fract_x
 _atom_site_fract_y
 _atom_site_fract_z
 _atom_site_occupancy
  La  La0  1  0.31348100  0.06132500  0.62183100  1
  La  La1  1  0.30538300  0.56079800  0.62243900  1
  La  La2  1  0.81104600  0.06269900  0.62237200  1
  La  La3  1  0.81474500  0.55876500  0.62016300  1
  La  La4  1  0.19791900  0.43805300  0.38455600  1
  La  La5  1  0.18316500  0.43842700  0.87672000  1
  La  La6  1  0.19320700  0.93774700  0.38165600  1
  La  La7  1  0.68878700  0.43657500  0.38040500  1
  La  La8  1  0.69403100  0.93974700  0.38305500  1
  La  La9  1  0.68916500  0.93921000  0.87866500  1
  La  La10  1  0.06120700  0.30461900  0.11690100  1
  La  La11  1  0.06153000  0.30563600  0.61958000  1
  La  La12  1  0.06239900  0.81330800  0.62074600  1
  La  La13  1  0.55827300  0.30786500  0.12021100  1
  La  La14  1  0.55971400  0.31225000  0.62436900  1
  La  La15  1  0.55678500  0.81373500  0.11929200  1
  La  La16  1  0.56074300  0.81048300  0.62217300  1
  La  La17  1  0.44262800  0.19077000  0.38117000  1
  La  La18  1  0.43933300  0.18843700  0.87766400  1
  La  La19  1  0.44143200  0.69193500  0.37968400  1
  La  La20  1  0.43027000  0.68455700  0.87718400  1
  La  La21  1  0.93801400  0.19152000  0.37720600  1
  La  La22  1  0.93404000  0.18443700  0.87624300  1
  La  La23  1  0.93806800  0.69017100  0.37725200  1
  Sm  Sm24  1  0.29884100  0.05816600  0.11489100  1
  Sm  Sm25  1  0.30430500  0.55979100  0.11563100  1
  Sm  Sm26  1  0.80486600  0.06072500  0.11438700  1
  Sm  Sm27  1  0.80617300  0.56411100  0.11753400  1
  Sm  Sm28  1  0.19070600  0.94112500  0.88386300  1
  Sm  Sm29  1  0.69127700  0.44101600  0.88401400  1
  Sm  Sm30  1  0.05566600  0.80407100  0.11610800  1
  Sm  Sm31  1  0.94358300  0.69527600  0.88457300  1
  V  V32  1  0.11963500  0.13004100  0.75180100  1
  V  V33  1  0.11272000  0.63238900  0.75141200  1
  V  V34  1  0.60876700  0.13068700  0.24856800  1
  V  V35  1  0.61610300  0.12894700  0.75113000  1
  V  V36  1  0.61224000  0.62671900  0.24782300  1
  V  V37  1  0.60976300  0.62290000  0.75215800  1
  V  V38  1  0.36731800  0.37544000  0.24841700  1
  V  V39  1  0.36363600  0.36741400  0.75124500  1
  V  V40  1  0.36198400  0.86609300  0.75156100  1
  V  V41  1  0.85532400  0.38084600  0.24807300  1
  V  V42  1  0.86338300  0.37354800  0.75199200  1
  V  V43  1  0.85427000  0.88324500  0.24794900  1
  Cr  Cr44  1  0.00432900  0.00022400  0.00077900  1
  Cr  Cr45  1  0.00359800  0.99967600  0.49893300  1
  Cr  Cr46  1  0.00394700  0.49936000  0.00014900  1
  Cr  Cr47  1  0.00211700  0.50062500  0.49803000  1
  Cr  Cr48  1  0.50321500  0.00077000  0.00111500  1
  Cr  Cr49  1  0.50365000  0.00014700  0.49986500  1
  Cr  Cr50  1  0.50422600  0.50065700  0.00093400  1
  Cr  Cr51  1  0.50480000  0.50121300  0.50189000  1
  Cr  Cr52  1  0.25373700  0.25054600  0.00007100  1
  Cr  Cr53  1  0.25295500  0.24988000  0.50010500  1
  Cr  Cr54  1  0.25360700  0.74976400  0.00162400  1
  Cr  Cr55  1  0.25350300  0.74962000  0.49976500  1
  Cr  Cr56  1  0.75344100  0.25386300  0.00192500  1
  Cr  Cr57  1  0.75336600  0.24958500  0.49998300  1
  Cr  Cr58  1  0.75433100  0.75106200  0.99999900  1
  Cr  Cr59  1  0.75261200  0.74823700  0.49901000  1
  Cr  Cr60  1  0.12249200  0.12235900  0.24977900  1
  Cr  Cr61  1  0.12112600  0.62358000  0.24810900  1
  Cr  Cr62  1  0.36994800  0.86987100  0.24765400  1
  Cr  Cr63  1  0.87962800  0.86377900  0.74899800  1
  O  O64  1  0.11395200  0.11565400  0.47531800  1
  O  O65  1  0.11607200  0.11276400  0.97166200  1
  O  O66  1  0.11475300  0.61547200  0.47493500  1
  O  O67  1  0.11272900  0.61332100  0.97278600  1
  O  O68  1  0.61548800  0.11304500  0.47437700  1
  O  O69  1  0.61432100  0.11553300  0.97585900  1
  O  O70  1  0.61441700  0.61196200  0.47374100  1
  O  O71  1  0.61448900  0.61044800  0.97136300  1
  O  O72  1  0.14254000  0.38702400  0.02611200  1
  O  O73  1  0.13925100  0.38783400  0.52370100  1
  O  O74  1  0.14165900  0.87954000  0.02852300  1
  O  O75  1  0.14010900  0.88581800  0.52212400  1
  O  O76  1  0.64240500  0.39166400  0.03078200  1
  O  O77  1  0.63889600  0.38416200  0.52276300  1
  O  O78  1  0.64024700  0.88902600  0.02620600  1
  O  O79  1  0.63930100  0.88409600  0.52355800  1
  O  O80  1  0.36637600  0.11261200  0.47651300  1
  O  O81  1  0.36293300  0.10940500  0.97560400  1
  O  O82  1  0.36933800  0.61489300  0.47863900  1
  O  O83  1  0.36389000  0.60827200  0.97414900  1
  O  O84  1  0.86668000  0.11224400  0.47646200  1
  O  O85  1  0.86195800  0.11603700  0.97616800  1
  O  O86  1  0.86276000  0.60913800  0.47140500  1
  O  O87  1  0.86641300  0.60667200  0.97355500  1
  O  O88  1  0.39104600  0.39469400  0.03127000  1
  O  O89  1  0.38952100  0.39131300  0.52606800  1
  O  O90  1  0.38705500  0.89574000  0.02901600  1
  O  O91  1  0.39025600  0.88757800  0.52372800  1
  O  O92  1  0.88920700  0.39781300  0.03025400  1
  O  O93  1  0.88929600  0.38723100  0.52187100  1
  O  O94  1  0.89329800  0.89583200  0.03170300  1
  O  O95  1  0.88897800  0.88658100  0.52197500  1
  O  O96  1  0.09152200  0.10541300  0.12946200  1
  O  O97  1  0.06968400  0.09826700  0.62302200  1
  O  O98  1  0.08849100  0.60504900  0.12405600  1
  O  O99  1  0.06080300  0.60456800  0.62275800  1
  O  O100  1  0.58363000  0.10187600  0.12336800  1
  O  O101  1  0.56980500  0.10144800  0.62291200  1
  O  O102  1  0.57927400  0.60879100  0.12325100  1
  O  O103  1  0.58074100  0.60217600  0.62642700  1
  O  O104  1  0.43902800  0.39753700  0.37587300  1
  O  O105  1  0.45534700  0.39633500  0.87828600  1
  O  O106  1  0.44157400  0.89903300  0.37338000  1
  O  O107  1  0.44527800  0.89419600  0.87913000  1
  O  O108  1  0.95129100  0.39903800  0.37278900  1
  O  O109  1  0.94709100  0.39314100  0.87816400  1
  O  O110  1  0.94705800  0.89977900  0.37326500  1
  O  O111  1  0.95841100  0.89172000  0.87187100  1
  O  O112  1  0.31669900  0.26453800  0.12305900  1
  O  O113  1  0.31852500  0.27116100  0.62299100  1
  O  O114  1  0.32621500  0.76547300  0.12472400  1
  O  O115  1  0.31643400  0.77135300  0.62282800  1
  O  O116  1  0.82855100  0.26896000  0.12629400  1
  O  O117  1  0.82101700  0.27440800  0.62392300  1
  O  O118  1  0.85580000  0.76930500  0.13694300  1
  O  O119  1  0.82127200  0.76966600  0.62322100  1
  O  O120  1  0.19623900  0.22368800  0.37497200  1
  O  O121  1  0.20393400  0.23370000  0.87853200  1
  O  O122  1  0.19892700  0.72541600  0.37439100  1
  O  O123  1  0.19715900  0.73487300  0.87884200  1
  O  O124  1  0.69749800  0.22593700  0.37626800  1
  O  O125  1  0.69541700  0.23578800  0.87868000  1
  O  O126  1  0.69080500  0.72730100  0.37543100  1
  O  O127  1  0.72468600  0.73026600  0.86357500  1
  O  O128  1  0.42291000  0.06148400  0.24371700  1
  O  O129  1  0.44319000  0.03777900  0.74980900  1
  O  O130  1  0.42841900  0.55049400  0.24327800  1
  O  O131  1  0.43785600  0.53847400  0.74721600  1
  O  O132  1  0.92336300  0.05689800  0.24304400  1
  O  O133  1  0.94435100  0.04878700  0.74828900  1
  O  O134  1  0.92365600  0.55477600  0.24379400  1
  O  O135  1  0.93744700  0.55460000  0.75716200  1
  O  O136  1  0.18280400  0.43490200  0.25089100  1
  O  O137  1  0.19138000  0.45983500  0.74888700  1
  O  O138  1  0.17393800  0.92894200  0.24627900  1
  O  O139  1  0.19012300  0.95286300  0.75709800  1
  O  O140  1  0.68257500  0.45481700  0.25155100  1
  O  O141  1  0.68884500  0.45285200  0.75711400  1
  O  O142  1  0.67897800  0.95512200  0.25274200  1
  O  O143  1  0.69777400  0.95331900  0.75086700  1
