# generated using pymatgen
data_Be2BH3O5
_symmetry_space_group_name_H-M   'P 1'
_cell_length_a   10.84102000
_cell_length_b   4.43484900
_cell_length_c   4.45596924
_cell_angle_alpha   60.22054523
_cell_angle_beta   90.00000000
_cell_angle_gamma   90.00000000
_symmetry_Int_Tables_number   1
_chemical_formula_structural   Be2BH3O5
_chemical_formula_sum   'Be4 B2 H6 O10'
_cell_volume   185.94421618
_cell_formula_units_Z   2
loop_
 _symmetry_equiv_pos_site_id
 _symmetry_equiv_pos_as_xyz
  1  'x, y, z'
loop_
 _atom_site_type_symbol
 _atom_site_label
 _atom_site_symmetry_multiplicity
 _atom_site_fract_x
 _atom_site_fract_y
 _atom_site_fract_z
 _atom_site_occupancy
  Be  Be0  1  0.79987600  0.01321200  0.99098200  1
  Be  Be1  1  0.29987600  0.98678800  0.00901800  1
  Be  Be2  1  0.69724300  0.35028700  0.31503300  1
  Be  Be3  1  0.19724300  0.64971300  0.68496700  1
  B  B4  1  0.75093100  0.67894800  0.65533200  1
  B  B5  1  0.25093100  0.32105200  0.34466800  1
  H  H6  1  0.99496200  0.87532600  0.91050500  1
  H  H7  1  0.99554500  0.26304700  0.89267700  1
  H  H8  1  0.49496200  0.12467400  0.08949500  1
  H  H9  1  0.49554500  0.73695300  0.10732300  1
  H  H10  1  0.51004700  0.24149000  0.50145500  1
  H  H11  1  0.01004700  0.75851000  0.49854500  1
  O  O12  1  0.74996200  0.98682100  0.34797500  1
  O  O13  1  0.75574200  0.67827400  0.96554800  1
  O  O14  1  0.74756500  0.36713600  0.65727200  1
  O  O15  1  0.24996200  0.01317900  0.65202500  1
  O  O16  1  0.25574200  0.32172600  0.03445200  1
  O  O17  1  0.24756500  0.63286400  0.34272800  1
  O  O18  1  0.54821600  0.37087000  0.27206900  1
  O  O19  1  0.04821600  0.62913000  0.72793100  1
  O  O20  1  0.95469000  0.01515800  0.00635000  1
  O  O21  1  0.45469000  0.98484200  0.99365000  1
