# generated using pymatgen
data_Ca4AlZn43
_symmetry_space_group_name_H-M   'P 1'
_cell_length_a   8.29517800
_cell_length_b   8.29517800
_cell_length_c   15.11577400
_cell_angle_alpha   90.00000000
_cell_angle_beta   90.00000000
_cell_angle_gamma   131.10691712
_symmetry_Int_Tables_number   1
_chemical_formula_structural   Ca4AlZn43
_chemical_formula_sum   'Ca4 Al1 Zn43'
_cell_volume   783.71084694
_cell_formula_units_Z   1
loop_
 _symmetry_equiv_pos_site_id
 _symmetry_equiv_pos_as_xyz
  1  'x, y, z'
loop_
 _atom_site_type_symbol
 _atom_site_label
 _atom_site_symmetry_multiplicity
 _atom_site_fract_x
 _atom_site_fract_y
 _atom_site_fract_z
 _atom_site_occupancy
  Ca  Ca0  1  0.50000000  0.00000000  0.24987700  1
  Ca  Ca1  1  0.00000000  0.50000000  0.75012300  1
  Ca  Ca2  1  0.50000000  0.50000000  0.00000000  1
  Ca  Ca3  1  0.00000000  0.00000000  0.50000000  1
  Al  Al4  1  0.00000000  0.00000000  0.00000000  1
  Zn  Zn5  1  0.63935600  0.46465800  0.20829200  1
  Zn  Zn6  1  0.13933300  0.96437300  0.70796900  1
  Zn  Zn7  1  0.34483700  0.75921400  0.91355800  1
  Zn  Zn8  1  0.84595900  0.25979800  0.41374700  1
  Zn  Zn9  1  0.96429200  0.63889000  0.95816500  1
  Zn  Zn10  1  0.46481100  0.13875500  0.45801800  1
  Zn  Zn11  1  0.34589800  0.25977300  0.33637200  1
  Zn  Zn12  1  0.84518900  0.75985900  0.83632700  1
  Zn  Zn13  1  0.75921400  0.34483700  0.08644200  1
  Zn  Zn14  1  0.25979800  0.84595900  0.58625300  1
  Zn  Zn15  1  0.96437300  0.13933300  0.29203100  1
  Zn  Zn16  1  0.46465800  0.63935600  0.79170800  1
  Zn  Zn17  1  0.75985900  0.84518900  0.16367300  1
  Zn  Zn18  1  0.25977300  0.34589800  0.66362800  1
  Zn  Zn19  1  0.63889000  0.96429200  0.04183500  1
  Zn  Zn20  1  0.13875500  0.46481100  0.54198200  1
  Zn  Zn21  1  0.36111000  0.03570800  0.04183500  1
  Zn  Zn22  1  0.86124500  0.53518900  0.54198200  1
  Zn  Zn23  1  0.65410200  0.74022700  0.33637200  1
  Zn  Zn24  1  0.15481100  0.24014100  0.83632700  1
  Zn  Zn25  1  0.03562700  0.86066700  0.29203100  1
  Zn  Zn26  1  0.53534200  0.36064400  0.79170800  1
  Zn  Zn27  1  0.65516300  0.24078600  0.91355800  1
  Zn  Zn28  1  0.15404100  0.74020200  0.41374700  1
  Zn  Zn29  1  0.24014100  0.15481100  0.16367300  1
  Zn  Zn30  1  0.74022700  0.65410200  0.66362800  1
  Zn  Zn31  1  0.03570800  0.36111000  0.95816500  1
  Zn  Zn32  1  0.53518900  0.86124500  0.45801800  1
  Zn  Zn33  1  0.24078600  0.65516300  0.08644200  1
  Zn  Zn34  1  0.74020200  0.15404100  0.58625300  1
  Zn  Zn35  1  0.36064400  0.53534200  0.20829200  1
  Zn  Zn36  1  0.86066700  0.03562700  0.70796900  1
  Zn  Zn37  1  0.25165700  0.00066400  0.87454300  1
  Zn  Zn38  1  0.74989400  0.50012200  0.37512000  1
  Zn  Zn39  1  0.99933600  0.74834300  0.12545700  1
  Zn  Zn40  1  0.49987800  0.25010600  0.62488000  1
  Zn  Zn41  1  0.74834300  0.99933600  0.87454300  1
  Zn  Zn42  1  0.25010600  0.49987800  0.37512000  1
  Zn  Zn43  1  0.00066400  0.25165700  0.12545700  1
  Zn  Zn44  1  0.50012200  0.74989400  0.62488000  1
  Zn  Zn45  1  0.50000000  0.50000000  0.50000000  1
  Zn  Zn46  1  0.00000000  0.50000000  0.24928100  1
  Zn  Zn47  1  0.50000000  0.00000000  0.75071900  1
