# generated using pymatgen
data_Ca5Zr4Ti(GeO5)5
_symmetry_space_group_name_H-M   'P 1'
_cell_length_a   5.79321034
_cell_length_b   25.12194918
_cell_length_c   7.90718020
_cell_angle_alpha   81.00680626
_cell_angle_beta   72.96507588
_cell_angle_gamma   87.57986407
_symmetry_Int_Tables_number   1
_chemical_formula_structural   Ca5Zr4Ti(GeO5)5
_chemical_formula_sum   'Ca10 Zr8 Ti2 Ge10 O50'
_cell_volume   1086.76228278
_cell_formula_units_Z   2
loop_
 _symmetry_equiv_pos_site_id
 _symmetry_equiv_pos_as_xyz
  1  'x, y, z'
loop_
 _atom_site_type_symbol
 _atom_site_label
 _atom_site_symmetry_multiplicity
 _atom_site_fract_x
 _atom_site_fract_y
 _atom_site_fract_z
 _atom_site_occupancy
  Ca  Ca0  1  0.70661900  0.88076400  0.46382800  1
  Ca  Ca1  1  0.10502500  0.07954900  0.06494700  1
  Ca  Ca2  1  0.49816600  0.27921600  0.67527800  1
  Ca  Ca3  1  0.89909000  0.47956000  0.27434700  1
  Ca  Ca4  1  0.29981000  0.68047000  0.87430400  1
  Ca  Ca5  1  0.29338100  0.11923600  0.53617200  1
  Ca  Ca6  1  0.70019000  0.31953000  0.12569600  1
  Ca  Ca7  1  0.10091000  0.52044000  0.72565300  1
  Ca  Ca8  1  0.50183400  0.72078400  0.32472200  1
  Ca  Ca9  1  0.89497500  0.92045100  0.93505300  1
  Zr  Zr10  1  0.10016000  0.29914300  0.39972600  1
  Zr  Zr11  1  0.50000000  0.50000000  0.00000000  1
  Zr  Zr12  1  0.89984000  0.70085700  0.60027400  1
  Zr  Zr13  1  0.00000000  0.00000000  0.50000000  1
  Zr  Zr14  1  0.40312800  0.19828900  0.09947400  1
  Zr  Zr15  1  0.80015200  0.39981100  0.69969600  1
  Zr  Zr16  1  0.19984800  0.60018900  0.30030400  1
  Zr  Zr17  1  0.59687200  0.80171100  0.90052600  1
  Ti  Ti18  1  0.29980800  0.90080300  0.20006000  1
  Ti  Ti19  1  0.70019200  0.09919700  0.79994000  1
  Ge  Ge20  1  0.00442300  0.78763800  0.17769200  1
  Ge  Ge21  1  0.19938600  0.38581900  0.97731300  1
  Ge  Ge22  1  0.59976100  0.58610000  0.57711700  1
  Ge  Ge23  1  0.40544100  0.98533500  0.78325400  1
  Ge  Ge24  1  0.80041900  0.18366400  0.38318600  1
  Ge  Ge25  1  0.19958100  0.81633600  0.61681400  1
  Ge  Ge26  1  0.40023900  0.41390000  0.42288300  1
  Ge  Ge27  1  0.80061400  0.61418100  0.02268700  1
  Ge  Ge28  1  0.59455900  0.01466500  0.21674600  1
  Ge  Ge29  1  0.99557700  0.21236200  0.82230800  1
  O  O30  1  0.54411800  0.86923100  0.02911300  1
  O  O31  1  0.76893100  0.46850800  0.81323800  1
  O  O32  1  0.16807600  0.66873300  0.41457200  1
  O  O33  1  0.94384600  0.06806600  0.62586900  1
  O  O34  1  0.36739600  0.26743400  0.21100500  1
  O  O35  1  0.63260400  0.73256600  0.78899500  1
  O  O36  1  0.83192400  0.33126700  0.58542800  1
  O  O37  1  0.23106900  0.53149200  0.18676200  1
  O  O38  1  0.05615400  0.93193400  0.37413100  1
  O  O39  1  0.45588200  0.13076900  0.97088700  1
  O  O40  1  0.81356000  0.76595600  0.06282700  1
  O  O41  1  0.01251800  0.36262000  0.86283100  1
  O  O42  1  0.41281000  0.56285300  0.46264600  1
  O  O43  1  0.20952500  0.96555400  0.66876100  1
  O  O44  1  0.60873900  0.16234600  0.26858700  1
  O  O45  1  0.39126100  0.83765400  0.73141300  1
  O  O46  1  0.58719000  0.43714700  0.53735400  1
  O  O47  1  0.98748200  0.63738000  0.13716900  1
  O  O48  1  0.79047500  0.03444600  0.33123900  1
  O  O49  1  0.18644000  0.23404400  0.93717300  1
  O  O50  1  0.24676800  0.96046800  0.01038600  1
  O  O51  1  0.43888700  0.56310300  0.80384100  1
  O  O52  1  0.83924600  0.76386300  0.40330900  1
  O  O53  1  0.64671000  0.15926600  0.61112000  1
  O  O54  1  0.03910000  0.36258300  0.20401600  1
  O  O55  1  0.96090000  0.63741700  0.79598400  1
  O  O56  1  0.16075400  0.23613700  0.59669100  1
  O  O57  1  0.56111300  0.43689700  0.19615900  1
  O  O58  1  0.35329000  0.84073400  0.38888000  1
  O  O59  1  0.75323200  0.03953200  0.98961400  1
  O  O60  1  0.19204300  0.74466300  0.63588800  1
  O  O61  1  0.39021800  0.34252200  0.44047800  1
  O  O62  1  0.79064600  0.54290500  0.04106600  1
  O  O63  1  0.58035100  0.94295800  0.23310900  1
  O  O64  1  0.97913600  0.14096100  0.83716900  1
  O  O65  1  0.02086400  0.85903900  0.16283100  1
  O  O66  1  0.20935400  0.45709500  0.95893400  1
  O  O67  1  0.60978200  0.65747800  0.55952200  1
  O  O68  1  0.41964900  0.05704200  0.76689100  1
  O  O69  1  0.80795700  0.25533700  0.36411200  1
  O  O70  1  0.90398300  0.84128800  0.70156100  1
  O  O71  1  0.10624100  0.43992000  0.49888000  1
  O  O72  1  0.50614800  0.64004000  0.09871300  1
  O  O73  1  0.30309700  0.04156100  0.30223500  1
  O  O74  1  0.70556800  0.24026900  0.89942400  1
  O  O75  1  0.29443200  0.75973100  0.10057600  1
  O  O76  1  0.49385200  0.35996000  0.90128700  1
  O  O77  1  0.89375900  0.56008000  0.50112000  1
  O  O78  1  0.69690300  0.95843900  0.69776500  1
  O  O79  1  0.09601700  0.15871200  0.29843900  1
