# generated using pymatgen
data_Bi3Sb5Pb4O21
_symmetry_space_group_name_H-M   'P 1'
_cell_length_a   7.43175300
_cell_length_b   7.45923492
_cell_length_c   10.17960154
_cell_angle_alpha   89.69092112
_cell_angle_beta   89.64605582
_cell_angle_gamma   60.55258551
_symmetry_Int_Tables_number   1
_chemical_formula_structural   Bi3Sb5Pb4O21
_chemical_formula_sum   'Bi3 Sb5 Pb4 O21'
_cell_volume   491.39247188
_cell_formula_units_Z   1
loop_
 _symmetry_equiv_pos_site_id
 _symmetry_equiv_pos_as_xyz
  1  'x, y, z'
loop_
 _atom_site_type_symbol
 _atom_site_label
 _atom_site_symmetry_multiplicity
 _atom_site_fract_x
 _atom_site_fract_y
 _atom_site_fract_z
 _atom_site_occupancy
  Bi  Bi0  1  0.13801500  0.71231200  0.35466800  1
  Bi  Bi1  1  0.29756400  0.84977100  0.64342700  1
  Bi  Bi2  1  0.84631500  0.29526600  0.63933300  1
  Sb  Sb3  1  0.33624200  0.33396600  0.70192000  1
  Sb  Sb4  1  0.66930600  0.66288800  0.30248000  1
  Sb  Sb5  1  0.50033600  0.50112900  0.00018200  1
  Sb  Sb6  1  0.00063400  0.49984600  0.99994800  1
  Sb  Sb7  1  0.50040500  0.99861800  0.00050700  1
  Pb  Pb8  1  0.00130100  0.99963500  0.00073000  1
  Pb  Pb9  1  0.16149000  0.17200800  0.33314200  1
  Pb  Pb10  1  0.65737800  0.17313000  0.32916900  1
  Pb  Pb11  1  0.82686900  0.83304900  0.66478300  1
  O  O12  1  0.20561600  0.20084900  0.59588900  1
  O  O13  1  0.60066500  0.20321000  0.59479900  1
  O  O14  1  0.21066200  0.59321900  0.59191100  1
  O  O15  1  0.80326800  0.79359500  0.40683100  1
  O  O16  1  0.41008800  0.78930100  0.41145600  1
  O  O17  1  0.79919900  0.40194500  0.41114300  1
  O  O18  1  0.20268100  0.20219700  0.04422700  1
  O  O19  1  0.59436000  0.20317900  0.04432200  1
  O  O20  1  0.20273100  0.59584500  0.04282200  1
  O  O21  1  0.79822500  0.79713900  0.95651600  1
  O  O22  1  0.40333900  0.79811500  0.95795100  1
  O  O23  1  0.79843700  0.40387400  0.95906600  1
  O  O24  1  0.99697400  0.99937200  0.24398500  1
  O  O25  1  0.00003500  0.00429500  0.75845000  1
  O  O26  1  0.53328900  0.53338500  0.19446000  1
  O  O27  1  0.93373400  0.53377600  0.19374400  1
  O  O28  1  0.53718500  0.92563500  0.19262400  1
  O  O29  1  0.47013300  0.46822000  0.80626700  1
  O  O30  1  0.06984500  0.46597700  0.80739500  1
  O  O31  1  0.46645600  0.06964600  0.80850500  1
  O  O32  1  0.02722400  0.98560800  0.50734700  1
