# generated using pymatgen
data_Ca4Al6WO16
_symmetry_space_group_name_H-M   'P 1'
_cell_length_a   8.13566584
_cell_length_b   8.13566584
_cell_length_c   8.13566584
_cell_angle_alpha   110.31239190
_cell_angle_beta   110.31239190
_cell_angle_gamma   107.80166785
_symmetry_Int_Tables_number   1
_chemical_formula_structural   Ca4Al6WO16
_chemical_formula_sum   'Ca4 Al6 W1 O16'
_cell_volume   414.26834798
_cell_formula_units_Z   1
loop_
 _symmetry_equiv_pos_site_id
 _symmetry_equiv_pos_as_xyz
  1  'x, y, z'
loop_
 _atom_site_type_symbol
 _atom_site_label
 _atom_site_symmetry_multiplicity
 _atom_site_fract_x
 _atom_site_fract_y
 _atom_site_fract_z
 _atom_site_occupancy
  Ca  Ca0  1  0.51521800  0.97680800  0.96495200  1
  Ca  Ca1  1  0.02319200  0.98814400  0.53841000  1
  Ca  Ca2  1  0.01185600  0.55026500  0.03504800  1
  Ca  Ca3  1  0.44973500  0.48478200  0.46159000  1
  Al  Al4  1  0.51768500  0.75909900  0.26362200  1
  Al  Al5  1  0.25000000  0.75000000  0.50000000  1
  Al  Al6  1  0.74593700  0.48231500  0.24141500  1
  Al  Al7  1  0.75000000  0.25000000  0.50000000  1
  Al  Al8  1  0.49547700  0.25406300  0.73637800  1
  Al  Al9  1  0.24090100  0.50452300  0.75858500  1
  W  W10  1  0.00000000  0.00000000  0.00000000  1
  O  O11  1  0.37545400  0.00526900  0.67866000  1
  O  O12  1  0.68722400  0.27754800  0.28244600  1
  O  O13  1  0.39361000  0.70758900  0.01205500  1
  O  O14  1  0.72245200  0.00489700  0.40967600  1
  O  O15  1  0.99473100  0.67339100  0.37018500  1
  O  O16  1  0.29241100  0.30446600  0.68602100  1
  O  O17  1  0.32660900  0.69679400  0.32134000  1
  O  O18  1  0.99510300  0.40477900  0.71755400  1
  O  O19  1  0.69553400  0.38155600  0.98794500  1
  O  O20  1  0.59522100  0.31277600  0.59032400  1
  O  O21  1  0.30320600  0.62454600  0.62981500  1
  O  O22  1  0.61844400  0.60639000  0.31397900  1
  O  O23  1  0.11040800  0.95233000  0.84018400  1
  O  O24  1  0.04767000  0.88785400  0.15807800  1
  O  O25  1  0.11214600  0.27022500  0.15981600  1
  O  O26  1  0.72977500  0.88959200  0.84192200  1
