# generated using pymatgen
data_Ca3NdMn2O8
_symmetry_space_group_name_H-M   'P 1'
_cell_length_a   3.85801500
_cell_length_b   3.85801500
_cell_length_c   11.88157200
_cell_angle_alpha   90.00000000
_cell_angle_beta   90.00000000
_cell_angle_gamma   90.00000000
_symmetry_Int_Tables_number   1
_chemical_formula_structural   Ca3NdMn2O8
_chemical_formula_sum   'Ca3 Nd1 Mn2 O8'
_cell_volume   176.84864140
_cell_formula_units_Z   1
loop_
 _symmetry_equiv_pos_site_id
 _symmetry_equiv_pos_as_xyz
  1  'x, y, z'
loop_
 _atom_site_type_symbol
 _atom_site_label
 _atom_site_symmetry_multiplicity
 _atom_site_fract_x
 _atom_site_fract_y
 _atom_site_fract_z
 _atom_site_occupancy
  Ca  Ca0  1  0.50000000  0.50000000  0.85889100  1
  Ca  Ca1  1  0.50000000  0.50000000  0.13490200  1
  Ca  Ca2  1  0.00000000  0.00000000  0.65011000  1
  Nd  Nd3  1  0.00000000  0.00000000  0.35732500  1
  Mn  Mn4  1  0.00000000  0.00000000  0.99788000  1
  Mn  Mn5  1  0.50000000  0.50000000  0.50555300  1
  O  O6  1  0.00000000  0.50000000  0.00126200  1
  O  O7  1  0.50000000  0.00000000  0.49547600  1
  O  O8  1  0.50000000  0.00000000  0.00126200  1
  O  O9  1  0.00000000  0.50000000  0.49547600  1
  O  O10  1  0.50000000  0.50000000  0.33247700  1
  O  O11  1  0.00000000  0.00000000  0.83463600  1
  O  O12  1  0.00000000  0.00000000  0.16830400  1
  O  O13  1  0.50000000  0.50000000  0.66644600  1
