# generated using pymatgen
data_Ca4Al6MoO16
_symmetry_space_group_name_H-M   'P 1'
_cell_length_a   8.14805925
_cell_length_b   8.14805925
_cell_length_c   8.14805925
_cell_angle_alpha   110.08185277
_cell_angle_beta   110.08185277
_cell_angle_gamma   108.25673997
_symmetry_Int_Tables_number   1
_chemical_formula_structural   Ca4Al6MoO16
_chemical_formula_sum   'Ca4 Al6 Mo1 O16'
_cell_volume   416.28872744
_cell_formula_units_Z   1
loop_
 _symmetry_equiv_pos_site_id
 _symmetry_equiv_pos_as_xyz
  1  'x, y, z'
loop_
 _atom_site_type_symbol
 _atom_site_label
 _atom_site_symmetry_multiplicity
 _atom_site_fract_x
 _atom_site_fract_y
 _atom_site_fract_z
 _atom_site_occupancy
  Ca  Ca0  1  0.52579500  0.97888200  0.96813300  1
  Ca  Ca1  1  0.02111800  0.98925100  0.54691300  1
  Ca  Ca2  1  0.01074900  0.55766200  0.03186700  1
  Ca  Ca3  1  0.44233800  0.47420500  0.45308700  1
  Al  Al4  1  0.51733700  0.75742700  0.26386900  1
  Al  Al5  1  0.25000000  0.75000000  0.50000000  1
  Al  Al6  1  0.74653200  0.48266300  0.24009000  1
  Al  Al7  1  0.75000000  0.25000000  0.50000000  1
  Al  Al8  1  0.49355800  0.25346800  0.73613100  1
  Al  Al9  1  0.24257300  0.50644200  0.75991000  1
  Mo  Mo10  1  0.00000000  0.00000000  0.00000000  1
  O  O11  1  0.37449500  0.00446200  0.68103800  1
  O  O12  1  0.69348900  0.27787700  0.28255300  1
  O  O13  1  0.39789000  0.70846000  0.01352200  1
  O  O14  1  0.72212300  0.00467600  0.41561200  1
  O  O15  1  0.99553800  0.67657600  0.37003300  1
  O  O16  1  0.29154000  0.30506200  0.68943000  1
  O  O17  1  0.32342400  0.69345700  0.31896200  1
  O  O18  1  0.99532400  0.41093600  0.71744700  1
  O  O19  1  0.69493800  0.38436800  0.98647800  1
  O  O20  1  0.58906400  0.30651100  0.58438800  1
  O  O21  1  0.30654300  0.62550500  0.62996700  1
  O  O22  1  0.61563200  0.60211000  0.31057000  1
  O  O23  1  0.09170200  0.95274000  0.82784400  1
  O  O24  1  0.04726000  0.87510400  0.13896200  1
  O  O25  1  0.12489600  0.26385800  0.17215600  1
  O  O26  1  0.73614200  0.90829800  0.86103800  1
