# generated using pymatgen
data_Be46Os7
_symmetry_space_group_name_H-M   'P 1'
_cell_length_a   4.19097189
_cell_length_b   4.19097189
_cell_length_c   32.84571500
_cell_angle_alpha   89.99944710
_cell_angle_beta   90.00055290
_cell_angle_gamma   119.99873540
_symmetry_Int_Tables_number   1
_chemical_formula_structural   Be46Os7
_chemical_formula_sum   'Be46 Os7'
_cell_volume   499.62525424
_cell_formula_units_Z   1
loop_
 _symmetry_equiv_pos_site_id
 _symmetry_equiv_pos_as_xyz
  1  'x, y, z'
loop_
 _atom_site_type_symbol
 _atom_site_label
 _atom_site_symmetry_multiplicity
 _atom_site_fract_x
 _atom_site_fract_y
 _atom_site_fract_z
 _atom_site_occupancy
  Be  Be0  1  0.99999800  0.00000200  0.12359500  1
  Be  Be1  1  0.99999800  0.00000200  0.45795000  1
  Be  Be2  1  0.00000500  0.99999500  0.79237800  1
  Be  Be3  1  0.99999500  0.00000500  0.20995600  1
  Be  Be4  1  0.99999400  0.00000600  0.54072000  1
  Be  Be5  1  0.00000100  0.99999900  0.87517400  1
  Be  Be6  1  0.66666600  0.33333400  0.11489200  1
  Be  Be7  1  0.66666500  0.33333500  0.44780500  1
  Be  Be8  1  0.66665700  0.33334300  0.78160300  1
  Be  Be9  1  0.66667400  0.33332600  0.21875700  1
  Be  Be10  1  0.66666700  0.33333300  0.55163600  1
  Be  Be11  1  0.66666200  0.33333800  0.88537300  1
  Be  Be12  1  0.83369400  0.16630600  0.06122500  1
  Be  Be13  1  0.83688000  0.16312000  0.39585700  1
  Be  Be14  1  0.83829700  0.16170300  0.73055800  1
  Be  Be15  1  0.33260100  0.16630900  0.06122600  1
  Be  Be16  1  0.32622700  0.16311800  0.39585800  1
  Be  Be17  1  0.32339000  0.16170500  0.73055800  1
  Be  Be18  1  0.83369100  0.66739900  0.06122600  1
  Be  Be19  1  0.83688200  0.67377300  0.39585800  1
  Be  Be20  1  0.83829500  0.67661000  0.73055800  1
  Be  Be21  1  0.83722200  0.16277800  0.27092500  1
  Be  Be22  1  0.83812500  0.16187500  0.60278200  1
  Be  Be23  1  0.83352600  0.16647400  0.93862400  1
  Be  Be24  1  0.32553800  0.16278600  0.27092200  1
  Be  Be25  1  0.32373300  0.16187900  0.60278000  1
  Be  Be26  1  0.33292900  0.16648400  0.93862400  1
  Be  Be27  1  0.83721400  0.67446200  0.27092200  1
  Be  Be28  1  0.83812100  0.67626700  0.60278000  1
  Be  Be29  1  0.83351600  0.66707100  0.93862400  1
  Be  Be30  1  0.33331600  0.66668400  0.03249300  1
  Be  Be31  1  0.33332500  0.66667500  0.36521400  1
  Be  Be32  1  0.33332600  0.66667400  0.69716300  1
  Be  Be33  1  0.33332700  0.66667300  0.30116100  1
  Be  Be34  1  0.33332400  0.66667600  0.63589200  1
  Be  Be35  1  0.33331500  0.66668500  0.96809500  1
  Be  Be36  1  0.49525700  0.50474300  0.16728600  1
  Be  Be37  1  0.49555400  0.50444600  0.49947200  1
  Be  Be38  1  0.49547800  0.50452200  0.83331600  1
  Be  Be39  1  0.00950200  0.50474200  0.16728500  1
  Be  Be40  1  0.00889100  0.50444700  0.49947200  1
  Be  Be41  1  0.00904900  0.50452600  0.83331700  1
  Be  Be42  1  0.49525800  0.99049800  0.16728500  1
  Be  Be43  1  0.49555300  0.99110900  0.49947200  1
  Be  Be44  1  0.49547400  0.99095100  0.83331700  1
  Be  Be45  1  0.66671000  0.33329000  0.00010200  1
  Os  Os46  1  0.33333200  0.66666800  0.10316700  1
  Os  Os47  1  0.33333100  0.66666900  0.43387700  1
  Os  Os48  1  0.33332800  0.66667200  0.76878600  1
  Os  Os49  1  0.33333100  0.66666900  0.23241800  1
  Os  Os50  1  0.33332600  0.66667400  0.56393300  1
  Os  Os51  1  0.33332900  0.66667100  0.89795100  1
  Os  Os52  1  0.99999900  0.00000100  0.66644600  1
