# generated using pymatgen
data_Bi2(PbS2)3
_symmetry_space_group_name_H-M   'P 1'
_cell_length_a   7.13464393
_cell_length_b   7.13464393
_cell_length_c   20.92851700
_cell_angle_alpha   90.00000000
_cell_angle_beta   90.00000000
_cell_angle_gamma   146.52081055
_symmetry_Int_Tables_number   1
_chemical_formula_structural   Bi2(PbS2)3
_chemical_formula_sum   'Bi4 Pb6 S12'
_cell_volume   587.67084386
_cell_formula_units_Z   2
loop_
 _symmetry_equiv_pos_site_id
 _symmetry_equiv_pos_as_xyz
  1  'x, y, z'
loop_
 _atom_site_type_symbol
 _atom_site_label
 _atom_site_symmetry_multiplicity
 _atom_site_fract_x
 _atom_site_fract_y
 _atom_site_fract_z
 _atom_site_occupancy
  Bi  Bi0  1  0.08987000  0.91013000  0.36450200  1
  Bi  Bi1  1  0.91013000  0.08987000  0.63549800  1
  Bi  Bi2  1  0.08987000  0.91013000  0.13549800  1
  Bi  Bi3  1  0.91013000  0.08987000  0.86450200  1
  Pb  Pb4  1  0.36127200  0.63872800  0.45470400  1
  Pb  Pb5  1  0.63872800  0.36127200  0.54529600  1
  Pb  Pb6  1  0.36127200  0.63872800  0.04529600  1
  Pb  Pb7  1  0.63872800  0.36127200  0.95470400  1
  Pb  Pb8  1  0.83663300  0.16336700  0.25000000  1
  Pb  Pb9  1  0.16336700  0.83663300  0.75000000  1
  S  S10  1  0.18693100  0.81306900  0.25000000  1
  S  S11  1  0.81306900  0.18693100  0.75000000  1
  S  S12  1  0.45592700  0.54407300  0.33483000  1
  S  S13  1  0.54407300  0.45592700  0.66517000  1
  S  S14  1  0.45592700  0.54407300  0.16517000  1
  S  S15  1  0.54407300  0.45592700  0.83483000  1
  S  S16  1  0.72070600  0.27929400  0.40636900  1
  S  S17  1  0.27929400  0.72070600  0.59363100  1
  S  S18  1  0.72070600  0.27929400  0.09363100  1
  S  S19  1  0.27929400  0.72070600  0.90636900  1
  S  S20  1  0.00000000  0.00000000  0.50000000  1
  S  S21  1  0.00000000  0.00000000  0.00000000  1
