# generated using pymatgen
data_Sr7CaTi3Mn5O20
_symmetry_space_group_name_H-M   'P 1'
_cell_length_a   11.18942934
_cell_length_b   11.34140379
_cell_length_c   17.84619937
_cell_angle_alpha   108.43728845
_cell_angle_beta   108.42607313
_cell_angle_gamma   90.07836604
_symmetry_Int_Tables_number   1
_chemical_formula_structural   Sr7CaTi3Mn5O20
_chemical_formula_sum   'Sr28 Ca4 Ti12 Mn20 O80'
_cell_volume   2025.39306141
_cell_formula_units_Z   4
loop_
 _symmetry_equiv_pos_site_id
 _symmetry_equiv_pos_as_xyz
  1  'x, y, z'
loop_
 _atom_site_type_symbol
 _atom_site_label
 _atom_site_symmetry_multiplicity
 _atom_site_fract_x
 _atom_site_fract_y
 _atom_site_fract_z
 _atom_site_occupancy
  Sr  Sr0  1  0.30521100  0.06500400  0.61190100  1
  Sr  Sr1  1  0.30224200  0.55810000  0.61206700  1
  Sr  Sr2  1  0.81020400  0.06212000  0.60965300  1
  Sr  Sr3  1  0.80913400  0.56499100  0.11310600  1
  Sr  Sr4  1  0.81287000  0.56103000  0.61025300  1
  Sr  Sr5  1  0.19402100  0.43571900  0.38909100  1
  Sr  Sr6  1  0.19560500  0.43817200  0.89015200  1
  Sr  Sr7  1  0.19355200  0.93964100  0.38669500  1
  Sr  Sr8  1  0.19805900  0.93964800  0.89056600  1
  Sr  Sr9  1  0.69897800  0.43875300  0.38893000  1
  Sr  Sr10  1  0.69689900  0.44086800  0.88919900  1
  Sr  Sr11  1  0.69781000  0.93667100  0.38846800  1
  Sr  Sr12  1  0.69351600  0.93939200  0.88807600  1
  Sr  Sr13  1  0.05969100  0.29661900  0.11291700  1
  Sr  Sr14  1  0.06280000  0.30012100  0.61069900  1
  Sr  Sr15  1  0.05871700  0.79996600  0.61119700  1
  Sr  Sr16  1  0.55382600  0.29686300  0.11159900  1
  Sr  Sr17  1  0.55422200  0.29852700  0.61084600  1
  Sr  Sr18  1  0.56042800  0.79920500  0.11181200  1
  Sr  Sr19  1  0.55929100  0.80234300  0.61087800  1
  Sr  Sr20  1  0.44560200  0.19989100  0.38510100  1
  Sr  Sr21  1  0.43850200  0.19964700  0.88765400  1
  Sr  Sr22  1  0.44747300  0.69733400  0.38604600  1
  Sr  Sr23  1  0.44229900  0.69942400  0.88842200  1
  Sr  Sr24  1  0.94802500  0.19946900  0.38694800  1
  Sr  Sr25  1  0.95181700  0.20358400  0.89140600  1
  Sr  Sr26  1  0.94575800  0.69736000  0.38657600  1
  Sr  Sr27  1  0.94892900  0.69904500  0.89084500  1
  Ca  Ca28  1  0.29901800  0.06973600  0.11127600  1
  Ca  Ca29  1  0.30174100  0.56111900  0.11055300  1
  Ca  Ca30  1  0.80275000  0.06417300  0.10696000  1
  Ca  Ca31  1  0.04972700  0.79589100  0.10986100  1
  Ti  Ti32  1  0.00142600  0.99982300  0.99930300  1
  Ti  Ti33  1  0.00614200  0.49995700  0.00390600  1
  Ti  Ti34  1  0.50227200  0.99976700  0.00286000  1
  Ti  Ti35  1  0.50138100  0.00077800  0.49883100  1
  Ti  Ti36  1  0.50037500  0.50228900  0.00245000  1
  Ti  Ti37  1  0.50497000  0.50275100  0.50447100  1
  Ti  Ti38  1  0.25421900  0.75276000  0.00924200  1
  Ti  Ti39  1  0.25312400  0.74989000  0.49991300  1
  Ti  Ti40  1  0.74797300  0.25001100  0.99779000  1
  Ti  Ti41  1  0.75557700  0.24877000  0.49898000  1
  Ti  Ti42  1  0.75258300  0.75083000  0.99751300  1
  Ti  Ti43  1  0.75547000  0.75014000  0.49991000  1
  Mn  Mn44  1  0.00339700  0.99925200  0.49864500  1
  Mn  Mn45  1  0.00276000  0.49934600  0.49853900  1
  Mn  Mn46  1  0.25517000  0.25152500  0.00362700  1
  Mn  Mn47  1  0.25187000  0.24828400  0.49927900  1
  Mn  Mn48  1  0.10500800  0.08886900  0.24376700  1
  Mn  Mn49  1  0.10852100  0.09536400  0.75070800  1
  Mn  Mn50  1  0.11835100  0.59574000  0.24997800  1
  Mn  Mn51  1  0.11244400  0.59934800  0.75495100  1
  Mn  Mn52  1  0.60895100  0.09601500  0.24788000  1
  Mn  Mn53  1  0.61253400  0.09708000  0.74932500  1
  Mn  Mn54  1  0.61061300  0.59287100  0.24793500  1
  Mn  Mn55  1  0.61192600  0.59635900  0.75002300  1
  Mn  Mn56  1  0.36103000  0.40260100  0.25096000  1
  Mn  Mn57  1  0.36656300  0.40549500  0.75267800  1
  Mn  Mn58  1  0.35656900  0.90401200  0.24731400  1
  Mn  Mn59  1  0.36538000  0.90412300  0.75011600  1
  Mn  Mn60  1  0.85752000  0.39828200  0.24556100  1
  Mn  Mn61  1  0.86191200  0.40540100  0.74987100  1
  Mn  Mn62  1  0.85872700  0.90695500  0.24507700  1
  Mn  Mn63  1  0.86238100  0.90525800  0.75030900  1
  O  O64  1  0.12058700  0.11745800  0.49319400  1
  O  O65  1  0.12224700  0.11368600  0.99647900  1
  O  O66  1  0.12662700  0.62274600  0.49226900  1
  O  O67  1  0.12841300  0.62521000  0.99348400  1
  O  O68  1  0.62499300  0.12276200  0.49052800  1
  O  O69  1  0.62842500  0.12345100  0.99170700  1
  O  O70  1  0.62700400  0.62376600  0.49182000  1
  O  O71  1  0.62969900  0.62730700  0.99341400  1
  O  O72  1  0.13322700  0.39215100  0.01547800  1
  O  O73  1  0.12491400  0.37996500  0.50379800  1
  O  O74  1  0.13919600  0.87696700  0.01589400  1
  O  O75  1  0.13469300  0.87303600  0.50509700  1
  O  O76  1  0.63726900  0.37648200  0.00975400  1
  O  O77  1  0.63022400  0.37829400  0.50472800  1
  O  O78  1  0.64134200  0.87987200  0.01137600  1
  O  O79  1  0.63532100  0.87517000  0.50602300  1
  O  O80  1  0.37887800  0.11207200  0.48883500  1
  O  O81  1  0.38273000  0.11345800  0.99566500  1
  O  O82  1  0.37737800  0.61989900  0.49075500  1
  O  O83  1  0.37753100  0.62067900  0.99243300  1
  O  O84  1  0.87068300  0.12210300  0.49041200  1
  O  O85  1  0.87622600  0.11789500  0.99607900  1
  O  O86  1  0.87590400  0.62132300  0.49233100  1
  O  O87  1  0.87909000  0.62620800  0.99729600  1
  O  O88  1  0.38914300  0.39210400  0.01334800  1
  O  O89  1  0.38429200  0.38344800  0.50280400  1
  O  O90  1  0.38534200  0.88119600  0.01207600  1
  O  O91  1  0.38576300  0.87867900  0.50712300  1
  O  O92  1  0.88686200  0.38463000  0.01285300  1
  O  O93  1  0.88000300  0.37922600  0.50596200  1
  O  O94  1  0.88890100  0.88235700  0.01501500  1
  O  O95  1  0.88143000  0.87676400  0.50471800  1
  O  O96  1  0.07854400  0.08182400  0.13026800  1
  O  O97  1  0.07387300  0.08487700  0.63803700  1
  O  O98  1  0.07979500  0.59683800  0.12876500  1
  O  O99  1  0.07989700  0.59056400  0.64271800  1
  O  O100  1  0.58723500  0.08052700  0.12514800  1
  O  O101  1  0.57623000  0.07988700  0.62375000  1
  O  O102  1  0.58180100  0.58544100  0.12596500  1
  O  O103  1  0.57444000  0.58223600  0.62426400  1
  O  O104  1  0.44520400  0.42260500  0.36724300  1
  O  O105  1  0.45207100  0.42002200  0.87829300  1
  O  O106  1  0.44777600  0.91529500  0.37087600  1
  O  O107  1  0.45081400  0.91617300  0.87712400  1
  O  O108  1  0.93500000  0.41199300  0.35790000  1
  O  O109  1  0.94820500  0.42285200  0.87786700  1
  O  O110  1  0.93882400  0.91275100  0.35635500  1
  O  O111  1  0.94880800  0.91598100  0.87778400  1
  O  O112  1  0.32722200  0.29025400  0.14080200  1
  O  O113  1  0.32846800  0.29515600  0.63306700  1
  O  O114  1  0.32770900  0.77906500  0.12636900  1
  O  O115  1  0.32489700  0.79200500  0.62476700  1
  O  O116  1  0.82292200  0.29048300  0.12878000  1
  O  O117  1  0.82152100  0.29614300  0.62456700  1
  O  O118  1  0.82922200  0.79778200  0.13214200  1
  O  O119  1  0.82491200  0.79507600  0.62581200  1
  O  O120  1  0.18269200  0.18768200  0.35815600  1
  O  O121  1  0.18802000  0.20036800  0.86462400  1
  O  O122  1  0.19962400  0.70571600  0.37347900  1
  O  O123  1  0.19289000  0.70442600  0.87292500  1
  O  O124  1  0.69140700  0.20528600  0.37183400  1
  O  O125  1  0.70502600  0.20926600  0.87785900  1
  O  O126  1  0.69482500  0.70233900  0.37136200  1
  O  O127  1  0.70338000  0.71000300  0.87740400  1
  O  O128  1  0.42085700  0.06838200  0.23925400  1
  O  O129  1  0.43248000  0.07389700  0.75188400  1
  O  O130  1  0.42416100  0.55976400  0.23996100  1
  O  O131  1  0.43234400  0.57554900  0.75184400  1
  O  O132  1  0.92475200  0.07068600  0.23964800  1
  O  O133  1  0.93287400  0.07679300  0.75196400  1
  O  O134  1  0.93760500  0.55429800  0.24775100  1
  O  O135  1  0.93377200  0.57651900  0.75198900  1
  O  O136  1  0.18676000  0.42564600  0.25028300  1
  O  O137  1  0.18440300  0.44171300  0.75312700  1
  O  O138  1  0.16941500  0.92477600  0.24084900  1
  O  O139  1  0.18394700  0.93830400  0.75201300  1
  O  O140  1  0.68345400  0.42403000  0.24765500  1
  O  O141  1  0.68071100  0.42919100  0.75064700  1
  O  O142  1  0.68893800  0.92923700  0.24927100  1
  O  O143  1  0.68207200  0.92956100  0.75133700  1
