# generated using pymatgen
data_Ca4CoSi8(NiO8)3
_symmetry_space_group_name_H-M   'P 1'
_cell_length_a   8.99898200
_cell_length_b   5.30858700
_cell_length_c   9.85877513
_cell_angle_alpha   74.78478796
_cell_angle_beta   90.00000000
_cell_angle_gamma   90.00000000
_symmetry_Int_Tables_number   1
_chemical_formula_structural   Ca4CoSi8(NiO8)3
_chemical_formula_sum   'Ca4 Co1 Si8 Ni3 O24'
_cell_volume   454.46315132
_cell_formula_units_Z   1
loop_
 _symmetry_equiv_pos_site_id
 _symmetry_equiv_pos_as_xyz
  1  'x, y, z'
loop_
 _atom_site_type_symbol
 _atom_site_label
 _atom_site_symmetry_multiplicity
 _atom_site_fract_x
 _atom_site_fract_y
 _atom_site_fract_z
 _atom_site_occupancy
  Ca  Ca0  1  0.79712000  0.50000000  0.50000000  1
  Ca  Ca1  1  0.29719200  0.00000000  0.00000000  1
  Ca  Ca2  1  0.20322800  0.00000000  0.50000000  1
  Ca  Ca3  1  0.70290900  0.50000000  0.00000000  1
  Co  Co4  1  0.40744000  0.50000000  0.50000000  1
  Si  Si5  1  0.09249500  0.69188200  0.28615700  1
  Si  Si6  1  0.59340200  0.19148600  0.78672200  1
  Si  Si7  1  0.09249500  0.30811800  0.71384300  1
  Si  Si8  1  0.59340200  0.80851400  0.21327800  1
  Si  Si9  1  0.90695300  0.80829900  0.71351800  1
  Si  Si10  1  0.40691800  0.30778700  0.21300100  1
  Si  Si11  1  0.90695300  0.19170100  0.28648200  1
  Si  Si12  1  0.40691800  0.69221300  0.78699900  1
  Ni  Ni13  1  0.90890400  0.00000000  0.00000000  1
  Ni  Ni14  1  0.59102200  0.00000000  0.50000000  1
  Ni  Ni15  1  0.09105800  0.50000000  0.00000000  1
  O  O16  1  0.08804600  0.77679800  0.11557000  1
  O  O17  1  0.58899600  0.27573400  0.61585700  1
  O  O18  1  0.08804600  0.22320200  0.88443000  1
  O  O19  1  0.58899600  0.72426600  0.38414300  1
  O  O20  1  0.91202600  0.72318900  0.88421800  1
  O  O21  1  0.41189500  0.22017700  0.38368500  1
  O  O22  1  0.91202600  0.27681100  0.11578200  1
  O  O23  1  0.41189500  0.77982300  0.61631500  1
  O  O24  1  0.01899000  0.39319900  0.34922500  1
  O  O25  1  0.51907100  0.89329500  0.84953800  1
  O  O26  1  0.01899000  0.60680100  0.65077500  1
  O  O27  1  0.51907100  0.10670500  0.15046200  1
  O  O28  1  0.98100500  0.10680500  0.65077500  1
  O  O29  1  0.48101200  0.60666900  0.15103300  1
  O  O30  1  0.98100500  0.89319500  0.34922500  1
  O  O31  1  0.48101200  0.39333100  0.84896700  1
  O  O32  1  0.24884000  0.70969200  0.36211700  1
  O  O33  1  0.74926300  0.20895600  0.86279600  1
  O  O34  1  0.24884000  0.29030800  0.63788300  1
  O  O35  1  0.74926300  0.79104400  0.13720400  1
  O  O36  1  0.75084600  0.79106600  0.63723200  1
  O  O37  1  0.25080600  0.29124900  0.13711000  1
  O  O38  1  0.75084600  0.20893400  0.36276800  1
  O  O39  1  0.25080600  0.70875100  0.86289000  1
