# generated using pymatgen
data_Ca3Mg5(SiO3)8
_symmetry_space_group_name_H-M   'P 1'
_cell_length_a   5.31413700
_cell_length_b   6.68585840
_cell_length_c   13.28066844
_cell_angle_alpha   90.46124844
_cell_angle_beta   100.66116461
_cell_angle_gamma   102.37793345
_symmetry_Int_Tables_number   1
_chemical_formula_structural   Ca3Mg5(SiO3)8
_chemical_formula_sum   'Ca3 Mg5 Si8 O24'
_cell_volume   452.37266387
_cell_formula_units_Z   1
loop_
 _symmetry_equiv_pos_site_id
 _symmetry_equiv_pos_as_xyz
  1  'x, y, z'
loop_
 _atom_site_type_symbol
 _atom_site_label
 _atom_site_symmetry_multiplicity
 _atom_site_fract_x
 _atom_site_fract_y
 _atom_site_fract_z
 _atom_site_occupancy
  Ca  Ca0  1  0.60250200  0.69984300  0.35209000  1
  Ca  Ca1  1  0.40056100  0.30302100  0.64965800  1
  Ca  Ca2  1  0.89998700  0.29762700  0.15068600  1
  Mg  Mg3  1  0.79492300  0.09201900  0.54785200  1
  Mg  Mg4  1  0.29872000  0.09513700  0.04571300  1
  Mg  Mg5  1  0.70340100  0.90636400  0.95109500  1
  Mg  Mg6  1  0.20392500  0.90763000  0.45616400  1
  Mg  Mg7  1  0.11994000  0.74334400  0.86937900  1
  Si  Si8  1  0.85979700  0.61989000  0.59893900  1
  Si  Si9  1  0.36187800  0.61704400  0.09538100  1
  Si  Si10  1  0.05052200  0.19604500  0.80823500  1
  Si  Si11  1  0.53984300  0.19208100  0.31012200  1
  Si  Si12  1  0.64906300  0.38306700  0.90051300  1
  Si  Si13  1  0.13352200  0.37939400  0.40323500  1
  Si  Si14  1  0.44497300  0.79985600  0.69287900  1
  Si  Si15  1  0.95741200  0.80771100  0.18847200  1
  O  O16  1  0.16140000  0.62399000  0.66497500  1
  O  O17  1  0.66532400  0.63436800  0.16395200  1
  O  O18  1  0.81399000  0.32206100  0.81324100  1
  O  O19  1  0.31605600  0.33431800  0.31588200  1
  O  O20  1  0.34194900  0.36705500  0.83472100  1
  O  O21  1  0.83199700  0.36615400  0.33176300  1
  O  O22  1  0.67825700  0.66709900  0.68590300  1
  O  O23  1  0.18056300  0.66591700  0.18085400  1
  O  O24  1  0.72964700  0.38863200  0.55573300  1
  O  O25  1  0.23433000  0.38353500  0.05695100  1
  O  O26  1  0.02226400  0.11550000  0.69240000  1
  O  O27  1  0.51232700  0.10992900  0.19347500  1
  O  O28  1  0.79560000  0.61860000  0.93433700  1
  O  O29  1  0.26262900  0.61272500  0.44293400  1
  O  O30  1  0.45024900  0.86863100  0.81061200  1
  O  O31  1  0.98545900  0.88725000  0.30477100  1
  O  O32  1  0.86924100  0.79667600  0.51539100  1
  O  O33  1  0.36878500  0.79018800  0.00973200  1
  O  O34  1  0.04097200  0.02299400  0.89489900  1
  O  O35  1  0.53958700  0.02724500  0.39874800  1
  O  O36  1  0.63491400  0.21047200  0.98659600  1
  O  O37  1  0.12710900  0.20255300  0.48557800  1
  O  O38  1  0.45826700  0.97226200  0.60718200  1
  O  O39  1  0.95811600  0.97177200  0.09895800  1
