# generated using pymatgen
data_BaSr4(FeO3)5
_symmetry_space_group_name_H-M   'P 1'
_cell_length_a   3.92991801
_cell_length_b   3.92987801
_cell_length_c   39.46156300
_cell_angle_alpha   90.00000581
_cell_angle_beta   90.00000000
_cell_angle_gamma   89.99023176
_symmetry_Int_Tables_number   1
_chemical_formula_structural   BaSr4(FeO3)5
_chemical_formula_sum   'Ba2 Sr8 Fe10 O30'
_cell_volume   609.44825322
_cell_formula_units_Z   2
loop_
 _symmetry_equiv_pos_site_id
 _symmetry_equiv_pos_as_xyz
  1  'x, y, z'
loop_
 _atom_site_type_symbol
 _atom_site_label
 _atom_site_symmetry_multiplicity
 _atom_site_fract_x
 _atom_site_fract_y
 _atom_site_fract_z
 _atom_site_occupancy
  Ba  Ba0  1  0.49999900  0.50000000  0.05000300  1
  Ba  Ba1  1  0.50000000  0.50000000  0.54988000  1
  Sr  Sr2  1  0.50000100  0.50000000  0.15147100  1
  Sr  Sr3  1  0.50000000  0.49999900  0.65138100  1
  Sr  Sr4  1  0.50000100  0.50000000  0.44856900  1
  Sr  Sr5  1  0.49999900  0.50000000  0.94865800  1
  Sr  Sr6  1  0.50000000  0.50000000  0.25048700  1
  Sr  Sr7  1  0.50000000  0.49999900  0.75042100  1
  Sr  Sr8  1  0.50000100  0.50000000  0.34958100  1
  Sr  Sr9  1  0.49999900  0.50000000  0.84960500  1
  Fe  Fe10  1  0.99999900  0.00000000  0.80000300  1
  Fe  Fe11  1  0.00000100  0.00000000  0.99874500  1
  Fe  Fe12  1  0.00000000  0.99999900  0.60119000  1
  Fe  Fe13  1  0.99999900  0.00000000  0.70090500  1
  Fe  Fe14  1  0.99999900  0.00000000  0.89907300  1
  Fe  Fe15  1  0.00000100  0.00000100  0.29999500  1
  Fe  Fe16  1  0.00000000  0.00000000  0.49864600  1
  Fe  Fe17  1  0.99999900  0.99999900  0.10134100  1
  Fe  Fe18  1  0.00000000  0.00000000  0.20101000  1
  Fe  Fe19  1  0.00000100  0.00000100  0.39899900  1
  O  O20  1  0.00000000  0.00000000  0.05006800  1
  O  O21  1  0.00000000  0.00000000  0.54994500  1
  O  O22  1  0.00000000  0.00000000  0.15273200  1
  O  O23  1  0.00000000  0.00000000  0.65264000  1
  O  O24  1  0.00000000  0.00000100  0.44728300  1
  O  O25  1  0.00000000  0.00000100  0.94732600  1
  O  O26  1  0.00000100  0.00000000  0.25034000  1
  O  O27  1  0.00000000  0.00000000  0.75030600  1
  O  O28  1  0.00000000  0.00000100  0.34961700  1
  O  O29  1  0.00000000  0.00000000  0.84971900  1
  O  O30  1  0.00000000  0.50000000  0.29998200  1
  O  O31  1  0.00000000  0.49999900  0.80002800  1
  O  O32  1  0.50000100  0.00000100  0.29998200  1
  O  O33  1  0.50000000  0.99999900  0.80002800  1
  O  O34  1  0.00000100  0.50000000  0.49647200  1
  O  O35  1  0.99999900  0.50000000  0.99660100  1
  O  O36  1  0.00000000  0.50000000  0.10353200  1
  O  O37  1  0.00000000  0.50000000  0.60341400  1
  O  O38  1  0.50000000  0.00000000  0.49647200  1
  O  O39  1  0.50000000  0.00000000  0.99660100  1
  O  O40  1  0.50000000  0.00000000  0.10353200  1
  O  O41  1  0.50000000  0.00000000  0.60341300  1
  O  O42  1  0.00000100  0.50000000  0.20151900  1
  O  O43  1  0.00000000  0.50000000  0.70144300  1
  O  O44  1  0.00000000  0.50000000  0.39845000  1
  O  O45  1  0.00000000  0.50000100  0.89858800  1
  O  O46  1  0.50000000  0.00000000  0.20151900  1
  O  O47  1  0.50000000  0.00000000  0.70144300  1
  O  O48  1  0.50000000  0.00000000  0.39845100  1
  O  O49  1  0.50000000  0.00000000  0.89858900  1
