# generated using pymatgen
data_Ca2TiCrO6
_symmetry_space_group_name_H-M   'P 1'
_cell_length_a   5.39896110
_cell_length_b   5.45931300
_cell_length_c   7.60181226
_cell_angle_alpha   89.99995638
_cell_angle_beta   89.82443891
_cell_angle_gamma   89.99998947
_symmetry_Int_Tables_number   1
_chemical_formula_structural   Ca2TiCrO6
_chemical_formula_sum   'Ca4 Ti2 Cr2 O12'
_cell_volume   224.05946460
_cell_formula_units_Z   2
loop_
 _symmetry_equiv_pos_site_id
 _symmetry_equiv_pos_as_xyz
  1  'x, y, z'
loop_
 _atom_site_type_symbol
 _atom_site_label
 _atom_site_symmetry_multiplicity
 _atom_site_fract_x
 _atom_site_fract_y
 _atom_site_fract_z
 _atom_site_occupancy
  Ca  Ca0  1  0.50947100  0.53929300  0.24994100  1
  Ca  Ca1  1  0.99050600  0.03923200  0.25003800  1
  Ca  Ca2  1  0.49056400  0.46071900  0.75005100  1
  Ca  Ca3  1  0.00941100  0.96066300  0.74992100  1
  Ti  Ti4  1  0.50004800  0.00000200  0.50014300  1
  Ti  Ti5  1  0.00012200  0.50019600  0.99974100  1
  Cr  Cr6  1  0.50014600  0.00022600  0.00040300  1
  Cr  Cr7  1  0.00031400  0.50000100  0.49974900  1
  O  O8  1  0.78980900  0.78499700  0.04090200  1
  O  O9  1  0.71010700  0.28499700  0.45910300  1
  O  O10  1  0.20696100  0.21622800  0.53856000  1
  O  O11  1  0.29294300  0.71617800  0.96143400  1
  O  O12  1  0.21008600  0.21492800  0.95928400  1
  O  O13  1  0.28983300  0.71494700  0.54072000  1
  O  O14  1  0.79305300  0.78378200  0.46134300  1
  O  O15  1  0.70683400  0.28375200  0.03866900  1
  O  O16  1  0.42550100  0.98309500  0.24676800  1
  O  O17  1  0.07438600  0.48313200  0.25322800  1
  O  O18  1  0.57433000  0.01680700  0.75331800  1
  O  O19  1  0.92557400  0.51682600  0.74668200  1
