# generated using pymatgen
data_Ca3BiAu14
_symmetry_space_group_name_H-M   'P 1'
_cell_length_a   5.55224370
_cell_length_b   5.55224370
_cell_length_c   14.13212700
_cell_angle_alpha   90.00000000
_cell_angle_beta   90.00000000
_cell_angle_gamma   119.99999637
_symmetry_Int_Tables_number   1
_chemical_formula_structural   Ca3BiAu14
_chemical_formula_sum   'Ca3 Bi1 Au14'
_cell_volume   377.28993395
_cell_formula_units_Z   1
loop_
 _symmetry_equiv_pos_site_id
 _symmetry_equiv_pos_as_xyz
  1  'x, y, z'
loop_
 _atom_site_type_symbol
 _atom_site_label
 _atom_site_symmetry_multiplicity
 _atom_site_fract_x
 _atom_site_fract_y
 _atom_site_fract_z
 _atom_site_occupancy
  Ca  Ca0  1  0.33333300  0.66666700  0.66692100  1
  Ca  Ca1  1  0.00000000  0.00000000  0.99444900  1
  Ca  Ca2  1  0.66666700  0.33333300  0.34016600  1
  Bi  Bi3  1  0.00000000  0.00000000  0.25017500  1
  Au  Au4  1  0.66666700  0.33333300  0.58385700  1
  Au  Au5  1  0.33333300  0.66666700  0.91339300  1
  Au  Au6  1  0.49922600  0.50077400  0.11945800  1
  Au  Au7  1  0.16735800  0.83264200  0.46415800  1
  Au  Au8  1  0.83321100  0.16678900  0.79167300  1
  Au  Au9  1  0.49922600  0.99845200  0.11945800  1
  Au  Au10  1  0.16735800  0.33471600  0.46415800  1
  Au  Au11  1  0.83321100  0.66642200  0.79167300  1
  Au  Au12  1  0.33333300  0.66666700  0.29298100  1
  Au  Au13  1  0.00000000  0.00000000  0.62693500  1
  Au  Au14  1  0.66666700  0.33333300  0.95526100  1
  Au  Au15  1  0.00154800  0.50077400  0.11945800  1
  Au  Au16  1  0.66528400  0.83264200  0.46415800  1
  Au  Au17  1  0.33357800  0.16678900  0.79167300  1
