# generated using pymatgen
data_Ca3Al4SiO12
_symmetry_space_group_name_H-M   'P 1'
_cell_length_a   5.48433600
_cell_length_b   5.51364927
_cell_length_c   9.78686499
_cell_angle_alpha   86.56705823
_cell_angle_beta   98.87236557
_cell_angle_gamma   119.60336777
_symmetry_Int_Tables_number   1
_chemical_formula_structural   Ca3Al4SiO12
_chemical_formula_sum   'Ca3 Al4 Si1 O12'
_cell_volume   254.18686387
_cell_formula_units_Z   1
loop_
 _symmetry_equiv_pos_site_id
 _symmetry_equiv_pos_as_xyz
  1  'x, y, z'
loop_
 _atom_site_type_symbol
 _atom_site_label
 _atom_site_symmetry_multiplicity
 _atom_site_fract_x
 _atom_site_fract_y
 _atom_site_fract_z
 _atom_site_occupancy
  Ca  Ca0  1  0.83330500  0.66454400  0.50341000  1
  Ca  Ca1  1  0.16870900  0.33566800  0.50085700  1
  Ca  Ca2  1  0.00245100  0.00530900  0.97691500  1
  Al  Al3  1  0.49146100  0.99381100  0.50429800  1
  Al  Al4  1  0.39140500  0.67665000  0.20191700  1
  Al  Al5  1  0.28230000  0.67218900  0.80212200  1
  Al  Al6  1  0.60994300  0.32350800  0.80332500  1
  Si  Si7  1  0.71770100  0.32380600  0.20236800  1
  O  O8  1  0.75589300  0.29747200  0.37285400  1
  O  O9  1  0.45816800  0.71709500  0.38373800  1
  O  O10  1  0.24686200  0.70746400  0.61956500  1
  O  O11  1  0.54276100  0.28544300  0.61840200  1
  O  O12  1  0.02777900  0.41047800  0.15113500  1
  O  O13  1  0.62997500  0.56853300  0.15497900  1
  O  O14  1  0.95624500  0.61590600  0.85269400  1
  O  O15  1  0.33801700  0.38178400  0.85072600  1
  O  O16  1  0.18973800  0.00088500  0.39417700  1
  O  O17  1  0.81074400  0.00558000  0.60413200  1
  O  O18  1  0.46411200  0.01494900  0.13532400  1
  O  O19  1  0.58243100  0.99892600  0.86706500  1
