# generated using pymatgen
data_BaSn3S4
_symmetry_space_group_name_H-M   'P 1'
_cell_length_a   4.20507100
_cell_length_b   4.44900742
_cell_length_c   11.74599000
_cell_angle_alpha   90.49649717
_cell_angle_beta   90.00000000
_cell_angle_gamma   90.00000000
_symmetry_Int_Tables_number   1
_chemical_formula_structural   BaSn3S4
_chemical_formula_sum   'Ba1 Sn3 S4'
_cell_volume   219.74033567
_cell_formula_units_Z   1
loop_
 _symmetry_equiv_pos_site_id
 _symmetry_equiv_pos_as_xyz
  1  'x, y, z'
loop_
 _atom_site_type_symbol
 _atom_site_label
 _atom_site_symmetry_multiplicity
 _atom_site_fract_x
 _atom_site_fract_y
 _atom_site_fract_z
 _atom_site_occupancy
  Ba  Ba0  1  0.25000000  0.41811500  0.61264800  1
  Sn  Sn1  1  0.25000000  0.14951800  0.10585400  1
  Sn  Sn2  1  0.75000000  0.63280200  0.35862800  1
  Sn  Sn3  1  0.75000000  0.87009200  0.87998700  1
  S  S4  1  0.25000000  0.48191200  0.88225600  1
  S  S5  1  0.25000000  0.00887000  0.35101400  1
  S  S6  1  0.75000000  0.51747000  0.14763600  1
  S  S7  1  0.75000000  0.92122000  0.66197800  1
