# generated using pymatgen
data_Ca4MgCo(AsO5)4
_symmetry_space_group_name_H-M   'P 1'
_cell_length_a   5.54309526
_cell_length_b   6.16386625
_cell_length_c   12.56496729
_cell_angle_alpha   87.36137338
_cell_angle_beta   92.35144783
_cell_angle_gamma   109.55824602
_symmetry_Int_Tables_number   1
_chemical_formula_structural   Ca4MgCo(AsO5)4
_chemical_formula_sum   'Ca4 Mg1 Co1 As4 O20'
_cell_volume   403.95712800
_cell_formula_units_Z   1
loop_
 _symmetry_equiv_pos_site_id
 _symmetry_equiv_pos_as_xyz
  1  'x, y, z'
loop_
 _atom_site_type_symbol
 _atom_site_label
 _atom_site_symmetry_multiplicity
 _atom_site_fract_x
 _atom_site_fract_y
 _atom_site_fract_z
 _atom_site_occupancy
  Ca  Ca0  1  0.24748400  0.43462500  0.62567400  1
  Ca  Ca1  1  0.75251600  0.56537500  0.37432600  1
  Ca  Ca2  1  0.76155100  0.43788000  0.87442000  1
  Ca  Ca3  1  0.23844900  0.56212000  0.12558000  1
  Mg  Mg4  1  0.50000000  0.00000000  0.50000000  1
  Co  Co5  1  0.00000000  0.00000000  0.00000000  1
  As  As6  1  0.93701000  0.78122400  0.61825400  1
  As  As7  1  0.06299000  0.21877600  0.38174600  1
  As  As8  1  0.44422700  0.79335200  0.87424200  1
  As  As9  1  0.55577300  0.20664800  0.12575800  1
  O  O10  1  0.64233300  0.72998300  0.55320200  1
  O  O11  1  0.35766700  0.27001700  0.44679800  1
  O  O12  1  0.15990400  0.72224800  0.94145100  1
  O  O13  1  0.84009600  0.27775200  0.05854900  1
  O  O14  1  0.93602400  0.56630800  0.70933100  1
  O  O15  1  0.06397600  0.43369200  0.29066900  1
  O  O16  1  0.44892500  0.58870800  0.78870700  1
  O  O17  1  0.55107500  0.41129200  0.21129300  1
  O  O18  1  0.46485000  0.15488300  0.64644100  1
  O  O19  1  0.53515000  0.84511700  0.35355900  1
  O  O20  1  0.98643500  0.14348900  0.88161900  1
  O  O21  1  0.01356500  0.85651100  0.11838100  1
  O  O22  1  0.04175300  0.04800100  0.67329500  1
  O  O23  1  0.95824700  0.95199900  0.32670500  1
  O  O24  1  0.52658100  0.06922500  0.82159900  1
  O  O25  1  0.47341900  0.93077500  0.17840100  1
  O  O26  1  0.14179900  0.75378900  0.52286300  1
  O  O27  1  0.85820100  0.24621100  0.47713700  1
  O  O28  1  0.66431400  0.76216900  0.97430700  1
  O  O29  1  0.33568600  0.23783100  0.02569300  1
