# generated using pymatgen
data_BaSr11Al4(O4F)4
_symmetry_space_group_name_H-M   'P 1'
_cell_length_a   6.87853100
_cell_length_b   6.87853100
_cell_length_c   11.29261300
_cell_angle_alpha   90.00000000
_cell_angle_beta   90.00000000
_cell_angle_gamma   90.00000000
_symmetry_Int_Tables_number   1
_chemical_formula_structural   BaSr11Al4(O4F)4
_chemical_formula_sum   'Ba1 Sr11 Al4 O16 F4'
_cell_volume   534.30082260
_cell_formula_units_Z   1
loop_
 _symmetry_equiv_pos_site_id
 _symmetry_equiv_pos_as_xyz
  1  'x, y, z'
loop_
 _atom_site_type_symbol
 _atom_site_label
 _atom_site_symmetry_multiplicity
 _atom_site_fract_x
 _atom_site_fract_y
 _atom_site_fract_z
 _atom_site_occupancy
  Ba  Ba0  1  0.50000000  0.50000000  0.00000000  1
  Sr  Sr1  1  0.66952500  0.16800900  0.74922500  1
  Sr  Sr2  1  0.16800900  0.66952500  0.25077500  1
  Sr  Sr3  1  0.83199100  0.33047500  0.25077500  1
  Sr  Sr4  1  0.33047500  0.83199100  0.74922500  1
  Sr  Sr5  1  0.83199100  0.66952500  0.74922500  1
  Sr  Sr6  1  0.33047500  0.16800900  0.25077500  1
  Sr  Sr7  1  0.66952500  0.83199100  0.25077500  1
  Sr  Sr8  1  0.16800900  0.33047500  0.74922500  1
  Sr  Sr9  1  0.00000000  0.00000000  0.50000000  1
  Sr  Sr10  1  0.00000000  0.00000000  0.00000000  1
  Sr  Sr11  1  0.50000000  0.50000000  0.50000000  1
  Al  Al12  1  0.00000000  0.50000000  0.00000000  1
  Al  Al13  1  0.50000000  0.00000000  0.50000000  1
  Al  Al14  1  0.50000000  0.00000000  0.00000000  1
  Al  Al15  1  0.00000000  0.50000000  0.50000000  1
  O  O16  1  0.64431700  0.13734700  0.10291500  1
  O  O17  1  0.14160900  0.64211600  0.60169500  1
  O  O18  1  0.35568300  0.86265300  0.10291500  1
  O  O19  1  0.85839100  0.35788400  0.60169500  1
  O  O20  1  0.86265300  0.64431700  0.10291500  1
  O  O21  1  0.35788400  0.14160900  0.60169500  1
  O  O22  1  0.13734700  0.35568300  0.10291500  1
  O  O23  1  0.64211600  0.85839100  0.60169500  1
  O  O24  1  0.86265300  0.35568300  0.89708500  1
  O  O25  1  0.35788400  0.85839100  0.39830500  1
  O  O26  1  0.13734700  0.64431700  0.89708500  1
  O  O27  1  0.64211600  0.14160900  0.39830500  1
  O  O28  1  0.64431700  0.86265300  0.89708500  1
  O  O29  1  0.14160900  0.35788400  0.39830500  1
  O  O30  1  0.35568300  0.13734700  0.89708500  1
  O  O31  1  0.85839100  0.64211600  0.39830500  1
  F  F32  1  0.50000000  0.50000000  0.25438700  1
  F  F33  1  0.00000000  0.00000000  0.74940700  1
  F  F34  1  0.00000000  0.00000000  0.25059300  1
  F  F35  1  0.50000000  0.50000000  0.74561300  1
