# generated using pymatgen
data_Ca8Al11Fe(Si3O13)4
_symmetry_space_group_name_H-M   'P 1'
_cell_length_a   5.65262700
_cell_length_b   10.33264400
_cell_length_c   16.30706196
_cell_angle_alpha   81.30957404
_cell_angle_beta   90.00000000
_cell_angle_gamma   90.00000000
_symmetry_Int_Tables_number   1
_chemical_formula_structural   Ca8Al11Fe(Si3O13)4
_chemical_formula_sum   'Ca8 Al11 Fe1 Si12 O52'
_cell_volume   941.50493935
_cell_formula_units_Z   1
loop_
 _symmetry_equiv_pos_site_id
 _symmetry_equiv_pos_as_xyz
  1  'x, y, z'
loop_
 _atom_site_type_symbol
 _atom_site_label
 _atom_site_symmetry_multiplicity
 _atom_site_fract_x
 _atom_site_fract_y
 _atom_site_fract_z
 _atom_site_occupancy
  Ca  Ca0  1  0.50000000  0.62325000  0.80169100  1
  Ca  Ca1  1  0.50000000  0.12277700  0.30110800  1
  Ca  Ca2  1  0.00000000  0.87660200  0.69948300  1
  Ca  Ca3  1  0.00000000  0.37744600  0.19855100  1
  Ca  Ca4  1  0.50000000  0.27185100  0.88189500  1
  Ca  Ca5  1  0.50000000  0.77303800  0.38150000  1
  Ca  Ca6  1  0.00000000  0.22563300  0.61777300  1
  Ca  Ca7  1  0.00000000  0.72738200  0.11825500  1
  Al  Al8  1  0.75009400  0.99989700  0.00008800  1
  Al  Al9  1  0.74910900  0.49936700  0.49836900  1
  Al  Al10  1  0.24990600  0.99989700  0.00008800  1
  Al  Al11  1  0.25089100  0.49936700  0.49836900  1
  Al  Al12  1  0.74943800  0.49988500  0.00074200  1
  Al  Al13  1  0.74982600  0.00087300  0.49958500  1
  Al  Al14  1  0.25056200  0.49988500  0.00074200  1
  Al  Al15  1  0.25017400  0.00087300  0.49958500  1
  Al  Al16  1  0.00000000  0.08632800  0.14290900  1
  Al  Al17  1  0.50000000  0.91368000  0.85713000  1
  Al  Al18  1  0.50000000  0.41337800  0.35640400  1
  Fe  Fe19  1  0.00000000  0.58114500  0.64317300  1
  Si  Si20  1  0.50000000  0.37798100  0.66904700  1
  Si  Si21  1  0.50000000  0.87908600  0.16954800  1
  Si  Si22  1  0.00000000  0.12076700  0.83055400  1
  Si  Si23  1  0.00000000  0.62091600  0.33043200  1
  Si  Si24  1  0.00000000  0.43350700  0.84111200  1
  Si  Si25  1  0.00000000  0.93497100  0.33749200  1
  Si  Si26  1  0.50000000  0.06419800  0.66235900  1
  Si  Si27  1  0.50000000  0.56486200  0.16248500  1
  Si  Si28  1  0.50000000  0.72699000  0.59082600  1
  Si  Si29  1  0.50000000  0.22408900  0.09176000  1
  Si  Si30  1  0.00000000  0.77562100  0.90845000  1
  Si  Si31  1  0.00000000  0.27562300  0.40804500  1
  O  O32  1  0.72993900  0.70585600  0.65343300  1
  O  O33  1  0.73559700  0.19974400  0.15217700  1
  O  O34  1  0.23565200  0.80018900  0.84808400  1
  O  O35  1  0.23534100  0.29996900  0.34762900  1
  O  O36  1  0.76434800  0.80018900  0.84808400  1
  O  O37  1  0.76465900  0.29996900  0.34762900  1
  O  O38  1  0.27006100  0.70585600  0.65343300  1
  O  O39  1  0.26440300  0.19974400  0.15217700  1
  O  O40  1  0.76161600  0.44616700  0.89685700  1
  O  O41  1  0.76422800  0.94899900  0.39468500  1
  O  O42  1  0.26383500  0.05034100  0.60526900  1
  O  O43  1  0.26357400  0.55105600  0.10548200  1
  O  O44  1  0.73616500  0.05034100  0.60526900  1
  O  O45  1  0.73642600  0.55105600  0.10548200  1
  O  O46  1  0.23838400  0.44616700  0.89685700  1
  O  O47  1  0.23577200  0.94899900  0.39468500  1
  O  O48  1  0.50000000  0.42095700  0.75899200  1
  O  O49  1  0.50000000  0.92014400  0.25970800  1
  O  O50  1  0.00000000  0.08018800  0.74032300  1
  O  O51  1  0.00000000  0.57982000  0.23995100  1
  O  O52  1  0.00000000  0.60108300  0.52355400  1
  O  O53  1  0.00000000  0.09872800  0.02951800  1
  O  O54  1  0.50000000  0.90124500  0.97055000  1
  O  O55  1  0.50000000  0.40077900  0.46967600  1
  O  O56  1  0.50000000  0.62343600  0.52075600  1
  O  O57  1  0.50000000  0.12334800  0.02017300  1
  O  O58  1  0.00000000  0.87656600  0.97990600  1
  O  O59  1  0.00000000  0.37622700  0.47951400  1
  O  O60  1  0.50000000  0.87041900  0.53028700  1
  O  O61  1  0.50000000  0.36925900  0.03299800  1
  O  O62  1  0.00000000  0.63050300  0.96774900  1
  O  O63  1  0.00000000  0.13102000  0.46780000  1
  O  O64  1  0.00000000  0.28397000  0.81782600  1
  O  O65  1  0.00000000  0.78366400  0.31777700  1
  O  O66  1  0.50000000  0.21557600  0.68253400  1
  O  O67  1  0.50000000  0.71624300  0.18238500  1
  O  O68  1  0.00000000  0.54548000  0.76160600  1
  O  O69  1  0.00000000  0.04123700  0.25453600  1
  O  O70  1  0.50000000  0.95884500  0.74566800  1
  O  O71  1  0.50000000  0.45855700  0.24503700  1
  O  O72  1  0.00000000  0.89475200  0.54003300  1
  O  O73  1  0.00000000  0.39443200  0.04139100  1
  O  O74  1  0.50000000  0.60579500  0.95930900  1
  O  O75  1  0.50000000  0.10661000  0.45858000  1
  O  O76  1  0.74452400  0.42434700  0.61599000  1
  O  O77  1  0.74595900  0.92619300  0.11771400  1
  O  O78  1  0.24592700  0.07372100  0.88239000  1
  O  O79  1  0.24696900  0.57339300  0.38144700  1
  O  O80  1  0.75407300  0.07372100  0.88239000  1
  O  O81  1  0.75303100  0.57339300  0.38144700  1
  O  O82  1  0.25547600  0.42434700  0.61599000  1
  O  O83  1  0.25404100  0.92619300  0.11771400  1
