# generated using pymatgen
data_BaV2(AsO5)2
_symmetry_space_group_name_H-M   'P 1'
_cell_length_a   13.41195211
_cell_length_b   13.41195211
_cell_length_c   18.64520774
_cell_angle_alpha   46.10046965
_cell_angle_beta   46.10046965
_cell_angle_gamma   20.35819227
_symmetry_Int_Tables_number   1
_chemical_formula_structural   BaV2(AsO5)2
_chemical_formula_sum   'Ba4 V8 As8 O40'
_cell_volume   828.08978904
_cell_formula_units_Z   4
loop_
 _symmetry_equiv_pos_site_id
 _symmetry_equiv_pos_as_xyz
  1  'x, y, z'
loop_
 _atom_site_type_symbol
 _atom_site_label
 _atom_site_symmetry_multiplicity
 _atom_site_fract_x
 _atom_site_fract_y
 _atom_site_fract_z
 _atom_site_occupancy
  Ba  Ba0  1  0.12523400  0.87514200  0.74928000  1
  Ba  Ba1  1  0.87514200  0.12523400  0.24928000  1
  Ba  Ba2  1  0.88297100  0.60807600  0.74979800  1
  Ba  Ba3  1  0.60807600  0.88297100  0.24979800  1
  V  V4  1  0.90087600  0.44967200  0.52388400  1
  V  V5  1  0.54988800  0.10155800  0.97498100  1
  V  V6  1  0.52484200  0.57496800  0.37436800  1
  V  V7  1  0.42317300  0.47273200  0.12666200  1
  V  V8  1  0.10155800  0.54988800  0.47498100  1
  V  V9  1  0.44967200  0.90087600  0.02388400  1
  V  V10  1  0.47273200  0.42317300  0.62666200  1
  V  V11  1  0.57496800  0.52484200  0.87436800  1
  As  As12  1  0.03563000  0.57980000  0.86472300  1
  As  As13  1  0.41608300  0.97031400  0.63648800  1
  As  As14  1  0.05867700  0.09745500  0.97985800  1
  As  As15  1  0.89574700  0.94939900  0.51993200  1
  As  As16  1  0.97031400  0.41608300  0.13648800  1
  As  As17  1  0.57980000  0.03563000  0.36472300  1
  As  As18  1  0.94939900  0.89574700  0.01993200  1
  As  As19  1  0.09745500  0.05867700  0.47985800  1
  O  O20  1  0.16798500  0.53697800  0.74232800  1
  O  O21  1  0.47427200  0.82199600  0.75806800  1
  O  O22  1  0.22186700  0.09038600  0.94579200  1
  O  O23  1  0.91307000  0.78092800  0.54791700  1
  O  O24  1  0.82199600  0.47427200  0.25806800  1
  O  O25  1  0.53697800  0.16798500  0.24232800  1
  O  O26  1  0.78092800  0.91307000  0.04791700  1
  O  O27  1  0.09038600  0.22186700  0.44579200  1
  O  O28  1  0.24090500  0.31113500  0.43698200  1
  O  O29  1  0.69376000  0.75536600  0.06378100  1
  O  O30  1  0.75064600  0.32299400  0.48918600  1
  O  O31  1  0.67633700  0.24728600  0.01155100  1
  O  O32  1  0.75536600  0.69376000  0.56378100  1
  O  O33  1  0.31113500  0.24090500  0.93698200  1
  O  O34  1  0.24728600  0.67633700  0.51155100  1
  O  O35  1  0.32299400  0.75064600  0.98918600  1
  O  O36  1  0.76848500  0.70626100  0.90110300  1
  O  O37  1  0.28355700  0.24089700  0.60235000  1
  O  O38  1  0.89155100  0.32750400  0.87711200  1
  O  O39  1  0.66908200  0.10375100  0.62614000  1
  O  O40  1  0.24089700  0.28355700  0.10235000  1
  O  O41  1  0.70626100  0.76848500  0.40110300  1
  O  O42  1  0.10375100  0.66908200  0.12614000  1
  O  O43  1  0.32750400  0.89155100  0.37711200  1
  O  O44  1  0.90743500  0.80924700  0.87494300  1
  O  O45  1  0.19092200  0.09334100  0.62571800  1
  O  O46  1  0.81716600  0.21693600  0.09087500  1
  O  O47  1  0.78254100  0.18471000  0.40787800  1
  O  O48  1  0.09334100  0.19092200  0.12571800  1
  O  O49  1  0.80924700  0.90743500  0.37494300  1
  O  O50  1  0.18471000  0.78254100  0.90787800  1
  O  O51  1  0.21693600  0.81716600  0.59087500  1
  O  O52  1  0.63191900  0.27832000  0.69831800  1
  O  O53  1  0.72375800  0.36504900  0.80117600  1
  O  O54  1  0.52429100  0.66946900  0.10786100  1
  O  O55  1  0.33517700  0.47228500  0.39054700  1
  O  O56  1  0.36504900  0.72375800  0.30117600  1
  O  O57  1  0.27832000  0.63191900  0.19831800  1
  O  O58  1  0.47228500  0.33517700  0.89054700  1
  O  O59  1  0.66946900  0.52429100  0.60786100  1
