# generated using pymatgen
data_Ca3LaMn2(IrO6)2
_symmetry_space_group_name_H-M   'P 1'
_cell_length_a   5.53106377
_cell_length_b   5.68850855
_cell_length_c   7.86046635
_cell_angle_alpha   89.87341515
_cell_angle_beta   89.93221965
_cell_angle_gamma   89.92974170
_symmetry_Int_Tables_number   1
_chemical_formula_structural   Ca3LaMn2(IrO6)2
_chemical_formula_sum   'Ca3 La1 Mn2 Ir2 O12'
_cell_volume   247.31684914
_cell_formula_units_Z   1
loop_
 _symmetry_equiv_pos_site_id
 _symmetry_equiv_pos_as_xyz
  1  'x, y, z'
loop_
 _atom_site_type_symbol
 _atom_site_label
 _atom_site_symmetry_multiplicity
 _atom_site_fract_x
 _atom_site_fract_y
 _atom_site_fract_z
 _atom_site_occupancy
  Ca  Ca0  1  0.48967800  0.44714900  0.25041500  1
  Ca  Ca1  1  0.00887400  0.94406000  0.25053100  1
  Ca  Ca2  1  0.51121300  0.55619500  0.74949300  1
  La  La3  1  0.98926400  0.05214300  0.75069800  1
  Mn  Mn4  1  0.00142400  0.50227700  0.00607100  1
  Mn  Mn5  1  0.49804700  0.00024000  0.49320400  1
  Ir  Ir6  1  0.99996000  0.50074300  0.49641800  1
  Ir  Ir7  1  0.49921500  0.99989200  0.00417500  1
  O  O8  1  0.89940800  0.53402200  0.25806400  1
  O  O9  1  0.59847900  0.03989800  0.24288500  1
  O  O10  1  0.09681000  0.47669600  0.74259900  1
  O  O11  1  0.41377300  0.96770600  0.75590300  1
  O  O12  1  0.31626200  0.70772700  0.05161200  1
  O  O13  1  0.18098600  0.20299300  0.45143200  1
  O  O14  1  0.70961400  0.30676700  0.55301100  1
  O  O15  1  0.79372400  0.80485700  0.95554000  1
  O  O16  1  0.68920000  0.28780500  0.94523500  1
  O  O17  1  0.81014800  0.79142500  0.54655800  1
  O  O18  1  0.29423000  0.68974500  0.45046700  1
  O  O19  1  0.19968900  0.18766100  0.04568600  1
