# generated using pymatgen
data_Ca2MnFeSi4(HO3)5
_symmetry_space_group_name_H-M   'P 1'
_cell_length_a   6.64723700
_cell_length_b   10.06812027
_cell_length_c   10.61528087
_cell_angle_alpha   66.14002634
_cell_angle_beta   74.09714929
_cell_angle_gamma   78.66829096
_symmetry_Int_Tables_number   1
_chemical_formula_structural   Ca2MnFeSi4(HO3)5
_chemical_formula_sum   'Ca4 Mn2 Fe2 Si8 H10 O30'
_cell_volume   621.87797929
_cell_formula_units_Z   2
loop_
 _symmetry_equiv_pos_site_id
 _symmetry_equiv_pos_as_xyz
  1  'x, y, z'
loop_
 _atom_site_type_symbol
 _atom_site_label
 _atom_site_symmetry_multiplicity
 _atom_site_fract_x
 _atom_site_fract_y
 _atom_site_fract_z
 _atom_site_occupancy
  Ca  Ca0  1  0.41023600  0.19647400  0.46777200  1
  Ca  Ca1  1  0.58976400  0.80352600  0.53222800  1
  Ca  Ca2  1  0.35696500  0.61812800  0.36091600  1
  Ca  Ca3  1  0.64303500  0.38187200  0.63908400  1
  Mn  Mn4  1  0.27758400  0.00892800  0.29281900  1
  Mn  Mn5  1  0.72241600  0.99107200  0.70718100  1
  Fe  Fe6  1  0.87729200  0.12371500  0.89637800  1
  Fe  Fe7  1  0.12270800  0.87628500  0.10362200  1
  Si  Si8  1  0.34715100  0.18555000  0.92329000  1
  Si  Si9  1  0.65284900  0.81445000  0.07671000  1
  Si  Si10  1  0.13850000  0.40790200  0.69136200  1
  Si  Si11  1  0.86150000  0.59209800  0.30863800  1
  Si  Si12  1  0.21019400  0.89697400  0.77863400  1
  Si  Si13  1  0.78980600  0.10302600  0.22136600  1
  Si  Si14  1  0.08446400  0.75450800  0.60766300  1
  Si  Si15  1  0.91553600  0.24549200  0.39233700  1
  H  H16  1  0.56671900  0.42579400  0.19104700  1
  H  H17  1  0.43328100  0.57420600  0.80895300  1
  H  H18  1  0.33513000  0.45079900  0.18087000  1
  H  H19  1  0.66487000  0.54920100  0.81913000  1
  H  H20  1  0.50914200  0.20416000  0.07089800  1
  H  H21  1  0.49085800  0.79584000  0.92910200  1
  H  H22  1  0.19898100  0.45899700  0.98738900  1
  H  H23  1  0.80101900  0.54100300  0.01261100  1
  H  H24  1  0.21421300  0.61812300  0.98753800  1
  H  H25  1  0.78578700  0.38187700  0.01246200  1
  O  O26  1  0.27220700  0.79558300  0.46493600  1
  O  O27  1  0.72779300  0.20441700  0.53506400  1
  O  O28  1  0.31719500  0.39269100  0.55646100  1
  O  O29  1  0.68280500  0.60730900  0.44353900  1
  O  O30  1  0.35795300  0.19041800  0.07541900  1
  O  O31  1  0.64204700  0.80958200  0.92458100  1
  O  O32  1  0.93711700  0.31568200  0.74118000  1
  O  O33  1  0.06288300  0.68431800  0.25882000  1
  O  O34  1  0.42525700  0.42779000  0.25076100  1
  O  O35  1  0.57474300  0.57221000  0.74923900  1
  O  O36  1  0.00253200  0.98833000  0.23145600  1
  O  O37  1  0.99746800  0.01167000  0.76854400  1
  O  O38  1  0.26847900  0.35454600  0.82186500  1
  O  O39  1  0.73152100  0.64545400  0.17813500  1
  O  O40  1  0.42071300  0.97111400  0.66774800  1
  O  O41  1  0.57928700  0.02888600  0.33225200  1
  O  O42  1  0.05345700  0.58041800  0.65389400  1
  O  O43  1  0.94654300  0.41958200  0.34610600  1
  O  O44  1  0.18085500  0.76267700  0.73240600  1
  O  O45  1  0.81914500  0.23732300  0.26759400  1
  O  O46  1  0.58837700  0.14935500  0.84304000  1
  O  O47  1  0.41162300  0.85064500  0.15696000  1
  O  O48  1  0.86155700  0.84979500  0.59497800  1
  O  O49  1  0.13844300  0.15020500  0.40502200  1
  O  O50  1  0.17250100  0.08160900  0.94461500  1
  O  O51  1  0.82749900  0.91839100  0.05538500  1
  O  O52  1  0.24518500  0.80684000  0.94190000  1
  O  O53  1  0.75481500  0.19316000  0.05810000  1
  O  O54  1  0.26121000  0.51241900  0.02375600  1
  O  O55  1  0.73879000  0.48758100  0.97624400  1
