# generated using pymatgen
data_Ca4Fe5(Si3O14)2
_symmetry_space_group_name_H-M   'P 1'
_cell_length_a   6.03036814
_cell_length_b   8.88621443
_cell_length_c   10.35685334
_cell_angle_alpha   94.98502709
_cell_angle_beta   73.90324722
_cell_angle_gamma   88.49979991
_symmetry_Int_Tables_number   1
_chemical_formula_structural   Ca4Fe5(Si3O14)2
_chemical_formula_sum   'Ca4 Fe5 Si6 O28'
_cell_volume   530.48534228
_cell_formula_units_Z   1
loop_
 _symmetry_equiv_pos_site_id
 _symmetry_equiv_pos_as_xyz
  1  'x, y, z'
loop_
 _atom_site_type_symbol
 _atom_site_label
 _atom_site_symmetry_multiplicity
 _atom_site_fract_x
 _atom_site_fract_y
 _atom_site_fract_z
 _atom_site_occupancy
  Ca  Ca0  1  0.84956500  0.74042200  0.32450900  1
  Ca  Ca1  1  0.15043500  0.25957800  0.67549100  1
  Ca  Ca2  1  0.66211100  0.80816200  0.68643300  1
  Ca  Ca3  1  0.33788900  0.19183800  0.31356700  1
  Fe  Fe4  1  0.74274600  0.74512900  0.01112500  1
  Fe  Fe5  1  0.75003700  0.25602200  0.98659500  1
  Fe  Fe6  1  0.25725400  0.25487100  0.98887500  1
  Fe  Fe7  1  0.24996300  0.74397800  0.01340500  1
  Fe  Fe8  1  0.50000000  0.50000000  0.50000000  1
  Si  Si9  1  0.09297000  0.94601900  0.81615600  1
  Si  Si10  1  0.90703000  0.05398100  0.18384400  1
  Si  Si11  1  0.41510900  0.53524500  0.19755900  1
  Si  Si12  1  0.58489100  0.46475500  0.80244100  1
  Si  Si13  1  0.24838100  0.84565300  0.50727700  1
  Si  Si14  1  0.75161900  0.15434700  0.49272300  1
  O  O15  1  0.54774200  0.62053400  0.90773200  1
  O  O16  1  0.45225800  0.37946600  0.09226800  1
  O  O17  1  0.03001400  0.62916300  0.95154600  1
  O  O18  1  0.96998600  0.37083700  0.04845400  1
  O  O19  1  0.48079700  0.73991100  0.50288200  1
  O  O20  1  0.98847900  0.23631600  0.49516400  1
  O  O21  1  0.51920300  0.26008900  0.49711800  1
  O  O22  1  0.01152100  0.76368400  0.50483600  1
  O  O23  1  0.31282500  0.95001000  0.38194400  1
  O  O24  1  0.68717500  0.04999000  0.61805600  1
  O  O25  1  0.46418400  0.85846500  0.06953000  1
  O  O26  1  0.53581600  0.14153500  0.93047000  1
  O  O27  1  0.30021800  0.85407500  0.85380400  1
  O  O28  1  0.14690800  0.14152500  0.14769100  1
  O  O29  1  0.69978200  0.14592500  0.14619600  1
  O  O30  1  0.85309200  0.85847500  0.85230900  1
  O  O31  1  0.94321400  0.87618200  0.11670500  1
  O  O32  1  0.05678600  0.12381800  0.88329500  1
  O  O33  1  0.64657600  0.63563000  0.16986100  1
  O  O34  1  0.80244800  0.36459100  0.82457000  1
  O  O35  1  0.35342400  0.36437000  0.83013900  1
  O  O36  1  0.19755200  0.63540900  0.17543000  1
  O  O37  1  0.22109400  0.51086200  0.62531200  1
  O  O38  1  0.77890600  0.48913800  0.37468800  1
  O  O39  1  0.63721900  0.52680900  0.65187200  1
  O  O40  1  0.36278100  0.47319100  0.34812800  1
  O  O41  1  0.18401900  0.96381000  0.65206200  1
  O  O42  1  0.81598100  0.03619000  0.34793800  1
