# generated using pymatgen
data_Ca6Al2Fe4O15
_symmetry_space_group_name_H-M   'P 1'
_cell_length_a   5.44276900
_cell_length_b   15.69690819
_cell_length_c   17.13842704
_cell_angle_alpha   68.65737521
_cell_angle_beta   89.97560193
_cell_angle_gamma   89.99107178
_symmetry_Int_Tables_number   1
_chemical_formula_structural   Ca6Al2Fe4O15
_chemical_formula_sum   'Ca24 Al8 Fe16 O60'
_cell_volume   1363.80048824
_cell_formula_units_Z   4
loop_
 _symmetry_equiv_pos_site_id
 _symmetry_equiv_pos_as_xyz
  1  'x, y, z'
loop_
 _atom_site_type_symbol
 _atom_site_label
 _atom_site_symmetry_multiplicity
 _atom_site_fract_x
 _atom_site_fract_y
 _atom_site_fract_z
 _atom_site_occupancy
  Ca  Ca0  1  0.98497700  0.89209100  0.21357700  1
  Ca  Ca1  1  0.98504400  0.89356900  0.54423900  1
  Ca  Ca2  1  0.98371600  0.89313000  0.88094100  1
  Ca  Ca3  1  0.48630500  0.60738500  0.45431900  1
  Ca  Ca4  1  0.48356100  0.60569700  0.78787500  1
  Ca  Ca5  1  0.48658300  0.60711700  0.12148100  1
  Ca  Ca6  1  0.01118600  0.38988600  0.35887300  1
  Ca  Ca7  1  0.01144000  0.38889600  0.69224300  1
  Ca  Ca8  1  0.01156400  0.38967500  0.02628100  1
  Ca  Ca9  1  0.51199900  0.11024400  0.30720000  1
  Ca  Ca10  1  0.51152100  0.11103200  0.64072500  1
  Ca  Ca11  1  0.51206900  0.11021800  0.97417500  1
  Ca  Ca12  1  0.01140200  0.11112500  0.45146300  1
  Ca  Ca13  1  0.01147600  0.11018600  0.78607700  1
  Ca  Ca14  1  0.01127200  0.11023000  0.11884200  1
  Ca  Ca15  1  0.51191500  0.38965300  0.21436600  1
  Ca  Ca16  1  0.51214000  0.38985800  0.54733500  1
  Ca  Ca17  1  0.51150800  0.38898800  0.88138700  1
  Ca  Ca18  1  0.98498200  0.60792800  0.30827500  1
  Ca  Ca19  1  0.98503100  0.60643800  0.63997000  1
  Ca  Ca20  1  0.98370800  0.60683700  0.97637200  1
  Ca  Ca21  1  0.48627600  0.89265700  0.35920600  1
  Ca  Ca22  1  0.48358800  0.89430000  0.69168100  1
  Ca  Ca23  1  0.48657100  0.89287000  0.02623400  1
  Al  Al24  1  0.94357400  0.74999900  0.43979500  1
  Al  Al25  1  0.94394900  0.75002900  0.10660100  1
  Al  Al26  1  0.55512700  0.24997000  0.10939400  1
  Al  Al27  1  0.55513000  0.24996700  0.77593900  1
  Al  Al28  1  0.55505200  0.25005600  0.44250600  1
  Al  Al29  1  0.05462700  0.25000100  0.22440900  1
  Al  Al30  1  0.05472600  0.24978900  0.89113700  1
  Al  Al31  1  0.05476100  0.25020800  0.55749800  1
  Fe  Fe32  1  0.50068600  0.00466000  0.49869900  1
  Fe  Fe33  1  0.50108500  0.00393800  0.83242000  1
  Fe  Fe34  1  0.50060400  0.00369100  0.16584100  1
  Fe  Fe35  1  0.00082600  0.49865100  0.50031500  1
  Fe  Fe36  1  0.00100400  0.49559000  0.83457000  1
  Fe  Fe37  1  0.00084300  0.49876700  0.16749100  1
  Fe  Fe38  1  0.50062300  0.49628700  0.33499800  1
  Fe  Fe39  1  0.50068200  0.49533900  0.66850500  1
  Fe  Fe40  1  0.50108900  0.49599600  0.00174300  1
  Fe  Fe41  1  0.00075400  0.00145600  0.33269700  1
  Fe  Fe42  1  0.00102200  0.00449800  0.66488700  1
  Fe  Fe43  1  0.00088900  0.00120800  0.00001400  1
  Fe  Fe44  1  0.44276800  0.74997500  0.89351900  1
  Fe  Fe45  1  0.44285000  0.75000000  0.55836200  1
  Fe  Fe46  1  0.44250900  0.75000700  0.22465100  1
  Fe  Fe47  1  0.94304000  0.75000900  0.77275300  1
  O  O48  1  0.75258200  0.01968200  0.57618500  1
  O  O49  1  0.75242200  0.01851900  0.91082800  1
  O  O50  1  0.75212100  0.01755400  0.24404100  1
  O  O51  1  0.25114900  0.48303000  0.42284900  1
  O  O52  1  0.25242700  0.47945900  0.75715800  1
  O  O53  1  0.25144200  0.48294300  0.08988400  1
  O  O54  1  0.24973500  0.51311900  0.24663300  1
  O  O55  1  0.24946200  0.51317500  0.57958200  1
  O  O56  1  0.24977800  0.51216400  0.91352700  1
  O  O57  1  0.74954700  0.98690800  0.08744700  1
  O  O58  1  0.74915400  0.98718900  0.42007700  1
  O  O59  1  0.74984400  0.98768500  0.75340600  1
  O  O60  1  0.24974100  0.98690000  0.08871600  1
  O  O61  1  0.24944600  0.98684700  0.42170000  1
  O  O62  1  0.24971500  0.98783500  0.75494200  1
  O  O63  1  0.74953600  0.51306900  0.24538300  1
  O  O64  1  0.74917000  0.51280700  0.57819300  1
  O  O65  1  0.74975700  0.51229600  0.91189900  1
  O  O66  1  0.75216000  0.48247600  0.42239000  1
  O  O67  1  0.75258900  0.48032100  0.75600600  1
  O  O68  1  0.75242100  0.48143100  0.08986300  1
  O  O69  1  0.25244100  0.02054300  0.57675400  1
  O  O70  1  0.25145200  0.01704300  0.91185300  1
  O  O71  1  0.25115600  0.01697400  0.24487900  1
  O  O72  1  0.08841800  0.74999900  0.20204500  1
  O  O73  1  0.08866300  0.75000300  0.53517700  1
  O  O74  1  0.08533200  0.74998300  0.87648100  1
  O  O75  1  0.61267600  0.75000100  0.12494800  1
  O  O76  1  0.61243900  0.75001800  0.45843100  1
  O  O77  1  0.58551600  0.74999600  0.78983100  1
  O  O78  1  0.88331900  0.25024300  0.46656200  1
  O  O79  1  0.88345600  0.24991500  0.80017000  1
  O  O80  1  0.88343900  0.24987400  0.13348800  1
  O  O81  1  0.38339700  0.25022500  0.53316700  1
  O  O82  1  0.38334800  0.24975500  0.86678200  1
  O  O83  1  0.38332300  0.24999600  0.20011900  1
  O  O84  1  0.52026100  0.85928000  0.23883800  1
  O  O85  1  0.52077000  0.86007200  0.57150100  1
  O  O86  1  0.52622200  0.85979400  0.90583900  1
  O  O87  1  0.01916600  0.64573400  0.42761400  1
  O  O88  1  0.02638500  0.64006200  0.76024200  1
  O  O89  1  0.01961200  0.64524900  0.09524400  1
  O  O90  1  0.49019700  0.35304000  0.35847100  1
  O  O91  1  0.49059500  0.35218000  0.69117400  1
  O  O92  1  0.49025700  0.35250100  0.02541900  1
  O  O93  1  0.99028000  0.14705400  0.30823300  1
  O  O94  1  0.99046100  0.14800900  0.64196700  1
  O  O95  1  0.99032800  0.14704000  0.97543700  1
  O  O96  1  0.49062100  0.14796100  0.42588900  1
  O  O97  1  0.49026500  0.14726900  0.76049100  1
  O  O98  1  0.49028300  0.14710700  0.09378900  1
  O  O99  1  0.99043800  0.35267500  0.24017600  1
  O  O100  1  0.99020200  0.35308200  0.57292700  1
  O  O101  1  0.99045900  0.35207900  0.90733300  1
  O  O102  1  0.52028000  0.64068400  0.31171800  1
  O  O103  1  0.52072900  0.63996600  0.64486000  1
  O  O104  1  0.52628000  0.64009800  0.97909500  1
  O  O105  1  0.01921700  0.85426900  0.35811000  1
  O  O106  1  0.02643400  0.85998100  0.68690700  1
  O  O107  1  0.01963400  0.85474000  0.02544700  1
