# generated using pymatgen
data_BaLaMnSbO6
_symmetry_space_group_name_H-M   'P 1'
_cell_length_a   5.80112100
_cell_length_b   8.37438300
_cell_length_c   5.80110600
_cell_angle_alpha   90.00001672
_cell_angle_beta   89.99994074
_cell_angle_gamma   89.99995972
_symmetry_Int_Tables_number   1
_chemical_formula_structural   BaLaMnSbO6
_chemical_formula_sum   'Ba2 La2 Mn2 Sb2 O12'
_cell_volume   281.82242306
_cell_formula_units_Z   2
loop_
 _symmetry_equiv_pos_site_id
 _symmetry_equiv_pos_as_xyz
  1  'x, y, z'
loop_
 _atom_site_type_symbol
 _atom_site_label
 _atom_site_symmetry_multiplicity
 _atom_site_fract_x
 _atom_site_fract_y
 _atom_site_fract_z
 _atom_site_occupancy
  Ba  Ba0  1  0.50000000  0.74999800  0.00000000  1
  Ba  Ba1  1  0.00000000  0.25000200  0.50000000  1
  La  La2  1  0.99999900  0.74999900  0.49999900  1
  La  La3  1  0.49999900  0.25000100  0.00000200  1
  Mn  Mn4  1  0.49999900  0.00000500  0.49999900  1
  Mn  Mn5  1  0.00000100  0.49999300  0.99999700  1
  Sb  Sb6  1  0.00000000  0.00000000  0.00000000  1
  Sb  Sb7  1  0.50000000  0.50000000  0.50000000  1
  O  O8  1  0.00000000  0.24092300  0.00000000  1
  O  O9  1  0.50000000  0.74089800  0.50000000  1
  O  O10  1  0.00000000  0.75907700  0.00000000  1
  O  O11  1  0.50000000  0.25910200  0.50000000  1
  O  O12  1  0.18296200  0.97749700  0.70396900  1
  O  O13  1  0.68299500  0.47750500  0.20395200  1
  O  O14  1  0.31700500  0.47750500  0.79604800  1
  O  O15  1  0.81703800  0.97749800  0.29603200  1
  O  O16  1  0.70396800  0.02250300  0.81703800  1
  O  O17  1  0.20395300  0.52249500  0.31700500  1
  O  O18  1  0.79604800  0.52249600  0.68299600  1
  O  O19  1  0.29603200  0.02250300  0.18296200  1
