# generated using pymatgen
data_La5Sm3Cr6(FeO10)2
_symmetry_space_group_name_H-M   'P 1'
_cell_length_a   11.03428745
_cell_length_b   11.47758624
_cell_length_c   17.87448615
_cell_angle_alpha   108.43999500
_cell_angle_beta   107.97769709
_cell_angle_gamma   90.20207933
_symmetry_Int_Tables_number   1
_chemical_formula_structural   La5Sm3Cr6(FeO10)2
_chemical_formula_sum   'La20 Sm12 Cr24 Fe8 O80'
_cell_volume   2029.79378276
_cell_formula_units_Z   4
loop_
 _symmetry_equiv_pos_site_id
 _symmetry_equiv_pos_as_xyz
  1  'x, y, z'
loop_
 _atom_site_type_symbol
 _atom_site_label
 _atom_site_symmetry_multiplicity
 _atom_site_fract_x
 _atom_site_fract_y
 _atom_site_fract_z
 _atom_site_occupancy
  La  La0  1  0.30963600  0.06231100  0.61387600  1
  La  La1  1  0.30559000  0.56426400  0.61292800  1
  La  La2  1  0.81234300  0.06208700  0.61399000  1
  La  La3  1  0.80400400  0.56607100  0.61637200  1
  La  La4  1  0.18670800  0.43510500  0.38095300  1
  La  La5  1  0.18901800  0.43503700  0.88460600  1
  La  La6  1  0.19193200  0.93534700  0.38021600  1
  La  La7  1  0.69079300  0.43461200  0.38207200  1
  La  La8  1  0.68895900  0.93654900  0.37963700  1
  La  La9  1  0.05045000  0.30950800  0.12003100  1
  La  La10  1  0.05512900  0.30288100  0.61691000  1
  La  La11  1  0.05709900  0.80777700  0.61847000  1
  La  La12  1  0.55495700  0.30134800  0.61467600  1
  La  La13  1  0.43886500  0.19176900  0.37829900  1
  La  La14  1  0.43654300  0.19570700  0.88438700  1
  La  La15  1  0.43539200  0.69386900  0.38079700  1
  La  La16  1  0.43984200  0.69721900  0.88713700  1
  La  La17  1  0.93928300  0.19895300  0.38222000  1
  La  La18  1  0.94150000  0.19230500  0.88289200  1
  La  La19  1  0.94654900  0.69027400  0.38217200  1
  Sm  Sm20  1  0.30478700  0.05997700  0.11291000  1
  Sm  Sm21  1  0.30382900  0.56587400  0.11507300  1
  Sm  Sm22  1  0.80051600  0.06231200  0.11013500  1
  Sm  Sm23  1  0.80362900  0.56178100  0.11800300  1
  Sm  Sm24  1  0.18839000  0.93973900  0.88456200  1
  Sm  Sm25  1  0.70155600  0.43632400  0.89246100  1
  Sm  Sm26  1  0.69422800  0.93576300  0.88382400  1
  Sm  Sm27  1  0.05222000  0.80391000  0.11674300  1
  Sm  Sm28  1  0.55369100  0.30296100  0.11444200  1
  Sm  Sm29  1  0.54660800  0.80411200  0.11848600  1
  Sm  Sm30  1  0.55741600  0.79672800  0.61415400  1
  Sm  Sm31  1  0.93868000  0.70261200  0.88736600  1
  Cr  Cr32  1  0.00479000  0.99971300  0.00030400  1
  Cr  Cr33  1  0.00197800  0.99646100  0.49618200  1
  Cr  Cr34  1  0.00320700  0.50184700  0.99759900  1
  Cr  Cr35  1  0.00226000  0.50252800  0.50360500  1
  Cr  Cr36  1  0.50456000  0.99725400  0.99814400  1
  Cr  Cr37  1  0.50698800  0.99892200  0.50380700  1
  Cr  Cr38  1  0.50571600  0.50029000  0.00056100  1
  Cr  Cr39  1  0.50319400  0.49821500  0.50042700  1
  Cr  Cr40  1  0.25386000  0.25104200  0.00276100  1
  Cr  Cr41  1  0.25259300  0.24938900  0.50136400  1
  Cr  Cr42  1  0.25042900  0.75047200  0.00005200  1
  Cr  Cr43  1  0.25486200  0.75216400  0.50204100  1
  Cr  Cr44  1  0.75014400  0.24729000  0.99631900  1
  Cr  Cr45  1  0.75303600  0.24970400  0.50148300  1
  Cr  Cr46  1  0.75275800  0.74878100  0.00199800  1
  Cr  Cr47  1  0.75169900  0.75088700  0.49845200  1
  Cr  Cr48  1  0.11658000  0.11977100  0.24288200  1
  Cr  Cr49  1  0.12058300  0.12096500  0.74540700  1
  Cr  Cr50  1  0.12073400  0.62391200  0.24194100  1
  Cr  Cr51  1  0.62069000  0.12436400  0.24138000  1
  Cr  Cr52  1  0.61862500  0.62031700  0.24775900  1
  Cr  Cr53  1  0.36954800  0.88284800  0.25391600  1
  Cr  Cr54  1  0.85975500  0.37688100  0.24654700  1
  Cr  Cr55  1  0.87003000  0.87627300  0.75059300  1
  Fe  Fe56  1  0.11248400  0.61320100  0.75359800  1
  Fe  Fe57  1  0.61496500  0.10007100  0.74778100  1
  Fe  Fe58  1  0.61722600  0.60860800  0.75415700  1
  Fe  Fe59  1  0.36818500  0.38840800  0.24586800  1
  Fe  Fe60  1  0.36896500  0.39830300  0.75643300  1
  Fe  Fe61  1  0.37447200  0.89603700  0.75537400  1
  Fe  Fe62  1  0.85667100  0.40080800  0.75530400  1
  Fe  Fe63  1  0.86271900  0.89763500  0.24679100  1
  O  O64  1  0.11247800  0.11182000  0.47497100  1
  O  O65  1  0.11626100  0.10954900  0.97405700  1
  O  O66  1  0.11650800  0.61861500  0.48123500  1
  O  O67  1  0.10748900  0.61335600  0.96724300  1
  O  O68  1  0.61471200  0.11353500  0.47954700  1
  O  O69  1  0.61421100  0.10572200  0.96996100  1
  O  O70  1  0.61579800  0.62067300  0.47947700  1
  O  O71  1  0.61541500  0.60620300  0.97030500  1
  O  O72  1  0.13694400  0.38810600  0.02420600  1
  O  O73  1  0.13905300  0.38472400  0.52796800  1
  O  O74  1  0.13633100  0.88558600  0.02781900  1
  O  O75  1  0.13806200  0.88709300  0.52440600  1
  O  O76  1  0.63406300  0.38216900  0.02293600  1
  O  O77  1  0.64112700  0.38629600  0.52880000  1
  O  O78  1  0.63563500  0.88165500  0.02784100  1
  O  O79  1  0.64017700  0.88425700  0.52759000  1
  O  O80  1  0.36981100  0.10956200  0.48558900  1
  O  O81  1  0.36364400  0.10205100  0.97290800  1
  O  O82  1  0.36530100  0.61002000  0.47947200  1
  O  O83  1  0.36646900  0.60842900  0.97681100  1
  O  O84  1  0.86500100  0.10677300  0.47510300  1
  O  O85  1  0.86104500  0.10139900  0.97093400  1
  O  O86  1  0.86305000  0.61610300  0.47697900  1
  O  O87  1  0.86485900  0.60925200  0.97049400  1
  O  O88  1  0.39197500  0.39706100  0.03022300  1
  O  O89  1  0.39121900  0.38968700  0.52916000  1
  O  O90  1  0.38830300  0.89459100  0.02574600  1
  O  O91  1  0.39726700  0.89003200  0.53037000  1
  O  O92  1  0.88026100  0.40033600  0.02167000  1
  O  O93  1  0.88958100  0.39140300  0.52914000  1
  O  O94  1  0.88918400  0.89479100  0.02831600  1
  O  O95  1  0.88731900  0.88581200  0.51905900  1
  O  O96  1  0.08200500  0.10758200  0.12061800  1
  O  O97  1  0.06586100  0.09746100  0.62019100  1
  O  O98  1  0.08698900  0.60694700  0.11831000  1
  O  O99  1  0.09487300  0.62316900  0.64470400  1
  O  O100  1  0.58306000  0.10474200  0.11849300  1
  O  O101  1  0.58165900  0.10292500  0.63104000  1
  O  O102  1  0.59110300  0.60890700  0.12293100  1
  O  O103  1  0.60126500  0.61895200  0.64513100  1
  O  O104  1  0.45725800  0.38118100  0.35747700  1
  O  O105  1  0.45353200  0.39683000  0.87260900  1
  O  O106  1  0.44790800  0.89921100  0.37976500  1
  O  O107  1  0.46267100  0.89302500  0.87144800  1
  O  O108  1  0.94851500  0.39373400  0.36600500  1
  O  O109  1  0.94710900  0.39224700  0.87251900  1
  O  O110  1  0.94782500  0.89124600  0.36865800  1
  O  O111  1  0.96042200  0.89476500  0.87530000  1
  O  O112  1  0.35901200  0.26495200  0.13879200  1
  O  O113  1  0.35026400  0.27627200  0.64914700  1
  O  O114  1  0.35290700  0.76788900  0.13623300  1
  O  O115  1  0.35924300  0.77775800  0.64672400  1
  O  O116  1  0.83700300  0.26710400  0.13003800  1
  O  O117  1  0.84839900  0.27782700  0.64869900  1
  O  O118  1  0.86336800  0.76318800  0.14476200  1
  O  O119  1  0.82655600  0.77565200  0.62476400  1
  O  O120  1  0.20503600  0.22562800  0.36417000  1
  O  O121  1  0.20720500  0.22730000  0.86525200  1
  O  O122  1  0.19831800  0.72612800  0.36437300  1
  O  O123  1  0.20977000  0.73433800  0.86054600  1
  O  O124  1  0.69858800  0.22097400  0.36316100  1
  O  O125  1  0.70328100  0.22627400  0.85456600  1
  O  O126  1  0.69329300  0.72950100  0.37396800  1
  O  O127  1  0.71751600  0.73214000  0.86009500  1
  O  O128  1  0.42332100  0.07088800  0.24308400  1
  O  O129  1  0.42629400  0.07079200  0.75185500  1
  O  O130  1  0.41032500  0.56574400  0.24367400  1
  O  O131  1  0.42682600  0.57044700  0.75246300  1
  O  O132  1  0.89969700  0.06730400  0.24321200  1
  O  O133  1  0.90554900  0.07088200  0.74940100  1
  O  O134  1  0.91475300  0.55584600  0.24505100  1
  O  O135  1  0.92326300  0.56914300  0.75793400  1
  O  O136  1  0.18177900  0.43254800  0.24938100  1
  O  O137  1  0.17731100  0.44030300  0.75208300  1
  O  O138  1  0.15457700  0.92963100  0.24526300  1
  O  O139  1  0.18440300  0.93194100  0.75581200  1
  O  O140  1  0.65309200  0.42224300  0.24499800  1
  O  O141  1  0.67102800  0.43271900  0.75918100  1
  O  O142  1  0.67455300  0.92587400  0.24454300  1
  O  O143  1  0.65041500  0.92273800  0.74961100  1
