# generated using pymatgen
data_BaPr2Mn3O9
_symmetry_space_group_name_H-M   'P 1'
_cell_length_a   5.59979090
_cell_length_b   5.59979090
_cell_length_c   13.70097797
_cell_angle_alpha   89.32828365
_cell_angle_beta   89.32828365
_cell_angle_gamma   59.80663064
_symmetry_Int_Tables_number   1
_chemical_formula_structural   BaPr2Mn3O9
_chemical_formula_sum   'Ba2 Pr4 Mn6 O18'
_cell_volume   371.30993536
_cell_formula_units_Z   2
loop_
 _symmetry_equiv_pos_site_id
 _symmetry_equiv_pos_as_xyz
  1  'x, y, z'
loop_
 _atom_site_type_symbol
 _atom_site_label
 _atom_site_symmetry_multiplicity
 _atom_site_fract_x
 _atom_site_fract_y
 _atom_site_fract_z
 _atom_site_occupancy
  Ba  Ba0  1  0.50583000  0.50583000  0.74996600  1
  Ba  Ba1  1  0.49417000  0.49417000  0.25003400  1
  Pr  Pr2  1  0.82424200  0.82424200  0.07597600  1
  Pr  Pr3  1  0.15904400  0.15904400  0.41945700  1
  Pr  Pr4  1  0.84095600  0.84095600  0.58054300  1
  Pr  Pr5  1  0.17575800  0.17575800  0.92402400  1
  Mn  Mn6  1  0.50000000  0.50000000  0.50000000  1
  Mn  Mn7  1  0.83662900  0.83662900  0.83038300  1
  Mn  Mn8  1  0.16337100  0.16337100  0.16961700  1
  Mn  Mn9  1  0.50000000  0.50000000  0.00000000  1
  Mn  Mn10  1  0.83119300  0.83119300  0.33261900  1
  Mn  Mn11  1  0.16880700  0.16880700  0.66738100  1
  O  O12  1  0.82419200  0.29687700  0.58621000  1
  O  O13  1  0.14220400  0.64345000  0.93087700  1
  O  O14  1  0.46927300  0.98972800  0.26621200  1
  O  O15  1  0.01027200  0.53072700  0.73378800  1
  O  O16  1  0.35655000  0.85779600  0.06912300  1
  O  O17  1  0.70312300  0.17580800  0.41379000  1
  O  O18  1  0.29687700  0.82419200  0.58621000  1
  O  O19  1  0.64345000  0.14220400  0.93087700  1
  O  O20  1  0.98972800  0.46927300  0.26621200  1
  O  O21  1  0.53072700  0.01027200  0.73378800  1
  O  O22  1  0.85779600  0.35655000  0.06912300  1
  O  O23  1  0.17580800  0.70312300  0.41379000  1
  O  O24  1  0.68857000  0.68857000  0.44096500  1
  O  O25  1  0.02977900  0.02977900  0.77654500  1
  O  O26  1  0.34114200  0.34114200  0.09295900  1
  O  O27  1  0.65885800  0.65885800  0.90704100  1
  O  O28  1  0.97022100  0.97022100  0.22345500  1
  O  O29  1  0.31143000  0.31143000  0.55903500  1
