# generated using pymatgen
data_Ca11(Cd9Au2)2
_symmetry_space_group_name_H-M   'P 1'
_cell_length_a   17.08999723
_cell_length_b   17.08999723
_cell_length_c   17.08999723
_cell_angle_alpha   144.46757799
_cell_angle_beta   144.46757799
_cell_angle_gamma   51.12866904
_symmetry_Int_Tables_number   1
_chemical_formula_structural   Ca11(Cd9Au2)2
_chemical_formula_sum   'Ca22 Cd36 Au8'
_cell_volume   1676.95646194
_cell_formula_units_Z   2
loop_
 _symmetry_equiv_pos_site_id
 _symmetry_equiv_pos_as_xyz
  1  'x, y, z'
loop_
 _atom_site_type_symbol
 _atom_site_label
 _atom_site_symmetry_multiplicity
 _atom_site_fract_x
 _atom_site_fract_y
 _atom_site_fract_z
 _atom_site_occupancy
  Ca  Ca0  1  0.52335000  0.52335000  0.00000000  1
  Ca  Ca1  1  0.27335000  0.77335000  0.50000000  1
  Ca  Ca2  1  0.98220300  0.48220300  0.50000000  1
  Ca  Ca3  1  0.23220300  0.23220300  0.00000000  1
  Ca  Ca4  1  0.62521600  0.12521600  0.50000000  1
  Ca  Ca5  1  0.87521600  0.87521600  0.00000000  1
  Ca  Ca6  1  0.69266800  0.48532500  0.79265600  1
  Ca  Ca7  1  0.23532500  0.94266800  0.29265600  1
  Ca  Ca8  1  0.65001200  0.94266800  0.70734400  1
  Ca  Ca9  1  0.69266800  0.90001200  0.20734400  1
  Ca  Ca10  1  0.80745600  0.51365300  0.70619700  1
  Ca  Ca11  1  0.26365300  0.05745600  0.20619700  1
  Ca  Ca12  1  0.85125900  0.05745600  0.79380300  1
  Ca  Ca13  1  0.80745600  0.10125900  0.29380300  1
  Ca  Ca14  1  0.41064900  0.19249900  0.78185000  1
  Ca  Ca15  1  0.94249900  0.66064900  0.28185000  1
  Ca  Ca16  1  0.37879900  0.66064900  0.71815000  1
  Ca  Ca17  1  0.41064900  0.62879900  0.21815000  1
  Ca  Ca18  1  0.08505200  0.79264900  0.70759700  1
  Ca  Ca19  1  0.54264900  0.33505200  0.20759700  1
  Ca  Ca20  1  0.12745500  0.33505200  0.79240300  1
  Ca  Ca21  1  0.08505200  0.37745500  0.29240300  1
  Cd  Cd22  1  0.74004200  0.37418200  0.93065900  1
  Cd  Cd23  1  0.44352300  0.37418200  0.63413900  1
  Cd  Cd24  1  0.12418200  0.99004200  0.43065900  1
  Cd  Cd25  1  0.55938300  0.99004200  0.86586100  1
  Cd  Cd26  1  0.74004200  0.80938300  0.36586100  1
  Cd  Cd27  1  0.44352300  0.80938300  0.06934100  1
  Cd  Cd28  1  0.12418200  0.69352300  0.13413900  1
  Cd  Cd29  1  0.55938300  0.69352300  0.56934100  1
  Cd  Cd30  1  0.76207700  0.62826200  0.57399300  1
  Cd  Cd31  1  0.05426900  0.62826200  0.86618500  1
  Cd  Cd32  1  0.37826200  0.01207700  0.07399300  1
  Cd  Cd33  1  0.93808400  0.01207700  0.63381500  1
  Cd  Cd34  1  0.76207700  0.18808400  0.13381500  1
  Cd  Cd35  1  0.05426900  0.18808400  0.42600700  1
  Cd  Cd36  1  0.37826200  0.30426900  0.36618500  1
  Cd  Cd37  1  0.93808400  0.30426900  0.92600700  1
  Cd  Cd38  1  0.02476500  0.49914200  0.02286400  1
  Cd  Cd39  1  0.47627800  0.49914200  0.47437700  1
  Cd  Cd40  1  0.24914200  0.27476500  0.52286400  1
  Cd  Cd41  1  0.75190100  0.27476500  0.02562300  1
  Cd  Cd42  1  0.02476500  0.00190100  0.52562300  1
  Cd  Cd43  1  0.47627800  0.00190100  0.97713600  1
  Cd  Cd44  1  0.24914200  0.72627800  0.97437700  1
  Cd  Cd45  1  0.75190100  0.72627800  0.47713600  1
  Cd  Cd46  1  0.87093400  0.23142100  0.63951200  1
  Cd  Cd47  1  0.59190900  0.23142100  0.36048800  1
  Cd  Cd48  1  0.98142100  0.12093400  0.13951200  1
  Cd  Cd49  1  0.98142100  0.84190900  0.86048800  1
  Cd  Cd50  1  0.62789600  0.76831400  0.85958200  1
  Cd  Cd51  1  0.90873200  0.76831400  0.14041800  1
  Cd  Cd52  1  0.51831400  0.87789600  0.35958200  1
  Cd  Cd53  1  0.51831400  0.15873200  0.64041800  1
  Cd  Cd54  1  0.19327800  0.89597600  0.70269800  1
  Cd  Cd55  1  0.64597600  0.44327800  0.20269800  1
  Cd  Cd56  1  0.24057900  0.44327800  0.79730200  1
  Cd  Cd57  1  0.19327800  0.49057900  0.29730200  1
  Au  Au58  1  0.62431800  0.62431800  0.00000000  1
  Au  Au59  1  0.37431800  0.87431800  0.50000000  1
  Au  Au60  1  0.87686100  0.37686100  0.50000000  1
  Au  Au61  1  0.12686100  0.12686100  0.00000000  1
  Au  Au62  1  0.30673300  0.10278500  0.79605300  1
  Au  Au63  1  0.85278500  0.55673300  0.29605300  1
  Au  Au64  1  0.26068000  0.55673300  0.70394700  1
  Au  Au65  1  0.30673300  0.51068000  0.20394700  1
