# generated using pymatgen
data_Ca3ScFe(SiO4)3
_symmetry_space_group_name_H-M   'P 1'
_cell_length_a   10.58335178
_cell_length_b   10.58335178
_cell_length_c   10.58335178
_cell_angle_alpha   109.47122063
_cell_angle_beta   109.47122063
_cell_angle_gamma   109.47122063
_symmetry_Int_Tables_number   1
_chemical_formula_structural   Ca3ScFe(SiO4)3
_chemical_formula_sum   'Ca12 Sc4 Fe4 Si12 O48'
_cell_volume   912.53137419
_cell_formula_units_Z   4
loop_
 _symmetry_equiv_pos_site_id
 _symmetry_equiv_pos_as_xyz
  1  'x, y, z'
loop_
 _atom_site_type_symbol
 _atom_site_label
 _atom_site_symmetry_multiplicity
 _atom_site_fract_x
 _atom_site_fract_y
 _atom_site_fract_z
 _atom_site_occupancy
  Ca  Ca0  1  0.12393400  0.37393400  0.75000000  1
  Ca  Ca1  1  0.37606600  0.12606600  0.25000000  1
  Ca  Ca2  1  0.25000000  0.37606600  0.12606600  1
  Ca  Ca3  1  0.75000000  0.12393400  0.37393400  1
  Ca  Ca4  1  0.12606600  0.25000000  0.37606600  1
  Ca  Ca5  1  0.37393400  0.75000000  0.12393400  1
  Ca  Ca6  1  0.87606600  0.62606600  0.25000000  1
  Ca  Ca7  1  0.62393400  0.87393400  0.75000000  1
  Ca  Ca8  1  0.75000000  0.62393400  0.87393400  1
  Ca  Ca9  1  0.25000000  0.87606600  0.62606600  1
  Ca  Ca10  1  0.87393400  0.75000000  0.62393400  1
  Ca  Ca11  1  0.62606600  0.25000000  0.87606600  1
  Sc  Sc12  1  0.50000000  0.50000000  0.00000000  1
  Sc  Sc13  1  0.00000000  0.50000000  0.50000000  1
  Sc  Sc14  1  0.00000000  0.00000000  0.00000000  1
  Sc  Sc15  1  0.50000000  0.00000000  0.50000000  1
  Fe  Fe16  1  0.00000000  0.50000000  0.00000000  1
  Fe  Fe17  1  0.50000000  0.50000000  0.50000000  1
  Fe  Fe18  1  0.00000000  0.00000000  0.50000000  1
  Fe  Fe19  1  0.50000000  0.00000000  0.00000000  1
  Si  Si20  1  0.87663000  0.12663000  0.75000000  1
  Si  Si21  1  0.62337000  0.37337000  0.25000000  1
  Si  Si22  1  0.25000000  0.62337000  0.37337000  1
  Si  Si23  1  0.75000000  0.87663000  0.12663000  1
  Si  Si24  1  0.37337000  0.25000000  0.62337000  1
  Si  Si25  1  0.12663000  0.75000000  0.87663000  1
  Si  Si26  1  0.12337000  0.87337000  0.25000000  1
  Si  Si27  1  0.37663000  0.62663000  0.75000000  1
  Si  Si28  1  0.75000000  0.37663000  0.62663000  1
  Si  Si29  1  0.25000000  0.12337000  0.87337000  1
  Si  Si30  1  0.62663000  0.75000000  0.37663000  1
  Si  Si31  1  0.87337000  0.25000000  0.12337000  1
  O  O32  1  0.80125200  0.51026000  0.39247000  1
  O  O33  1  0.61779000  0.40878200  0.10753000  1
  O  O34  1  0.69874800  0.09121800  0.70900800  1
  O  O35  1  0.88221000  0.98974000  0.79099200  1
  O  O36  1  0.70900800  0.69874800  0.09121800  1
  O  O37  1  0.79099200  0.88221000  0.98974000  1
  O  O38  1  0.39247000  0.80125200  0.51026000  1
  O  O39  1  0.10753000  0.61779000  0.40878200  1
  O  O40  1  0.98974000  0.79099200  0.88221000  1
  O  O41  1  0.09121800  0.70900800  0.69874800  1
  O  O42  1  0.40878200  0.10753000  0.61779000  1
  O  O43  1  0.51026000  0.39247000  0.80125200  1
  O  O44  1  0.19874800  0.48974000  0.60753000  1
  O  O45  1  0.38221000  0.59121800  0.89247000  1
  O  O46  1  0.30125200  0.90878200  0.29099200  1
  O  O47  1  0.11779000  0.01026000  0.20900800  1
  O  O48  1  0.29099200  0.30125200  0.90878200  1
  O  O49  1  0.20900800  0.11779000  0.01026000  1
  O  O50  1  0.60753000  0.19874800  0.48974000  1
  O  O51  1  0.89247000  0.38221000  0.59121800  1
  O  O52  1  0.01026000  0.20900800  0.11779000  1
  O  O53  1  0.90878200  0.29099200  0.30125200  1
  O  O54  1  0.59121800  0.89247000  0.38221000  1
  O  O55  1  0.48974000  0.60753000  0.19874800  1
  O  O56  1  0.29859800  0.49097600  0.38428900  1
  O  O57  1  0.20140200  0.58569100  0.19237800  1
  O  O58  1  0.60668700  0.91430900  0.11571100  1
  O  O59  1  0.89331300  0.00902400  0.30762200  1
  O  O60  1  0.00902400  0.30762200  0.89331300  1
  O  O61  1  0.91430900  0.11571100  0.60668700  1
  O  O62  1  0.58569100  0.19237800  0.20140200  1
  O  O63  1  0.49097600  0.38428900  0.29859800  1
  O  O64  1  0.19237800  0.20140200  0.58569100  1
  O  O65  1  0.38428900  0.29859800  0.49097600  1
  O  O66  1  0.30762200  0.89331300  0.00902400  1
  O  O67  1  0.11571100  0.60668700  0.91430900  1
  O  O68  1  0.70140200  0.50902400  0.61571100  1
  O  O69  1  0.79859800  0.41430900  0.80762200  1
  O  O70  1  0.39331300  0.08569100  0.88428900  1
  O  O71  1  0.10668700  0.99097600  0.69237800  1
  O  O72  1  0.99097600  0.69237800  0.10668700  1
  O  O73  1  0.08569100  0.88428900  0.39331300  1
  O  O74  1  0.41430900  0.80762200  0.79859800  1
  O  O75  1  0.50902400  0.61571100  0.70140200  1
  O  O76  1  0.80762200  0.79859800  0.41430900  1
  O  O77  1  0.61571100  0.70140200  0.50902400  1
  O  O78  1  0.69237800  0.10668700  0.99097600  1
  O  O79  1  0.88428900  0.39331300  0.08569100  1
