# generated using pymatgen
data_BaSrLa4Be2O10
_symmetry_space_group_name_H-M   'P 1'
_cell_length_a   7.44166300
_cell_length_b   6.78466800
_cell_length_c   9.87494053
_cell_angle_alpha   89.40776511
_cell_angle_beta   90.00000000
_cell_angle_gamma   90.00000000
_symmetry_Int_Tables_number   1
_chemical_formula_structural   BaSrLa4Be2O10
_chemical_formula_sum   'Ba2 Sr2 La8 Be4 O20'
_cell_volume   498.55133946
_cell_formula_units_Z   2
loop_
 _symmetry_equiv_pos_site_id
 _symmetry_equiv_pos_as_xyz
  1  'x, y, z'
loop_
 _atom_site_type_symbol
 _atom_site_label
 _atom_site_symmetry_multiplicity
 _atom_site_fract_x
 _atom_site_fract_y
 _atom_site_fract_z
 _atom_site_occupancy
  Ba  Ba0  1  0.97920300  0.58248300  0.67633900  1
  Ba  Ba1  1  0.47920300  0.41751700  0.32366100  1
  Sr  Sr2  1  0.48261000  0.08264300  0.82486000  1
  Sr  Sr3  1  0.98261000  0.91735700  0.17514000  1
  La  La4  1  0.74727900  0.09101200  0.52309000  1
  La  La5  1  0.74510900  0.40555500  0.02110400  1
  La  La6  1  0.24727900  0.90898800  0.47691000  1
  La  La7  1  0.24510900  0.59444500  0.97889600  1
  La  La8  1  0.53364700  0.93123100  0.16937900  1
  La  La9  1  0.03364700  0.06876900  0.83062100  1
  La  La10  1  0.02264800  0.42726100  0.32427000  1
  La  La11  1  0.52264800  0.57273900  0.67573000  1
  Be  Be12  1  0.75225400  0.69631000  0.39809900  1
  Be  Be13  1  0.74695200  0.81133500  0.90264000  1
  Be  Be14  1  0.25225400  0.30369000  0.60190100  1
  Be  Be15  1  0.24695200  0.18866500  0.09736000  1
  O  O16  1  0.75416400  0.15817300  0.27645800  1
  O  O17  1  0.73081200  0.34061000  0.78349200  1
  O  O18  1  0.25416400  0.84182700  0.72354200  1
  O  O19  1  0.23081200  0.65939000  0.21650800  1
  O  O20  1  0.75943500  0.64080600  0.22902700  1
  O  O21  1  0.74458200  0.87470800  0.73368100  1
  O  O22  1  0.25943500  0.35919400  0.77097300  1
  O  O23  1  0.24458200  0.12529200  0.26631900  1
  O  O24  1  0.06035300  0.31209100  0.06472700  1
  O  O25  1  0.44007000  0.19016000  0.56725600  1
  O  O26  1  0.56035300  0.68790900  0.93527300  1
  O  O27  1  0.94007000  0.80984000  0.43274400  1
  O  O28  1  0.93805000  0.70142900  0.93704900  1
  O  O29  1  0.56316500  0.81691300  0.42823900  1
  O  O30  1  0.43805000  0.29857100  0.06295100  1
  O  O31  1  0.06316500  0.18308700  0.57176100  1
  O  O32  1  0.74711100  0.01678800  0.99217100  1
  O  O33  1  0.75255600  0.48382500  0.48584500  1
  O  O34  1  0.24711100  0.98321200  0.00782900  1
  O  O35  1  0.25255600  0.51617500  0.51415500  1
