# generated using pymatgen
data_K5Na3Nb4(WO5)4
_symmetry_space_group_name_H-M   'P 1'
_cell_length_a   11.57631706
_cell_length_b   11.84242974
_cell_length_c   17.65386576
_cell_angle_alpha   109.68012359
_cell_angle_beta   109.14254343
_cell_angle_gamma   89.86984809
_symmetry_Int_Tables_number   1
_chemical_formula_structural   K5Na3Nb4(WO5)4
_chemical_formula_sum   'K20 Na12 Nb16 W16 O80'
_cell_volume   2136.84819700
_cell_formula_units_Z   4
loop_
 _symmetry_equiv_pos_site_id
 _symmetry_equiv_pos_as_xyz
  1  'x, y, z'
loop_
 _atom_site_type_symbol
 _atom_site_label
 _atom_site_symmetry_multiplicity
 _atom_site_fract_x
 _atom_site_fract_y
 _atom_site_fract_z
 _atom_site_occupancy
  K  K0  1  0.30254500  0.06500100  0.11022300  1
  K  K1  1  0.30505400  0.56506600  0.10719600  1
  K  K2  1  0.79847400  0.05925600  0.10303200  1
  K  K3  1  0.80841200  0.56333500  0.11594200  1
  K  K4  1  0.81915400  0.57549500  0.61930100  1
  K  K5  1  0.20607700  0.93466900  0.39725400  1
  K  K6  1  0.19374900  0.92770700  0.87805100  1
  K  K7  1  0.69741400  0.43995100  0.38999100  1
  K  K8  1  0.68515000  0.42573300  0.88727000  1
  K  K9  1  0.69569800  0.93381100  0.38650400  1
  K  K10  1  0.69173400  0.92205400  0.87649600  1
  K  K11  1  0.04829500  0.28704900  0.10541800  1
  K  K12  1  0.05900200  0.79048400  0.10644600  1
  K  K13  1  0.55356800  0.30151800  0.11456000  1
  K  K14  1  0.55957700  0.79744500  0.11441100  1
  K  K15  1  0.44534700  0.20732500  0.39065900  1
  K  K16  1  0.45592100  0.71418600  0.39760000  1
  K  K17  1  0.44801000  0.70123500  0.88021300  1
  K  K18  1  0.94911300  0.70091300  0.38811100  1
  K  K19  1  0.94332700  0.69962200  0.87839300  1
  Na  Na20  1  0.29649300  0.07771800  0.60514200  1
  Na  Na21  1  0.31069100  0.56811100  0.60970300  1
  Na  Na22  1  0.80108000  0.07398500  0.60123700  1
  Na  Na23  1  0.20877300  0.43646600  0.40927100  1
  Na  Na24  1  0.19452800  0.42476900  0.89429000  1
  Na  Na25  1  0.04475400  0.27837200  0.60543600  1
  Na  Na26  1  0.06162000  0.79267200  0.60872800  1
  Na  Na27  1  0.54515900  0.27832100  0.59674700  1
  Na  Na28  1  0.56151000  0.79379800  0.61014600  1
  Na  Na29  1  0.44203000  0.21758900  0.89619100  1
  Na  Na30  1  0.95566900  0.22172200  0.40882900  1
  Na  Na31  1  0.94288400  0.21868400  0.89564700  1
  Nb  Nb32  1  0.09168200  0.08472300  0.25400600  1
  Nb  Nb33  1  0.08369300  0.08626700  0.74588000  1
  Nb  Nb34  1  0.14219100  0.57562900  0.25451300  1
  Nb  Nb35  1  0.13046500  0.56647500  0.74711200  1
  Nb  Nb36  1  0.61916700  0.09941100  0.25058400  1
  Nb  Nb37  1  0.58171200  0.08087500  0.74598800  1
  Nb  Nb38  1  0.60541900  0.59533300  0.25264600  1
  Nb  Nb39  1  0.62402700  0.56696300  0.74384100  1
  Nb  Nb40  1  0.34028100  0.42024100  0.25476900  1
  Nb  Nb41  1  0.33658400  0.41200800  0.74610600  1
  Nb  Nb42  1  0.36019800  0.90785100  0.25135400  1
  Nb  Nb43  1  0.37121100  0.92734600  0.74482200  1
  Nb  Nb44  1  0.87575600  0.40138700  0.25312300  1
  Nb  Nb45  1  0.83748700  0.40884600  0.74538400  1
  Nb  Nb46  1  0.89301000  0.92981500  0.25360200  1
  Nb  Nb47  1  0.87610100  0.93546700  0.74753800  1
  W  W48  1  0.99894500  0.99518500  0.99410500  1
  W  W49  1  0.00686900  0.00172500  0.50297600  1
  W  W50  1  0.99911400  0.49611500  0.99538600  1
  W  W51  1  0.01129000  0.50271600  0.50601300  1
  W  W52  1  0.49902700  0.99790800  0.99451800  1
  W  W53  1  0.50933200  0.00497200  0.50848800  1
  W  W54  1  0.49821300  0.49777400  0.99632500  1
  W  W55  1  0.51067000  0.50582000  0.50718500  1
  W  W56  1  0.24656400  0.24638700  0.99502700  1
  W  W57  1  0.25566500  0.25262100  0.50432400  1
  W  W58  1  0.25150100  0.74605800  0.99381100  1
  W  W59  1  0.26241600  0.75270200  0.50757600  1
  W  W60  1  0.74660200  0.24385100  0.99504100  1
  W  W61  1  0.75751000  0.25355500  0.50436900  1
  W  W62  1  0.75270600  0.74628000  0.99749000  1
  W  W63  1  0.76222500  0.75622200  0.50749800  1
  O  O64  1  0.12336800  0.12395000  0.49266000  1
  O  O65  1  0.11819100  0.11859500  0.98779500  1
  O  O66  1  0.13190400  0.61926900  0.49331500  1
  O  O67  1  0.11999100  0.61128400  0.98110100  1
  O  O68  1  0.62838200  0.12550800  0.49760700  1
  O  O69  1  0.61667100  0.11762400  0.98533100  1
  O  O70  1  0.63131400  0.62878200  0.50058800  1
  O  O71  1  0.62419500  0.62080800  0.99355600  1
  O  O72  1  0.12252300  0.37145200  0.99712600  1
  O  O73  1  0.13969700  0.38381000  0.51520100  1
  O  O74  1  0.12821600  0.87457800  0.00088000  1
  O  O75  1  0.14184300  0.88449600  0.52031500  1
  O  O76  1  0.62515000  0.37301300  0.00538400  1
  O  O77  1  0.63838500  0.38476400  0.51884600  1
  O  O78  1  0.62935500  0.87470600  0.00357900  1
  O  O79  1  0.64486200  0.88988600  0.52385000  1
  O  O80  1  0.37721100  0.12416700  0.49774400  1
  O  O81  1  0.36995200  0.12016300  0.98590400  1
  O  O82  1  0.37938500  0.62253300  0.49811200  1
  O  O83  1  0.36974500  0.61720200  0.98599800  1
  O  O84  1  0.87559500  0.12034200  0.48771200  1
  O  O85  1  0.86826000  0.11462200  0.98198100  1
  O  O86  1  0.88357000  0.62488900  0.49674500  1
  O  O87  1  0.87298500  0.61850900  0.99192500  1
  O  O88  1  0.37314200  0.37438700  0.99926200  1
  O  O89  1  0.38830400  0.38702100  0.51857700  1
  O  O90  1  0.37935500  0.87741500  0.00351900  1
  O  O91  1  0.39352600  0.88539300  0.52366400  1
  O  O92  1  0.87789300  0.37440500  0.00471000  1
  O  O93  1  0.89351500  0.38107600  0.51725500  1
  O  O94  1  0.87764700  0.87294400  0.99995400  1
  O  O95  1  0.88864800  0.88432500  0.51407600  1
  O  O96  1  0.06075000  0.07372100  0.13838300  1
  O  O97  1  0.06240600  0.09873500  0.63731500  1
  O  O98  1  0.08885300  0.57968600  0.14122100  1
  O  O99  1  0.09203400  0.60054500  0.64450800  1
  O  O100  1  0.56832400  0.08394000  0.13197200  1
  O  O101  1  0.56746900  0.10324200  0.64225600  1
  O  O102  1  0.56530500  0.57497000  0.13385600  1
  O  O103  1  0.59174400  0.60905100  0.64582100  1
  O  O104  1  0.43486400  0.42145900  0.36703300  1
  O  O105  1  0.42779600  0.41390400  0.85800700  1
  O  O106  1  0.44105500  0.92344000  0.36940900  1
  O  O107  1  0.43476700  0.91251900  0.85312900  1
  O  O108  1  0.94292100  0.39906000  0.36682500  1
  O  O109  1  0.91537700  0.40818900  0.85806100  1
  O  O110  1  0.95259600  0.90654300  0.35973200  1
  O  O111  1  0.93852300  0.91341000  0.85389200  1
  O  O112  1  0.30902200  0.31164900  0.13958800  1
  O  O113  1  0.31522000  0.28991100  0.63895300  1
  O  O114  1  0.31731700  0.80717700  0.13246300  1
  O  O115  1  0.33770500  0.78917400  0.64414300  1
  O  O116  1  0.82406000  0.29338000  0.13689700  1
  O  O117  1  0.82883700  0.29032400  0.63899500  1
  O  O118  1  0.84028400  0.80900900  0.14233300  1
  O  O119  1  0.85069000  0.80499800  0.64496000  1
  O  O120  1  0.18861200  0.20029400  0.36345800  1
  O  O121  1  0.17667700  0.19443300  0.85749000  1
  O  O122  1  0.20217100  0.70036800  0.36398500  1
  O  O123  1  0.19335400  0.69235800  0.85394500  1
  O  O124  1  0.68802700  0.20692600  0.36728500  1
  O  O125  1  0.67225000  0.18799400  0.85817200  1
  O  O126  1  0.68544200  0.69920400  0.37081300  1
  O  O127  1  0.68531000  0.68396300  0.85597900  1
  O  O128  1  0.46175800  0.04196200  0.25110500  1
  O  O129  1  0.40894200  0.09418800  0.74719800  1
  O  O130  1  0.44430900  0.55419400  0.25340400  1
  O  O131  1  0.45180000  0.52843700  0.73601700  1
  O  O132  1  0.92760100  0.10419000  0.26483300  1
  O  O133  1  0.91095400  0.10107300  0.74770900  1
  O  O134  1  0.97632900  0.53093300  0.25287000  1
  O  O135  1  0.96478400  0.52490400  0.74669400  1
  O  O136  1  0.17469100  0.41276700  0.26517900  1
  O  O137  1  0.16539000  0.40032900  0.74751400  1
  O  O138  1  0.19969200  0.94935100  0.25362400  1
  O  O139  1  0.19738700  0.95732100  0.73512600  1
  O  O140  1  0.74078400  0.49231900  0.25487800  1
  O  O141  1  0.65891300  0.39768600  0.73125900  1
  O  O142  1  0.72721900  0.97557000  0.25111500  1
  O  O143  1  0.70046300  0.95669200  0.73647900  1
