# generated using pymatgen
data_CaMn25FeSi4SbO44
_symmetry_space_group_name_H-M   'P 1'
_cell_length_a   6.78797481
_cell_length_b   13.22869697
_cell_length_c   11.75171353
_cell_angle_alpha   63.58900131
_cell_angle_beta   89.99529006
_cell_angle_gamma   104.86354835
_symmetry_Int_Tables_number   1
_chemical_formula_structural   CaMn25FeSi4SbO44
_chemical_formula_sum   'Ca1 Mn25 Fe1 Si4 Sb1 O44'
_cell_volume   905.51088919
_cell_formula_units_Z   1
loop_
 _symmetry_equiv_pos_site_id
 _symmetry_equiv_pos_as_xyz
  1  'x, y, z'
loop_
 _atom_site_type_symbol
 _atom_site_label
 _atom_site_symmetry_multiplicity
 _atom_site_fract_x
 _atom_site_fract_y
 _atom_site_fract_z
 _atom_site_occupancy
  Ca  Ca0  1  0.49969200  0.99955500  0.49986100  1
  Mn  Mn1  1  0.24936700  0.99990900  0.75078100  1
  Mn  Mn2  1  0.75050100  0.99995600  0.24923000  1
  Mn  Mn3  1  0.99904200  0.99811200  0.50090200  1
  Mn  Mn4  1  0.50097100  0.00184200  0.99909500  1
  Mn  Mn5  1  0.75052600  0.99991400  0.75080900  1
  Mn  Mn6  1  0.24945400  0.99995500  0.24924000  1
  Mn  Mn7  1  0.00389200  0.49955200  0.99455400  1
  Mn  Mn8  1  0.49594200  0.50031900  0.50545100  1
  Mn  Mn9  1  0.74987200  0.49978900  0.75000800  1
  Mn  Mn10  1  0.25020200  0.50045500  0.24978500  1
  Mn  Mn11  1  0.49568500  0.49956600  0.99451400  1
  Mn  Mn12  1  0.00440500  0.50030800  0.50551700  1
  Mn  Mn13  1  0.00008200  0.99992700  0.00056500  1
  Mn  Mn14  1  0.36498600  0.23274600  0.46730600  1
  Mn  Mn15  1  0.86726300  0.23419900  0.96652500  1
  Mn  Mn16  1  0.86762300  0.23266800  0.46731400  1
  Mn  Mn17  1  0.36692500  0.23429300  0.96645800  1
  Mn  Mn18  1  0.11667800  0.23330900  0.71672200  1
  Mn  Mn19  1  0.61684300  0.23375200  0.21543200  1
  Mn  Mn20  1  0.63284200  0.76428500  0.53384100  1
  Mn  Mn21  1  0.13455100  0.76877000  0.03246300  1
  Mn  Mn22  1  0.13130100  0.76415900  0.53387000  1
  Mn  Mn23  1  0.63428000  0.76885100  0.03247700  1
  Mn  Mn24  1  0.88394000  0.76781900  0.28266300  1
  Mn  Mn25  1  0.38251000  0.76504300  0.78501500  1
  Fe  Fe26  1  0.25014300  0.50019400  0.74993700  1
  Si  Si27  1  0.86788800  0.73581000  0.79825000  1
  Si  Si28  1  0.36801300  0.73600900  0.29918700  1
  Si  Si29  1  0.13207200  0.26416000  0.20028700  1
  Si  Si30  1  0.63208000  0.26406700  0.70228800  1
  Sb  Sb31  1  0.74993200  0.49982500  0.25016200  1
  O  O32  1  0.96666700  0.40673200  0.87541600  1
  O  O33  1  0.47390300  0.41028300  0.37100700  1
  O  O34  1  0.44033700  0.40706600  0.87521200  1
  O  O35  1  0.93608200  0.40996100  0.37122700  1
  O  O36  1  0.70590800  0.41213600  0.14065100  1
  O  O37  1  0.20276000  0.40534000  0.63898400  1
  O  O38  1  0.02496300  0.59089500  0.12899200  1
  O  O39  1  0.53408700  0.59169300  0.62490300  1
  O  O40  1  0.56631900  0.59125300  0.12868700  1
  O  O41  1  0.05740800  0.59148600  0.62508300  1
  O  O42  1  0.29641400  0.59299800  0.86290700  1
  O  O43  1  0.79451900  0.58881900  0.35775300  1
  O  O44  1  0.79562400  0.59116900  0.87156100  1
  O  O45  1  0.29534000  0.59082500  0.37106200  1
  O  O46  1  0.20471900  0.40934500  0.12915800  1
  O  O47  1  0.70428900  0.40856700  0.62831100  1
  O  O48  1  0.73959600  0.05777300  0.06729600  1
  O  O49  1  0.23074100  0.05505800  0.57161600  1
  O  O50  1  0.31842900  0.05766700  0.06743400  1
  O  O51  1  0.82429200  0.05522700  0.57155800  1
  O  O52  1  0.52759700  0.05514000  0.27344700  1
  O  O53  1  0.02861900  0.05727900  0.77972400  1
  O  O54  1  0.26543900  0.94697700  0.92973300  1
  O  O55  1  0.76496300  0.94053800  0.43099900  1
  O  O56  1  0.68157400  0.94673500  0.92986000  1
  O  O57  1  0.17536800  0.94052500  0.43096700  1
  O  O58  1  0.47027900  0.94047500  0.72723200  1
  O  O59  1  0.97384400  0.94772500  0.21953400  1
  O  O60  1  0.60268000  0.20508700  0.39818300  1
  O  O61  1  0.09944300  0.19923700  0.89980100  1
  O  O62  1  0.90276300  0.80590200  0.09600100  1
  O  O63  1  0.39545400  0.79083400  0.60526500  1
  O  O64  1  0.09214500  0.78579600  0.83891000  1
  O  O65  1  0.59096500  0.78473200  0.34181000  1
  O  O66  1  0.89197900  0.78428400  0.64075500  1
  O  O67  1  0.39322400  0.78622500  0.14182300  1
  O  O68  1  0.69353800  0.78571300  0.83905600  1
  O  O69  1  0.19380300  0.78480000  0.34169900  1
  O  O70  1  0.90924700  0.21559500  0.15725400  1
  O  O71  1  0.40747300  0.21403700  0.66190400  1
  O  O72  1  0.10662800  0.21352800  0.35753200  1
  O  O73  1  0.60815800  0.21585000  0.85996500  1
  O  O74  1  0.30627300  0.21548800  0.15745800  1
  O  O75  1  0.80664500  0.21408500  0.66176100  1
