# generated using pymatgen
data_Ba6Br2N3Cl
_symmetry_space_group_name_H-M   'P 1'
_cell_length_a   4.16862822
_cell_length_b   4.16862822
_cell_length_c   23.59955200
_cell_angle_alpha   90.00000000
_cell_angle_beta   90.00000000
_cell_angle_gamma   120.00000348
_symmetry_Int_Tables_number   1
_chemical_formula_structural   Ba6Br2N3Cl
_chemical_formula_sum   'Ba6 Br2 N3 Cl1'
_cell_volume   355.15726538
_cell_formula_units_Z   1
loop_
 _symmetry_equiv_pos_site_id
 _symmetry_equiv_pos_as_xyz
  1  'x, y, z'
loop_
 _atom_site_type_symbol
 _atom_site_label
 _atom_site_symmetry_multiplicity
 _atom_site_fract_x
 _atom_site_fract_y
 _atom_site_fract_z
 _atom_site_occupancy
  Ba  Ba0  1  0.33333300  0.66666700  0.89764600  1
  Ba  Ba1  1  0.00000000  0.00000000  0.22817100  1
  Ba  Ba2  1  0.66666700  0.33333300  0.56211700  1
  Ba  Ba3  1  0.00000000  0.00000000  0.77182900  1
  Ba  Ba4  1  0.66666700  0.33333300  0.10235400  1
  Ba  Ba5  1  0.33333300  0.66666700  0.43788300  1
  Br  Br6  1  0.66666700  0.33333300  0.33329200  1
  Br  Br7  1  0.33333300  0.66666700  0.66670800  1
  N  N8  1  0.66666700  0.33333300  0.83425600  1
  N  N9  1  0.33333300  0.66666700  0.16574400  1
  N  N10  1  0.00000000  0.00000000  0.50000000  1
  Cl  Cl11  1  0.00000000  0.00000000  0.00000000  1
