# generated using pymatgen
data_BaSrEu4O8
_symmetry_space_group_name_H-M   'P 1'
_cell_length_a   3.58732400
_cell_length_b   10.52631500
_cell_length_c   12.46070000
_cell_angle_alpha   90.00000000
_cell_angle_beta   90.00000000
_cell_angle_gamma   90.00000000
_symmetry_Int_Tables_number   1
_chemical_formula_structural   BaSrEu4O8
_chemical_formula_sum   'Ba2 Sr2 Eu8 O16'
_cell_volume   470.53226120
_cell_formula_units_Z   2
loop_
 _symmetry_equiv_pos_site_id
 _symmetry_equiv_pos_as_xyz
  1  'x, y, z'
loop_
 _atom_site_type_symbol
 _atom_site_label
 _atom_site_symmetry_multiplicity
 _atom_site_fract_x
 _atom_site_fract_y
 _atom_site_fract_z
 _atom_site_occupancy
  Ba  Ba0  1  0.75000000  0.74854400  0.14984100  1
  Ba  Ba1  1  0.75000000  0.24854400  0.35015900  1
  Sr  Sr2  1  0.25000000  0.25559800  0.85152700  1
  Sr  Sr3  1  0.25000000  0.75559800  0.64847300  1
  Eu  Eu4  1  0.75000000  0.07553900  0.61333100  1
  Eu  Eu5  1  0.75000000  0.57553900  0.88666900  1
  Eu  Eu6  1  0.25000000  0.92222800  0.39334900  1
  Eu  Eu7  1  0.25000000  0.42222800  0.10665100  1
  Eu  Eu8  1  0.75000000  0.07945500  0.10773200  1
  Eu  Eu9  1  0.75000000  0.57945500  0.39226800  1
  Eu  Eu10  1  0.25000000  0.92547200  0.88468700  1
  Eu  Eu11  1  0.25000000  0.42547200  0.61531300  1
  O  O12  1  0.75000000  0.28567100  0.67718100  1
  O  O13  1  0.75000000  0.78567100  0.82281900  1
  O  O14  1  0.25000000  0.71448300  0.33173300  1
  O  O15  1  0.25000000  0.21448300  0.16826700  1
  O  O16  1  0.75000000  0.37265100  0.97564300  1
  O  O17  1  0.75000000  0.87265100  0.52435700  1
  O  O18  1  0.25000000  0.61869300  0.01547700  1
  O  O19  1  0.25000000  0.11869300  0.48452300  1
  O  O20  1  0.75000000  0.98832500  0.28542500  1
  O  O21  1  0.75000000  0.48832500  0.21457500  1
  O  O22  1  0.25000000  0.00204500  0.71280200  1
  O  O23  1  0.25000000  0.50204500  0.78719800  1
  O  O24  1  0.75000000  0.08229400  0.91707900  1
  O  O25  1  0.75000000  0.58229400  0.58292100  1
  O  O26  1  0.25000000  0.92900100  0.07245200  1
  O  O27  1  0.25000000  0.42900100  0.42754800  1
