# generated using pymatgen
data_BaH3IO6
_symmetry_space_group_name_H-M   'P 1'
_cell_length_a   5.12217109
_cell_length_b   5.07693766
_cell_length_c   5.08668018
_cell_angle_alpha   96.04897294
_cell_angle_beta   97.99410631
_cell_angle_gamma   99.96934433
_symmetry_Int_Tables_number   1
_chemical_formula_structural   BaH3IO6
_chemical_formula_sum   'Ba1 H3 I1 O6'
_cell_volume   127.87397833
_cell_formula_units_Z   1
loop_
 _symmetry_equiv_pos_site_id
 _symmetry_equiv_pos_as_xyz
  1  'x, y, z'
loop_
 _atom_site_type_symbol
 _atom_site_label
 _atom_site_symmetry_multiplicity
 _atom_site_fract_x
 _atom_site_fract_y
 _atom_site_fract_z
 _atom_site_occupancy
  Ba  Ba0  1  0.00351400  0.00224800  0.00297900  1
  H  H1  1  0.38162200  0.64979100  0.94294300  1
  H  H2  1  0.93510600  0.39902500  0.64636800  1
  H  H3  1  0.61206600  0.06248300  0.35387400  1
  I  I4  1  0.48808000  0.50777600  0.48821200  1
  O  O5  1  0.43926000  0.75879100  0.79529000  1
  O  O6  1  0.78438600  0.42036400  0.74991100  1
  O  O7  1  0.74824400  0.78949600  0.42815000  1
  O  O8  1  0.22352700  0.25576900  0.58410400  1
  O  O9  1  0.24826300  0.57085500  0.20299800  1
  O  O10  1  0.57593200  0.21340200  0.24517200  1
