# generated using pymatgen
data_Ca3Fe7(SiO4)6
_symmetry_space_group_name_H-M   'P 1'
_cell_length_a   10.42419710
_cell_length_b   10.42419710
_cell_length_c   10.42419710
_cell_angle_alpha   109.47122063
_cell_angle_beta   109.47122063
_cell_angle_gamma   109.47122063
_symmetry_Int_Tables_number   1
_chemical_formula_structural   Ca3Fe7(SiO4)6
_chemical_formula_sum   'Ca6 Fe14 Si12 O48'
_cell_volume   871.97885175
_cell_formula_units_Z   2
loop_
 _symmetry_equiv_pos_site_id
 _symmetry_equiv_pos_as_xyz
  1  'x, y, z'
loop_
 _atom_site_type_symbol
 _atom_site_label
 _atom_site_symmetry_multiplicity
 _atom_site_fract_x
 _atom_site_fract_y
 _atom_site_fract_z
 _atom_site_occupancy
  Ca  Ca0  1  0.12500000  0.37500000  0.75000000  1
  Ca  Ca1  1  0.37500000  0.12500000  0.25000000  1
  Ca  Ca2  1  0.37500000  0.75000000  0.12500000  1
  Ca  Ca3  1  0.12500000  0.25000000  0.37500000  1
  Ca  Ca4  1  0.75000000  0.12500000  0.37500000  1
  Ca  Ca5  1  0.25000000  0.37500000  0.12500000  1
  Fe  Fe6  1  0.99486500  0.50000000  0.00000000  1
  Fe  Fe7  1  0.00000000  0.99486500  0.50000000  1
  Fe  Fe8  1  0.50000000  0.00000000  0.99486500  1
  Fe  Fe9  1  0.50513500  0.50513500  0.50513500  1
  Fe  Fe10  1  0.50513500  0.50000000  0.00000000  1
  Fe  Fe11  1  0.50000000  0.00000000  0.50513500  1
  Fe  Fe12  1  0.00000000  0.50513500  0.50000000  1
  Fe  Fe13  1  0.99486500  0.99486500  0.99486500  1
  Fe  Fe14  1  0.87500000  0.62500000  0.25000000  1
  Fe  Fe15  1  0.62500000  0.87500000  0.75000000  1
  Fe  Fe16  1  0.62500000  0.25000000  0.87500000  1
  Fe  Fe17  1  0.87500000  0.75000000  0.62500000  1
  Fe  Fe18  1  0.25000000  0.87500000  0.62500000  1
  Fe  Fe19  1  0.75000000  0.62500000  0.87500000  1
  Si  Si20  1  0.37814100  0.62814100  0.75000000  1
  Si  Si21  1  0.12185900  0.87185900  0.25000000  1
  Si  Si22  1  0.62814100  0.75000000  0.37814100  1
  Si  Si23  1  0.87185900  0.25000000  0.12185900  1
  Si  Si24  1  0.75000000  0.37814100  0.62814100  1
  Si  Si25  1  0.25000000  0.12185900  0.87185900  1
  Si  Si26  1  0.62814100  0.37814100  0.25000000  1
  Si  Si27  1  0.87185900  0.12185900  0.75000000  1
  Si  Si28  1  0.37814100  0.25000000  0.62814100  1
  Si  Si29  1  0.12185900  0.75000000  0.87185900  1
  Si  Si30  1  0.25000000  0.62814100  0.37814100  1
  Si  Si31  1  0.75000000  0.87185900  0.12185900  1
  O  O32  1  0.08544300  0.87497700  0.39398300  1
  O  O33  1  0.98099400  0.69146000  0.10601700  1
  O  O34  1  0.51900600  0.62502300  0.71046700  1
  O  O35  1  0.41455700  0.80854000  0.78953300  1
  O  O36  1  0.87497700  0.39398300  0.08544300  1
  O  O37  1  0.69146000  0.10601700  0.98099400  1
  O  O38  1  0.62502300  0.71046700  0.51900600  1
  O  O39  1  0.80854000  0.78953300  0.41455700  1
  O  O40  1  0.39398300  0.08544300  0.87497700  1
  O  O41  1  0.10601700  0.98099400  0.69146000  1
  O  O42  1  0.71046700  0.51900600  0.62502300  1
  O  O43  1  0.78953300  0.41455700  0.80854000  1
  O  O44  1  0.91030300  0.11376500  0.60619300  1
  O  O45  1  0.00757200  0.30410900  0.89380700  1
  O  O46  1  0.49242800  0.38623500  0.29653800  1
  O  O47  1  0.58969700  0.19589100  0.20346200  1
  O  O48  1  0.11376500  0.60619300  0.91030300  1
  O  O49  1  0.30410900  0.89380700  0.00757200  1
  O  O50  1  0.38623500  0.29653800  0.49242800  1
  O  O51  1  0.19589100  0.20346200  0.58969700  1
  O  O52  1  0.60619300  0.91030300  0.11376500  1
  O  O53  1  0.89380700  0.00757200  0.30410900  1
  O  O54  1  0.29653800  0.49242800  0.38623500  1
  O  O55  1  0.20346200  0.58969700  0.19589100  1
  O  O56  1  0.58969700  0.89380700  0.38623500  1
  O  O57  1  0.49242800  0.60619300  0.19589100  1
  O  O58  1  0.00757200  0.20346200  0.11376500  1
  O  O59  1  0.91030300  0.29653800  0.30410900  1
  O  O60  1  0.38623500  0.58969700  0.89380700  1
  O  O61  1  0.19589100  0.49242800  0.60619300  1
  O  O62  1  0.11376500  0.00757200  0.20346200  1
  O  O63  1  0.30410900  0.91030300  0.29653800  1
  O  O64  1  0.89380700  0.38623500  0.58969700  1
  O  O65  1  0.60619300  0.19589100  0.49242800  1
  O  O66  1  0.20346200  0.11376500  0.00757200  1
  O  O67  1  0.29653800  0.30410900  0.91030300  1
  O  O68  1  0.41455700  0.10601700  0.62502300  1
  O  O69  1  0.51900600  0.39398300  0.80854000  1
  O  O70  1  0.98099400  0.78953300  0.87497700  1
  O  O71  1  0.08544300  0.71046700  0.69146000  1
  O  O72  1  0.62502300  0.41455700  0.10601700  1
  O  O73  1  0.80854000  0.51900600  0.39398300  1
  O  O74  1  0.87497700  0.98099400  0.78953300  1
  O  O75  1  0.69146000  0.08544300  0.71046700  1
  O  O76  1  0.10601700  0.62502300  0.41455700  1
  O  O77  1  0.39398300  0.80854000  0.51900600  1
  O  O78  1  0.78953300  0.87497700  0.98099400  1
  O  O79  1  0.71046700  0.69146000  0.08544300  1
