# generated using pymatgen
data_La3SmV2Cr2O12
_symmetry_space_group_name_H-M   'P 1'
_cell_length_a   3.90908000
_cell_length_b   7.88329900
_cell_length_c   7.88550700
_cell_angle_alpha   90.00000000
_cell_angle_beta   90.00000000
_cell_angle_gamma   90.00000000
_symmetry_Int_Tables_number   1
_chemical_formula_structural   La3SmV2Cr2O12
_chemical_formula_sum   'La3 Sm1 V2 Cr2 O12'
_cell_volume   243.00330424
_cell_formula_units_Z   1
loop_
 _symmetry_equiv_pos_site_id
 _symmetry_equiv_pos_as_xyz
  1  'x, y, z'
loop_
 _atom_site_type_symbol
 _atom_site_label
 _atom_site_symmetry_multiplicity
 _atom_site_fract_x
 _atom_site_fract_y
 _atom_site_fract_z
 _atom_site_occupancy
  La  La0  1  0.50000000  0.25054900  0.50000000  1
  La  La1  1  0.50000000  0.74607800  0.50000000  1
  La  La2  1  0.50000000  0.74905000  0.00000000  1
  Sm  Sm3  1  0.50000000  0.25462000  0.00000000  1
  V  V4  1  0.00000000  0.00108800  0.75085700  1
  V  V5  1  0.00000000  0.00108800  0.24914300  1
  Cr  Cr6  1  0.00000000  0.49940600  0.75073900  1
  Cr  Cr7  1  0.00000000  0.49940600  0.24926100  1
  O  O8  1  0.00000000  0.99703200  0.50000000  1
  O  O9  1  0.00000000  0.49887600  0.50000000  1
  O  O10  1  0.00000000  0.00735000  0.00000000  1
  O  O11  1  0.00000000  0.49652700  0.00000000  1
  O  O12  1  0.00000000  0.25286100  0.75541600  1
  O  O13  1  0.00000000  0.74744500  0.74900000  1
  O  O14  1  0.00000000  0.25286100  0.24458400  1
  O  O15  1  0.00000000  0.74744500  0.25100000  1
  O  O16  1  0.50000000  0.00167300  0.75170100  1
  O  O17  1  0.50000000  0.49748500  0.75250000  1
  O  O18  1  0.50000000  0.00167300  0.24829900  1
  O  O19  1  0.50000000  0.49748500  0.24750000  1
