# generated using pymatgen
data_Ba3V2Ni6(AsO6)4
_symmetry_space_group_name_H-M   'P 1'
_cell_length_a   5.04464000
_cell_length_b   8.39800456
_cell_length_c   13.34665672
_cell_angle_alpha   103.12110574
_cell_angle_beta   79.10714557
_cell_angle_gamma   107.47589825
_symmetry_Int_Tables_number   1
_chemical_formula_structural   Ba3V2Ni6(AsO6)4
_chemical_formula_sum   'Ba3 V2 Ni6 As4 O24'
_cell_volume   520.79077798
_cell_formula_units_Z   1
loop_
 _symmetry_equiv_pos_site_id
 _symmetry_equiv_pos_as_xyz
  1  'x, y, z'
loop_
 _atom_site_type_symbol
 _atom_site_label
 _atom_site_symmetry_multiplicity
 _atom_site_fract_x
 _atom_site_fract_y
 _atom_site_fract_z
 _atom_site_occupancy
  Ba  Ba0  1  0.00022000  0.00056500  0.00011600  1
  Ba  Ba1  1  0.33350500  0.00026600  0.33370400  1
  Ba  Ba2  1  0.66683300  0.00044200  0.66632200  1
  V  V3  1  0.23525500  0.27940400  0.80889700  1
  V  V4  1  0.56857500  0.27935900  0.14207300  1
  Ni  Ni5  1  0.10636500  0.49199700  0.27704300  1
  Ni  Ni6  1  0.44212900  0.49211900  0.61005600  1
  Ni  Ni7  1  0.77409400  0.49179300  0.94355300  1
  Ni  Ni8  1  0.89084000  0.50680700  0.72275900  1
  Ni  Ni9  1  0.22514500  0.50658500  0.05629900  1
  Ni  Ni10  1  0.55977700  0.50711600  0.38987700  1
  As  As11  1  0.09793300  0.72014600  0.52449400  1
  As  As12  1  0.43101800  0.71981800  0.85773700  1
  As  As13  1  0.76433500  0.71986100  0.19106700  1
  As  As14  1  0.90220700  0.28003100  0.47558000  1
  O  O15  1  0.19317000  0.93474300  0.54850800  1
  O  O16  1  0.52654000  0.93478200  0.88168400  1
  O  O17  1  0.85994500  0.93465800  0.21469700  1
  O  O18  1  0.80686700  0.06555600  0.45176800  1
  O  O19  1  0.13951100  0.06392200  0.78493400  1
  O  O20  1  0.47288700  0.06389600  0.11813100  1
  O  O21  1  0.84221500  0.65362800  0.62498400  1
  O  O22  1  0.17539900  0.65363100  0.95831200  1
  O  O23  1  0.50851100  0.65335900  0.29167900  1
  O  O24  1  0.96743500  0.65366100  0.40574800  1
  O  O25  1  0.30028900  0.65341400  0.73898800  1
  O  O26  1  0.63380800  0.65351200  0.07233900  1
  O  O27  1  0.39545000  0.65339200  0.52047400  1
  O  O28  1  0.72886100  0.65366800  0.85387300  1
  O  O29  1  0.06217700  0.65355400  0.18712800  1
  O  O30  1  0.15841400  0.34658100  0.37507000  1
  O  O31  1  0.49424400  0.34745900  0.70699800  1
  O  O32  1  0.82798600  0.34736100  0.04031300  1
  O  O33  1  0.03381300  0.34660000  0.59421500  1
  O  O34  1  0.36799200  0.34738000  0.92924100  1
  O  O35  1  0.70052700  0.34744800  0.26262000  1
  O  O36  1  0.60436800  0.34663000  0.47967200  1
  O  O37  1  0.93413400  0.34745200  0.81262300  1
  O  O38  1  0.26722300  0.34740300  0.14642500  1
