# generated using pymatgen
data_BaSr(FeO2)4
_symmetry_space_group_name_H-M   'P 1'
_cell_length_a   10.46439603
_cell_length_b   10.46439603
_cell_length_c   5.48345400
_cell_angle_alpha   90.00000000
_cell_angle_beta   90.00000000
_cell_angle_gamma   133.24855636
_symmetry_Int_Tables_number   1
_chemical_formula_structural   BaSr(FeO2)4
_chemical_formula_sum   'Ba2 Sr2 Fe8 O16'
_cell_volume   437.36644513
_cell_formula_units_Z   2
loop_
 _symmetry_equiv_pos_site_id
 _symmetry_equiv_pos_as_xyz
  1  'x, y, z'
loop_
 _atom_site_type_symbol
 _atom_site_label
 _atom_site_symmetry_multiplicity
 _atom_site_fract_x
 _atom_site_fract_y
 _atom_site_fract_z
 _atom_site_occupancy
  Ba  Ba0  1  0.61735800  0.38264200  0.78019400  1
  Ba  Ba1  1  0.38264200  0.61735800  0.28019400  1
  Sr  Sr2  1  0.12848800  0.87151200  0.74971900  1
  Sr  Sr3  1  0.87151200  0.12848800  0.24971900  1
  Fe  Fe4  1  0.92490500  0.50456700  0.25187700  1
  Fe  Fe5  1  0.49543300  0.07509500  0.25187700  1
  Fe  Fe6  1  0.07509500  0.49543300  0.75187700  1
  Fe  Fe7  1  0.50456700  0.92490500  0.75187700  1
  Fe  Fe8  1  0.77376800  0.68612500  0.26471200  1
  Fe  Fe9  1  0.31387500  0.22623200  0.26471200  1
  Fe  Fe10  1  0.22623200  0.31387500  0.76471200  1
  Fe  Fe11  1  0.68612500  0.77376800  0.76471200  1
  O  O12  1  0.92451800  0.51578900  0.59889900  1
  O  O13  1  0.48421100  0.07548200  0.59889900  1
  O  O14  1  0.07548200  0.48421100  0.09889900  1
  O  O15  1  0.51578900  0.92451800  0.09889900  1
  O  O16  1  0.92836000  0.67405400  0.10852100  1
  O  O17  1  0.32594600  0.07164000  0.10852100  1
  O  O18  1  0.07164000  0.32594600  0.60852100  1
  O  O19  1  0.67405400  0.92836000  0.60852100  1
  O  O20  1  0.28361100  0.71638900  0.65061700  1
  O  O21  1  0.71638900  0.28361100  0.15061700  1
  O  O22  1  0.83360500  0.75588100  0.59731000  1
  O  O23  1  0.24411900  0.16639500  0.59731000  1
  O  O24  1  0.16639500  0.24411900  0.09731000  1
  O  O25  1  0.75588100  0.83360500  0.09731000  1
  O  O26  1  0.45370500  0.54629500  0.76183300  1
  O  O27  1  0.54629500  0.45370500  0.26183300  1
