# generated using pymatgen
data_BaSc8Ni2O15
_symmetry_space_group_name_H-M   'P 1'
_cell_length_a   8.11844045
_cell_length_b   8.11844045
_cell_length_c   9.80846800
_cell_angle_alpha   90.00000000
_cell_angle_beta   90.00000000
_cell_angle_gamma   96.32331578
_symmetry_Int_Tables_number   1
_chemical_formula_structural   BaSc8Ni2O15
_chemical_formula_sum   'Ba2 Sc16 Ni4 O30'
_cell_volume   642.53409210
_cell_formula_units_Z   2
loop_
 _symmetry_equiv_pos_site_id
 _symmetry_equiv_pos_as_xyz
  1  'x, y, z'
loop_
 _atom_site_type_symbol
 _atom_site_label
 _atom_site_symmetry_multiplicity
 _atom_site_fract_x
 _atom_site_fract_y
 _atom_site_fract_z
 _atom_site_occupancy
  Ba  Ba0  1  0.76463500  0.76463500  0.51156600  1
  Ba  Ba1  1  0.23536500  0.23536500  0.01156600  1
  Sc  Sc2  1  0.43625100  0.43625100  0.63679000  1
  Sc  Sc3  1  0.06345500  0.06345500  0.36311600  1
  Sc  Sc4  1  0.56374900  0.56374900  0.13679000  1
  Sc  Sc5  1  0.93654500  0.93654500  0.86311600  1
  Sc  Sc6  1  0.03152200  0.29624200  0.64837200  1
  Sc  Sc7  1  0.20306300  0.46226200  0.35420400  1
  Sc  Sc8  1  0.70375800  0.96847800  0.14837200  1
  Sc  Sc9  1  0.53773800  0.79693700  0.85420400  1
  Sc  Sc10  1  0.46226200  0.20306300  0.35420400  1
  Sc  Sc11  1  0.29624200  0.03152200  0.64837200  1
  Sc  Sc12  1  0.79693700  0.53773800  0.85420400  1
  Sc  Sc13  1  0.96847800  0.70375800  0.14837200  1
  Sc  Sc14  1  0.17476900  0.65078000  0.88592400  1
  Sc  Sc15  1  0.34922000  0.82523100  0.38592400  1
  Sc  Sc16  1  0.65078000  0.17476900  0.88592400  1
  Sc  Sc17  1  0.82523100  0.34922000  0.38592400  1
  Ni  Ni18  1  0.84494900  0.33085500  0.11199400  1
  Ni  Ni19  1  0.66914500  0.15505100  0.61199400  1
  Ni  Ni20  1  0.33085500  0.84494900  0.11199400  1
  Ni  Ni21  1  0.15505100  0.66914500  0.61199400  1
  O  O22  1  0.11156200  0.85619000  0.00361800  1
  O  O23  1  0.64317000  0.39067900  0.99399500  1
  O  O24  1  0.14381000  0.88843800  0.50361800  1
  O  O25  1  0.60932100  0.35683000  0.49399500  1
  O  O26  1  0.39067900  0.64317000  0.99399500  1
  O  O27  1  0.85619000  0.11156200  0.00361800  1
  O  O28  1  0.35683000  0.60932100  0.49399500  1
  O  O29  1  0.88843800  0.14381000  0.50361800  1
  O  O30  1  0.10118400  0.10118400  0.76381500  1
  O  O31  1  0.39794700  0.39794700  0.23575200  1
  O  O32  1  0.89881600  0.89881600  0.26381500  1
  O  O33  1  0.60205300  0.60205300  0.73575200  1
  O  O34  1  0.81667800  0.32050300  0.75072400  1
  O  O35  1  0.18332200  0.67949700  0.25072400  1
  O  O36  1  0.67949700  0.18332200  0.25072400  1
  O  O37  1  0.32050300  0.81667800  0.75072400  1
  O  O38  1  0.99695000  0.50692000  0.99894400  1
  O  O39  1  0.49308000  0.00305000  0.49894400  1
  O  O40  1  0.50692000  0.99695000  0.99894400  1
  O  O41  1  0.00305000  0.49308000  0.49894400  1
  O  O42  1  0.71205900  0.96980700  0.75700000  1
  O  O43  1  0.53423300  0.78947900  0.24078700  1
  O  O44  1  0.03019300  0.28794100  0.25700000  1
  O  O45  1  0.21052100  0.46576700  0.74078700  1
  O  O46  1  0.78947900  0.53423300  0.24078700  1
  O  O47  1  0.96980700  0.71205900  0.75700000  1
  O  O48  1  0.46576700  0.21052100  0.74078700  1
  O  O49  1  0.28794100  0.03019300  0.25700000  1
  O  O50  1  0.74982700  0.74982700  0.99783500  1
  O  O51  1  0.25017300  0.25017300  0.49783500  1
