# generated using pymatgen
data_Ba4CaZr5O15
_symmetry_space_group_name_H-M   'P 1'
_cell_length_a   9.46619400
_cell_length_b   9.46619400
_cell_length_c   4.23450400
_cell_angle_alpha   90.00000000
_cell_angle_beta   90.00000000
_cell_angle_gamma   90.00000000
_symmetry_Int_Tables_number   1
_chemical_formula_structural   Ba4CaZr5O15
_chemical_formula_sum   'Ba4 Ca1 Zr5 O15'
_cell_volume   379.44894418
_cell_formula_units_Z   1
loop_
 _symmetry_equiv_pos_site_id
 _symmetry_equiv_pos_as_xyz
  1  'x, y, z'
loop_
 _atom_site_type_symbol
 _atom_site_label
 _atom_site_symmetry_multiplicity
 _atom_site_fract_x
 _atom_site_fract_y
 _atom_site_fract_z
 _atom_site_occupancy
  Ba  Ba0  1  0.69989700  0.89980600  0.50000000  1
  Ba  Ba1  1  0.89980600  0.30010300  0.50000000  1
  Ba  Ba2  1  0.10019400  0.69989700  0.50000000  1
  Ba  Ba3  1  0.30010300  0.10019400  0.50000000  1
  Ca  Ca4  1  0.50000000  0.50000000  0.50000000  1
  Zr  Zr5  1  0.20130500  0.40044900  0.00000000  1
  Zr  Zr6  1  0.40044900  0.79869500  0.00000000  1
  Zr  Zr7  1  0.59955100  0.20130500  0.00000000  1
  Zr  Zr8  1  0.79869500  0.59955100  0.00000000  1
  Zr  Zr9  1  0.00000000  0.00000000  0.00000000  1
  O  O10  1  0.30175900  0.59912000  0.00000000  1
  O  O11  1  0.50000000  0.00000000  0.00000000  1
  O  O12  1  0.69824100  0.40088000  0.00000000  1
  O  O13  1  0.89983900  0.79982500  0.00000000  1
  O  O14  1  0.10016100  0.20017500  0.00000000  1
  O  O15  1  0.00000000  0.50000000  0.00000000  1
  O  O16  1  0.20017500  0.89983900  0.00000000  1
  O  O17  1  0.40088000  0.30175900  0.00000000  1
  O  O18  1  0.59912000  0.69824100  0.00000000  1
  O  O19  1  0.79982500  0.10016100  0.00000000  1
  O  O20  1  0.20147100  0.40048000  0.50000000  1
  O  O21  1  0.40048000  0.79852900  0.50000000  1
  O  O22  1  0.59952000  0.20147100  0.50000000  1
  O  O23  1  0.79852900  0.59952000  0.50000000  1
  O  O24  1  0.00000000  0.00000000  0.50000000  1
