# generated using pymatgen
data_Ba3TiAl10O20
_symmetry_space_group_name_H-M   'P 1'
_cell_length_a   9.77028385
_cell_length_b   9.77028385
_cell_length_c   5.02803644
_cell_angle_alpha   75.60947615
_cell_angle_beta   75.60947615
_cell_angle_gamma   72.07307242
_symmetry_Int_Tables_number   1
_chemical_formula_structural   Ba3TiAl10O20
_chemical_formula_sum   'Ba3 Ti1 Al10 O20'
_cell_volume   434.56296133
_cell_formula_units_Z   1
loop_
 _symmetry_equiv_pos_site_id
 _symmetry_equiv_pos_as_xyz
  1  'x, y, z'
loop_
 _atom_site_type_symbol
 _atom_site_label
 _atom_site_symmetry_multiplicity
 _atom_site_fract_x
 _atom_site_fract_y
 _atom_site_fract_z
 _atom_site_occupancy
  Ba  Ba0  1  0.00000000  0.00000000  0.00000000  1
  Ba  Ba1  1  0.27826300  0.27826300  0.74984300  1
  Ba  Ba2  1  0.72173700  0.72173700  0.25015700  1
  Ti  Ti3  1  0.50000000  0.50000000  0.00000000  1
  Al  Al4  1  0.84967000  0.42357700  0.83747900  1
  Al  Al5  1  0.57642300  0.15033000  0.16252100  1
  Al  Al6  1  0.15033000  0.57642300  0.16252100  1
  Al  Al7  1  0.42357700  0.84967000  0.83747900  1
  Al  Al8  1  0.36384500  0.63615500  0.50000000  1
  Al  Al9  1  0.63615500  0.36384500  0.50000000  1
  Al  Al10  1  0.99274800  0.71330900  0.65931200  1
  Al  Al11  1  0.28669100  0.00725200  0.34068800  1
  Al  Al12  1  0.00725200  0.28669100  0.34068800  1
  Al  Al13  1  0.71330900  0.99274800  0.65931200  1
  O  O14  1  0.55252600  0.30634800  0.88661900  1
  O  O15  1  0.69365200  0.44747400  0.11338100  1
  O  O16  1  0.44747400  0.69365200  0.11338100  1
  O  O17  1  0.30634800  0.55252600  0.88661900  1
  O  O18  1  0.71002500  0.01316500  0.00086200  1
  O  O19  1  0.98683500  0.28997500  0.99913800  1
  O  O20  1  0.28997500  0.98683500  0.99913800  1
  O  O21  1  0.01316500  0.71002500  0.00086200  1
  O  O22  1  0.43736400  0.43736400  0.39281200  1
  O  O23  1  0.56263600  0.56263600  0.60718800  1
  O  O24  1  0.89322500  0.89322500  0.53302000  1
  O  O25  1  0.10677500  0.10677500  0.46698000  1
  O  O26  1  0.88166200  0.59596300  0.69435800  1
  O  O27  1  0.40403700  0.11833800  0.30564200  1
  O  O28  1  0.11833800  0.40403700  0.30564200  1
  O  O29  1  0.59596300  0.88166200  0.69435800  1
  O  O30  1  0.17003300  0.65806500  0.43400500  1
  O  O31  1  0.34193500  0.82996700  0.56599500  1
  O  O32  1  0.82996700  0.34193500  0.56599500  1
  O  O33  1  0.65806500  0.17003300  0.43400500  1
