# generated using pymatgen
data_BaLaInO4
_symmetry_space_group_name_H-M   'P 1'
_cell_length_a   5.99125300
_cell_length_b   5.91932700
_cell_length_c   13.42382700
_cell_angle_alpha   90.00000000
_cell_angle_beta   90.00000000
_cell_angle_gamma   90.00000000
_symmetry_Int_Tables_number   1
_chemical_formula_structural   BaLaInO4
_chemical_formula_sum   'Ba4 La4 In4 O16'
_cell_volume   476.06509282
_cell_formula_units_Z   4
loop_
 _symmetry_equiv_pos_site_id
 _symmetry_equiv_pos_as_xyz
  1  'x, y, z'
loop_
 _atom_site_type_symbol
 _atom_site_label
 _atom_site_symmetry_multiplicity
 _atom_site_fract_x
 _atom_site_fract_y
 _atom_site_fract_z
 _atom_site_occupancy
  Ba  Ba0  1  0.48338600  0.99821600  0.35424700  1
  Ba  Ba1  1  0.01661400  0.49821600  0.64575300  1
  Ba  Ba2  1  0.48338600  0.49821600  0.14575300  1
  Ba  Ba3  1  0.01661400  0.99821600  0.85424700  1
  La  La4  1  0.55083400  0.47698000  0.85312700  1
  La  La5  1  0.94916600  0.97698000  0.14687300  1
  La  La6  1  0.55083400  0.97698000  0.64687300  1
  La  La7  1  0.94916600  0.47698000  0.35312700  1
  In  In8  1  0.49471800  0.99547300  0.00092200  1
  In  In9  1  0.49471800  0.49547300  0.49907800  1
  In  In10  1  0.00528200  0.49547300  0.99907800  1
  In  In11  1  0.00528200  0.99547300  0.50092200  1
  O  O12  1  0.55662500  0.97439500  0.16440100  1
  O  O13  1  0.49502900  0.57739200  0.67787600  1
  O  O14  1  0.94337500  0.47439500  0.83559900  1
  O  O15  1  0.00497100  0.07739200  0.32212400  1
  O  O16  1  0.49502900  0.07739200  0.82212400  1
  O  O17  1  0.55662500  0.47439500  0.33559900  1
  O  O18  1  0.00497100  0.57739200  0.17787600  1
  O  O19  1  0.94337500  0.97439500  0.66440100  1
  O  O20  1  0.70518400  0.78868300  0.49675700  1
  O  O21  1  0.30952400  0.68885900  0.96899300  1
  O  O22  1  0.79481600  0.28868300  0.50324300  1
  O  O23  1  0.19047600  0.18885900  0.03100700  1
  O  O24  1  0.30952400  0.18885900  0.53100700  1
  O  O25  1  0.70518400  0.28868300  0.00324300  1
  O  O26  1  0.19047600  0.68885900  0.46899300  1
  O  O27  1  0.79481600  0.78868300  0.99675700  1
