# generated using pymatgen
data_Ba4CaTi5O15
_symmetry_space_group_name_H-M   'P 1'
_cell_length_a   4.00903700
_cell_length_b   4.00903700
_cell_length_c   20.03820900
_cell_angle_alpha   90.00000000
_cell_angle_beta   90.00000000
_cell_angle_gamma   90.00000000
_symmetry_Int_Tables_number   1
_chemical_formula_structural   Ba4CaTi5O15
_chemical_formula_sum   'Ba4 Ca1 Ti5 O15'
_cell_volume   322.06166283
_cell_formula_units_Z   1
loop_
 _symmetry_equiv_pos_site_id
 _symmetry_equiv_pos_as_xyz
  1  'x, y, z'
loop_
 _atom_site_type_symbol
 _atom_site_label
 _atom_site_symmetry_multiplicity
 _atom_site_fract_x
 _atom_site_fract_y
 _atom_site_fract_z
 _atom_site_occupancy
  Ba  Ba0  1  0.00000000  0.00000000  0.19829500  1
  Ba  Ba1  1  0.00000000  0.00000000  0.39998800  1
  Ba  Ba2  1  0.00000000  0.00000000  0.60001200  1
  Ba  Ba3  1  0.00000000  0.00000000  0.80170500  1
  Ca  Ca4  1  0.00000000  0.00000000  0.00000000  1
  Ti  Ti5  1  0.50000000  0.50000000  0.09584800  1
  Ti  Ti6  1  0.50000000  0.50000000  0.29925100  1
  Ti  Ti7  1  0.50000000  0.50000000  0.50000000  1
  Ti  Ti8  1  0.50000000  0.50000000  0.70074900  1
  Ti  Ti9  1  0.50000000  0.50000000  0.90415200  1
  O  O10  1  0.50000000  0.50000000  0.00000000  1
  O  O11  1  0.50000000  0.50000000  0.19829200  1
  O  O12  1  0.50000000  0.50000000  0.39983300  1
  O  O13  1  0.50000000  0.50000000  0.60016700  1
  O  O14  1  0.50000000  0.50000000  0.80170800  1
  O  O15  1  0.50000000  0.00000000  0.09326200  1
  O  O16  1  0.50000000  0.00000000  0.29969300  1
  O  O17  1  0.50000000  0.00000000  0.50000000  1
  O  O18  1  0.50000000  0.00000000  0.70030700  1
  O  O19  1  0.50000000  0.00000000  0.90673800  1
  O  O20  1  0.00000000  0.50000000  0.09326200  1
  O  O21  1  0.00000000  0.50000000  0.29969300  1
  O  O22  1  0.00000000  0.50000000  0.50000000  1
  O  O23  1  0.00000000  0.50000000  0.70030700  1
  O  O24  1  0.00000000  0.50000000  0.90673800  1
