# generated using pymatgen
data_Ba3Mo2(NO3)2
_symmetry_space_group_name_H-M   'P 1'
_cell_length_a   8.02701056
_cell_length_b   8.02701056
_cell_length_c   8.02701024
_cell_angle_alpha   44.61874328
_cell_angle_beta   44.61874328
_cell_angle_gamma   44.61873852
_symmetry_Int_Tables_number   1
_chemical_formula_structural   Ba3Mo2(NO3)2
_chemical_formula_sum   'Ba3 Mo2 N2 O6'
_cell_volume   232.05493329
_cell_formula_units_Z   1
loop_
 _symmetry_equiv_pos_site_id
 _symmetry_equiv_pos_as_xyz
  1  'x, y, z'
loop_
 _atom_site_type_symbol
 _atom_site_label
 _atom_site_symmetry_multiplicity
 _atom_site_fract_x
 _atom_site_fract_y
 _atom_site_fract_z
 _atom_site_occupancy
  Ba  Ba0  1  0.20155300  0.20155300  0.20155300  1
  Ba  Ba1  1  0.79844700  0.79844700  0.79844700  1
  Ba  Ba2  1  0.00000000  0.00000000  0.00000000  1
  Mo  Mo3  1  0.59353000  0.59353000  0.59353000  1
  Mo  Mo4  1  0.40647000  0.40647000  0.40647000  1
  N  N5  1  0.67423500  0.67423500  0.67423500  1
  N  N6  1  0.32576500  0.32576500  0.32576500  1
  O  O7  1  0.26769700  0.26769700  0.76814800  1
  O  O8  1  0.76814800  0.26769700  0.26769700  1
  O  O9  1  0.26769700  0.76814800  0.26769700  1
  O  O10  1  0.73230300  0.73230300  0.23185200  1
  O  O11  1  0.23185200  0.73230300  0.73230300  1
  O  O12  1  0.73230300  0.23185200  0.73230300  1
