# generated using pymatgen
data_BaNb2Fe2(PO4)6
_symmetry_space_group_name_H-M   'P 1'
_cell_length_a   9.30070404
_cell_length_b   9.30070404
_cell_length_c   9.30070414
_cell_angle_alpha   55.32775658
_cell_angle_beta   55.32775658
_cell_angle_gamma   55.32775833
_symmetry_Int_Tables_number   1
_chemical_formula_structural   BaNb2Fe2(PO4)6
_chemical_formula_sum   'Ba1 Nb2 Fe2 P6 O24'
_cell_volume   507.13570180
_cell_formula_units_Z   1
loop_
 _symmetry_equiv_pos_site_id
 _symmetry_equiv_pos_as_xyz
  1  'x, y, z'
loop_
 _atom_site_type_symbol
 _atom_site_label
 _atom_site_symmetry_multiplicity
 _atom_site_fract_x
 _atom_site_fract_y
 _atom_site_fract_z
 _atom_site_occupancy
  Ba  Ba0  1  0.49628100  0.49628100  0.49628100  1
  Nb  Nb1  1  0.64948700  0.64948700  0.64948700  1
  Nb  Nb2  1  0.14597500  0.14597500  0.14597500  1
  Fe  Fe3  1  0.34666600  0.34666600  0.34666600  1
  Fe  Fe4  1  0.85310400  0.85310400  0.85310400  1
  P  P5  1  0.97061200  0.53783100  0.24319900  1
  P  P6  1  0.24319900  0.97061200  0.53783100  1
  P  P7  1  0.53783100  0.24319900  0.97061200  1
  P  P8  1  0.74512100  0.03816300  0.47062500  1
  P  P9  1  0.47062500  0.74512100  0.03816300  1
  P  P10  1  0.03816300  0.47062500  0.74512100  1
  O  O11  1  0.13978900  0.51162400  0.25554300  1
  O  O12  1  0.25554300  0.13978900  0.51162400  1
  O  O13  1  0.51162400  0.25554300  0.13978900  1
  O  O14  1  0.74858300  0.01692600  0.64325300  1
  O  O15  1  0.64325300  0.74858300  0.01692600  1
  O  O16  1  0.01692600  0.64325300  0.74858300  1
  O  O17  1  0.86027300  0.49395100  0.74000500  1
  O  O18  1  0.74000500  0.86027300  0.49395100  1
  O  O19  1  0.49395100  0.74000500  0.86027300  1
  O  O20  1  0.24749300  0.98826200  0.35634700  1
  O  O21  1  0.35634700  0.24749300  0.98826200  1
  O  O22  1  0.98826200  0.35634700  0.24749300  1
  O  O23  1  0.21043800  0.42542900  0.57608200  1
  O  O24  1  0.57608200  0.21043800  0.42542900  1
  O  O25  1  0.42542900  0.57608200  0.21043800  1
  O  O26  1  0.07479500  0.92657000  0.70409000  1
  O  O27  1  0.70409000  0.07479500  0.92657000  1
  O  O28  1  0.92657000  0.70409000  0.07479500  1
  O  O29  1  0.79481600  0.56513700  0.42943600  1
  O  O30  1  0.42943600  0.79481600  0.56513700  1
  O  O31  1  0.56513700  0.42943600  0.79481600  1
  O  O32  1  0.93007900  0.06351300  0.30050200  1
  O  O33  1  0.30050200  0.93007900  0.06351300  1
  O  O34  1  0.06351300  0.30050200  0.93007900  1
