# generated using pymatgen
data_Ba3SrYb2(ReO6)2
_symmetry_space_group_name_H-M   'P 1'
_cell_length_a   5.93449973
_cell_length_b   5.93449973
_cell_length_c   10.28945385
_cell_angle_alpha   73.23913900
_cell_angle_beta   90.00000000
_cell_angle_gamma   120.00000000
_symmetry_Int_Tables_number   1
_chemical_formula_structural   Ba3SrYb2(ReO6)2
_chemical_formula_sum   'Ba3 Sr1 Yb2 Re2 O12'
_cell_volume   295.91760651
_cell_formula_units_Z   1
loop_
 _symmetry_equiv_pos_site_id
 _symmetry_equiv_pos_as_xyz
  1  'x, y, z'
loop_
 _atom_site_type_symbol
 _atom_site_label
 _atom_site_symmetry_multiplicity
 _atom_site_fract_x
 _atom_site_fract_y
 _atom_site_fract_z
 _atom_site_occupancy
  Ba  Ba0  1  0.12495300  0.24990700  0.62514000  1
  Ba  Ba1  1  0.87526600  0.75053300  0.37420100  1
  Ba  Ba2  1  0.37477600  0.74955200  0.87567200  1
  Sr  Sr3  1  0.62499900  0.24999800  0.12500200  1
  Yb  Yb4  1  0.25015100  0.50030200  0.24954700  1
  Yb  Yb5  1  0.74984400  0.49968900  0.75046700  1
  Re  Re6  1  0.99979700  0.99959400  0.00060900  1
  Re  Re7  1  0.50020200  0.00040400  0.49939300  1
  O  O8  1  0.11545800  0.23091500  0.11591100  1
  O  O9  1  0.61539700  0.23079400  0.61507400  1
  O  O10  1  0.38571200  0.23125500  0.38303300  1
  O  O11  1  0.88339300  0.23063500  0.88597200  1
  O  O12  1  0.65317400  0.76863200  0.11591100  1
  O  O13  1  0.15413200  0.76952900  0.61507400  1
  O  O14  1  0.38571200  0.77142500  0.38303300  1
  O  O15  1  0.88339300  0.76678700  0.88597200  1
  O  O16  1  0.11545800  0.76863200  0.11591100  1
  O  O17  1  0.61539700  0.76952900  0.61507400  1
  O  O18  1  0.84554200  0.23125500  0.38303300  1
  O  O19  1  0.34724100  0.23063500  0.88597200  1
