# generated using pymatgen
data_Ba3Pb(SO4)4
_symmetry_space_group_name_H-M   'P 1'
_cell_length_a   5.52839800
_cell_length_b   7.20650100
_cell_length_c   8.90375791
_cell_angle_alpha   89.88507063
_cell_angle_beta   90.00000000
_cell_angle_gamma   90.00000000
_symmetry_Int_Tables_number   1
_chemical_formula_structural   Ba3Pb(SO4)4
_chemical_formula_sum   'Ba3 Pb1 S4 O16'
_cell_volume   354.72861398
_cell_formula_units_Z   1
loop_
 _symmetry_equiv_pos_site_id
 _symmetry_equiv_pos_as_xyz
  1  'x, y, z'
loop_
 _atom_site_type_symbol
 _atom_site_label
 _atom_site_symmetry_multiplicity
 _atom_site_fract_x
 _atom_site_fract_y
 _atom_site_fract_z
 _atom_site_occupancy
  Ba  Ba0  1  0.50000000  0.84060500  0.18488800  1
  Ba  Ba1  1  0.00000000  0.34111700  0.31594700  1
  Ba  Ba2  1  0.00000000  0.15933700  0.81497500  1
  Pb  Pb3  1  0.50000000  0.66234200  0.68653000  1
  S  S4  1  0.00000000  0.68835100  0.93467500  1
  S  S5  1  0.00000000  0.81023100  0.43916300  1
  S  S6  1  0.50000000  0.31094300  0.06231900  1
  S  S7  1  0.50000000  0.18981800  0.56331400  1
  O  O8  1  0.00000000  0.54770800  0.81289900  1
  O  O9  1  0.00000000  0.94862900  0.31455400  1
  O  O10  1  0.50000000  0.45090300  0.18524300  1
  O  O11  1  0.50000000  0.04650400  0.68514100  1
  O  O12  1  0.22096600  0.80952500  0.91651400  1
  O  O13  1  0.77932500  0.68866900  0.42299100  1
  O  O14  1  0.71934500  0.18928300  0.07997800  1
  O  O15  1  0.28117400  0.31168200  0.58139000  1
  O  O16  1  0.28065500  0.18928300  0.07997800  1
  O  O17  1  0.71882600  0.31168200  0.58139000  1
  O  O18  1  0.77903400  0.80952500  0.91651400  1
  O  O19  1  0.22067500  0.68866900  0.42299100  1
  O  O20  1  0.00000000  0.60617600  0.08664000  1
  O  O21  1  0.00000000  0.89727200  0.58864900  1
  O  O22  1  0.50000000  0.39592400  0.91112500  1
  O  O23  1  0.50000000  0.10582300  0.41219100  1
