# generated using pymatgen
data_Ba4LaTi4CrO15
_symmetry_space_group_name_H-M   'P 1'
_cell_length_a   6.97031183
_cell_length_b   28.29731737
_cell_length_c   6.97031183
_cell_angle_alpha   90.00002427
_cell_angle_beta   70.33515018
_cell_angle_gamma   90.00004290
_symmetry_Int_Tables_number   1
_chemical_formula_structural   Ba4LaTi4CrO15
_chemical_formula_sum   'Ba16 La4 Ti16 Cr4 O60'
_cell_volume   1294.64805355
_cell_formula_units_Z   4
loop_
 _symmetry_equiv_pos_site_id
 _symmetry_equiv_pos_as_xyz
  1  'x, y, z'
loop_
 _atom_site_type_symbol
 _atom_site_label
 _atom_site_symmetry_multiplicity
 _atom_site_fract_x
 _atom_site_fract_y
 _atom_site_fract_z
 _atom_site_occupancy
  Ba  Ba0  1  0.24999500  0.49865200  0.25000900  1
  Ba  Ba1  1  0.50000000  0.99864200  0.50000400  1
  Ba  Ba2  1  0.75001300  0.49863900  0.74999200  1
  Ba  Ba3  1  0.00000300  0.99862700  0.00000200  1
  Ba  Ba4  1  0.25000200  0.30134600  0.25000100  1
  Ba  Ba5  1  0.49999400  0.80135800  0.50001000  1
  Ba  Ba6  1  0.75000200  0.30135900  0.75000100  1
  Ba  Ba7  1  0.00000600  0.80137200  0.99999800  1
  Ba  Ba8  1  0.25000700  0.09960200  0.24999900  1
  Ba  Ba9  1  0.50000200  0.59959800  0.50000100  1
  Ba  Ba10  1  0.74999900  0.09960200  0.75000600  1
  Ba  Ba11  1  0.99999700  0.59959900  0.00000400  1
  Ba  Ba12  1  0.50000300  0.20040400  0.50000000  1
  Ba  Ba13  1  0.74999700  0.70039800  0.75000900  1
  Ba  Ba14  1  0.99999800  0.20040300  0.00000500  1
  Ba  Ba15  1  0.25000400  0.70039700  0.25000000  1
  La  La16  1  0.50005700  0.39999700  0.49999700  1
  La  La17  1  0.74996400  0.90000800  0.75007100  1
  La  La18  1  0.99995800  0.39999700  0.99998200  1
  La  La19  1  0.25001200  0.90000200  0.24990500  1
  Ti  Ti20  1  0.75000300  0.49800000  0.25000600  1
  Ti  Ti21  1  0.99999300  0.99802400  0.49998900  1
  Ti  Ti22  1  0.24999900  0.49801100  0.75000200  1
  Ti  Ti23  1  0.49999500  0.99800100  0.00000000  1
  Ti  Ti24  1  0.74999900  0.30199500  0.24999800  1
  Ti  Ti25  1  0.99999200  0.80197400  0.49999600  1
  Ti  Ti26  1  0.25000600  0.30198300  0.75000700  1
  Ti  Ti27  1  0.49999500  0.80199500  0.99999100  1
  Ti  Ti28  1  0.74999600  0.09948600  0.24998800  1
  Ti  Ti29  1  0.99999400  0.59948800  0.50000000  1
  Ti  Ti30  1  0.25000700  0.09948600  0.75001000  1
  Ti  Ti31  1  0.50000700  0.59948500  0.00000400  1
  Ti  Ti32  1  0.50000800  0.20051400  0.00000300  1
  Ti  Ti33  1  0.74999400  0.70051400  0.24999000  1
  Ti  Ti34  1  0.99999700  0.20051400  0.50000000  1
  Ti  Ti35  1  0.25000500  0.70051200  0.75001000  1
  Cr  Cr36  1  0.49992100  0.39999600  0.99999400  1
  Cr  Cr37  1  0.75000600  0.89999700  0.25010400  1
  Cr  Cr38  1  0.00010200  0.39998900  0.49997600  1
  Cr  Cr39  1  0.24996600  0.90000100  0.74994100  1
  O  O40  1  0.25002300  0.39999800  0.24998200  1
  O  O41  1  0.49998100  0.90000500  0.49999800  1
  O  O42  1  0.75002400  0.39999800  0.74998300  1
  O  O43  1  0.99997900  0.90000500  0.99999600  1
  O  O44  1  0.62500800  0.15000400  0.12501100  1
  O  O45  1  0.87499500  0.65000200  0.37499700  1
  O  O46  1  0.12500800  0.15000400  0.62500900  1
  O  O47  1  0.37499300  0.65000100  0.87499300  1
  O  O48  1  0.37499200  0.15000500  0.87499400  1
  O  O49  1  0.62500800  0.65000100  0.12501000  1
  O  O50  1  0.87499400  0.15000400  0.37499500  1
  O  O51  1  0.12500800  0.65000100  0.62500800  1
  O  O52  1  0.25000200  0.20025700  0.25000100  1
  O  O53  1  0.50000100  0.70025300  0.50000300  1
  O  O54  1  0.74999800  0.20025600  0.75000500  1
  O  O55  1  0.00000100  0.70025200  0.00000300  1
  O  O56  1  0.50000200  0.09974900  0.50000200  1
  O  O57  1  0.75000100  0.59974600  0.75000200  1
  O  O58  1  0.99999900  0.09975000  0.00000300  1
  O  O59  1  0.25000000  0.59974500  0.25000200  1
  O  O60  1  0.50000100  0.30394700  0.50000500  1
  O  O61  1  0.75000600  0.80394100  0.75000100  1
  O  O62  1  0.00000200  0.30394600  0.99999600  1
  O  O63  1  0.24999400  0.80394200  0.25000600  1
  O  O64  1  0.50000200  0.49605500  0.50000500  1
  O  O65  1  0.75000600  0.99606000  0.75000000  1
  O  O66  1  0.00000300  0.49605500  0.99999600  1
  O  O67  1  0.24999500  0.99606100  0.25000500  1
  O  O68  1  0.63289800  0.35224500  0.13293200  1
  O  O69  1  0.88293600  0.85224700  0.38297700  1
  O  O70  1  0.13296500  0.35224000  0.63291700  1
  O  O71  1  0.38292900  0.85225300  0.88289700  1
  O  O72  1  0.86711200  0.44774700  0.36706400  1
  O  O73  1  0.11704100  0.94775600  0.61700600  1
  O  O74  1  0.36704700  0.44775300  0.86708200  1
  O  O75  1  0.61704900  0.94775000  0.11709500  1
  O  O76  1  0.63289800  0.44775100  0.13293200  1
  O  O77  1  0.88293400  0.94775200  0.38298100  1
  O  O78  1  0.13296200  0.44774900  0.63291300  1
  O  O79  1  0.38293600  0.94774900  0.88289800  1
  O  O80  1  0.86711000  0.35224200  0.36706300  1
  O  O81  1  0.11704600  0.85224800  0.61700600  1
  O  O82  1  0.36704900  0.35224300  0.86708200  1
  O  O83  1  0.61705000  0.85225000  0.11709800  1
  O  O84  1  0.87534300  0.25101700  0.37534300  1
  O  O85  1  0.12534900  0.75102200  0.62535100  1
  O  O86  1  0.37533700  0.25102000  0.87533900  1
  O  O87  1  0.62535900  0.75101600  0.12536100  1
  O  O88  1  0.37463900  0.04898600  0.87464100  1
  O  O89  1  0.62466000  0.54898600  0.12466300  1
  O  O90  1  0.87464900  0.04898000  0.37465100  1
  O  O91  1  0.12466700  0.54898300  0.62466800  1
  O  O92  1  0.62465800  0.25101700  0.12466100  1
  O  O93  1  0.87465200  0.75102200  0.37465500  1
  O  O94  1  0.12466500  0.25101900  0.62466500  1
  O  O95  1  0.37464400  0.75101700  0.87464500  1
  O  O96  1  0.62536500  0.04898600  0.12536400  1
  O  O97  1  0.87534000  0.54898600  0.37534200  1
  O  O98  1  0.12535200  0.04898100  0.62535500  1
  O  O99  1  0.37533600  0.54898300  0.87533600  1
