# generated using pymatgen
data_Ba4ScTi4BiO15
_symmetry_space_group_name_H-M   'P 1'
_cell_length_a   14.53013532
_cell_length_b   14.53013532
_cell_length_c   4.04014100
_cell_angle_alpha   90.00000000
_cell_angle_beta   90.00000000
_cell_angle_gamma   157.20603308
_symmetry_Int_Tables_number   1
_chemical_formula_structural   Ba4ScTi4BiO15
_chemical_formula_sum   'Ba4 Sc1 Ti4 Bi1 O15'
_cell_volume   330.45795556
_cell_formula_units_Z   1
loop_
 _symmetry_equiv_pos_site_id
 _symmetry_equiv_pos_as_xyz
  1  'x, y, z'
loop_
 _atom_site_type_symbol
 _atom_site_label
 _atom_site_symmetry_multiplicity
 _atom_site_fract_x
 _atom_site_fract_y
 _atom_site_fract_z
 _atom_site_occupancy
  Ba  Ba0  1  0.60023400  0.39976600  0.00000000  1
  Ba  Ba1  1  0.20018500  0.79981500  0.00000000  1
  Ba  Ba2  1  0.79981500  0.20018500  0.00000000  1
  Ba  Ba3  1  0.39976600  0.60023400  0.00000000  1
  Sc  Sc4  1  0.50000000  0.50000000  0.50000000  1
  Ti  Ti5  1  0.09978600  0.90021400  0.50000000  1
  Ti  Ti6  1  0.70002000  0.29998000  0.50000000  1
  Ti  Ti7  1  0.29998000  0.70002000  0.50000000  1
  Ti  Ti8  1  0.90021400  0.09978600  0.50000000  1
  Bi  Bi9  1  0.00000000  0.00000000  0.00000000  1
  O  O10  1  0.90166100  0.09833900  0.00000000  1
  O  O11  1  0.50000000  0.50000000  0.00000000  1
  O  O12  1  0.09833900  0.90166100  0.00000000  1
  O  O13  1  0.70004800  0.29995200  0.00000000  1
  O  O14  1  0.29995200  0.70004800  0.00000000  1
  O  O15  1  0.10207800  0.40236500  0.50000000  1
  O  O16  1  0.72062700  0.82061900  0.50000000  1
  O  O17  1  0.27937300  0.17938100  0.50000000  1
  O  O18  1  0.89792200  0.59763500  0.50000000  1
  O  O19  1  0.50000000  0.00000000  0.50000000  1
  O  O20  1  0.17938100  0.27937300  0.50000000  1
  O  O21  1  0.82061900  0.72062700  0.50000000  1
  O  O22  1  0.40236500  0.10207800  0.50000000  1
  O  O23  1  0.00000000  0.50000000  0.50000000  1
  O  O24  1  0.59763500  0.89792200  0.50000000  1
