# generated using pymatgen
data_CaMnZnAs2H3O10
_symmetry_space_group_name_H-M   'P 1'
_cell_length_a   5.55785943
_cell_length_b   10.74325374
_cell_length_c   7.49955706
_cell_angle_alpha   77.17986790
_cell_angle_beta   68.72944267
_cell_angle_gamma   99.61339239
_symmetry_Int_Tables_number   1
_chemical_formula_structural   CaMnZnAs2H3O10
_chemical_formula_sum   'Ca2 Mn2 Zn2 As4 H6 O20'
_cell_volume   391.50330761
_cell_formula_units_Z   2
loop_
 _symmetry_equiv_pos_site_id
 _symmetry_equiv_pos_as_xyz
  1  'x, y, z'
loop_
 _atom_site_type_symbol
 _atom_site_label
 _atom_site_symmetry_multiplicity
 _atom_site_fract_x
 _atom_site_fract_y
 _atom_site_fract_z
 _atom_site_occupancy
  Ca  Ca0  1  0.50146800  0.49989400  0.99915400  1
  Ca  Ca1  1  0.00146000  0.99989200  0.99917000  1
  Mn  Mn2  1  0.50615800  0.99979100  0.50079700  1
  Mn  Mn3  1  0.00590400  0.49968100  0.50093200  1
  Zn  Zn4  1  0.25584100  0.25561800  0.50345800  1
  Zn  Zn5  1  0.75581300  0.75560000  0.50348200  1
  As  As6  1  0.88122600  0.29503300  0.20179100  1
  As  As7  1  0.38127400  0.79505400  0.20178800  1
  As  As8  1  0.62336500  0.20557400  0.79808000  1
  As  As9  1  0.12344200  0.70557400  0.79801200  1
  H  H10  1  0.31051500  0.10009000  0.25360700  1
  H  H11  1  0.81041200  0.60007800  0.25357800  1
  H  H12  1  0.19902100  0.40568100  0.73414500  1
  H  H13  1  0.69899700  0.90562400  0.73426600  1
  H  H14  1  0.04320800  0.01307100  0.48004200  1
  H  H15  1  0.54296800  0.51304900  0.48006000  1
  O  O16  1  0.59116200  0.34293000  0.23605600  1
  O  O17  1  0.09115200  0.84292800  0.23609700  1
  O  O18  1  0.80098100  0.12184300  0.25084200  1
  O  O19  1  0.30087000  0.62183500  0.25081200  1
  O  O20  1  0.91189900  0.15680900  0.76330500  1
  O  O21  1  0.41188300  0.65678600  0.76331100  1
  O  O22  1  0.70312600  0.37893400  0.74710000  1
  O  O23  1  0.20318500  0.87891300  0.74709200  1
  O  O24  1  0.02628500  0.34185600  0.35568000  1
  O  O25  1  0.52625400  0.84182100  0.35574800  1
  O  O26  1  0.47214300  0.15738800  0.64780900  1
  O  O27  1  0.97212900  0.65736900  0.64781600  1
  O  O28  1  0.12825800  0.37163700  0.96865300  1
  O  O29  1  0.62828800  0.87161700  0.96868100  1
  O  O30  1  0.37600000  0.12924500  0.03214200  1
  O  O31  1  0.87602200  0.62921000  0.03211500  1
  O  O32  1  0.24417900  0.07304400  0.40896000  1
  O  O33  1  0.74396700  0.57304500  0.40895600  1
  O  O34  1  0.26551100  0.43176500  0.58219600  1
  O  O35  1  0.76563300  0.93171800  0.58227000  1
