# generated using pymatgen
data_Ba4Sr2Y3(SbO6)3
_symmetry_space_group_name_H-M   'P 1'
_cell_length_a   5.99300800
_cell_length_b   5.99971870
_cell_length_c   13.40682158
_cell_angle_alpha   102.82990592
_cell_angle_beta   102.89029570
_cell_angle_gamma   90.06362996
_symmetry_Int_Tables_number   1
_chemical_formula_structural   Ba4Sr2Y3(SbO6)3
_chemical_formula_sum   'Ba4 Sr2 Y3 Sb3 O18'
_cell_volume   457.52910901
_cell_formula_units_Z   1
loop_
 _symmetry_equiv_pos_site_id
 _symmetry_equiv_pos_as_xyz
  1  'x, y, z'
loop_
 _atom_site_type_symbol
 _atom_site_label
 _atom_site_symmetry_multiplicity
 _atom_site_fract_x
 _atom_site_fract_y
 _atom_site_fract_z
 _atom_site_occupancy
  Ba  Ba0  1  0.25078800  0.24981300  0.00041000  1
  Ba  Ba1  1  0.91715200  0.91718000  0.33436800  1
  Ba  Ba2  1  0.58260800  0.58241300  0.66487900  1
  Ba  Ba3  1  0.74936000  0.75121000  0.00083800  1
  Sr  Sr4  1  0.41088800  0.42082800  0.33573700  1
  Sr  Sr5  1  0.07811700  0.08812900  0.67056000  1
  Y  Y6  1  0.16659400  0.66655300  0.83234200  1
  Y  Y7  1  0.83309100  0.33389600  0.16795100  1
  Y  Y8  1  0.49969200  0.00021700  0.50014100  1
  Sb  Sb9  1  0.00043500  0.49999200  0.50012200  1
  Sb  Sb10  1  0.66601100  0.16576700  0.83194300  1
  Sb  Sb11  1  0.33398900  0.83410900  0.16778400  1
  O  O12  1  0.89495600  0.92103200  0.83126200  1
  O  O13  1  0.55986600  0.58650100  0.16914000  1
  O  O14  1  0.22683800  0.25293300  0.50063800  1
  O  O15  1  0.08903000  0.59063800  0.65729600  1
  O  O16  1  0.75491900  0.25456500  0.99026600  1
  O  O17  1  0.42220900  0.92422900  0.32529400  1
  O  O18  1  0.77558500  0.74805100  0.50080600  1
  O  O19  1  0.43773000  0.41066000  0.83149700  1
  O  O20  1  0.10925700  0.08266200  0.16887000  1
  O  O21  1  0.57683300  0.07788000  0.67458100  1
  O  O22  1  0.24500000  0.74571600  0.00940700  1
  O  O23  1  0.91043000  0.41166600  0.34231100  1
  O  O24  1  0.57702900  0.05699400  0.16063100  1
  O  O25  1  0.24726000  0.71581300  0.48981600  1
  O  O26  1  0.91245200  0.38379700  0.82279100  1
  O  O27  1  0.42108400  0.94291500  0.83724600  1
  O  O28  1  0.09342300  0.60788400  0.17477600  1
  O  O29  1  0.75737300  0.27595500  0.50629500  1
