# generated using pymatgen
data_BaLa3Mn4O10
_symmetry_space_group_name_H-M   'P 1'
_cell_length_a   9.17297802
_cell_length_b   9.17297802
_cell_length_c   11.57164880
_cell_angle_alpha   71.73287275
_cell_angle_beta   71.73287275
_cell_angle_gamma   35.85554133
_symmetry_Int_Tables_number   1
_chemical_formula_structural   BaLa3Mn4O10
_chemical_formula_sum   'Ba2 La6 Mn8 O20'
_cell_volume   538.48811062
_cell_formula_units_Z   2
loop_
 _symmetry_equiv_pos_site_id
 _symmetry_equiv_pos_as_xyz
  1  'x, y, z'
loop_
 _atom_site_type_symbol
 _atom_site_label
 _atom_site_symmetry_multiplicity
 _atom_site_fract_x
 _atom_site_fract_y
 _atom_site_fract_z
 _atom_site_occupancy
  Ba  Ba0  1  0.61267800  0.61996600  0.18889500  1
  Ba  Ba1  1  0.61996600  0.61267800  0.68889500  1
  La  La2  1  0.37742400  0.40091600  0.31812400  1
  La  La3  1  0.40091600  0.37742400  0.81812400  1
  La  La4  1  0.88033900  0.90404500  0.04409900  1
  La  La5  1  0.09135800  0.13524800  0.45382200  1
  La  La6  1  0.13524800  0.09135800  0.95382200  1
  La  La7  1  0.90404500  0.88033900  0.54409900  1
  Mn  Mn8  1  0.50229700  0.49817900  0.00189000  1
  Mn  Mn9  1  0.49817900  0.50229700  0.50189000  1
  Mn  Mn10  1  0.99650200  0.99673000  0.25251500  1
  Mn  Mn11  1  0.99673000  0.99650200  0.75251500  1
  Mn  Mn12  1  0.71433600  0.78699500  0.34756000  1
  Mn  Mn13  1  0.21356300  0.29185500  0.15053500  1
  Mn  Mn14  1  0.29185500  0.21356300  0.65053500  1
  Mn  Mn15  1  0.78699500  0.71433600  0.84756000  1
  O  O16  1  0.14300200  0.13623100  0.13564200  1
  O  O17  1  0.88374000  0.83896800  0.35984100  1
  O  O18  1  0.83896800  0.88374000  0.85984100  1
  O  O19  1  0.13623100  0.14300200  0.63564200  1
  O  O20  1  0.40917200  0.31910900  0.02849300  1
  O  O21  1  0.69357300  0.57414600  0.44519200  1
  O  O22  1  0.57414600  0.69357300  0.94519200  1
  O  O23  1  0.31910900  0.40917200  0.52849300  1
  O  O24  1  0.86214700  0.66949300  0.17247000  1
  O  O25  1  0.33134400  0.16771100  0.32764200  1
  O  O26  1  0.16771100  0.33134400  0.82764200  1
  O  O27  1  0.66949300  0.86214700  0.67247000  1
  O  O28  1  0.22477300  0.74539200  0.63629800  1
  O  O29  1  0.24131800  0.75692200  0.87413500  1
  O  O30  1  0.75692200  0.24131800  0.37413500  1
  O  O31  1  0.74539200  0.22477300  0.13629800  1
  O  O32  1  0.22499700  0.73089500  0.14203900  1
  O  O33  1  0.24356000  0.78107500  0.37081000  1
  O  O34  1  0.78107500  0.24356000  0.87081000  1
  O  O35  1  0.73089500  0.22499700  0.64203900  1
