# generated using pymatgen
data_Ba8SrCa3(WO6)4
_symmetry_space_group_name_H-M   'P 1'
_cell_length_a   6.03843000
_cell_length_b   10.51053530
_cell_length_c   10.51126392
_cell_angle_alpha   99.92085130
_cell_angle_beta   106.44914157
_cell_angle_gamma   89.53489242
_symmetry_Int_Tables_number   1
_chemical_formula_structural   Ba8SrCa3(WO6)4
_chemical_formula_sum   'Ba8 Sr1 Ca3 W4 O24'
_cell_volume   629.66395740
_cell_formula_units_Z   1
loop_
 _symmetry_equiv_pos_site_id
 _symmetry_equiv_pos_as_xyz
  1  'x, y, z'
loop_
 _atom_site_type_symbol
 _atom_site_label
 _atom_site_symmetry_multiplicity
 _atom_site_fract_x
 _atom_site_fract_y
 _atom_site_fract_z
 _atom_site_occupancy
  Ba  Ba0  1  0.43999300  0.80813300  0.87213900  1
  Ba  Ba1  1  0.19168900  0.06164300  0.37676100  1
  Ba  Ba2  1  0.94003000  0.31351000  0.87316200  1
  Ba  Ba3  1  0.69003100  0.56140800  0.37435100  1
  Ba  Ba4  1  0.30996900  0.43859200  0.62564900  1
  Ba  Ba5  1  0.05997000  0.68649000  0.12683800  1
  Ba  Ba6  1  0.80831100  0.93835700  0.62323900  1
  Ba  Ba7  1  0.56000700  0.19186700  0.12786100  1
  Sr  Sr8  1  0.00000000  0.00000000  0.00000000  1
  Ca  Ca9  1  0.74963300  0.24959100  0.49913100  1
  Ca  Ca10  1  0.50000000  0.50000000  0.00000000  1
  Ca  Ca11  1  0.25036700  0.75040900  0.50086900  1
  W  W12  1  0.87402400  0.62268100  0.74828300  1
  W  W13  1  0.62665800  0.87351600  0.25299700  1
  W  W14  1  0.37334200  0.12648400  0.74700300  1
  W  W15  1  0.12597600  0.37731900  0.25171700  1
  O  O16  1  0.92139100  0.30986800  0.34291800  1
  O  O17  1  0.66981800  0.55694500  0.84162800  1
  O  O18  1  0.42076800  0.80751800  0.34451600  1
  O  O19  1  0.16798200  0.06103500  0.83613900  1
  O  O20  1  0.19027900  0.53706100  0.38615800  1
  O  O21  1  0.93755400  0.77913800  0.88411800  1
  O  O22  1  0.69061100  0.03432000  0.38788900  1
  O  O23  1  0.43981200  0.28592100  0.88404000  1
  O  O24  1  0.86041400  0.45545900  0.13878300  1
  O  O25  1  0.61047100  0.70263700  0.63724700  1
  O  O26  1  0.37034000  0.95473500  0.14202800  1
  O  O27  1  0.10957300  0.20568500  0.63469200  1
  O  O28  1  0.33018200  0.44305500  0.15837200  1
  O  O29  1  0.07860900  0.69013200  0.65708200  1
  O  O30  1  0.83201800  0.93896500  0.16386100  1
  O  O31  1  0.57923200  0.19248200  0.65548400  1
  O  O32  1  0.06244600  0.22086200  0.11588200  1
  O  O33  1  0.80972100  0.46293900  0.61384200  1
  O  O34  1  0.56018800  0.71407900  0.11596000  1
  O  O35  1  0.30938900  0.96568000  0.61211100  1
  O  O36  1  0.38952900  0.29736300  0.36275300  1
  O  O37  1  0.13958600  0.54454100  0.86121700  1
  O  O38  1  0.89042700  0.79431500  0.36530800  1
  O  O39  1  0.62966000  0.04526500  0.85797200  1
