# generated using pymatgen
data_Ca2Al4Si8O33
_symmetry_space_group_name_H-M   'P 1'
_cell_length_a   7.58200100
_cell_length_b   10.00311126
_cell_length_c   10.10682446
_cell_angle_alpha   82.96878062
_cell_angle_beta   74.83107400
_cell_angle_gamma   75.37138509
_symmetry_Int_Tables_number   1
_chemical_formula_structural   Ca2Al4Si8O33
_chemical_formula_sum   'Ca2 Al4 Si8 O33'
_cell_volume   714.54443460
_cell_formula_units_Z   1
loop_
 _symmetry_equiv_pos_site_id
 _symmetry_equiv_pos_as_xyz
  1  'x, y, z'
loop_
 _atom_site_type_symbol
 _atom_site_label
 _atom_site_symmetry_multiplicity
 _atom_site_fract_x
 _atom_site_fract_y
 _atom_site_fract_z
 _atom_site_occupancy
  Ca  Ca0  1  0.72700000  0.25950800  0.26233100  1
  Ca  Ca1  1  0.27683800  0.74571500  0.74105800  1
  Al  Al2  1  0.73101300  0.17791900  0.56737500  1
  Al  Al3  1  0.73400800  0.56689100  0.17675400  1
  Al  Al4  1  0.26838200  0.82183600  0.43476700  1
  Al  Al5  1  0.26621900  0.43447200  0.82332200  1
  Si  Si6  1  0.14592900  0.14676200  0.38106700  1
  Si  Si7  1  0.14721100  0.38023400  0.14548400  1
  Si  Si8  1  0.85467200  0.85243800  0.61952300  1
  Si  Si9  1  0.85447400  0.61982500  0.85435300  1
  Si  Si10  1  0.31650100  0.30385900  0.53917900  1
  Si  Si11  1  0.31825800  0.53852500  0.30206700  1
  Si  Si12  1  0.68341200  0.69605700  0.46164100  1
  Si  Si13  1  0.68146400  0.46184900  0.69878800  1
  O  O14  1  0.26423000  0.45013100  0.44890900  1
  O  O15  1  0.73583500  0.54924200  0.55108200  1
  O  O16  1  0.72547900  0.29931800  0.67740300  1
  O  O17  1  0.72880900  0.67420700  0.30049500  1
  O  O18  1  0.27399300  0.70096400  0.32391300  1
  O  O19  1  0.26987500  0.32720300  0.69988300  1
  O  O20  1  0.24992800  0.98731000  0.35655900  1
  O  O21  1  0.25063300  0.35465000  0.98710200  1
  O  O22  1  0.75023300  0.01185100  0.64349900  1
  O  O23  1  0.74905800  0.64624400  0.01273400  1
  O  O24  1  0.21566500  0.24014000  0.24013600  1
  O  O25  1  0.78302500  0.75961100  0.76039400  1
  O  O26  1  0.91526900  0.17295200  0.41191400  1
  O  O27  1  0.91669300  0.41018200  0.17069100  1
  O  O28  1  0.08489100  0.82699900  0.59021400  1
  O  O29  1  0.08403800  0.59164400  0.83018000  1
  O  O30  1  0.19741200  0.19851600  0.51119700  1
  O  O31  1  0.19894500  0.51149200  0.19774900  1
  O  O32  1  0.80439600  0.80046100  0.48888900  1
  O  O33  1  0.80158100  0.48889000  0.80270800  1
  O  O34  1  0.01155600  0.02667000  0.14032200  1
  O  O35  1  0.98402800  0.97219400  0.86205300  1
  O  O36  1  0.54368000  0.23472000  0.47997200  1
  O  O37  1  0.54516700  0.47823100  0.23330800  1
  O  O38  1  0.45675600  0.76550100  0.52094600  1
  O  O39  1  0.45515200  0.52302700  0.76756200  1
  O  O40  1  0.38794600  0.92778600  0.82481600  1
  O  O41  1  0.41070000  0.86813700  0.94571100  1
  O  O42  1  0.60114600  0.07229300  0.16088000  1
  O  O43  1  0.62492900  0.16181600  0.06589100  1
  O  O44  1  0.47480500  0.93042700  0.01636900  1
  O  O45  1  0.99144000  0.09430900  0.83247800  1
  O  O46  1  0.00733000  0.90398900  0.16933500  1
