# generated using pymatgen
data_Ba4TiSi12(SnO12)3
_symmetry_space_group_name_H-M   'P 1'
_cell_length_a   6.80306379
_cell_length_b   6.80306379
_cell_length_c   19.95181800
_cell_angle_alpha   90.00000000
_cell_angle_beta   90.00000000
_cell_angle_gamma   119.99999791
_symmetry_Int_Tables_number   1
_chemical_formula_structural   Ba4TiSi12(SnO12)3
_chemical_formula_sum   'Ba4 Ti1 Si12 Sn3 O36'
_cell_volume   799.69098686
_cell_formula_units_Z   1
loop_
 _symmetry_equiv_pos_site_id
 _symmetry_equiv_pos_as_xyz
  1  'x, y, z'
loop_
 _atom_site_type_symbol
 _atom_site_label
 _atom_site_symmetry_multiplicity
 _atom_site_fract_x
 _atom_site_fract_y
 _atom_site_fract_z
 _atom_site_occupancy
  Ba  Ba0  1  0.33333300  0.66666700  0.74993400  1
  Ba  Ba1  1  0.33333300  0.66666700  0.25006600  1
  Ba  Ba2  1  0.33333300  0.66666700  0.00000000  1
  Ba  Ba3  1  0.33333300  0.66666700  0.50000000  1
  Ti  Ti4  1  0.66666700  0.33333300  0.50000000  1
  Si  Si5  1  0.28289700  0.06508700  0.12504300  1
  Si  Si6  1  0.28530400  0.06765300  0.62372700  1
  Si  Si7  1  0.93491300  0.21781000  0.12504300  1
  Si  Si8  1  0.93234700  0.21765100  0.62372700  1
  Si  Si9  1  0.78219000  0.71710300  0.12504300  1
  Si  Si10  1  0.78234900  0.71469600  0.62372700  1
  Si  Si11  1  0.28289700  0.21781000  0.87495700  1
  Si  Si12  1  0.28530400  0.21765100  0.37627300  1
  Si  Si13  1  0.93491300  0.71710300  0.87495700  1
  Si  Si14  1  0.93234700  0.71469600  0.37627300  1
  Si  Si15  1  0.78219000  0.06508700  0.87495700  1
  Si  Si16  1  0.78234900  0.06765300  0.37627300  1
  Sn  Sn17  1  0.66666700  0.33333300  0.25052000  1
  Sn  Sn18  1  0.66666700  0.33333300  0.74948000  1
  Sn  Sn19  1  0.66666700  0.33333300  0.00000000  1
  O  O20  1  0.41946400  0.07525300  0.19308300  1
  O  O21  1  0.41901300  0.07476400  0.69209400  1
  O  O22  1  0.92474700  0.34421100  0.19308300  1
  O  O23  1  0.92523600  0.34424900  0.69209400  1
  O  O24  1  0.65578900  0.58053600  0.19308300  1
  O  O25  1  0.65575100  0.58098700  0.69209400  1
  O  O26  1  0.41925900  0.07500900  0.05700600  1
  O  O27  1  0.43013200  0.09073300  0.55630100  1
  O  O28  1  0.92499100  0.34424900  0.05700600  1
  O  O29  1  0.90926700  0.33939800  0.55630100  1
  O  O30  1  0.65575100  0.58074100  0.05700600  1
  O  O31  1  0.66060200  0.56986800  0.55630100  1
  O  O32  1  0.41925900  0.34424900  0.94299400  1
  O  O33  1  0.43013200  0.33939800  0.44369900  1
  O  O34  1  0.92499100  0.58074100  0.94299400  1
  O  O35  1  0.90926700  0.56986800  0.44369900  1
  O  O36  1  0.65575100  0.07500900  0.94299400  1
  O  O37  1  0.66060200  0.09073300  0.44369900  1
  O  O38  1  0.41946400  0.34421100  0.80691700  1
  O  O39  1  0.41901300  0.34424900  0.30790600  1
  O  O40  1  0.92474700  0.58053600  0.80691700  1
  O  O41  1  0.92523600  0.58098700  0.30790600  1
  O  O42  1  0.65578900  0.07525300  0.80691700  1
  O  O43  1  0.65575100  0.07476400  0.30790600  1
  O  O44  1  0.19371300  0.25040400  0.12500000  1
  O  O45  1  0.19184200  0.25062800  0.62369700  1
  O  O46  1  0.74959600  0.94330900  0.12500000  1
  O  O47  1  0.74937200  0.94121400  0.62369700  1
  O  O48  1  0.05669100  0.80628700  0.12500000  1
  O  O49  1  0.05878600  0.80815800  0.62369700  1
  O  O50  1  0.19371300  0.94330900  0.87500000  1
  O  O51  1  0.19184200  0.94121400  0.37630300  1
  O  O52  1  0.74959600  0.80628700  0.87500000  1
  O  O53  1  0.74937200  0.80815800  0.37630300  1
  O  O54  1  0.05669100  0.25040400  0.87500000  1
  O  O55  1  0.05878600  0.25062800  0.37630300  1
