# generated using pymatgen
data_Rb2Nb2O5
_symmetry_space_group_name_H-M   'P 1'
_cell_length_a   9.14073929
_cell_length_b   9.14073929
_cell_length_c   9.14073929
_cell_angle_alpha   141.64886442
_cell_angle_beta   141.46054948
_cell_angle_gamma   55.50027653
_symmetry_Int_Tables_number   1
_chemical_formula_structural   Rb2Nb2O5
_chemical_formula_sum   'Rb4 Nb4 O10'
_cell_volume   293.06422527
_cell_formula_units_Z   2
loop_
 _symmetry_equiv_pos_site_id
 _symmetry_equiv_pos_as_xyz
  1  'x, y, z'
loop_
 _atom_site_type_symbol
 _atom_site_label
 _atom_site_symmetry_multiplicity
 _atom_site_fract_x
 _atom_site_fract_y
 _atom_site_fract_z
 _atom_site_occupancy
  Rb  Rb0  1  0.38387500  0.87179200  0.49806500  1
  Rb  Rb1  1  0.62627200  0.12820800  0.51208200  1
  Rb  Rb2  1  0.88387500  0.38581000  0.51208200  1
  Rb  Rb3  1  0.12627200  0.61419000  0.49806500  1
  Nb  Nb4  1  0.98529500  0.00000000  0.98529500  1
  Nb  Nb5  1  0.48529500  0.50000000  0.98529500  1
  Nb  Nb6  1  0.76413400  0.79267400  0.05680800  1
  Nb  Nb7  1  0.26413400  0.20732600  0.97145900  1
  O  O8  1  0.77351400  0.76202400  0.53032000  1
  O  O9  1  0.76829600  0.23797600  0.01149000  1
  O  O10  1  0.27351400  0.74319400  0.01149000  1
  O  O11  1  0.26829600  0.25680600  0.53032000  1
  O  O12  1  0.88249400  0.85963400  0.99927900  1
  O  O13  1  0.13964500  0.14036600  0.02286000  1
  O  O14  1  0.38249400  0.38321500  0.02286000  1
  O  O15  1  0.63964500  0.61678500  0.99927900  1
  O  O16  1  0.01247600  0.00194000  0.51441600  1
  O  O17  1  0.51247600  0.99806000  0.01053500  1
