# generated using pymatgen
data_Ba4Nd8Cu3PtO20
_symmetry_space_group_name_H-M   'P 1'
_cell_length_a   5.90881600
_cell_length_b   6.78118300
_cell_length_c   13.56743264
_cell_angle_alpha   89.85634900
_cell_angle_beta   90.00000000
_cell_angle_gamma   90.00000000
_symmetry_Int_Tables_number   1
_chemical_formula_structural   Ba4Nd8Cu3PtO20
_chemical_formula_sum   'Ba4 Nd8 Cu3 Pt1 O20'
_cell_volume   543.62852914
_cell_formula_units_Z   1
loop_
 _symmetry_equiv_pos_site_id
 _symmetry_equiv_pos_as_xyz
  1  'x, y, z'
loop_
 _atom_site_type_symbol
 _atom_site_label
 _atom_site_symmetry_multiplicity
 _atom_site_fract_x
 _atom_site_fract_y
 _atom_site_fract_z
 _atom_site_occupancy
  Ba  Ba0  1  0.00000000  0.50000000  0.50000000  1
  Ba  Ba1  1  0.00000000  0.50000000  0.00000000  1
  Ba  Ba2  1  0.00000000  0.00141600  0.75018400  1
  Ba  Ba3  1  0.00000000  0.99858400  0.24981600  1
  Nd  Nd4  1  0.50000000  0.82416400  0.41225400  1
  Nd  Nd5  1  0.50000000  0.82643900  0.91312900  1
  Nd  Nd6  1  0.50000000  0.17583600  0.58774600  1
  Nd  Nd7  1  0.50000000  0.17356100  0.08687100  1
  Nd  Nd8  1  0.50000000  0.67156500  0.66458700  1
  Nd  Nd9  1  0.50000000  0.67409200  0.16268800  1
  Nd  Nd10  1  0.50000000  0.32843500  0.33541300  1
  Nd  Nd11  1  0.50000000  0.32590800  0.83731200  1
  Cu  Cu12  1  0.00000000  0.00000000  0.00000000  1
  Cu  Cu13  1  0.00000000  0.50042200  0.75009000  1
  Cu  Cu14  1  0.00000000  0.49957800  0.24991000  1
  Pt  Pt15  1  0.00000000  0.00000000  0.50000000  1
  O  O16  1  0.25202100  0.14272800  0.42861600  1
  O  O17  1  0.24348800  0.13846300  0.93078700  1
  O  O18  1  0.25202100  0.85727200  0.57138400  1
  O  O19  1  0.24348800  0.86153700  0.06921300  1
  O  O20  1  0.24500700  0.36289900  0.68150700  1
  O  O21  1  0.24369900  0.36134900  0.18065100  1
  O  O22  1  0.24500700  0.63710100  0.31849300  1
  O  O23  1  0.24369900  0.63865100  0.81934900  1
  O  O24  1  0.74797900  0.85727200  0.57138400  1
  O  O25  1  0.75651200  0.86153700  0.06921300  1
  O  O26  1  0.74797900  0.14272800  0.42861600  1
  O  O27  1  0.75651200  0.13846300  0.93078700  1
  O  O28  1  0.75499300  0.63710100  0.31849300  1
  O  O29  1  0.75630100  0.63865100  0.81934900  1
  O  O30  1  0.75499300  0.36289900  0.68150700  1
  O  O31  1  0.75630100  0.36134900  0.18065100  1
  O  O32  1  0.50000000  0.50000000  0.50000000  1
  O  O33  1  0.50000000  0.50000000  0.00000000  1
  O  O34  1  0.50000000  0.00056300  0.75057200  1
  O  O35  1  0.50000000  0.99943700  0.24942800  1
