# generated using pymatgen
data_Ba4Bi(PbO4)3
_symmetry_space_group_name_H-M   'P 1'
_cell_length_a   6.17422237
_cell_length_b   6.17422237
_cell_length_c   10.70465426
_cell_angle_alpha   73.62859579
_cell_angle_beta   73.62859579
_cell_angle_gamma   59.88235400
_symmetry_Int_Tables_number   1
_chemical_formula_structural   Ba4Bi(PbO4)3
_chemical_formula_sum   'Ba4 Bi1 Pb3 O12'
_cell_volume   333.78610608
_cell_formula_units_Z   1
loop_
 _symmetry_equiv_pos_site_id
 _symmetry_equiv_pos_as_xyz
  1  'x, y, z'
loop_
 _atom_site_type_symbol
 _atom_site_label
 _atom_site_symmetry_multiplicity
 _atom_site_fract_x
 _atom_site_fract_y
 _atom_site_fract_z
 _atom_site_occupancy
  Ba  Ba0  1  0.37745700  0.37745700  0.37113800  1
  Ba  Ba1  1  0.87714600  0.87714600  0.87418200  1
  Ba  Ba2  1  0.62254300  0.62254300  0.62886200  1
  Ba  Ba3  1  0.12285400  0.12285400  0.12581800  1
  Bi  Bi4  1  0.00000000  0.00000000  0.50000000  1
  Pb  Pb5  1  0.50000000  0.50000000  0.00000000  1
  Pb  Pb6  1  0.24901100  0.24901100  0.75166500  1
  Pb  Pb7  1  0.75098900  0.75098900  0.24833500  1
  O  O8  1  0.35774100  0.85936900  0.36110700  1
  O  O9  1  0.85608800  0.35742200  0.85661200  1
  O  O10  1  0.14063100  0.64225900  0.63889300  1
  O  O11  1  0.64257800  0.14391200  0.14338800  1
  O  O12  1  0.85936900  0.35774100  0.36110700  1
  O  O13  1  0.35742200  0.85608800  0.85661200  1
  O  O14  1  0.64225900  0.14063100  0.63889300  1
  O  O15  1  0.14391200  0.64257800  0.14338800  1
  O  O16  1  0.15428300  0.15428300  0.59370400  1
  O  O17  1  0.65606900  0.65606900  0.09379700  1
  O  O18  1  0.84571700  0.84571700  0.40629600  1
  O  O19  1  0.34393100  0.34393100  0.90620300  1
