# generated using pymatgen
data_Ba2Y2Mn4O11
_symmetry_space_group_name_H-M   'P 1'
_cell_length_a   3.85549933
_cell_length_b   8.19348075
_cell_length_c   8.73000331
_cell_angle_alpha   62.78894104
_cell_angle_beta   89.98684927
_cell_angle_gamma   90.07912341
_symmetry_Int_Tables_number   1
_chemical_formula_structural   Ba2Y2Mn4O11
_chemical_formula_sum   'Ba2 Y2 Mn4 O11'
_cell_volume   245.25896472
_cell_formula_units_Z   1
loop_
 _symmetry_equiv_pos_site_id
 _symmetry_equiv_pos_as_xyz
  1  'x, y, z'
loop_
 _atom_site_type_symbol
 _atom_site_label
 _atom_site_symmetry_multiplicity
 _atom_site_fract_x
 _atom_site_fract_y
 _atom_site_fract_z
 _atom_site_occupancy
  Ba  Ba0  1  0.50000000  0.50000000  0.50000000  1
  Ba  Ba1  1  0.50000000  0.00000000  0.50000000  1
  Y  Y2  1  0.50471000  0.71884300  0.00875100  1
  Y  Y3  1  0.49529000  0.28115700  0.99124900  1
  Mn  Mn4  1  0.00386700  0.88183800  0.22743900  1
  Mn  Mn5  1  0.99613300  0.11816200  0.77256100  1
  Mn  Mn6  1  0.99882500  0.62943300  0.75132800  1
  Mn  Mn7  1  0.00117500  0.37056700  0.24867200  1
  O  O8  1  0.49894000  0.61804100  0.77624400  1
  O  O9  1  0.50106000  0.38195900  0.22375600  1
  O  O10  1  0.00147000  0.65651100  0.20786700  1
  O  O11  1  0.99853000  0.34348900  0.79213300  1
  O  O12  1  0.00799700  0.13369000  0.18848900  1
  O  O13  1  0.99200300  0.86631000  0.81151100  1
  O  O14  1  0.00056100  0.75402100  0.50226400  1
  O  O15  1  0.99943900  0.24597900  0.49773600  1
  O  O16  1  0.00000000  0.50000000  0.00000000  1
  O  O17  1  0.50400400  0.89714000  0.17769100  1
  O  O18  1  0.49599600  0.10286000  0.82230900  1
