# generated using pymatgen
data_Ca4Al5FeSi6(HO13)2
_symmetry_space_group_name_H-M   'P 1'
_cell_length_a   5.68003000
_cell_length_b   8.97631300
_cell_length_c   10.26444000
_cell_angle_alpha   64.68913386
_cell_angle_beta   90.00000000
_cell_angle_gamma   90.00000000
_symmetry_Int_Tables_number   1
_chemical_formula_structural   Ca4Al5FeSi6(HO13)2
_chemical_formula_sum   'Ca4 Al5 Fe1 Si6 H2 O26'
_cell_volume   473.10008005
_cell_formula_units_Z   1
loop_
 _symmetry_equiv_pos_site_id
 _symmetry_equiv_pos_as_xyz
  1  'x, y, z'
loop_
 _atom_site_type_symbol
 _atom_site_label
 _atom_site_symmetry_multiplicity
 _atom_site_fract_x
 _atom_site_fract_y
 _atom_site_fract_z
 _atom_site_occupancy
  Ca  Ca0  1  0.50000000  0.23981100  0.15665000  1
  Ca  Ca1  1  0.00000000  0.75928400  0.84638200  1
  Ca  Ca2  1  0.50000000  0.39059100  0.42301100  1
  Ca  Ca3  1  0.00000000  0.60798300  0.57806900  1
  Al  Al4  1  0.75014900  0.99653200  0.00166500  1
  Al  Al5  1  0.24985100  0.99653200  0.00166500  1
  Al  Al6  1  0.75056100  0.00092900  0.49956000  1
  Al  Al7  1  0.24943900  0.00092900  0.49956000  1
  Al  Al8  1  0.00000000  0.71091100  0.22549400  1
  Fe  Fe9  1  0.50000000  0.29066800  0.77915200  1
  Si  Si10  1  0.00000000  0.32240600  0.27393000  1
  Si  Si11  1  0.50000000  0.68557400  0.72453100  1
  Si  Si12  1  0.50000000  0.81690700  0.31582400  1
  Si  Si13  1  0.00000000  0.18138500  0.68304200  1
  Si  Si14  1  0.50000000  0.66062700  0.04879900  1
  Si  Si15  1  0.00000000  0.33724900  0.95302700  1
  H  H16  1  0.00000000  0.93947700  0.32591600  1
  H  H17  1  0.50000000  0.06133000  0.67330800  1
  O  O18  1  0.50000000  0.48234600  0.17993800  1
  O  O19  1  0.00000000  0.51484400  0.82095300  1
  O  O20  1  0.73726900  0.70062700  0.34961400  1
  O  O21  1  0.23153500  0.30232600  0.64359200  1
  O  O22  1  0.76846500  0.30232600  0.64359200  1
  O  O23  1  0.26273100  0.70062700  0.34961400  1
  O  O24  1  0.74687700  0.76321900  0.04515600  1
  O  O25  1  0.24411400  0.23078500  0.95998700  1
  O  O26  1  0.75588600  0.23078500  0.95998700  1
  O  O27  1  0.25312300  0.76321900  0.04515600  1
  O  O28  1  0.00000000  0.93979600  0.13194600  1
  O  O29  1  0.50000000  0.04622100  0.87228300  1
  O  O30  1  0.00000000  0.36583400  0.10114300  1
  O  O31  1  0.50000000  0.63306800  0.89924800  1
  O  O32  1  0.00000000  0.49038200  0.29474300  1
  O  O33  1  0.50000000  0.52553400  0.69153000  1
  O  O34  1  0.50000000  0.96034600  0.14407400  1
  O  O35  1  0.00000000  0.03983300  0.85609600  1
  O  O36  1  0.50000000  0.93668800  0.40342000  1
  O  O37  1  0.00000000  0.06169700  0.59669900  1
  O  O38  1  0.00000000  0.91922400  0.42774200  1
  O  O39  1  0.50000000  0.08187500  0.57124300  1
  O  O40  1  0.76500200  0.21037900  0.34376100  1
  O  O41  1  0.26228500  0.79426000  0.65756800  1
  O  O42  1  0.73771500  0.79426000  0.65756800  1
  O  O43  1  0.23499800  0.21037900  0.34376100  1
