# generated using pymatgen
data_BaPHO4
_symmetry_space_group_name_H-M   'P 1'
_cell_length_a   13.62374032
_cell_length_b   13.62374032
_cell_length_c   4.73265175
_cell_angle_alpha   88.70610605
_cell_angle_beta   88.70610605
_cell_angle_gamma   116.58380907
_symmetry_Int_Tables_number   1
_chemical_formula_structural   BaPHO4
_chemical_formula_sum   'Ba8 P8 H8 O32'
_cell_volume   784.81981128
_cell_formula_units_Z   8
loop_
 _symmetry_equiv_pos_site_id
 _symmetry_equiv_pos_as_xyz
  1  'x, y, z'
loop_
 _atom_site_type_symbol
 _atom_site_label
 _atom_site_symmetry_multiplicity
 _atom_site_fract_x
 _atom_site_fract_y
 _atom_site_fract_z
 _atom_site_occupancy
  Ba  Ba0  1  0.32322200  0.56321800  0.89271600  1
  Ba  Ba1  1  0.07693900  0.81944200  0.06725200  1
  Ba  Ba2  1  0.81944200  0.07693900  0.06725200  1
  Ba  Ba3  1  0.56321800  0.32322200  0.89271600  1
  Ba  Ba4  1  0.65936700  0.65936700  0.39527300  1
  Ba  Ba5  1  0.14999800  0.14999800  0.61185000  1
  Ba  Ba6  1  0.43020600  0.94526300  0.54156900  1
  Ba  Ba7  1  0.94526300  0.43020600  0.54156900  1
  P  P8  1  0.16933400  0.67156600  0.49873600  1
  P  P9  1  0.67156600  0.16933400  0.49873600  1
  P  P10  1  0.56270200  0.81320400  0.98626100  1
  P  P11  1  0.31635800  0.07195100  0.02836300  1
  P  P12  1  0.07195100  0.31635800  0.02836300  1
  P  P13  1  0.81320400  0.56270200  0.98626100  1
  P  P14  1  0.41911900  0.41911900  0.47429000  1
  P  P15  1  0.91843200  0.91843200  0.51394500  1
  H  H16  1  0.33983900  0.33983900  0.09133300  1
  H  H17  1  0.84159300  0.84159300  0.91845900  1
  H  H18  1  0.62993400  0.88510500  0.55090800  1
  H  H19  1  0.38517900  0.14193800  0.44985700  1
  H  H20  1  0.14193800  0.38517900  0.44985700  1
  H  H21  1  0.88510500  0.62993400  0.55090800  1
  H  H22  1  0.33758800  0.73967400  0.23706700  1
  H  H23  1  0.73967400  0.33758800  0.23706700  1
  O  O24  1  0.62647200  0.91115300  0.75159100  1
  O  O25  1  0.41116100  0.14230300  0.24264100  1
  O  O26  1  0.14230300  0.41116100  0.24264100  1
  O  O27  1  0.91115300  0.62647200  0.75159100  1
  O  O28  1  0.08166800  0.63456700  0.27566300  1
  O  O29  1  0.14235900  0.58218900  0.73038600  1
  O  O30  1  0.58218900  0.14235900  0.73038600  1
  O  O31  1  0.63456700  0.08166800  0.27566300  1
  O  O32  1  0.63260300  0.84813100  0.25076000  1
  O  O33  1  0.35380700  0.14111600  0.74729300  1
  O  O34  1  0.14111600  0.35380700  0.74729300  1
  O  O35  1  0.84813100  0.63260300  0.25076000  1
  O  O36  1  0.28652600  0.67808100  0.36796300  1
  O  O37  1  0.19685800  0.78792300  0.59387100  1
  O  O38  1  0.78792300  0.19685800  0.59387100  1
  O  O39  1  0.67808100  0.28652600  0.36796300  1
  O  O40  1  0.32413900  0.32413900  0.30223700  1
  O  O41  1  0.82337100  0.82337100  0.71304900  1
  O  O42  1  0.41979500  0.52973600  0.39640000  1
  O  O43  1  0.02866300  0.91836900  0.58137900  1
  O  O44  1  0.91836900  0.02866300  0.58137900  1
  O  O45  1  0.52973600  0.41979500  0.39640000  1
  O  O46  1  0.55617300  0.70488100  0.87891600  1
  O  O47  1  0.20449300  0.06188300  0.12983700  1
  O  O48  1  0.06188300  0.20449300  0.12983700  1
  O  O49  1  0.70488100  0.55617300  0.87891600  1
  O  O50  1  0.38623900  0.38623900  0.78775300  1
  O  O51  1  0.88458300  0.88458300  0.21088000  1
  O  O52  1  0.44739100  0.80869200  0.02624500  1
  O  O53  1  0.31647500  0.95957300  0.01479200  1
  O  O54  1  0.95957300  0.31647500  0.01479200  1
  O  O55  1  0.80869200  0.44739100  0.02624500  1
