# generated using pymatgen
data_Ba3Ti(FeO4)2
_symmetry_space_group_name_H-M   'P 1'
_cell_length_a   5.79986736
_cell_length_b   5.79986736
_cell_length_c   14.31381400
_cell_angle_alpha   90.00000000
_cell_angle_beta   90.00000000
_cell_angle_gamma   119.89700578
_symmetry_Int_Tables_number   1
_chemical_formula_structural   Ba3Ti(FeO4)2
_chemical_formula_sum   'Ba6 Ti2 Fe4 O16'
_cell_volume   417.41871490
_cell_formula_units_Z   2
loop_
 _symmetry_equiv_pos_site_id
 _symmetry_equiv_pos_as_xyz
  1  'x, y, z'
loop_
 _atom_site_type_symbol
 _atom_site_label
 _atom_site_symmetry_multiplicity
 _atom_site_fract_x
 _atom_site_fract_y
 _atom_site_fract_z
 _atom_site_occupancy
  Ba  Ba0  1  0.32745400  0.65842500  0.91595300  1
  Ba  Ba1  1  0.65842500  0.32745400  0.08404700  1
  Ba  Ba2  1  0.65842500  0.32745400  0.41595300  1
  Ba  Ba3  1  0.32745400  0.65842500  0.58404700  1
  Ba  Ba4  1  0.00938300  0.01984200  0.75000000  1
  Ba  Ba5  1  0.01984200  0.00938300  0.25000000  1
  Ti  Ti6  1  0.00638400  0.00638400  0.00000000  1
  Ti  Ti7  1  0.00638400  0.00638400  0.50000000  1
  Fe  Fe8  1  0.36273000  0.68433400  0.14903600  1
  Fe  Fe9  1  0.68433400  0.36273000  0.85096400  1
  Fe  Fe10  1  0.68433400  0.36273000  0.64903600  1
  Fe  Fe11  1  0.36273000  0.68433400  0.35096400  1
  O  O12  1  0.82574600  0.15017100  0.91504900  1
  O  O13  1  0.33097900  0.15443000  0.92167800  1
  O  O14  1  0.84283100  0.68116400  0.92124300  1
  O  O15  1  0.15017100  0.82574600  0.08495100  1
  O  O16  1  0.68116400  0.84283100  0.07875700  1
  O  O17  1  0.15443000  0.33097900  0.07832200  1
  O  O18  1  0.15017100  0.82574600  0.41504900  1
  O  O19  1  0.68116400  0.84283100  0.42124300  1
  O  O20  1  0.15443000  0.33097900  0.42167800  1
  O  O21  1  0.82574600  0.15017100  0.58495100  1
  O  O22  1  0.33097900  0.15443000  0.57832200  1
  O  O23  1  0.84283100  0.68116400  0.57875700  1
  O  O24  1  0.49332200  0.44071400  0.75000000  1
  O  O25  1  0.95821900  0.45739200  0.75000000  1
  O  O26  1  0.44071400  0.49332200  0.25000000  1
  O  O27  1  0.45739200  0.95821900  0.25000000  1
