# generated using pymatgen
data_Ca2Al2FeSi3O13
_symmetry_space_group_name_H-M   'P 1'
_cell_length_a   5.81321300
_cell_length_b   8.58571873
_cell_length_c   10.53856608
_cell_angle_alpha   91.03276070
_cell_angle_beta   90.00000000
_cell_angle_gamma   90.00000000
_symmetry_Int_Tables_number   1
_chemical_formula_structural   Ca2Al2FeSi3O13
_chemical_formula_sum   'Ca4 Al4 Fe2 Si6 O26'
_cell_volume   525.90083497
_cell_formula_units_Z   2
loop_
 _symmetry_equiv_pos_site_id
 _symmetry_equiv_pos_as_xyz
  1  'x, y, z'
loop_
 _atom_site_type_symbol
 _atom_site_label
 _atom_site_symmetry_multiplicity
 _atom_site_fract_x
 _atom_site_fract_y
 _atom_site_fract_z
 _atom_site_occupancy
  Ca  Ca0  1  0.75000000  0.92540800  0.34162100  1
  Ca  Ca1  1  0.25000000  0.07459200  0.65837900  1
  Ca  Ca2  1  0.25000000  0.09413000  0.34736000  1
  Ca  Ca3  1  0.75000000  0.90587000  0.65264000  1
  Al  Al4  1  0.75000000  0.23039500  0.14794100  1
  Al  Al5  1  0.25000000  0.76960500  0.85205900  1
  Al  Al6  1  0.75000000  0.40154200  0.42415900  1
  Al  Al7  1  0.25000000  0.59845800  0.57584100  1
  Fe  Fe8  1  0.50000000  0.00000000  0.00000000  1
  Fe  Fe9  1  0.00000000  0.00000000  0.00000000  1
  Si  Si10  1  0.25000000  0.43812800  0.32797200  1
  Si  Si11  1  0.75000000  0.56187200  0.67202800  1
  Si  Si12  1  0.25000000  0.67649300  0.14898900  1
  Si  Si13  1  0.75000000  0.32350700  0.85101100  1
  Si  Si14  1  0.75000000  0.60717900  0.22170800  1
  Si  Si15  1  0.25000000  0.39282100  0.77829200  1
  O  O16  1  0.25000000  0.48669400  0.17414500  1
  O  O17  1  0.75000000  0.51330600  0.82585500  1
  O  O18  1  0.75000000  0.87926200  0.02324500  1
  O  O19  1  0.25000000  0.12073800  0.97675500  1
  O  O20  1  0.25000000  0.79382400  0.02507500  1
  O  O21  1  0.75000000  0.20617600  0.97492500  1
  O  O22  1  0.50000000  0.00000000  0.50000000  1
  O  O23  1  0.00000000  0.00000000  0.50000000  1
  O  O24  1  0.52466200  0.08929000  0.17728300  1
  O  O25  1  0.02466200  0.91071000  0.82271700  1
  O  O26  1  0.47533800  0.91071000  0.82271700  1
  O  O27  1  0.97533800  0.08929000  0.17728300  1
  O  O28  1  0.75000000  0.43962300  0.14870400  1
  O  O29  1  0.25000000  0.56037700  0.85129600  1
  O  O30  1  0.47997100  0.32911600  0.35823500  1
  O  O31  1  0.97997100  0.67088400  0.64176500  1
  O  O32  1  0.52002900  0.67088400  0.64176500  1
  O  O33  1  0.02002900  0.32911600  0.35823500  1
  O  O34  1  0.51648800  0.72089500  0.19975500  1
  O  O35  1  0.01648800  0.27910500  0.80024500  1
  O  O36  1  0.48351200  0.27910500  0.80024500  1
  O  O37  1  0.98351200  0.72089500  0.19975500  1
  O  O38  1  0.25000000  0.59732700  0.41164100  1
  O  O39  1  0.75000000  0.40267300  0.58835900  1
  O  O40  1  0.75000000  0.59642600  0.37496700  1
  O  O41  1  0.25000000  0.40357400  0.62503300  1
