# generated using pymatgen
data_Ba2Sr6Ti7MnO24
_symmetry_space_group_name_H-M   'P 1'
_cell_length_a   7.91475549
_cell_length_b   7.91475549
_cell_length_c   7.90825700
_cell_angle_alpha   90.00000000
_cell_angle_beta   90.00000000
_cell_angle_gamma   90.03609794
_symmetry_Int_Tables_number   1
_chemical_formula_structural   Ba2Sr6Ti7MnO24
_chemical_formula_sum   'Ba2 Sr6 Ti7 Mn1 O24'
_cell_volume   495.39964801
_cell_formula_units_Z   1
loop_
 _symmetry_equiv_pos_site_id
 _symmetry_equiv_pos_as_xyz
  1  'x, y, z'
loop_
 _atom_site_type_symbol
 _atom_site_label
 _atom_site_symmetry_multiplicity
 _atom_site_fract_x
 _atom_site_fract_y
 _atom_site_fract_z
 _atom_site_occupancy
  Ba  Ba0  1  0.75140900  0.75140900  0.75144100  1
  Ba  Ba1  1  0.24859100  0.24859100  0.75144100  1
  Sr  Sr2  1  0.75169100  0.75169100  0.24828400  1
  Sr  Sr3  1  0.24856700  0.75143300  0.24840900  1
  Sr  Sr4  1  0.24857200  0.75142800  0.75169700  1
  Sr  Sr5  1  0.75143300  0.24856700  0.24840900  1
  Sr  Sr6  1  0.24830900  0.24830900  0.24828400  1
  Sr  Sr7  1  0.75142800  0.24857200  0.75169700  1
  Ti  Ti8  1  0.50000000  0.00000000  0.00261600  1
  Ti  Ti9  1  0.00000000  0.00000000  0.49520200  1
  Ti  Ti10  1  0.50000000  0.00000000  0.49742200  1
  Ti  Ti11  1  0.00000000  0.50000000  0.00261600  1
  Ti  Ti12  1  0.50000000  0.50000000  0.00277100  1
  Ti  Ti13  1  0.00000000  0.50000000  0.49742200  1
  Ti  Ti14  1  0.50000000  0.50000000  0.49735500  1
  Mn  Mn15  1  0.00000000  0.00000000  0.00123200  1
  O  O16  1  0.00272400  0.75382300  0.00467300  1
  O  O17  1  0.49780500  0.75067000  0.00449700  1
  O  O18  1  0.00214400  0.75074600  0.49565300  1
  O  O19  1  0.49784100  0.75032400  0.49565700  1
  O  O20  1  0.99727600  0.24617700  0.00467300  1
  O  O21  1  0.50219500  0.24933000  0.00449700  1
  O  O22  1  0.99785600  0.24925400  0.49565300  1
  O  O23  1  0.50215900  0.24967600  0.49565700  1
  O  O24  1  0.00000000  0.00000000  0.24636300  1
  O  O25  1  0.50000000  0.00000000  0.24944600  1
  O  O26  1  0.00000000  0.00000000  0.75480300  1
  O  O27  1  0.50000000  0.00000000  0.75077400  1
  O  O28  1  0.00000000  0.50000000  0.24944600  1
  O  O29  1  0.50000000  0.50000000  0.24981000  1
  O  O30  1  0.00000000  0.50000000  0.75077400  1
  O  O31  1  0.50000000  0.50000000  0.75036700  1
  O  O32  1  0.75382300  0.00272400  0.00467300  1
  O  O33  1  0.24617700  0.99727600  0.00467300  1
  O  O34  1  0.75074600  0.00214400  0.49565300  1
  O  O35  1  0.24925400  0.99785600  0.49565300  1
  O  O36  1  0.75067000  0.49780500  0.00449700  1
  O  O37  1  0.24933000  0.50219500  0.00449700  1
  O  O38  1  0.75032400  0.49784100  0.49565700  1
  O  O39  1  0.24967600  0.50215900  0.49565700  1
