# generated using pymatgen
data_BaPb2(SO4)3
_symmetry_space_group_name_H-M   'P 1'
_cell_length_a   5.51824400
_cell_length_b   7.12095900
_cell_length_c   26.12240804
_cell_angle_alpha   89.82558175
_cell_angle_beta   90.00000000
_cell_angle_gamma   90.00000000
_symmetry_Int_Tables_number   1
_chemical_formula_structural   BaPb2(SO4)3
_chemical_formula_sum   'Ba4 Pb8 S12 O48'
_cell_volume   1026.48021199
_cell_formula_units_Z   4
loop_
 _symmetry_equiv_pos_site_id
 _symmetry_equiv_pos_as_xyz
  1  'x, y, z'
loop_
 _atom_site_type_symbol
 _atom_site_label
 _atom_site_symmetry_multiplicity
 _atom_site_fract_x
 _atom_site_fract_y
 _atom_site_fract_z
 _atom_site_occupancy
  Ba  Ba0  1  0.00000000  0.66036000  0.77189100  1
  Ba  Ba1  1  0.00000000  0.66041100  0.43885700  1
  Ba  Ba2  1  0.00000000  0.65990700  0.10600100  1
  Ba  Ba3  1  0.00000000  0.84006000  0.93901800  1
  Pb  Pb4  1  0.00000000  0.83166600  0.60404400  1
  Pb  Pb5  1  0.00000000  0.83184600  0.27071800  1
  Pb  Pb6  1  0.50000000  0.33246200  0.89639700  1
  Pb  Pb7  1  0.50000000  0.33128200  0.56401400  1
  Pb  Pb8  1  0.50000000  0.33126900  0.23066900  1
  Pb  Pb9  1  0.50000000  0.16687700  0.72957500  1
  Pb  Pb10  1  0.50000000  0.16738100  0.39638000  1
  Pb  Pb11  1  0.50000000  0.16804300  0.06319700  1
  S  S12  1  0.50000000  0.68624700  0.68675100  1
  S  S13  1  0.50000000  0.68626500  0.35342300  1
  S  S14  1  0.50000000  0.68617300  0.02117000  1
  S  S15  1  0.50000000  0.81388700  0.85442900  1
  S  S16  1  0.50000000  0.81612700  0.52225000  1
  S  S17  1  0.50000000  0.81616800  0.18895200  1
  S  S18  1  0.00000000  0.31421600  0.97834800  1
  S  S19  1  0.00000000  0.31472700  0.64492400  1
  S  S20  1  0.00000000  0.31476200  0.31159000  1
  S  S21  1  0.00000000  0.18590200  0.81171700  1
  S  S22  1  0.00000000  0.18478100  0.47878700  1
  S  S23  1  0.00000000  0.18468000  0.14545700  1
  O  O24  1  0.50000000  0.59748100  0.97011500  1
  O  O25  1  0.50000000  0.59440400  0.63628200  1
  O  O26  1  0.50000000  0.59442600  0.30295100  1
  O  O27  1  0.50000000  0.90293200  0.80330100  1
  O  O28  1  0.50000000  0.90062300  0.47053500  1
  O  O29  1  0.50000000  0.90058300  0.13726900  1
  O  O30  1  0.00000000  0.40165900  0.69585400  1
  O  O31  1  0.00000000  0.40176100  0.36253600  1
  O  O32  1  0.00000000  0.40326200  0.02908000  1
  O  O33  1  0.00000000  0.09672500  0.86243700  1
  O  O34  1  0.00000000  0.09528000  0.52958700  1
  O  O35  1  0.00000000  0.09515700  0.19625300  1
  O  O36  1  0.50000000  0.54646600  0.72978600  1
  O  O37  1  0.50000000  0.54638600  0.39646800  1
  O  O38  1  0.50000000  0.54356800  0.06341300  1
  O  O39  1  0.50000000  0.95605800  0.89658300  1
  O  O40  1  0.50000000  0.95901300  0.56388700  1
  O  O41  1  0.50000000  0.95901300  0.23059400  1
  O  O42  1  0.00000000  0.45087800  0.93539600  1
  O  O43  1  0.00000000  0.45591400  0.60250800  1
  O  O44  1  0.00000000  0.45589300  0.26916700  1
  O  O45  1  0.00000000  0.04936900  0.76882500  1
  O  O46  1  0.00000000  0.04860500  0.43571400  1
  O  O47  1  0.00000000  0.04862500  0.10237900  1
  O  O48  1  0.27994300  0.80968100  0.69191700  1
  O  O49  1  0.27990800  0.80960500  0.35861600  1
  O  O50  1  0.28133800  0.80931600  0.02694900  1
  O  O51  1  0.71872600  0.69066800  0.86025900  1
  O  O52  1  0.72038200  0.69306200  0.52851700  1
  O  O53  1  0.72034300  0.69303200  0.19523700  1
  O  O54  1  0.77760000  0.19133600  0.97336000  1
  O  O55  1  0.77812100  0.19189800  0.63927800  1
  O  O56  1  0.77812200  0.19192400  0.30595500  1
  O  O57  1  0.22248500  0.30874000  0.80656500  1
  O  O58  1  0.22221700  0.30798500  0.47345400  1
  O  O59  1  0.22216200  0.30796000  0.14015300  1
  O  O60  1  0.22240000  0.19133600  0.97336000  1
  O  O61  1  0.22187900  0.19189800  0.63927800  1
  O  O62  1  0.22187800  0.19192400  0.30595500  1
  O  O63  1  0.77751500  0.30874000  0.80656500  1
  O  O64  1  0.77778300  0.30798500  0.47345400  1
  O  O65  1  0.77783800  0.30796000  0.14015300  1
  O  O66  1  0.72005700  0.80968100  0.69191700  1
  O  O67  1  0.72009200  0.80960500  0.35861600  1
  O  O68  1  0.71866200  0.80931600  0.02694900  1
  O  O69  1  0.28127400  0.69066800  0.86025900  1
  O  O70  1  0.27961800  0.69306200  0.52851700  1
  O  O71  1  0.27965700  0.69303200  0.19523700  1
