# generated using pymatgen
data_Ba5Nb2O11
_symmetry_space_group_name_H-M   'P 1'
_cell_length_a   6.13831237
_cell_length_b   6.13831237
_cell_length_c   18.62049046
_cell_angle_alpha   89.71564584
_cell_angle_beta   89.71564584
_cell_angle_gamma   119.97023263
_symmetry_Int_Tables_number   1
_chemical_formula_structural   Ba5Nb2O11
_chemical_formula_sum   'Ba10 Nb4 O22'
_cell_volume   607.75499133
_cell_formula_units_Z   2
loop_
 _symmetry_equiv_pos_site_id
 _symmetry_equiv_pos_as_xyz
  1  'x, y, z'
loop_
 _atom_site_type_symbol
 _atom_site_label
 _atom_site_symmetry_multiplicity
 _atom_site_fract_x
 _atom_site_fract_y
 _atom_site_fract_z
 _atom_site_occupancy
  Ba  Ba0  1  0.66651900  0.33348100  0.75000000  1
  Ba  Ba1  1  0.33348100  0.66651900  0.25000000  1
  Ba  Ba2  1  0.65595800  0.32765400  0.97781100  1
  Ba  Ba3  1  0.34404200  0.67234600  0.02218900  1
  Ba  Ba4  1  0.32765400  0.65595800  0.47781100  1
  Ba  Ba5  1  0.67234600  0.34404200  0.52218900  1
  Ba  Ba6  1  0.00255300  0.00148300  0.86027700  1
  Ba  Ba7  1  0.99744700  0.99851700  0.13972300  1
  Ba  Ba8  1  0.00148300  0.00255300  0.36027700  1
  Ba  Ba9  1  0.99851700  0.99744700  0.63972300  1
  Nb  Nb10  1  0.66746300  0.33382600  0.32973200  1
  Nb  Nb11  1  0.33253700  0.66617400  0.67026800  1
  Nb  Nb12  1  0.33382600  0.66746300  0.82973200  1
  Nb  Nb13  1  0.66617400  0.33253700  0.17026800  1
  O  O14  1  0.98318600  0.49094100  0.37948000  1
  O  O15  1  0.50967800  0.01900800  0.38315100  1
  O  O16  1  0.50789600  0.49139900  0.37940900  1
  O  O17  1  0.01681400  0.50905900  0.62052000  1
  O  O18  1  0.49032200  0.98099200  0.61684900  1
  O  O19  1  0.49210400  0.50860100  0.62059100  1
  O  O20  1  0.01900800  0.50967800  0.88315100  1
  O  O21  1  0.49094100  0.98318600  0.87948000  1
  O  O22  1  0.49139900  0.50789600  0.87940900  1
  O  O23  1  0.98099200  0.49032200  0.11684900  1
  O  O24  1  0.50905900  0.01681400  0.12052000  1
  O  O25  1  0.50860100  0.49210400  0.12059100  1
  O  O26  1  0.37191300  0.18453900  0.25055200  1
  O  O27  1  0.81546100  0.62808700  0.24944800  1
  O  O28  1  0.81461500  0.18538500  0.25000000  1
  O  O29  1  0.62808700  0.81546100  0.74944800  1
  O  O30  1  0.18453900  0.37191300  0.75055200  1
  O  O31  1  0.18538500  0.81461500  0.75000000  1
  O  O32  1  0.14277000  0.07137000  0.00139200  1
  O  O33  1  0.85723000  0.92863000  0.99860800  1
  O  O34  1  0.07137000  0.14277000  0.50139200  1
  O  O35  1  0.92863000  0.85723000  0.49860800  1
