# generated using pymatgen
data_Ba6Al2Rh4O15
_symmetry_space_group_name_H-M   'P 1'
_cell_length_a   5.85296766
_cell_length_b   5.85296766
_cell_length_c   14.63304000
_cell_angle_alpha   90.00000000
_cell_angle_beta   90.00000000
_cell_angle_gamma   121.65164209
_symmetry_Int_Tables_number   1
_chemical_formula_structural   Ba6Al2Rh4O15
_chemical_formula_sum   'Ba6 Al2 Rh4 O15'
_cell_volume   426.72307763
_cell_formula_units_Z   1
loop_
 _symmetry_equiv_pos_site_id
 _symmetry_equiv_pos_as_xyz
  1  'x, y, z'
loop_
 _atom_site_type_symbol
 _atom_site_label
 _atom_site_symmetry_multiplicity
 _atom_site_fract_x
 _atom_site_fract_y
 _atom_site_fract_z
 _atom_site_occupancy
  Ba  Ba0  1  0.67538800  0.32461200  0.31623900  1
  Ba  Ba1  1  0.67538800  0.32461200  0.68376100  1
  Ba  Ba2  1  0.32742500  0.67257500  0.84183000  1
  Ba  Ba3  1  0.32742500  0.67257500  0.15817000  1
  Ba  Ba4  1  0.99198200  0.00801800  0.00000000  1
  Ba  Ba5  1  0.00035800  0.99964200  0.50000000  1
  Al  Al6  1  0.34910500  0.65089500  0.38499100  1
  Al  Al7  1  0.34910500  0.65089500  0.61500900  1
  Rh  Rh8  1  0.64803000  0.35197000  0.91409100  1
  Rh  Rh9  1  0.64803000  0.35197000  0.08590900  1
  Rh  Rh10  1  0.00320500  0.99679500  0.74832300  1
  Rh  Rh11  1  0.00320500  0.99679500  0.25167700  1
  O  O12  1  0.85200900  0.14799100  0.83291900  1
  O  O13  1  0.84466000  0.65750100  0.82454100  1
  O  O14  1  0.34249900  0.15534000  0.82454100  1
  O  O15  1  0.85200900  0.14799100  0.16708100  1
  O  O16  1  0.84466000  0.65750100  0.17545900  1
  O  O17  1  0.34249900  0.15534000  0.17545900  1
  O  O18  1  0.16553400  0.32785900  0.66402500  1
  O  O19  1  0.67214100  0.83446600  0.66402500  1
  O  O20  1  0.17852800  0.82147200  0.63358700  1
  O  O21  1  0.16553400  0.32785900  0.33597500  1
  O  O22  1  0.67214100  0.83446600  0.33597500  1
  O  O23  1  0.17852800  0.82147200  0.36641300  1
  O  O24  1  0.49864200  0.03635800  0.00000000  1
  O  O25  1  0.96364200  0.50135800  0.00000000  1
  O  O26  1  0.40178000  0.59822000  0.50000000  1
