# generated using pymatgen
data_Ba2ScTi2BiO9
_symmetry_space_group_name_H-M   'P 1'
_cell_length_a   9.00693116
_cell_length_b   9.00693116
_cell_length_c   4.04344200
_cell_angle_alpha   90.00000000
_cell_angle_beta   90.00000000
_cell_angle_gamma   142.59100249
_symmetry_Int_Tables_number   1
_chemical_formula_structural   Ba2ScTi2BiO9
_chemical_formula_sum   'Ba2 Sc1 Ti2 Bi1 O9'
_cell_volume   199.27444332
_cell_formula_units_Z   1
loop_
 _symmetry_equiv_pos_site_id
 _symmetry_equiv_pos_as_xyz
  1  'x, y, z'
loop_
 _atom_site_type_symbol
 _atom_site_label
 _atom_site_symmetry_multiplicity
 _atom_site_fract_x
 _atom_site_fract_y
 _atom_site_fract_z
 _atom_site_occupancy
  Ba  Ba0  1  0.66658500  0.33341500  0.00000000  1
  Ba  Ba1  1  0.33341500  0.66658500  0.00000000  1
  Sc  Sc2  1  0.50000000  0.50000000  0.50000000  1
  Ti  Ti3  1  0.16591100  0.83408900  0.50000000  1
  Ti  Ti4  1  0.83408900  0.16591100  0.50000000  1
  Bi  Bi5  1  0.00000000  0.00000000  0.00000000  1
  O  O6  1  0.16356300  0.83643700  0.00000000  1
  O  O7  1  0.83643700  0.16356300  0.00000000  1
  O  O8  1  0.50000000  0.50000000  0.00000000  1
  O  O9  1  0.31146800  0.14589800  0.50000000  1
  O  O10  1  0.00000000  0.50000000  0.50000000  1
  O  O11  1  0.68853200  0.85410200  0.50000000  1
  O  O12  1  0.50000000  0.00000000  0.50000000  1
  O  O13  1  0.14589800  0.31146800  0.50000000  1
  O  O14  1  0.85410200  0.68853200  0.50000000  1
