# generated using pymatgen
data_Ba4CaZr5O15
_symmetry_space_group_name_H-M   'P 1'
_cell_length_a   21.66135820
_cell_length_b   21.66135820
_cell_length_c   21.66135820
_cell_angle_alpha   164.18004935
_cell_angle_beta   164.18004935
_cell_angle_gamma   22.44503070
_symmetry_Int_Tables_number   1
_chemical_formula_structural   Ba4CaZr5O15
_chemical_formula_sum   'Ba8 Ca2 Zr10 O30'
_cell_volume   755.22525491
_cell_formula_units_Z   2
loop_
 _symmetry_equiv_pos_site_id
 _symmetry_equiv_pos_as_xyz
  1  'x, y, z'
loop_
 _atom_site_type_symbol
 _atom_site_label
 _atom_site_symmetry_multiplicity
 _atom_site_fract_x
 _atom_site_fract_y
 _atom_site_fract_z
 _atom_site_occupancy
  Ba  Ba0  1  0.10144900  0.10144900  0.00000000  1
  Ba  Ba1  1  0.50000000  0.50000000  0.00000000  1
  Ba  Ba2  1  0.89855100  0.89855100  0.00000000  1
  Ba  Ba3  1  0.29853100  0.29853100  0.00000000  1
  Ba  Ba4  1  0.70146900  0.70146900  0.00000000  1
  Ba  Ba5  1  0.60006000  0.60006000  0.00000000  1
  Ba  Ba6  1  0.00000000  0.00000000  0.00000000  1
  Ba  Ba7  1  0.39994000  0.39994000  0.00000000  1
  Ca  Ca8  1  0.80081900  0.80081900  0.00000000  1
  Ca  Ca9  1  0.19918100  0.19918100  0.00000000  1
  Zr  Zr10  1  0.05040700  0.55040700  0.50000000  1
  Zr  Zr11  1  0.44959300  0.94959300  0.50000000  1
  Zr  Zr12  1  0.84852200  0.34852200  0.50000000  1
  Zr  Zr13  1  0.25000000  0.75000000  0.50000000  1
  Zr  Zr14  1  0.65147800  0.15147800  0.50000000  1
  Zr  Zr15  1  0.15147800  0.65147800  0.50000000  1
  Zr  Zr16  1  0.55040700  0.05040700  0.50000000  1
  Zr  Zr17  1  0.94959300  0.44959300  0.50000000  1
  Zr  Zr18  1  0.34852200  0.84852200  0.50000000  1
  Zr  Zr19  1  0.75000000  0.25000000  0.50000000  1
  O  O20  1  0.32282400  0.77809800  0.00000000  1
  O  O21  1  0.72162100  0.17783400  0.00000000  1
  O  O22  1  0.13219400  0.56732600  0.00000000  1
  O  O23  1  0.55359500  0.95481800  0.00000000  1
  O  O24  1  0.94353700  0.36509100  0.00000000  1
  O  O25  1  0.77809800  0.32282400  0.00000000  1
  O  O26  1  0.17783400  0.72162100  0.00000000  1
  O  O27  1  0.56732600  0.13219400  0.00000000  1
  O  O28  1  0.95481800  0.55359500  0.00000000  1
  O  O29  1  0.36509100  0.94353700  0.00000000  1
  O  O30  1  0.86780600  0.86780600  0.43513300  1
  O  O31  1  0.27837900  0.27837900  0.45621400  1
  O  O32  1  0.67717600  0.67717600  0.45527400  1
  O  O33  1  0.05646300  0.05646300  0.42155400  1
  O  O34  1  0.44640500  0.44640500  0.40122300  1
  O  O35  1  0.43267400  0.43267400  0.56486700  1
  O  O36  1  0.82216600  0.82216600  0.54378600  1
  O  O37  1  0.22190200  0.22190200  0.54472600  1
  O  O38  1  0.63490900  0.63490900  0.57844600  1
  O  O39  1  0.04518200  0.04518200  0.59877700  1
  O  O40  1  0.60095900  0.10095900  0.50000000  1
  O  O41  1  0.00000000  0.50000000  0.50000000  1
  O  O42  1  0.39904100  0.89904100  0.50000000  1
  O  O43  1  0.79921800  0.29921800  0.50000000  1
  O  O44  1  0.20078200  0.70078200  0.50000000  1
  O  O45  1  0.10095900  0.60095900  0.50000000  1
  O  O46  1  0.50000000  0.00000000  0.50000000  1
  O  O47  1  0.89904100  0.39904100  0.50000000  1
  O  O48  1  0.29921800  0.79921800  0.50000000  1
  O  O49  1  0.70078200  0.20078200  0.50000000  1
