# generated using pymatgen
data_Ba3Ta4TiO15
_symmetry_space_group_name_H-M   'P 1'
_cell_length_a   12.72887000
_cell_length_b   12.72887000
_cell_length_c   3.98802000
_cell_angle_alpha   90.00000000
_cell_angle_beta   90.00000000
_cell_angle_gamma   90.00000000
_symmetry_Int_Tables_number   1
_chemical_formula_structural   Ba3Ta4TiO15
_chemical_formula_sum   'Ba6 Ta8 Ti2 O30'
_cell_volume   646.15547681
_cell_formula_units_Z   2
loop_
 _symmetry_equiv_pos_site_id
 _symmetry_equiv_pos_as_xyz
  1  'x, y, z'
loop_
 _atom_site_type_symbol
 _atom_site_label
 _atom_site_symmetry_multiplicity
 _atom_site_fract_x
 _atom_site_fract_y
 _atom_site_fract_z
 _atom_site_occupancy
  Ba  Ba0  1  0.66562900  0.16562900  0.00000000  1
  Ba  Ba1  1  0.33437100  0.83437100  0.00000000  1
  Ba  Ba2  1  0.16562900  0.33437100  0.00000000  1
  Ba  Ba3  1  0.83437100  0.66562900  0.00000000  1
  Ba  Ba4  1  0.50000000  0.50000000  0.00000000  1
  Ba  Ba5  1  0.00000000  0.00000000  0.00000000  1
  Ta  Ta6  1  0.57295100  0.71699000  0.50000000  1
  Ta  Ta7  1  0.42704900  0.28301000  0.50000000  1
  Ta  Ta8  1  0.07295100  0.78301000  0.50000000  1
  Ta  Ta9  1  0.92704900  0.21699000  0.50000000  1
  Ta  Ta10  1  0.28301000  0.57295100  0.50000000  1
  Ta  Ta11  1  0.71699000  0.42704900  0.50000000  1
  Ta  Ta12  1  0.21699000  0.07295100  0.50000000  1
  Ta  Ta13  1  0.78301000  0.92704900  0.50000000  1
  Ti  Ti14  1  0.50000000  0.00000000  0.50000000  1
  Ti  Ti15  1  0.00000000  0.50000000  0.50000000  1
  O  O16  1  0.84467200  0.50648400  0.50000000  1
  O  O17  1  0.15532800  0.49351600  0.50000000  1
  O  O18  1  0.34467200  0.99351600  0.50000000  1
  O  O19  1  0.65532800  0.00648400  0.50000000  1
  O  O20  1  0.49351600  0.84467200  0.50000000  1
  O  O21  1  0.50648400  0.15532800  0.50000000  1
  O  O22  1  0.00648400  0.34467200  0.50000000  1
  O  O23  1  0.99351600  0.65532800  0.50000000  1
  O  O24  1  0.78358800  0.28358800  0.50000000  1
  O  O25  1  0.21641200  0.71641200  0.50000000  1
  O  O26  1  0.28358800  0.21641200  0.50000000  1
  O  O27  1  0.71641200  0.78358800  0.50000000  1
  O  O28  1  0.57769400  0.70662000  0.00000000  1
  O  O29  1  0.42230600  0.29338000  0.00000000  1
  O  O30  1  0.07769400  0.79338000  0.00000000  1
  O  O31  1  0.92230600  0.20662000  0.00000000  1
  O  O32  1  0.29338000  0.57769400  0.00000000  1
  O  O33  1  0.70662000  0.42230600  0.00000000  1
  O  O34  1  0.20662000  0.07769400  0.00000000  1
  O  O35  1  0.79338000  0.92230600  0.00000000  1
  O  O36  1  0.64165800  0.56785700  0.50000000  1
  O  O37  1  0.35834200  0.43214300  0.50000000  1
  O  O38  1  0.14165800  0.93214300  0.50000000  1
  O  O39  1  0.85834200  0.06785700  0.50000000  1
  O  O40  1  0.43214300  0.64165800  0.50000000  1
  O  O41  1  0.56785700  0.35834200  0.50000000  1
  O  O42  1  0.06785700  0.14165800  0.50000000  1
  O  O43  1  0.93214300  0.85834200  0.50000000  1
  O  O44  1  0.50000000  0.00000000  0.00000000  1
  O  O45  1  0.00000000  0.50000000  0.00000000  1
