# generated using pymatgen
data_Al3GaN4
_symmetry_space_group_name_H-M   'P 1'
_cell_length_a   3.14858500
_cell_length_b   5.07768100
_cell_length_c   5.45158596
_cell_angle_alpha   89.96605293
_cell_angle_beta   90.00000000
_cell_angle_gamma   90.00000000
_symmetry_Int_Tables_number   1
_chemical_formula_structural   Al3GaN4
_chemical_formula_sum   'Al3 Ga1 N4'
_cell_volume   87.15727096
_cell_formula_units_Z   1
loop_
 _symmetry_equiv_pos_site_id
 _symmetry_equiv_pos_as_xyz
  1  'x, y, z'
loop_
 _atom_site_type_symbol
 _atom_site_label
 _atom_site_symmetry_multiplicity
 _atom_site_fract_x
 _atom_site_fract_y
 _atom_site_fract_z
 _atom_site_occupancy
  Al  Al0  1  0.50000000  0.49978900  0.83270800  1
  Al  Al1  1  0.50000000  0.00085700  0.16493600  1
  Al  Al2  1  0.00000000  0.00072700  0.66855900  1
  Ga  Ga3  1  0.00000000  0.49993700  0.33368300  1
  N  N4  1  0.00000000  0.11052500  0.33378100  1
  N  N5  1  0.50000000  0.12260100  0.83284900  1
  N  N6  1  0.50000000  0.62585800  0.15892300  1
  N  N7  1  0.00000000  0.62330700  0.67456000  1
