# generated using pymatgen
data_Ba3BiPb2O9
_symmetry_space_group_name_H-M   'P 1'
_cell_length_a   6.16980000
_cell_length_b   6.17055566
_cell_length_c   13.79387299
_cell_angle_alpha   102.69941431
_cell_angle_beta   102.71058268
_cell_angle_gamma   89.87089636
_symmetry_Int_Tables_number   1
_chemical_formula_structural   Ba3BiPb2O9
_chemical_formula_sum   'Ba6 Bi2 Pb4 O18'
_cell_volume   499.15939641
_cell_formula_units_Z   2
loop_
 _symmetry_equiv_pos_site_id
 _symmetry_equiv_pos_as_xyz
  1  'x, y, z'
loop_
 _atom_site_type_symbol
 _atom_site_label
 _atom_site_symmetry_multiplicity
 _atom_site_fract_x
 _atom_site_fract_y
 _atom_site_fract_z
 _atom_site_occupancy
  Ba  Ba0  1  0.91922600  0.41884000  0.83630100  1
  Ba  Ba1  1  0.25141900  0.75139900  0.50066200  1
  Ba  Ba2  1  0.58341600  0.08377100  0.16508300  1
  Ba  Ba3  1  0.74858100  0.24860100  0.49933800  1
  Ba  Ba4  1  0.08077400  0.58116000  0.16369900  1
  Ba  Ba5  1  0.41658400  0.91622900  0.83491700  1
  Bi  Bi6  1  0.83348200  0.83332600  0.66682000  1
  Bi  Bi7  1  0.16651800  0.16667400  0.33318000  1
  Pb  Pb8  1  0.50000000  0.50000000  0.00000000  1
  Pb  Pb9  1  0.33389700  0.33383700  0.66774400  1
  Pb  Pb10  1  0.66610300  0.66616300  0.33225600  1
  Pb  Pb11  1  0.00000000  0.00000000  0.00000000  1
  O  O12  1  0.61768600  0.11459000  0.68268400  1
  O  O13  1  0.95111500  0.44852200  0.35029300  1
  O  O14  1  0.28385300  0.78393200  0.01678000  1
  O  O15  1  0.04888500  0.55147800  0.64970700  1
  O  O16  1  0.38231400  0.88541000  0.31731600  1
  O  O17  1  0.71614700  0.21606800  0.98322000  1
  O  O18  1  0.10764300  0.05567300  0.66583900  1
  O  O19  1  0.44169300  0.38944300  0.33392100  1
  O  O20  1  0.77705300  0.72301600  0.00001400  1
  O  O21  1  0.72434600  0.77644500  0.50046300  1
  O  O22  1  0.05796200  0.11026800  0.16768100  1
  O  O23  1  0.38956200  0.44335000  0.83351400  1
  O  O24  1  0.94203800  0.88973200  0.83231900  1
  O  O25  1  0.27565400  0.22355500  0.49953700  1
  O  O26  1  0.61043800  0.55665000  0.16648600  1
  O  O27  1  0.55830700  0.61055700  0.66607900  1
  O  O28  1  0.89235700  0.94432700  0.33416100  1
  O  O29  1  0.22294700  0.27698400  0.99998600  1
