# generated using pymatgen
data_Ba5Ce4ZrO15
_symmetry_space_group_name_H-M   'P 1'
_cell_length_a   6.22612000
_cell_length_b   13.89906378
_cell_length_c   10.85777486
_cell_angle_alpha   104.74204967
_cell_angle_beta   106.66124141
_cell_angle_gamma   77.05731549
_symmetry_Int_Tables_number   1
_chemical_formula_structural   Ba5Ce4ZrO15
_chemical_formula_sum   'Ba10 Ce8 Zr2 O30'
_cell_volume   858.87984720
_cell_formula_units_Z   2
loop_
 _symmetry_equiv_pos_site_id
 _symmetry_equiv_pos_as_xyz
  1  'x, y, z'
loop_
 _atom_site_type_symbol
 _atom_site_label
 _atom_site_symmetry_multiplicity
 _atom_site_fract_x
 _atom_site_fract_y
 _atom_site_fract_z
 _atom_site_occupancy
  Ba  Ba0  1  0.09548500  0.35370700  0.54467700  1
  Ba  Ba1  1  0.49563700  0.74890000  0.74017400  1
  Ba  Ba2  1  0.89822100  0.14466900  0.94111200  1
  Ba  Ba3  1  0.30070100  0.54897500  0.15037800  1
  Ba  Ba4  1  0.70205900  0.94630500  0.35042200  1
  Ba  Ba5  1  0.90436300  0.65110000  0.45982600  1
  Ba  Ba6  1  0.30451500  0.04629300  0.65532300  1
  Ba  Ba7  1  0.69794100  0.45369500  0.84957800  1
  Ba  Ba8  1  0.09929900  0.85102500  0.04962200  1
  Ba  Ba9  1  0.50177900  0.25533100  0.25888800  1
  Ce  Ce10  1  0.49904500  0.99831000  0.99640000  1
  Ce  Ce11  1  0.90095500  0.40169000  0.20360000  1
  Ce  Ce12  1  0.30282900  0.79852400  0.40418100  1
  Ce  Ce13  1  0.70000000  0.20000000  0.60000000  1
  Ce  Ce14  1  0.09717100  0.60147600  0.79581900  1
  Ce  Ce15  1  0.29976700  0.30127400  0.90080900  1
  Ce  Ce16  1  0.70000000  0.70000000  0.10000000  1
  Ce  Ce17  1  0.10023300  0.09872600  0.29919100  1
  Zr  Zr18  1  0.50065300  0.49962400  0.50093000  1
  Zr  Zr19  1  0.89934700  0.90037600  0.69907000  1
  O  O20  1  0.70882000  0.43061400  0.36440800  1
  O  O21  1  0.11028900  0.83021700  0.56399400  1
  O  O22  1  0.51918300  0.22494100  0.75925500  1
  O  O23  1  0.91630100  0.62546700  0.95608600  1
  O  O24  1  0.31523800  0.02253800  0.15545200  1
  O  O25  1  0.77651100  0.56978300  0.63600600  1
  O  O26  1  0.17502600  0.96938600  0.83559200  1
  O  O27  1  0.58232400  0.37746200  0.04454800  1
  O  O28  1  0.98568200  0.77453300  0.24391400  1
  O  O29  1  0.38487000  0.17505900  0.44074500  1
  O  O30  1  0.22497400  0.43061400  0.36440800  1
  O  O31  1  0.62348900  0.83021700  0.56399400  1
  O  O32  1  0.01513000  0.22494100  0.75925500  1
  O  O33  1  0.41431800  0.62546700  0.95608600  1
  O  O34  1  0.81767600  0.02253800  0.15545200  1
  O  O35  1  0.28971100  0.56978300  0.63600600  1
  O  O36  1  0.69118000  0.96938600  0.83559200  1
  O  O37  1  0.08476200  0.37746200  0.04454800  1
  O  O38  1  0.48369900  0.77453300  0.24391400  1
  O  O39  1  0.88081700  0.17505900  0.44074500  1
  O  O40  1  0.41495100  0.16402700  0.99392900  1
  O  O41  1  0.81604500  0.56630400  0.19839300  1
  O  O42  1  0.21683100  0.96384700  0.39750800  1
  O  O43  1  0.60967900  0.36924700  0.58860600  1
  O  O44  1  0.00842900  0.76776200  0.78462000  1
  O  O45  1  0.18316900  0.43615300  0.80249200  1
  O  O46  1  0.58395500  0.83369600  0.00160700  1
  O  O47  1  0.98504900  0.23597300  0.20607100  1
  O  O48  1  0.39157100  0.63223800  0.41538000  1
  O  O49  1  0.79032100  0.03075300  0.61139400  1
