# generated using pymatgen
data_Ba4Ti3PtO12
_symmetry_space_group_name_H-M   'P 1'
_cell_length_a   5.78644580
_cell_length_b   5.78644580
_cell_length_c   28.45836600
_cell_angle_alpha   90.00000000
_cell_angle_beta   90.00000000
_cell_angle_gamma   119.99999769
_symmetry_Int_Tables_number   1
_chemical_formula_structural   Ba4Ti3PtO12
_chemical_formula_sum   'Ba12 Ti9 Pt3 O36'
_cell_volume   825.20980793
_cell_formula_units_Z   3
loop_
 _symmetry_equiv_pos_site_id
 _symmetry_equiv_pos_as_xyz
  1  'x, y, z'
loop_
 _atom_site_type_symbol
 _atom_site_label
 _atom_site_symmetry_multiplicity
 _atom_site_fract_x
 _atom_site_fract_y
 _atom_site_fract_z
 _atom_site_occupancy
  Ba  Ba0  1  0.00000000  0.00000000  0.20615200  1
  Ba  Ba1  1  0.00000000  0.00000000  0.70258300  1
  Ba  Ba2  1  0.66666700  0.33333300  0.29524700  1
  Ba  Ba3  1  0.66666700  0.33333300  0.79599600  1
  Ba  Ba4  1  0.66666700  0.33333300  0.45328100  1
  Ba  Ba5  1  0.66666700  0.33333300  0.95305000  1
  Ba  Ba6  1  0.00000000  0.00000000  0.04777200  1
  Ba  Ba7  1  0.00000000  0.00000000  0.54836200  1
  Ba  Ba8  1  0.33333300  0.66666700  0.37364600  1
  Ba  Ba9  1  0.33333300  0.66666700  0.87367700  1
  Ba  Ba10  1  0.33333300  0.66666700  0.12839400  1
  Ba  Ba11  1  0.33333300  0.66666700  0.62530900  1
  Ti  Ti12  1  0.66666700  0.33333300  0.67395400  1
  Ti  Ti13  1  0.66666700  0.33333300  0.07696000  1
  Ti  Ti14  1  0.66666700  0.33333300  0.57862800  1
  Ti  Ti15  1  0.00000000  0.00000000  0.42570500  1
  Ti  Ti16  1  0.00000000  0.00000000  0.92549700  1
  Ti  Ti17  1  0.33333300  0.66666700  0.25140000  1
  Ti  Ti18  1  0.33333300  0.66666700  0.75075200  1
  Ti  Ti19  1  0.33333300  0.66666700  0.00153300  1
  Ti  Ti20  1  0.33333300  0.66666700  0.50144500  1
  Pt  Pt21  1  0.00000000  0.00000000  0.32993700  1
  Pt  Pt22  1  0.00000000  0.00000000  0.82920600  1
  Pt  Pt23  1  0.66666700  0.33333300  0.16994700  1
  O  O24  1  0.17095200  0.34190300  0.28914200  1
  O  O25  1  0.17055300  0.34110700  0.78849500  1
  O  O26  1  0.17095200  0.82904800  0.28914200  1
  O  O27  1  0.17055300  0.82944700  0.78849500  1
  O  O28  1  0.65809700  0.82904800  0.28914200  1
  O  O29  1  0.65889300  0.82944700  0.78849500  1
  O  O30  1  0.49689800  0.99379600  0.20985700  1
  O  O31  1  0.49961900  0.99923900  0.70880900  1
  O  O32  1  0.49689800  0.50310200  0.20985700  1
  O  O33  1  0.49961900  0.50038100  0.70880900  1
  O  O34  1  0.00620400  0.50310200  0.20985700  1
  O  O35  1  0.00076100  0.50038100  0.70880900  1
  O  O36  1  0.49871400  0.99742900  0.03909800  1
  O  O37  1  0.49815200  0.99630300  0.53965000  1
  O  O38  1  0.49871400  0.50128600  0.03909800  1
  O  O39  1  0.49815200  0.50184800  0.53965000  1
  O  O40  1  0.00257100  0.50128600  0.03909800  1
  O  O41  1  0.00369700  0.50184800  0.53965000  1
  O  O42  1  0.16691100  0.33382100  0.45987600  1
  O  O43  1  0.16677300  0.33354700  0.95986400  1
  O  O44  1  0.16691100  0.83308900  0.45987600  1
  O  O45  1  0.16677300  0.83322700  0.95986400  1
  O  O46  1  0.66617900  0.83308900  0.45987600  1
  O  O47  1  0.66645300  0.83322700  0.95986400  1
  O  O48  1  0.30401000  0.15200500  0.37627500  1
  O  O49  1  0.30350700  0.15175400  0.87608200  1
  O  O50  1  0.84799500  0.69599000  0.37627500  1
  O  O51  1  0.84824600  0.69649300  0.87608200  1
  O  O52  1  0.84799500  0.15200500  0.37627500  1
  O  O53  1  0.84824600  0.15175400  0.87608200  1
  O  O54  1  0.36102600  0.18051300  0.12246400  1
  O  O55  1  0.36967900  0.18484000  0.62424200  1
  O  O56  1  0.81948700  0.63897400  0.12246400  1
  O  O57  1  0.81516000  0.63032100  0.62424200  1
  O  O58  1  0.81948700  0.18051300  0.12246400  1
  O  O59  1  0.81516000  0.18484000  0.62424200  1
