# generated using pymatgen
data_Al2S3
_symmetry_space_group_name_H-M   'P 1'
_cell_length_a   6.54871308
_cell_length_b   6.54871308
_cell_length_c   7.05965676
_cell_angle_alpha   63.09732511
_cell_angle_beta   63.09732511
_cell_angle_gamma   59.56298325
_symmetry_Int_Tables_number   1
_chemical_formula_structural   Al2S3
_chemical_formula_sum   'Al4 S6'
_cell_volume   222.75445444
_cell_formula_units_Z   2
loop_
 _symmetry_equiv_pos_site_id
 _symmetry_equiv_pos_as_xyz
  1  'x, y, z'
loop_
 _atom_site_type_symbol
 _atom_site_label
 _atom_site_symmetry_multiplicity
 _atom_site_fract_x
 _atom_site_fract_y
 _atom_site_fract_z
 _atom_site_occupancy
  Al  Al0  1  0.18256300  0.98507700  0.49722300  1
  Al  Al1  1  0.81031200  0.67449200  0.51164500  1
  Al  Al2  1  0.98507700  0.18256300  0.99722300  1
  Al  Al3  1  0.67449200  0.81031200  0.01164500  1
  S  S4  1  0.29548000  0.12112700  0.11399800  1
  S  S5  1  0.95706500  0.80147100  0.12665800  1
  S  S6  1  0.63063300  0.45875500  0.12543300  1
  S  S7  1  0.12112700  0.29548000  0.61399800  1
  S  S8  1  0.80147100  0.95706500  0.62665800  1
  S  S9  1  0.45875500  0.63063300  0.62543300  1
