# generated using pymatgen
data_Ba8Sr3Ca(WO6)4
_symmetry_space_group_name_H-M   'P 1'
_cell_length_a   6.15513800
_cell_length_b   10.52763000
_cell_length_c   10.63543080
_cell_angle_alpha   99.00109091
_cell_angle_beta   106.80861200
_cell_angle_gamma   89.99981496
_symmetry_Int_Tables_number   1
_chemical_formula_structural   Ba8Sr3Ca(WO6)4
_chemical_formula_sum   'Ba8 Sr3 Ca1 W4 O24'
_cell_volume   650.85103116
_cell_formula_units_Z   1
loop_
 _symmetry_equiv_pos_site_id
 _symmetry_equiv_pos_as_xyz
  1  'x, y, z'
loop_
 _atom_site_type_symbol
 _atom_site_label
 _atom_site_symmetry_multiplicity
 _atom_site_fract_x
 _atom_site_fract_y
 _atom_site_fract_z
 _atom_site_occupancy
  Ba  Ba0  1  0.31346900  0.93455000  0.12624500  1
  Ba  Ba1  1  0.06145800  0.18818600  0.62408800  1
  Ba  Ba2  1  0.81633700  0.43529800  0.13097400  1
  Ba  Ba3  1  0.56106100  0.68196700  0.62345600  1
  Ba  Ba4  1  0.43893900  0.31803300  0.37654400  1
  Ba  Ba5  1  0.18366300  0.56470200  0.86902600  1
  Ba  Ba6  1  0.93854200  0.81181400  0.37591200  1
  Ba  Ba7  1  0.68653100  0.06545000  0.87375500  1
  Sr  Sr8  1  0.75099000  0.74999100  0.00116400  1
  Sr  Sr9  1  0.50000000  0.00000000  0.50000000  1
  Sr  Sr10  1  0.24901000  0.25000900  0.99883600  1
  Ca  Ca11  1  0.00000000  0.50000000  0.50000000  1
  W  W12  1  0.37735100  0.62321400  0.25301300  1
  W  W13  1  0.12320600  0.87243500  0.74791800  1
  W  W14  1  0.87679400  0.12756500  0.25208200  1
  W  W15  1  0.62264900  0.37678600  0.74698700  1
  O  O16  1  0.82588500  0.44676000  0.65740500  1
  O  O17  1  0.58090600  0.69580300  0.16802600  1
  O  O18  1  0.33200500  0.94366000  0.66609100  1
  O  O19  1  0.08118800  0.19878200  0.16665700  1
  O  O20  1  0.35243900  0.42240700  0.61077400  1
  O  O21  1  0.11355000  0.66680400  0.11467900  1
  O  O22  1  0.86330900  0.91843800  0.61022000  1
  O  O23  1  0.61464900  0.17252500  0.11236700  1
  O  O24  1  0.62511100  0.54494900  0.85548300  1
  O  O25  1  0.37753000  0.79157400  0.36138600  1
  O  O26  1  0.12355300  0.04101700  0.85810000  1
  O  O27  1  0.88262300  0.29794500  0.36273700  1
  O  O28  1  0.41909400  0.30419700  0.83197400  1
  O  O29  1  0.17411500  0.55324000  0.34259500  1
  O  O30  1  0.91881200  0.80121800  0.83334300  1
  O  O31  1  0.66799500  0.05634000  0.33390900  1
  O  O32  1  0.88645000  0.33319600  0.88532100  1
  O  O33  1  0.64756100  0.57759300  0.38922600  1
  O  O34  1  0.38535100  0.82747500  0.88763300  1
  O  O35  1  0.13669100  0.08156200  0.38978000  1
  O  O36  1  0.62247000  0.20842600  0.63861400  1
  O  O37  1  0.37488900  0.45505100  0.14451700  1
  O  O38  1  0.11737700  0.70205500  0.63726300  1
  O  O39  1  0.87644700  0.95898300  0.14190000  1
