# generated using pymatgen
data_Ba2V(PO5)2
_symmetry_space_group_name_H-M   'P 1'
_cell_length_a   5.19266300
_cell_length_b   6.81531690
_cell_length_c   7.21580366
_cell_angle_alpha   103.64697605
_cell_angle_beta   90.00000000
_cell_angle_gamma   67.60713217
_symmetry_Int_Tables_number   1
_chemical_formula_structural   Ba2V(PO5)2
_chemical_formula_sum   'Ba2 V1 P2 O10'
_cell_volume   228.29176113
_cell_formula_units_Z   1
loop_
 _symmetry_equiv_pos_site_id
 _symmetry_equiv_pos_as_xyz
  1  'x, y, z'
loop_
 _atom_site_type_symbol
 _atom_site_label
 _atom_site_symmetry_multiplicity
 _atom_site_fract_x
 _atom_site_fract_y
 _atom_site_fract_z
 _atom_site_occupancy
  Ba  Ba0  1  0.83711200  0.32577700  0.20682300  1
  Ba  Ba1  1  0.16678500  0.66643100  0.78758800  1
  V  V2  1  0.49797100  0.00405700  0.48185900  1
  P  P3  1  0.86800600  0.26398800  0.71187800  1
  P  P4  1  0.13155200  0.73689700  0.28178400  1
  O  O5  1  0.75182300  0.49635400  0.84498100  1
  O  O6  1  0.25035500  0.49929000  0.15946200  1
  O  O7  1  0.47425100  0.05149700  0.26509300  1
  O  O8  1  0.51917300  0.96165400  0.73836600  1
  O  O9  1  0.95495400  0.09009200  0.82510900  1
  O  O10  1  0.04979700  0.90040700  0.16028800  1
  O  O11  1  0.64225600  0.24109700  0.57042100  1
  O  O12  1  0.11664700  0.24109700  0.57042100  1
  O  O13  1  0.35376300  0.76848200  0.42496300  1
  O  O14  1  0.87775600  0.76848200  0.42496300  1
