# generated using pymatgen
data_Ba6Ca6Mg(CO3)13
_symmetry_space_group_name_H-M   'P 1'
_cell_length_a   11.09525991
_cell_length_b   11.09525991
_cell_length_c   11.09525972
_cell_angle_alpha   113.28085213
_cell_angle_beta   113.28085213
_cell_angle_gamma   113.28084957
_symmetry_Int_Tables_number   1
_chemical_formula_structural   Ba6Ca6Mg(CO3)13
_chemical_formula_sum   'Ba6 Ca6 Mg1 C13 O39'
_cell_volume   872.32172160
_cell_formula_units_Z   1
loop_
 _symmetry_equiv_pos_site_id
 _symmetry_equiv_pos_as_xyz
  1  'x, y, z'
loop_
 _atom_site_type_symbol
 _atom_site_label
 _atom_site_symmetry_multiplicity
 _atom_site_fract_x
 _atom_site_fract_y
 _atom_site_fract_z
 _atom_site_occupancy
  Ba  Ba0  1  0.87383100  0.57501900  0.64520900  1
  Ba  Ba1  1  0.64520900  0.87383100  0.57501900  1
  Ba  Ba2  1  0.57501900  0.64520900  0.87383100  1
  Ba  Ba3  1  0.11497700  0.42096800  0.34895500  1
  Ba  Ba4  1  0.34895500  0.11497700  0.42096800  1
  Ba  Ba5  1  0.42096800  0.34895500  0.11497700  1
  Ca  Ca6  1  0.06197300  0.22196000  0.64364400  1
  Ca  Ca7  1  0.64364400  0.06197300  0.22196000  1
  Ca  Ca8  1  0.22196000  0.64364400  0.06197300  1
  Ca  Ca9  1  0.93710300  0.77743900  0.35629400  1
  Ca  Ca10  1  0.35629400  0.93710300  0.77743900  1
  Ca  Ca11  1  0.77743900  0.35629400  0.93710300  1
  Mg  Mg12  1  0.00009000  0.00009000  0.00009000  1
  C  C13  1  0.29436900  0.83164200  0.45508200  1
  C  C14  1  0.45508200  0.29436900  0.83164200  1
  C  C15  1  0.83164200  0.45508200  0.29436900  1
  C  C16  1  0.70510900  0.16811200  0.54444400  1
  C  C17  1  0.54444400  0.70510900  0.16811200  1
  C  C18  1  0.16811200  0.54444400  0.70510900  1
  C  C19  1  0.98914100  0.91253200  0.67949900  1
  C  C20  1  0.67949900  0.98914100  0.91253200  1
  C  C21  1  0.91253200  0.67949900  0.98914100  1
  C  C22  1  0.01184300  0.08866300  0.32160100  1
  C  C23  1  0.32160100  0.01184300  0.08866300  1
  C  C24  1  0.08866300  0.32160100  0.01184300  1
  C  C25  1  0.52514900  0.52514900  0.52514900  1
  O  O26  1  0.34116700  0.77475800  0.52960400  1
  O  O27  1  0.52960400  0.34116700  0.77475800  1
  O  O28  1  0.77475800  0.52960400  0.34116700  1
  O  O29  1  0.65761500  0.22476400  0.46902300  1
  O  O30  1  0.46902300  0.65761500  0.22476400  1
  O  O31  1  0.22476400  0.46902300  0.65761500  1
  O  O32  1  0.31254800  0.82357300  0.34481500  1
  O  O33  1  0.34481500  0.31254800  0.82357300  1
  O  O34  1  0.82357300  0.34481500  0.31254800  1
  O  O35  1  0.68705300  0.17592700  0.65451200  1
  O  O36  1  0.65451200  0.68705300  0.17592700  1
  O  O37  1  0.17592700  0.65451200  0.68705300  1
  O  O38  1  0.23714900  0.90700600  0.50263800  1
  O  O39  1  0.50263800  0.23714900  0.90700600  1
  O  O40  1  0.90700600  0.50263800  0.23714900  1
  O  O41  1  0.76259700  0.09326600  0.49701000  1
  O  O42  1  0.49701000  0.76259700  0.09326600  1
  O  O43  1  0.09326600  0.49701000  0.76259700  1
  O  O44  1  0.09412800  0.88510100  0.69029700  1
  O  O45  1  0.69029700  0.09412800  0.88510100  1
  O  O46  1  0.88510100  0.69029700  0.09412800  1
  O  O47  1  0.90553300  0.11423400  0.30901500  1
  O  O48  1  0.30901500  0.90553300  0.11423400  1
  O  O49  1  0.11423400  0.30901500  0.90553300  1
  O  O50  1  0.93154200  0.94477600  0.57938700  1
  O  O51  1  0.57938700  0.93154200  0.94477600  1
  O  O52  1  0.94477600  0.57938700  0.93154200  1
  O  O53  1  0.06854200  0.05534700  0.42083100  1
  O  O54  1  0.42083100  0.06854200  0.05534700  1
  O  O55  1  0.05534700  0.42083100  0.06854200  1
  O  O56  1  0.93032200  0.89706900  0.75807900  1
  O  O57  1  0.75807900  0.93032200  0.89706900  1
  O  O58  1  0.89706900  0.75807900  0.93032200  1
  O  O59  1  0.07462800  0.10848300  0.24670300  1
  O  O60  1  0.24670300  0.07462800  0.10848300  1
  O  O61  1  0.10848300  0.24670300  0.07462800  1
  O  O62  1  0.58264200  0.55148000  0.44898500  1
  O  O63  1  0.44898500  0.58264200  0.55148000  1
  O  O64  1  0.55148000  0.44898500  0.58264200  1
