# generated using pymatgen
data_Ba2NaSr2(SbO4)3
_symmetry_space_group_name_H-M   'P 1'
_cell_length_a   8.31711200
_cell_length_b   8.31711200
_cell_length_c   8.34405700
_cell_angle_alpha   90.00000000
_cell_angle_beta   90.00000000
_cell_angle_gamma   90.00000000
_symmetry_Int_Tables_number   1
_chemical_formula_structural   Ba2NaSr2(SbO4)3
_chemical_formula_sum   'Ba4 Na2 Sr4 Sb6 O24'
_cell_volume   577.19473620
_cell_formula_units_Z   2
loop_
 _symmetry_equiv_pos_site_id
 _symmetry_equiv_pos_as_xyz
  1  'x, y, z'
loop_
 _atom_site_type_symbol
 _atom_site_label
 _atom_site_symmetry_multiplicity
 _atom_site_fract_x
 _atom_site_fract_y
 _atom_site_fract_z
 _atom_site_occupancy
  Ba  Ba0  1  0.24931300  0.25068700  0.25000000  1
  Ba  Ba1  1  0.75068700  0.74931300  0.25000000  1
  Ba  Ba2  1  0.74931300  0.24931300  0.75000000  1
  Ba  Ba3  1  0.25068700  0.75068700  0.75000000  1
  Na  Na4  1  0.50000000  0.50000000  0.50000000  1
  Na  Na5  1  0.00000000  0.00000000  0.00000000  1
  Sr  Sr6  1  0.24860500  0.74860500  0.25000000  1
  Sr  Sr7  1  0.75139500  0.25139500  0.25000000  1
  Sr  Sr8  1  0.25139500  0.24860500  0.75000000  1
  Sr  Sr9  1  0.74860500  0.75139500  0.75000000  1
  Sb  Sb10  1  0.50000000  0.50000000  0.00000000  1
  Sb  Sb11  1  0.00000000  0.00000000  0.50000000  1
  Sb  Sb12  1  0.50000000  0.00000000  0.49956200  1
  Sb  Sb13  1  0.00000000  0.50000000  0.99956200  1
  Sb  Sb14  1  0.00000000  0.50000000  0.50043800  1
  Sb  Sb15  1  0.50000000  0.00000000  0.00043800  1
  O  O16  1  0.50000000  0.50000000  0.22941400  1
  O  O17  1  0.00000000  0.00000000  0.72941400  1
  O  O18  1  0.50000000  0.50000000  0.77058600  1
  O  O19  1  0.00000000  0.00000000  0.27058600  1
  O  O20  1  0.23006800  0.48749000  0.50200400  1
  O  O21  1  0.76993200  0.51251000  0.50200400  1
  O  O22  1  0.73006800  0.01251000  0.00200400  1
  O  O23  1  0.26993200  0.98749000  0.00200400  1
  O  O24  1  0.48749000  0.76993200  0.49799600  1
  O  O25  1  0.51251000  0.23006800  0.49799600  1
  O  O26  1  0.01251000  0.26993200  0.99799600  1
  O  O27  1  0.98749000  0.73006800  0.99799600  1
  O  O28  1  0.24999100  0.01442200  0.50439300  1
  O  O29  1  0.75000900  0.98557800  0.50439300  1
  O  O30  1  0.74999100  0.48557800  0.00439300  1
  O  O31  1  0.25000900  0.51442200  0.00439300  1
  O  O32  1  0.01442200  0.75000900  0.49560700  1
  O  O33  1  0.98557800  0.24999100  0.49560700  1
  O  O34  1  0.48557800  0.25000900  0.99560700  1
  O  O35  1  0.51442200  0.74999100  0.99560700  1
  O  O36  1  0.50000000  0.00000000  0.25000000  1
  O  O37  1  0.00000000  0.50000000  0.75000000  1
  O  O38  1  0.00000000  0.50000000  0.25000000  1
  O  O39  1  0.50000000  0.00000000  0.75000000  1
