# generated using pymatgen
data_La7SmCr2(FeO4)6
_symmetry_space_group_name_H-M   'P 1'
_cell_length_a   7.88051982
_cell_length_b   7.88051982
_cell_length_c   7.87928300
_cell_angle_alpha   90.00000000
_cell_angle_beta   90.00000000
_cell_angle_gamma   90.00497655
_symmetry_Int_Tables_number   1
_chemical_formula_structural   La7SmCr2(FeO4)6
_chemical_formula_sum   'La7 Sm1 Cr2 Fe6 O24'
_cell_volume   489.32390077
_cell_formula_units_Z   1
loop_
 _symmetry_equiv_pos_site_id
 _symmetry_equiv_pos_as_xyz
  1  'x, y, z'
loop_
 _atom_site_type_symbol
 _atom_site_label
 _atom_site_symmetry_multiplicity
 _atom_site_fract_x
 _atom_site_fract_y
 _atom_site_fract_z
 _atom_site_occupancy
  La  La0  1  0.00000000  0.50000000  0.74969700  1
  La  La1  1  0.50000000  0.50000000  0.74970200  1
  La  La2  1  0.00000000  0.50000000  0.25031000  1
  La  La3  1  0.50000000  0.50000000  0.25030200  1
  La  La4  1  0.50000000  0.00000000  0.74969700  1
  La  La5  1  0.00000000  0.00000000  0.25030400  1
  La  La6  1  0.50000000  0.00000000  0.25031000  1
  Sm  Sm7  1  0.00000000  0.00000000  0.74970300  1
  Cr  Cr8  1  0.24991000  0.75009000  0.50006700  1
  Cr  Cr9  1  0.75009000  0.24991000  0.50006700  1
  Fe  Fe10  1  0.75014600  0.75014600  0.99985000  1
  Fe  Fe11  1  0.24985100  0.75014900  0.99985500  1
  Fe  Fe12  1  0.75014700  0.75014700  0.50015400  1
  Fe  Fe13  1  0.75014900  0.24985100  0.99985500  1
  Fe  Fe14  1  0.24985400  0.24985400  0.99985000  1
  Fe  Fe15  1  0.24985300  0.24985300  0.50015400  1
  O  O16  1  0.74999600  0.49986400  0.00000300  1
  O  O17  1  0.25000400  0.50013600  0.00000300  1
  O  O18  1  0.74999800  0.49966300  0.50000200  1
  O  O19  1  0.25000200  0.50033700  0.50000200  1
  O  O20  1  0.75062100  0.00012600  0.99938100  1
  O  O21  1  0.24937900  0.99987400  0.99938100  1
  O  O22  1  0.75065300  0.00037300  0.50066000  1
  O  O23  1  0.24934700  0.99962700  0.50066000  1
  O  O24  1  0.75062000  0.75062000  0.74957600  1
  O  O25  1  0.24934300  0.75065700  0.74943300  1
  O  O26  1  0.74999500  0.74999500  0.25043400  1
  O  O27  1  0.24999900  0.75000100  0.25052900  1
  O  O28  1  0.75065700  0.24934300  0.74943300  1
  O  O29  1  0.24938000  0.24938000  0.74957600  1
  O  O30  1  0.75000100  0.24999900  0.25052900  1
  O  O31  1  0.25000500  0.25000500  0.25043400  1
  O  O32  1  0.00012600  0.75062100  0.99938100  1
  O  O33  1  0.49986400  0.74999600  0.00000300  1
  O  O34  1  0.00037300  0.75065300  0.50066000  1
  O  O35  1  0.49966300  0.74999800  0.50000200  1
  O  O36  1  0.99987400  0.24937900  0.99938100  1
  O  O37  1  0.50013600  0.25000400  0.00000300  1
  O  O38  1  0.99962700  0.24934700  0.50066000  1
  O  O39  1  0.50033700  0.25000200  0.50000200  1
