# generated using pymatgen
data_Ba2La4Ti5O18
_symmetry_space_group_name_H-M   'P 1'
_cell_length_a   13.94542306
_cell_length_b   13.94542306
_cell_length_c   13.94542278
_cell_angle_alpha   23.25181338
_cell_angle_beta   23.25181338
_cell_angle_gamma   23.25181234
_symmetry_Int_Tables_number   1
_chemical_formula_structural   Ba2La4Ti5O18
_chemical_formula_sum   'Ba2 La4 Ti5 O18'
_cell_volume   371.05410474
_cell_formula_units_Z   1
loop_
 _symmetry_equiv_pos_site_id
 _symmetry_equiv_pos_as_xyz
  1  'x, y, z'
loop_
 _atom_site_type_symbol
 _atom_site_label
 _atom_site_symmetry_multiplicity
 _atom_site_fract_x
 _atom_site_fract_y
 _atom_site_fract_z
 _atom_site_occupancy
  Ba  Ba0  1  0.91360100  0.91360100  0.91360100  1
  Ba  Ba1  1  0.36208400  0.36208400  0.36208400  1
  La  La2  1  0.08909400  0.08909400  0.08909400  1
  La  La3  1  0.18496200  0.18496200  0.18496200  1
  La  La4  1  0.81336300  0.81336300  0.81336300  1
  La  La5  1  0.63601000  0.63601000  0.63601000  1
  Ti  Ti6  1  0.54837600  0.54837600  0.54837600  1
  Ti  Ti7  1  0.44967200  0.44967200  0.44967200  1
  Ti  Ti8  1  0.00017400  0.00017400  0.00017400  1
  Ti  Ti9  1  0.27490000  0.27490000  0.27490000  1
  Ti  Ti10  1  0.72408800  0.72408800  0.72408800  1
  O  O11  1  0.91385000  0.41995100  0.41995100  1
  O  O12  1  0.41995100  0.91385000  0.41995100  1
  O  O13  1  0.41995100  0.41995100  0.91385000  1
  O  O14  1  0.07913700  0.58792400  0.58792400  1
  O  O15  1  0.58792400  0.07913700  0.58792400  1
  O  O16  1  0.58792400  0.58792400  0.07913700  1
  O  O17  1  0.64053900  0.13890400  0.13890400  1
  O  O18  1  0.13890400  0.64053900  0.13890400  1
  O  O19  1  0.13890400  0.13890400  0.64053900  1
  O  O20  1  0.36366000  0.86041500  0.86041500  1
  O  O21  1  0.86041500  0.36366000  0.86041500  1
  O  O22  1  0.86041500  0.86041500  0.36366000  1
  O  O23  1  0.69362900  0.19259100  0.69362900  1
  O  O24  1  0.69362900  0.69362900  0.19259100  1
  O  O25  1  0.19259100  0.69362900  0.69362900  1
  O  O26  1  0.29702600  0.81728300  0.29702600  1
  O  O27  1  0.29702600  0.29702600  0.81728300  1
  O  O28  1  0.81728300  0.29702600  0.29702600  1
