# generated using pymatgen
data_Ba(ZnSb)2
_symmetry_space_group_name_H-M   'P 1'
_cell_length_a   11.04419592
_cell_length_b   11.04419592
_cell_length_c   11.04419592
_cell_angle_alpha   155.43190341
_cell_angle_beta   155.43190341
_cell_angle_gamma   35.02162297
_symmetry_Int_Tables_number   1
_chemical_formula_structural   Ba(ZnSb)2
_chemical_formula_sum   'Ba1 Zn2 Sb2'
_cell_volume   232.61044727
_cell_formula_units_Z   1
loop_
 _symmetry_equiv_pos_site_id
 _symmetry_equiv_pos_as_xyz
  1  'x, y, z'
loop_
 _atom_site_type_symbol
 _atom_site_label
 _atom_site_symmetry_multiplicity
 _atom_site_fract_x
 _atom_site_fract_y
 _atom_site_fract_z
 _atom_site_occupancy
  Ba  Ba0  1  0.87096500  0.87096500  0.00000000  1
  Zn  Zn1  1  0.74666600  0.24666600  0.50000000  1
  Zn  Zn2  1  0.24666600  0.74666600  0.50000000  1
  Sb  Sb3  1  0.68220500  0.68220500  0.00000000  1
  Sb  Sb4  1  0.33329700  0.33329700  0.00000000  1
