# generated using pymatgen
data_Ba8Ge43
_symmetry_space_group_name_H-M   'P 1'
_cell_length_a   10.85479507
_cell_length_b   10.85479507
_cell_length_c   10.85479464
_cell_angle_alpha   90.09617362
_cell_angle_beta   90.09617362
_cell_angle_gamma   90.09616855
_symmetry_Int_Tables_number   1
_chemical_formula_structural   Ba8Ge43
_chemical_formula_sum   'Ba8 Ge43'
_cell_volume   1278.97787414
_cell_formula_units_Z   1
loop_
 _symmetry_equiv_pos_site_id
 _symmetry_equiv_pos_as_xyz
  1  'x, y, z'
loop_
 _atom_site_type_symbol
 _atom_site_label
 _atom_site_symmetry_multiplicity
 _atom_site_fract_x
 _atom_site_fract_y
 _atom_site_fract_z
 _atom_site_occupancy
  Ba  Ba0  1  0.74786100  0.74786100  0.74786100  1
  Ba  Ba1  1  0.25213900  0.25213900  0.25213900  1
  Ba  Ba2  1  0.00000000  0.74411100  0.25588900  1
  Ba  Ba3  1  0.74411100  0.25588900  0.00000000  1
  Ba  Ba4  1  0.25588900  0.00000000  0.74411100  1
  Ba  Ba5  1  0.50000000  0.74342100  0.25657900  1
  Ba  Ba6  1  0.74342100  0.25657900  0.50000000  1
  Ba  Ba7  1  0.25657900  0.50000000  0.74342100  1
  Ge  Ge8  1  0.74899500  0.86253500  0.05680000  1
  Ge  Ge9  1  0.86253500  0.05680000  0.74899500  1
  Ge  Ge10  1  0.05680000  0.74899500  0.86253500  1
  Ge  Ge11  1  0.74968400  0.62285600  0.42176800  1
  Ge  Ge12  1  0.62285600  0.42176800  0.74968400  1
  Ge  Ge13  1  0.42176800  0.74968400  0.62285600  1
  Ge  Ge14  1  0.74912900  0.86349700  0.44509300  1
  Ge  Ge15  1  0.62309000  0.08540800  0.75006900  1
  Ge  Ge16  1  0.75006900  0.62309000  0.08540800  1
  Ge  Ge17  1  0.86349700  0.44509300  0.74912900  1
  Ge  Ge18  1  0.08540800  0.75006900  0.62309000  1
  Ge  Ge19  1  0.44509300  0.74912900  0.86349700  1
  Ge  Ge20  1  0.91459200  0.37691000  0.24993100  1
  Ge  Ge21  1  0.25087100  0.55490700  0.13650300  1
  Ge  Ge22  1  0.13746500  0.25100500  0.94320000  1
  Ge  Ge23  1  0.55490700  0.13650300  0.25087100  1
  Ge  Ge24  1  0.24993100  0.91459200  0.37691000  1
  Ge  Ge25  1  0.37714400  0.25031600  0.57823200  1
  Ge  Ge26  1  0.57823200  0.37714400  0.25031600  1
  Ge  Ge27  1  0.25031600  0.57823200  0.37714400  1
  Ge  Ge28  1  0.94320000  0.13746500  0.25100500  1
  Ge  Ge29  1  0.25100500  0.94320000  0.13746500  1
  Ge  Ge30  1  0.37691000  0.24993100  0.91459200  1
  Ge  Ge31  1  0.13650300  0.25087100  0.55490700  1
  Ge  Ge32  1  0.93431200  0.93431200  0.93431200  1
  Ge  Ge33  1  0.56738300  0.56738300  0.56738300  1
  Ge  Ge34  1  0.56288700  0.93556300  0.57235500  1
  Ge  Ge35  1  0.92975900  0.56754100  0.93975500  1
  Ge  Ge36  1  0.93556300  0.57235500  0.56288700  1
  Ge  Ge37  1  0.56754100  0.93975500  0.92975900  1
  Ge  Ge38  1  0.57235500  0.56288700  0.93556300  1
  Ge  Ge39  1  0.93975500  0.92975900  0.56754100  1
  Ge  Ge40  1  0.06024500  0.43245900  0.07024100  1
  Ge  Ge41  1  0.42764500  0.06443700  0.43711300  1
  Ge  Ge42  1  0.43261700  0.43261700  0.43261700  1
  Ge  Ge43  1  0.06568800  0.06568800  0.06568800  1
  Ge  Ge44  1  0.43245900  0.07024100  0.06024500  1
  Ge  Ge45  1  0.06443700  0.43711300  0.42764500  1
  Ge  Ge46  1  0.07024100  0.06024500  0.43245900  1
  Ge  Ge47  1  0.43711300  0.42764500  0.06443700  1
  Ge  Ge48  1  0.00000000  0.25002900  0.74997100  1
  Ge  Ge49  1  0.25002900  0.74997100  0.00000000  1
  Ge  Ge50  1  0.74997100  0.00000000  0.25002900  1
