# generated using pymatgen
data_B8P
_symmetry_space_group_name_H-M   'P 1'
_cell_length_a   5.25271023
_cell_length_b   5.25271023
_cell_length_c   10.20490467
_cell_angle_alpha   71.15034372
_cell_angle_beta   71.15034372
_cell_angle_gamma   68.59484944
_symmetry_Int_Tables_number   1
_chemical_formula_structural   B8P
_chemical_formula_sum   'B24 P3'
_cell_volume   241.26319388
_cell_formula_units_Z   3
loop_
 _symmetry_equiv_pos_site_id
 _symmetry_equiv_pos_as_xyz
  1  'x, y, z'
loop_
 _atom_site_type_symbol
 _atom_site_label
 _atom_site_symmetry_multiplicity
 _atom_site_fract_x
 _atom_site_fract_y
 _atom_site_fract_z
 _atom_site_occupancy
  B  B0  1  0.80586300  0.27642300  0.90382300  1
  B  B1  1  0.30664700  0.77810300  0.41092100  1
  B  B2  1  0.54366400  0.54366400  0.64665500  1
  B  B3  1  0.04009400  0.04009400  0.14021200  1
  B  B4  1  0.27642300  0.80586300  0.90382300  1
  B  B5  1  0.77810300  0.30664700  0.41092100  1
  B  B6  1  0.69792700  0.22772100  0.59539900  1
  B  B7  1  0.18958600  0.72114900  0.08947600  1
  B  B8  1  0.96222600  0.96222600  0.85074300  1
  B  B9  1  0.45545700  0.45545700  0.36140900  1
  B  B10  1  0.22772100  0.69792700  0.59539900  1
  B  B11  1  0.72114900  0.18958600  0.08947600  1
  B  B12  1  0.33044300  0.01561600  0.99227300  1
  B  B13  1  0.83362800  0.51778700  0.49701600  1
  B  B14  1  0.17378500  0.17378500  0.83658200  1
  B  B15  1  0.67459000  0.67459000  0.33635900  1
  B  B16  1  0.01561600  0.33044300  0.99227300  1
  B  B17  1  0.51778700  0.83362800  0.49701600  1
  B  B18  1  0.16432900  0.48776500  0.51201300  1
  B  B19  1  0.66686700  0.98058200  0.99876200  1
  B  B20  1  0.32679300  0.32679300  0.66803300  1
  B  B21  1  0.82287200  0.82287200  0.16050200  1
  B  B22  1  0.48776500  0.16432900  0.51201300  1
  B  B23  1  0.98058200  0.66686700  0.99876200  1
  P  P24  1  0.38924800  0.38924800  0.20300400  1
  P  P25  1  0.61220800  0.61220800  0.79752300  1
  P  P26  1  0.10747600  0.10747600  0.29666400  1
