# generated using pymatgen
data_AuCl
_symmetry_space_group_name_H-M   'P 1'
_cell_length_a   4.53468741
_cell_length_b   4.42790035
_cell_length_c   4.42790035
_cell_angle_alpha   61.03309305
_cell_angle_beta   73.42418244
_cell_angle_gamma   102.60730549
_symmetry_Int_Tables_number   1
_chemical_formula_structural   AuCl
_chemical_formula_sum   'Au1 Cl1'
_cell_volume   67.48309624
_cell_formula_units_Z   1
loop_
 _symmetry_equiv_pos_site_id
 _symmetry_equiv_pos_as_xyz
  1  'x, y, z'
loop_
 _atom_site_type_symbol
 _atom_site_label
 _atom_site_symmetry_multiplicity
 _atom_site_fract_x
 _atom_site_fract_y
 _atom_site_fract_z
 _atom_site_occupancy
  Au  Au0  1  0.00387400  0.10311600  0.09924200  1
  Cl  Cl1  1  0.05612600  0.70688400  0.65075800  1
