# generated using pymatgen
data_Ba2MnRuO6
_symmetry_space_group_name_H-M   'P 1'
_cell_length_a   5.85079397
_cell_length_b   5.85079397
_cell_length_c   14.39394404
_cell_angle_alpha   88.61778043
_cell_angle_beta   88.61778043
_cell_angle_gamma   59.97105449
_symmetry_Int_Tables_number   1
_chemical_formula_structural   Ba2MnRuO6
_chemical_formula_sum   'Ba6 Mn3 Ru3 O18'
_cell_volume   426.42712455
_cell_formula_units_Z   3
loop_
 _symmetry_equiv_pos_site_id
 _symmetry_equiv_pos_as_xyz
  1  'x, y, z'
loop_
 _atom_site_type_symbol
 _atom_site_label
 _atom_site_symmetry_multiplicity
 _atom_site_fract_x
 _atom_site_fract_y
 _atom_site_fract_z
 _atom_site_occupancy
  Ba  Ba0  1  0.33301800  0.33301800  0.40724100  1
  Ba  Ba1  1  0.66698200  0.66698200  0.59275900  1
  Ba  Ba2  1  0.66672900  0.66672900  0.90805500  1
  Ba  Ba3  1  0.33327100  0.33327100  0.09194500  1
  Ba  Ba4  1  0.00048300  0.00048300  0.24846700  1
  Ba  Ba5  1  0.99951700  0.99951700  0.75153300  1
  Mn  Mn6  1  0.33435500  0.33435500  0.84706300  1
  Mn  Mn7  1  0.66564500  0.66564500  0.15293700  1
  Mn  Mn8  1  0.00000000  0.00000000  0.50000000  1
  Ru  Ru9  1  0.66763200  0.66763200  0.34309800  1
  Ru  Ru10  1  0.33236800  0.33236800  0.65690200  1
  Ru  Ru11  1  0.00000000  0.00000000  0.00000000  1
  O  O12  1  0.81827400  0.81827400  0.41987900  1
  O  O13  1  0.82260000  0.32887100  0.41244000  1
  O  O14  1  0.32887100  0.82260000  0.41244000  1
  O  O15  1  0.18172600  0.18172600  0.58012100  1
  O  O16  1  0.17740000  0.67112900  0.58756000  1
  O  O17  1  0.67112900  0.17740000  0.58756000  1
  O  O18  1  0.16670500  0.16670500  0.91874600  1
  O  O19  1  0.16081200  0.68060500  0.92130400  1
  O  O20  1  0.68060500  0.16081200  0.92130400  1
  O  O21  1  0.83329500  0.83329500  0.08125400  1
  O  O22  1  0.83918800  0.31939500  0.07869600  1
  O  O23  1  0.31939500  0.83918800  0.07869600  1
  O  O24  1  0.52132300  0.52132300  0.24506300  1
  O  O25  1  0.51532200  0.97324000  0.25468100  1
  O  O26  1  0.97324000  0.51532200  0.25468100  1
  O  O27  1  0.47867700  0.47867700  0.75493700  1
  O  O28  1  0.48467800  0.02676000  0.74531900  1
  O  O29  1  0.02676000  0.48467800  0.74531900  1
