# generated using pymatgen
data_Ba2Sr3Nb10O30
_symmetry_space_group_name_H-M   'P 1'
_cell_length_a   4.06416800
_cell_length_b   12.66059600
_cell_length_c   12.66354366
_cell_angle_alpha   89.65644162
_cell_angle_beta   90.00000000
_cell_angle_gamma   90.00000000
_symmetry_Int_Tables_number   1
_chemical_formula_structural   Ba2Sr3Nb10O30
_chemical_formula_sum   'Ba2 Sr3 Nb10 O30'
_cell_volume   651.58825439
_cell_formula_units_Z   1
loop_
 _symmetry_equiv_pos_site_id
 _symmetry_equiv_pos_as_xyz
  1  'x, y, z'
loop_
 _atom_site_type_symbol
 _atom_site_label
 _atom_site_symmetry_multiplicity
 _atom_site_fract_x
 _atom_site_fract_y
 _atom_site_fract_z
 _atom_site_occupancy
  Ba  Ba0  1  0.51336600  0.83133500  0.32330600  1
  Ba  Ba1  1  0.51336600  0.16866500  0.67669400  1
  Sr  Sr2  1  0.49402200  0.32074800  0.16829200  1
  Sr  Sr3  1  0.49402200  0.67925200  0.83170800  1
  Sr  Sr4  1  0.51212600  0.50000000  0.50000000  1
  Nb  Nb5  1  0.00503600  0.42012500  0.71125300  1
  Nb  Nb6  1  0.00503600  0.57987500  0.28874700  1
  Nb  Nb7  1  0.99633200  0.92726100  0.79586200  1
  Nb  Nb8  1  0.99633200  0.07273900  0.20413800  1
  Nb  Nb9  1  0.00357900  0.71121000  0.58335100  1
  Nb  Nb10  1  0.00357900  0.28879000  0.41664900  1
  Nb  Nb11  1  0.99674600  0.79417500  0.07187800  1
  Nb  Nb12  1  0.99674600  0.20582500  0.92812200  1
  Nb  Nb13  1  0.99634100  0.50000000  0.00000000  1
  Nb  Nb14  1  0.99558200  0.00000000  0.50000000  1
  O  O15  1  0.04416300  0.36162900  0.56488800  1
  O  O16  1  0.04416300  0.63837100  0.43511200  1
  O  O17  1  0.04959100  0.85483700  0.93225200  1
  O  O18  1  0.04959100  0.14516300  0.06774800  1
  O  O19  1  0.04674200  0.56335800  0.63454800  1
  O  O20  1  0.04674200  0.43664200  0.36545200  1
  O  O21  1  0.04243200  0.93133600  0.14810800  1
  O  O22  1  0.04243200  0.06866400  0.85189200  1
  O  O23  1  0.04568900  0.50882000  0.84081900  1
  O  O24  1  0.04568900  0.49118000  0.15918100  1
  O  O25  1  0.04424000  0.00167200  0.65595600  1
  O  O26  1  0.04424000  0.99832800  0.34404400  1
  O  O27  1  0.04115900  0.84149400  0.49506600  1
  O  O28  1  0.04115900  0.15850600  0.50493400  1
  O  O29  1  0.04756300  0.65702100  0.99385500  1
  O  O30  1  0.04756300  0.34297900  0.00614500  1
  O  O31  1  0.53879300  0.50000000  0.00000000  1
  O  O32  1  0.53630900  0.00000000  0.50000000  1
  O  O33  1  0.04089000  0.27973300  0.77826100  1
  O  O34  1  0.04089000  0.72026700  0.22173900  1
  O  O35  1  0.03894900  0.76929400  0.72763500  1
  O  O36  1  0.03894900  0.23070600  0.27236500  1
  O  O37  1  0.53968900  0.41872100  0.70027800  1
  O  O38  1  0.53968900  0.58127900  0.29972200  1
  O  O39  1  0.54073400  0.91031200  0.79048200  1
  O  O40  1  0.54073400  0.08968800  0.20951800  1
  O  O41  1  0.53867000  0.70071400  0.58425800  1
  O  O42  1  0.53867000  0.29928600  0.41574200  1
  O  O43  1  0.54123300  0.79101300  0.08588300  1
  O  O44  1  0.54123300  0.20898700  0.91411700  1
