# generated using pymatgen
data_Ba4Sr2Dy2Co4O15
_symmetry_space_group_name_H-M   'P 1'
_cell_length_a   11.70096102
_cell_length_b   11.70096102
_cell_length_c   6.86148989
_cell_angle_alpha   89.57869919
_cell_angle_beta   89.57869919
_cell_angle_gamma   119.86109020
_symmetry_Int_Tables_number   1
_chemical_formula_structural   Ba4Sr2Dy2Co4O15
_chemical_formula_sum   'Ba8 Sr4 Dy4 Co8 O30'
_cell_volume   814.61341321
_cell_formula_units_Z   2
loop_
 _symmetry_equiv_pos_site_id
 _symmetry_equiv_pos_as_xyz
  1  'x, y, z'
loop_
 _atom_site_type_symbol
 _atom_site_label
 _atom_site_symmetry_multiplicity
 _atom_site_fract_x
 _atom_site_fract_y
 _atom_site_fract_z
 _atom_site_occupancy
  Ba  Ba0  1  0.82630500  0.65496700  0.32277700  1
  Ba  Ba1  1  0.34614700  0.17391000  0.33090800  1
  Ba  Ba2  1  0.82305300  0.17172600  0.32470100  1
  Ba  Ba3  1  0.17391000  0.34614700  0.83090800  1
  Ba  Ba4  1  0.65496700  0.82630500  0.82277700  1
  Ba  Ba5  1  0.17172600  0.82305300  0.82470100  1
  Ba  Ba6  1  0.66476700  0.33456500  0.00286500  1
  Ba  Ba7  1  0.33456500  0.66476700  0.50286500  1
  Sr  Sr8  1  0.00109800  0.00082900  0.51266300  1
  Sr  Sr9  1  0.00082900  0.00109800  0.01266300  1
  Sr  Sr10  1  0.52440700  0.04960000  0.66285100  1
  Sr  Sr11  1  0.04960000  0.52440700  0.16285100  1
  Dy  Dy12  1  0.95331100  0.47619000  0.66573000  1
  Dy  Dy13  1  0.52149200  0.47602700  0.65542600  1
  Dy  Dy14  1  0.47619000  0.95331100  0.16573000  1
  Dy  Dy15  1  0.47602700  0.52149200  0.15542600  1
  Co  Co16  1  0.82153400  0.64843300  0.82832600  1
  Co  Co17  1  0.35240600  0.17355000  0.84225700  1
  Co  Co18  1  0.82100200  0.17344100  0.83524700  1
  Co  Co19  1  0.17355000  0.35240600  0.34225700  1
  Co  Co20  1  0.64843300  0.82153400  0.32832600  1
  Co  Co21  1  0.17344100  0.82100200  0.33524700  1
  Co  Co22  1  0.66543300  0.33459400  0.46273500  1
  Co  Co23  1  0.33459400  0.66543300  0.96273500  1
  O  O24  1  0.09552000  0.18565200  0.25108000  1
  O  O25  1  0.82160000  0.90650800  0.25750100  1
  O  O26  1  0.08664000  0.90525500  0.25276900  1
  O  O27  1  0.90650800  0.82160000  0.75750100  1
  O  O28  1  0.18565200  0.09552000  0.75108000  1
  O  O29  1  0.90525500  0.08664000  0.75276900  1
  O  O30  1  0.58168800  0.16688700  0.31873800  1
  O  O31  1  0.83039500  0.41710200  0.34193100  1
  O  O32  1  0.57880600  0.41968500  0.32440900  1
  O  O33  1  0.41710200  0.83039500  0.84193100  1
  O  O34  1  0.16688700  0.58168800  0.81873800  1
  O  O35  1  0.41968500  0.57880600  0.82440900  1
  O  O36  1  0.74506500  0.50538300  0.65385700  1
  O  O37  1  0.49883700  0.26173500  0.66020200  1
  O  O38  1  0.75900100  0.25683500  0.66047100  1
  O  O39  1  0.26173500  0.49883700  0.16020200  1
  O  O40  1  0.50538300  0.74506500  0.15385700  1
  O  O41  1  0.25683500  0.75900100  0.16047100  1
  O  O42  1  0.33869300  0.40005800  0.46470600  1
  O  O43  1  0.59852100  0.93261400  0.44248900  1
  O  O44  1  0.05927200  0.66696400  0.48043800  1
  O  O45  1  0.60176700  0.66046500  0.45952900  1
  O  O46  1  0.06497400  0.39510700  0.47978900  1
  O  O47  1  0.33284000  0.93669600  0.45047900  1
  O  O48  1  0.66046500  0.60176700  0.95952900  1
  O  O49  1  0.39510700  0.06497400  0.97978900  1
  O  O50  1  0.93669600  0.33284000  0.95047900  1
  O  O51  1  0.40005800  0.33869300  0.96470600  1
  O  O52  1  0.93261400  0.59852100  0.94248900  1
  O  O53  1  0.66696400  0.05927200  0.98043800  1
