# generated using pymatgen
data_Ba10BrN5Cl4
_symmetry_space_group_name_H-M   'P 1'
_cell_length_a   4.16192991
_cell_length_b   4.16193000
_cell_length_c   38.74087909
_cell_angle_alpha   90.00000000
_cell_angle_beta   93.07912221
_cell_angle_gamma   120.00000075
_symmetry_Int_Tables_number   1
_chemical_formula_structural   Ba10BrN5Cl4
_chemical_formula_sum   'Ba10 Br1 N5 Cl4'
_cell_volume   580.03292018
_cell_formula_units_Z   1
loop_
 _symmetry_equiv_pos_site_id
 _symmetry_equiv_pos_as_xyz
  1  'x, y, z'
loop_
 _atom_site_type_symbol
 _atom_site_label
 _atom_site_symmetry_multiplicity
 _atom_site_fract_x
 _atom_site_fract_y
 _atom_site_fract_z
 _atom_site_occupancy
  Ba  Ba0  1  0.29080600  0.64540300  0.93620800  1
  Ba  Ba1  1  0.49249200  0.24624600  0.73873800  1
  Ba  Ba2  1  0.69252100  0.84626100  0.53878200  1
  Ba  Ba3  1  0.09351500  0.04675700  0.14027200  1
  Ba  Ba4  1  0.89252200  0.44626100  0.33878300  1
  Ba  Ba5  1  0.90648500  0.95324300  0.85972800  1
  Ba  Ba6  1  0.10747800  0.55373900  0.66121700  1
  Ba  Ba7  1  0.30747900  0.15373900  0.46121800  1
  Ba  Ba8  1  0.70919400  0.35459700  0.06379200  1
  Ba  Ba9  1  0.50750800  0.75375400  0.26126200  1
  Br  Br10  1  0.00000000  0.00000000  0.00000000  1
  N  N11  1  0.59892400  0.29946200  0.89838700  1
  N  N12  1  0.79998800  0.89999400  0.69998200  1
  N  N13  1  0.00000000  0.50000000  0.50000000  1
  N  N14  1  0.40107600  0.70053800  0.10161300  1
  N  N15  1  0.20001200  0.10000600  0.30001800  1
  Cl  Cl16  1  0.80031400  0.40015700  0.20047100  1
  Cl  Cl17  1  0.60000400  0.80000200  0.40000600  1
  Cl  Cl18  1  0.39999600  0.19999800  0.59999400  1
  Cl  Cl19  1  0.19968600  0.59984300  0.79952900  1
