# generated using pymatgen
data_Ba2La3Ti3NbO15
_symmetry_space_group_name_H-M   'P 1'
_cell_length_a   5.66765593
_cell_length_b   5.66765593
_cell_length_c   23.42348700
_cell_angle_alpha   90.00000000
_cell_angle_beta   90.00000000
_cell_angle_gamma   119.99999923
_symmetry_Int_Tables_number   1
_chemical_formula_structural   Ba2La3Ti3NbO15
_chemical_formula_sum   'Ba4 La6 Ti6 Nb2 O30'
_cell_volume   651.61209724
_cell_formula_units_Z   2
loop_
 _symmetry_equiv_pos_site_id
 _symmetry_equiv_pos_as_xyz
  1  'x, y, z'
loop_
 _atom_site_type_symbol
 _atom_site_label
 _atom_site_symmetry_multiplicity
 _atom_site_fract_x
 _atom_site_fract_y
 _atom_site_fract_z
 _atom_site_occupancy
  Ba  Ba0  1  0.33333300  0.66666700  0.03861100  1
  Ba  Ba1  1  0.33333300  0.66666700  0.53861100  1
  Ba  Ba2  1  0.66666700  0.33333300  0.96594300  1
  Ba  Ba3  1  0.66666700  0.33333300  0.46594300  1
  La  La4  1  0.66666700  0.33333300  0.13930100  1
  La  La5  1  0.66666700  0.33333300  0.63930100  1
  La  La6  1  0.33333300  0.66666700  0.85335500  1
  La  La7  1  0.33333300  0.66666700  0.35335500  1
  La  La8  1  0.00000000  0.00000000  0.24812900  1
  La  La9  1  0.00000000  0.00000000  0.74812900  1
  Ti  Ti10  1  0.33333300  0.66666700  0.19839000  1
  Ti  Ti11  1  0.33333300  0.66666700  0.69839000  1
  Ti  Ti12  1  0.66666700  0.33333300  0.79681200  1
  Ti  Ti13  1  0.66666700  0.33333300  0.29681200  1
  Ti  Ti14  1  0.00000000  0.00000000  0.09642000  1
  Ti  Ti15  1  0.00000000  0.00000000  0.59642000  1
  Nb  Nb16  1  0.00000000  0.00000000  0.90246200  1
  Nb  Nb17  1  0.00000000  0.00000000  0.40246200  1
  O  O18  1  0.21802900  0.88687000  0.15927200  1
  O  O19  1  0.66884100  0.78197100  0.15927200  1
  O  O20  1  0.11313000  0.33115900  0.15927200  1
  O  O21  1  0.21802900  0.33115900  0.65927200  1
  O  O22  1  0.11313000  0.78197100  0.65927200  1
  O  O23  1  0.66884100  0.88687000  0.65927200  1
  O  O24  1  0.77717000  0.10620300  0.84168200  1
  O  O25  1  0.32903300  0.22283000  0.84168200  1
  O  O26  1  0.89379700  0.67096700  0.84168200  1
  O  O27  1  0.77717000  0.67096700  0.34168200  1
  O  O28  1  0.89379700  0.22283000  0.34168200  1
  O  O29  1  0.32903300  0.10620300  0.34168200  1
  O  O30  1  0.65772000  0.79718400  0.93841900  1
  O  O31  1  0.13946500  0.34228000  0.93841900  1
  O  O32  1  0.20281600  0.86053500  0.93841900  1
  O  O33  1  0.65772000  0.86053500  0.43841900  1
  O  O34  1  0.20281600  0.34228000  0.43841900  1
  O  O35  1  0.13946500  0.79718400  0.43841900  1
  O  O36  1  0.33432200  0.19487800  0.06243700  1
  O  O37  1  0.86055600  0.66567800  0.06243700  1
  O  O38  1  0.80512200  0.13944400  0.06243700  1
  O  O39  1  0.33432200  0.13944400  0.56243700  1
  O  O40  1  0.80512200  0.66567800  0.56243700  1
  O  O41  1  0.86055600  0.19487800  0.56243700  1
  O  O42  1  0.55797700  0.99913600  0.25171400  1
  O  O43  1  0.44115900  0.44202300  0.25171400  1
  O  O44  1  0.00086400  0.55884100  0.25171400  1
  O  O45  1  0.55797700  0.55884100  0.75171400  1
  O  O46  1  0.00086400  0.44202300  0.75171400  1
  O  O47  1  0.44115900  0.99913600  0.75171400  1
