# generated using pymatgen
data_Ca2Zr5Ti2O16
_symmetry_space_group_name_H-M   'P 1'
_cell_length_a   12.04192997
_cell_length_b   12.04192997
_cell_length_c   12.04192997
_cell_angle_alpha   129.60445298
_cell_angle_beta   100.50648155
_cell_angle_gamma   100.37962552
_symmetry_Int_Tables_number   1
_chemical_formula_structural   Ca2Zr5Ti2O16
_chemical_formula_sum   'Ca8 Zr20 Ti8 O64'
_cell_volume   1217.34480845
_cell_formula_units_Z   4
loop_
 _symmetry_equiv_pos_site_id
 _symmetry_equiv_pos_as_xyz
  1  'x, y, z'
loop_
 _atom_site_type_symbol
 _atom_site_label
 _atom_site_symmetry_multiplicity
 _atom_site_fract_x
 _atom_site_fract_y
 _atom_site_fract_z
 _atom_site_occupancy
  Ca  Ca0  1  0.50040800  0.79443900  0.45798200  1
  Ca  Ca1  1  0.83645700  0.29443900  0.29403100  1
  Ca  Ca2  1  0.00044700  0.20935800  0.04247900  1
  Ca  Ca3  1  0.66687900  0.70935800  0.20891100  1
  Ca  Ca4  1  0.16687900  0.95796800  0.95752100  1
  Ca  Ca5  1  0.50044700  0.45796800  0.79108900  1
  Ca  Ca6  1  0.33645700  0.04242600  0.54201800  1
  Ca  Ca7  1  0.00040800  0.54242600  0.70596900  1
  Zr  Zr8  1  0.82182200  0.98076100  0.62324300  1
  Zr  Zr9  1  0.85751800  0.48076100  0.15894000  1
  Zr  Zr10  1  0.31906900  0.37246900  0.23295000  1
  Zr  Zr11  1  0.63951900  0.87246900  0.05339900  1
  Zr  Zr12  1  0.68266700  0.02341600  0.87983500  1
  Zr  Zr13  1  0.64358100  0.52341600  0.34074900  1
  Zr  Zr14  1  0.18031900  0.62900200  0.27430400  1
  Zr  Zr15  1  0.85469800  0.12900200  0.44868300  1
  Zr  Zr16  1  0.14358100  0.80283200  0.12016500  1
  Zr  Zr17  1  0.18266700  0.30283200  0.65925100  1
  Zr  Zr18  1  0.35469800  0.90601500  0.72569600  1
  Zr  Zr19  1  0.68031900  0.40601500  0.55131700  1
  Zr  Zr20  1  0.35751800  0.19857900  0.37675700  1
  Zr  Zr21  1  0.32182200  0.69857900  0.84106000  1
  Zr  Zr22  1  0.13951900  0.08612000  0.76705000  1
  Zr  Zr23  1  0.81906900  0.58612000  0.94660100  1
  Zr  Zr24  1  0.50109100  0.14138800  0.11086000  1
  Zr  Zr25  1  0.53052800  0.64138800  0.64029700  1
  Zr  Zr26  1  0.03052800  0.39023000  0.88914000  1
  Zr  Zr27  1  0.00109100  0.89023000  0.35970300  1
  Ti  Ti28  1  0.16947100  0.46488800  0.46443300  1
  Ti  Ti29  1  0.50045500  0.96488800  0.29541700  1
  Ti  Ti30  1  0.66947100  0.20503800  0.70458300  1
  Ti  Ti31  1  0.00045500  0.70503800  0.53556700  1
  Ti  Ti32  1  0.34307300  0.55050900  0.05085000  1
  Ti  Ti33  1  0.99965900  0.05050900  0.20743600  1
  Ti  Ti34  1  0.84307300  0.79222300  0.79256400  1
  Ti  Ti35  1  0.49965900  0.29222300  0.94915000  1
  O  O36  1  0.98689200  0.57178200  0.92588500  1
  O  O37  1  0.14589700  0.07178200  0.58489000  1
  O  O38  1  0.48652500  0.67451600  0.81943200  1
  O  O39  1  0.35508400  0.17451600  0.18799200  1
  O  O40  1  0.51360300  0.42753100  0.57395900  1
  O  O41  1  0.35357200  0.92753100  0.91392800  1
  O  O42  1  0.01389700  0.32326100  0.67511800  1
  O  O43  1  0.14814300  0.82326100  0.30936400  1
  O  O44  1  0.85357200  0.93964300  0.42604100  1
  O  O45  1  0.01360300  0.43964300  0.08607200  1
  O  O46  1  0.64814300  0.33877900  0.32488200  1
  O  O47  1  0.51389700  0.83877900  0.69063600  1
  O  O48  1  0.64589700  0.06100700  0.07411500  1
  O  O49  1  0.48689200  0.56100700  0.41511000  1
  O  O50  1  0.85508400  0.66709200  0.18056800  1
  O  O51  1  0.98652500  0.16709200  0.81200800  1
  O  O52  1  0.16392300  0.03594000  0.21417200  1
  O  O53  1  0.32176800  0.53594000  0.87201800  1
  O  O54  1  0.66459000  0.96586700  0.28772500  1
  O  O55  1  0.17814200  0.46586700  0.30127700  1
  O  O56  1  0.33412000  0.96146800  0.28217300  1
  O  O57  1  0.17929500  0.46146800  0.62734800  1
  O  O58  1  0.83437800  0.03420200  0.21309300  1
  O  O59  1  0.32110900  0.53420200  0.19982400  1
  O  O60  1  0.67929500  0.05194700  0.71782700  1
  O  O61  1  0.83412000  0.55194700  0.37265200  1
  O  O62  1  0.82110900  0.62128500  0.78690700  1
  O  O63  1  0.33437800  0.12128500  0.80017600  1
  O  O64  1  0.82176800  0.94975100  0.78582800  1
  O  O65  1  0.66392300  0.44975100  0.12798200  1
  O  O66  1  0.67814200  0.37686500  0.71227500  1
  O  O67  1  0.16459000  0.87686500  0.69872300  1
  O  O68  1  0.52882300  0.11325400  0.92081700  1
  O  O69  1  0.69243700  0.61325400  0.58443000  1
  O  O70  1  0.03243600  0.66129100  0.36259700  1
  O  O71  1  0.79869400  0.16129100  0.62885500  1
  O  O72  1  0.96762900  0.88837600  0.59065000  1
  O  O73  1  0.79772600  0.38837600  0.92074700  1
  O  O74  1  0.47161300  0.32998600  0.13880100  1
  O  O75  1  0.69118500  0.82998600  0.85837300  1
  O  O76  1  0.29772600  0.37697900  0.40935000  1
  O  O77  1  0.46762900  0.87697900  0.07925300  1
  O  O78  1  0.19118500  0.33281200  0.86119900  1
  O  O79  1  0.97161300  0.83281200  0.14162700  1
  O  O80  1  0.19243700  0.60800600  0.07918300  1
  O  O81  1  0.02882300  0.10800600  0.41557000  1
  O  O82  1  0.29869400  0.66983900  0.63740300  1
  O  O83  1  0.53243600  0.16983900  0.37114500  1
  O  O84  1  0.17947500  0.74909200  0.92822400  1
  O  O85  1  0.32086800  0.24909300  0.56961700  1
  O  O86  1  0.67965900  0.67965900  0.00000000  1
  O  O87  1  0.17965900  0.17965900  0.00000000  1
  O  O88  1  0.82088500  0.32088500  0.50000000  1
  O  O89  1  0.32088500  0.82088500  0.50000000  1
  O  O90  1  0.67947500  0.75125100  0.43038300  1
  O  O91  1  0.82086800  0.25125100  0.07177600  1
  O  O92  1  0.03693000  0.24975900  0.28808400  1
  O  O93  1  0.46167400  0.74975900  0.21282900  1
  O  O94  1  0.53724800  0.03724800  0.50000000  1
  O  O95  1  0.03724800  0.53724800  0.50000000  1
  O  O96  1  0.96092200  0.96092200  0.00000000  1
  O  O97  1  0.46092200  0.46092200  0.00000000  1
  O  O98  1  0.53693000  0.24884500  0.78717100  1
  O  O99  1  0.96167400  0.74884500  0.71191600  1
