# generated using pymatgen
data_Ba4Li(IrO4)3
_symmetry_space_group_name_H-M   'P 1'
_cell_length_a   15.59138887
_cell_length_b   15.59138887
_cell_length_c   10.12587904
_cell_angle_alpha   71.07903663
_cell_angle_beta   71.07903663
_cell_angle_gamma   21.63067075
_symmetry_Int_Tables_number   1
_chemical_formula_structural   Ba4Li(IrO4)3
_chemical_formula_sum   'Ba12 Li3 Ir9 O36'
_cell_volume   856.49837417
_cell_formula_units_Z   3
loop_
 _symmetry_equiv_pos_site_id
 _symmetry_equiv_pos_as_xyz
  1  'x, y, z'
loop_
 _atom_site_type_symbol
 _atom_site_label
 _atom_site_symmetry_multiplicity
 _atom_site_fract_x
 _atom_site_fract_y
 _atom_site_fract_z
 _atom_site_occupancy
  Ba  Ba0  1  0.12507700  0.12507700  0.87439700  1
  Ba  Ba1  1  0.62849000  0.62849000  0.37077200  1
  Ba  Ba2  1  0.37151000  0.37151000  0.62922800  1
  Ba  Ba3  1  0.87492300  0.87492300  0.12560300  1
  Ba  Ba4  1  0.71060300  0.71060300  0.62425000  1
  Ba  Ba5  1  0.20921700  0.20921700  0.12224400  1
  Ba  Ba6  1  0.79078300  0.79078300  0.87775600  1
  Ba  Ba7  1  0.28939700  0.28939700  0.37575000  1
  Ba  Ba8  1  0.95583600  0.95583600  0.72062600  1
  Ba  Ba9  1  0.45829400  0.45829400  0.20131800  1
  Ba  Ba10  1  0.54170600  0.54170600  0.79868200  1
  Ba  Ba11  1  0.04416400  0.04416400  0.27937400  1
  Li  Li12  1  0.75084800  0.75084800  0.24771200  1
  Li  Li13  1  0.24915200  0.24915200  0.75228800  1
  Li  Li14  1  0.00000000  0.00000000  0.00000000  1
  Ir  Ir15  1  0.32977300  0.32977300  0.00311900  1
  Ir  Ir16  1  0.82925400  0.82925400  0.50547500  1
  Ir  Ir17  1  0.17074600  0.17074600  0.49452500  1
  Ir  Ir18  1  0.67022700  0.67022700  0.99688100  1
  Ir  Ir19  1  0.07709200  0.07709200  0.58669200  1
  Ir  Ir20  1  0.57964800  0.57964800  0.08865200  1
  Ir  Ir21  1  0.42035200  0.42035200  0.91134800  1
  Ir  Ir22  1  0.92290800  0.92290800  0.41330800  1
  Ir  Ir23  1  0.50000000  0.50000000  0.50000000  1
  O  O24  1  0.94389300  0.46991100  0.87927400  1
  O  O25  1  0.44703200  0.96836100  0.38006400  1
  O  O26  1  0.70791100  0.70791100  0.11633600  1
  O  O27  1  0.20647000  0.20647000  0.61968800  1
  O  O28  1  0.46991100  0.94389300  0.87927400  1
  O  O29  1  0.96836100  0.44703200  0.38006400  1
  O  O30  1  0.55296800  0.03163900  0.61993600  1
  O  O31  1  0.05610700  0.53008900  0.12072600  1
  O  O32  1  0.79353000  0.79353000  0.38031200  1
  O  O33  1  0.29208900  0.29208900  0.88366400  1
  O  O34  1  0.03163900  0.55296800  0.61993600  1
  O  O35  1  0.53008900  0.05610700  0.12072600  1
  O  O36  1  0.69847500  0.22035500  0.45930000  1
  O  O37  1  0.22030600  0.69635900  0.95058000  1
  O  O38  1  0.95965400  0.95965400  0.21714800  1
  O  O39  1  0.45787600  0.45787600  0.70163900  1
  O  O40  1  0.22035500  0.69847500  0.45930000  1
  O  O41  1  0.69635900  0.22030600  0.95058000  1
  O  O42  1  0.77969400  0.30364100  0.04942000  1
  O  O43  1  0.30152500  0.77964500  0.54070000  1
  O  O44  1  0.54212400  0.54212400  0.29836100  1
  O  O45  1  0.04034600  0.04034600  0.78285200  1
  O  O46  1  0.30364100  0.77969400  0.04942000  1
  O  O47  1  0.77964500  0.30152500  0.54070000  1
  O  O48  1  0.39061400  0.86011800  0.12082600  1
  O  O49  1  0.89630500  0.34845200  0.61626700  1
  O  O50  1  0.62263400  0.62263400  0.89055300  1
  O  O51  1  0.12453800  0.12453800  0.38799100  1
  O  O52  1  0.86011800  0.39061400  0.12082600  1
  O  O53  1  0.34845200  0.89630500  0.61626700  1
  O  O54  1  0.10369500  0.65154800  0.38373300  1
  O  O55  1  0.60938600  0.13988200  0.87917400  1
  O  O56  1  0.87546200  0.87546200  0.61200900  1
  O  O57  1  0.37736600  0.37736600  0.10944700  1
  O  O58  1  0.65154800  0.10369500  0.38373300  1
  O  O59  1  0.13988200  0.60938600  0.87917400  1
