# generated using pymatgen
data_La6Sm2Co7AgO20
_symmetry_space_group_name_H-M   'P 1'
_cell_length_a   10.82399543
_cell_length_b   11.46647739
_cell_length_c   17.78459341
_cell_angle_alpha   108.75931581
_cell_angle_beta   107.80615246
_cell_angle_gamma   89.94853504
_symmetry_Int_Tables_number   1
_chemical_formula_structural   La6Sm2Co7AgO20
_chemical_formula_sum   'La24 Sm8 Co28 Ag4 O80'
_cell_volume   1978.26560711
_cell_formula_units_Z   4
loop_
 _symmetry_equiv_pos_site_id
 _symmetry_equiv_pos_as_xyz
  1  'x, y, z'
loop_
 _atom_site_type_symbol
 _atom_site_label
 _atom_site_symmetry_multiplicity
 _atom_site_fract_x
 _atom_site_fract_y
 _atom_site_fract_z
 _atom_site_occupancy
  La  La0  1  0.30828500  0.06341100  0.61215100  1
  La  La1  1  0.30810500  0.56327500  0.61389400  1
  La  La2  1  0.80616700  0.06763800  0.61059400  1
  La  La3  1  0.80938700  0.56628400  0.61473400  1
  La  La4  1  0.19692600  0.43289000  0.38821600  1
  La  La5  1  0.19164800  0.43567700  0.88622000  1
  La  La6  1  0.19360900  0.93364900  0.38559900  1
  La  La7  1  0.69792000  0.43410200  0.38941300  1
  La  La8  1  0.69718200  0.93422200  0.38750200  1
  La  La9  1  0.69435400  0.93487500  0.88997200  1
  La  La10  1  0.05778300  0.29576500  0.11218500  1
  La  La11  1  0.05760500  0.29682900  0.61189900  1
  La  La12  1  0.05903100  0.80077700  0.61461000  1
  La  La13  1  0.55717600  0.29518900  0.11190000  1
  La  La14  1  0.55746400  0.29652000  0.61297000  1
  La  La15  1  0.55769200  0.79637000  0.11297400  1
  La  La16  1  0.55752000  0.79486200  0.61198400  1
  La  La17  1  0.44567900  0.20451800  0.38636700  1
  La  La18  1  0.44439400  0.20074500  0.88749600  1
  La  La19  1  0.44597500  0.70444200  0.38556600  1
  La  La20  1  0.44222200  0.70052300  0.88755500  1
  La  La21  1  0.94343100  0.20148600  0.38504900  1
  La  La22  1  0.94404300  0.20536300  0.88943800  1
  La  La23  1  0.94416200  0.70059500  0.38617200  1
  Sm  Sm24  1  0.30011600  0.06674900  0.10856800  1
  Sm  Sm25  1  0.30012000  0.56565200  0.10738500  1
  Sm  Sm26  1  0.80518400  0.06671600  0.11107700  1
  Sm  Sm27  1  0.80546500  0.56411100  0.10921100  1
  Sm  Sm28  1  0.19307900  0.93699000  0.89132700  1
  Sm  Sm29  1  0.69510900  0.43361500  0.89159500  1
  Sm  Sm30  1  0.05703000  0.79144600  0.10910100  1
  Sm  Sm31  1  0.94495200  0.70771700  0.89048500  1
  Co  Co32  1  0.00653800  0.00028400  0.00227500  1
  Co  Co33  1  0.00757100  0.00035900  0.50240800  1
  Co  Co34  1  0.00349400  0.50124700  0.99879500  1
  Co  Co35  1  0.00402900  0.49856700  0.49545200  1
  Co  Co36  1  0.50859900  0.00186400  0.00652500  1
  Co  Co37  1  0.50372800  0.99870500  0.49710800  1
  Co  Co38  1  0.50913200  0.50146500  0.00502900  1
  Co  Co39  1  0.50520000  0.50028300  0.49861900  1
  Co  Co40  1  0.25626900  0.25148000  0.00164700  1
  Co  Co41  1  0.25397000  0.24632500  0.49506100  1
  Co  Co42  1  0.25902300  0.75538600  0.00673500  1
  Co  Co43  1  0.25341300  0.74679800  0.49554300  1
  Co  Co44  1  0.75713400  0.25234700  0.00344500  1
  Co  Co45  1  0.75468700  0.25052400  0.49998600  1
  Co  Co46  1  0.75729300  0.74845300  0.99881300  1
  Co  Co47  1  0.75576200  0.75011900  0.50025900  1
  Co  Co48  1  0.10721800  0.09295500  0.24621600  1
  Co  Co49  1  0.10375300  0.09905300  0.75242600  1
  Co  Co50  1  0.10612600  0.59503500  0.24663000  1
  Co  Co51  1  0.59962700  0.09511800  0.24782700  1
  Co  Co52  1  0.61337900  0.09919000  0.75131900  1
  Co  Co53  1  0.60625500  0.59408000  0.24760600  1
  Co  Co54  1  0.62057900  0.59617800  0.75271300  1
  Co  Co55  1  0.35765000  0.40546600  0.24736800  1
  Co  Co56  1  0.35817900  0.90627600  0.24691300  1
  Co  Co57  1  0.85659600  0.40297700  0.24723500  1
  Co  Co58  1  0.85771100  0.40773200  0.75291200  1
  Co  Co59  1  0.86613000  0.90587700  0.75224000  1
  Ag  Ag60  1  0.11918800  0.61960200  0.75198400  1
  Ag  Ag61  1  0.37128300  0.38214400  0.75104400  1
  Ag  Ag62  1  0.36522000  0.88185900  0.75112700  1
  Ag  Ag63  1  0.86882900  0.88428400  0.24714100  1
  O  O64  1  0.12040600  0.11671300  0.48109900  1
  O  O65  1  0.12098300  0.11635700  0.98374500  1
  O  O66  1  0.11681700  0.61283500  0.47261200  1
  O  O67  1  0.11696000  0.62620000  0.98602400  1
  O  O68  1  0.62035700  0.11846400  0.48406200  1
  O  O69  1  0.62231100  0.12361700  0.98823800  1
  O  O70  1  0.62159000  0.62005000  0.48482900  1
  O  O71  1  0.62379800  0.61555900  0.98317900  1
  O  O72  1  0.13770400  0.38453400  0.01875400  1
  O  O73  1  0.13382700  0.37589900  0.50895100  1
  O  O74  1  0.13883200  0.88594600  0.02233600  1
  O  O75  1  0.13979300  0.88093700  0.51984200  1
  O  O76  1  0.64365100  0.38562600  0.02299500  1
  O  O77  1  0.63463100  0.38086800  0.51463400  1
  O  O78  1  0.64585400  0.88508000  0.02437600  1
  O  O79  1  0.63463100  0.87949300  0.51378100  1
  O  O80  1  0.36968700  0.11165300  0.47807700  1
  O  O81  1  0.36745700  0.11179900  0.98599600  1
  O  O82  1  0.37071700  0.61183400  0.47679400  1
  O  O83  1  0.37221200  0.61555600  0.99178000  1
  O  O84  1  0.87127500  0.11643600  0.48638300  1
  O  O85  1  0.87092700  0.11472500  0.98764200  1
  O  O86  1  0.86917500  0.61618400  0.48096200  1
  O  O87  1  0.86547700  0.60819500  0.97319800  1
  O  O88  1  0.38993300  0.39008400  0.02419200  1
  O  O89  1  0.38442600  0.38346100  0.51063000  1
  O  O90  1  0.39149400  0.89524800  0.03051100  1
  O  O91  1  0.38530200  0.88328600  0.51100700  1
  O  O92  1  0.88412300  0.38991100  0.01729600  1
  O  O93  1  0.88423300  0.38520300  0.51379300  1
  O  O94  1  0.89071500  0.88576100  0.01846800  1
  O  O95  1  0.88686600  0.88457300  0.51863100  1
  O  O96  1  0.09777700  0.11075100  0.13861000  1
  O  O97  1  0.08766300  0.10572800  0.64036200  1
  O  O98  1  0.09485500  0.60960200  0.13810600  1
  O  O99  1  0.08527900  0.60396500  0.62325900  1
  O  O100  1  0.60257200  0.11114600  0.14234700  1
  O  O101  1  0.58958800  0.10787000  0.63848700  1
  O  O102  1  0.60389500  0.60899600  0.14124500  1
  O  O103  1  0.59027600  0.60681500  0.63854100  1
  O  O104  1  0.44989200  0.39186500  0.35734100  1
  O  O105  1  0.46765500  0.39572800  0.87824400  1
  O  O106  1  0.44598300  0.89160300  0.35800600  1
  O  O107  1  0.46273900  0.89579200  0.87905300  1
  O  O108  1  0.94279500  0.39088400  0.35802600  1
  O  O109  1  0.95000300  0.38940300  0.86215100  1
  O  O110  1  0.95596900  0.89455300  0.37507400  1
  O  O111  1  0.95734300  0.89098000  0.86301400  1
  O  O112  1  0.33810200  0.27692100  0.13985500  1
  O  O113  1  0.33402700  0.27104100  0.62246900  1
  O  O114  1  0.33542800  0.77446800  0.14037800  1
  O  O115  1  0.33644100  0.76793500  0.62351400  1
  O  O116  1  0.84174500  0.27792300  0.13913600  1
  O  O117  1  0.83215900  0.28433600  0.64003200  1
  O  O118  1  0.84950000  0.76249600  0.12368400  1
  O  O119  1  0.83708900  0.78059200  0.64025600  1
  O  O120  1  0.20050000  0.21458300  0.35749700  1
  O  O121  1  0.20083200  0.22062700  0.86311900  1
  O  O122  1  0.19629300  0.71907900  0.35639400  1
  O  O123  1  0.21267300  0.73607500  0.87974000  1
  O  O124  1  0.69503300  0.21677400  0.35891600  1
  O  O125  1  0.70402400  0.22226700  0.86336200  1
  O  O126  1  0.69319300  0.71755100  0.35890400  1
  O  O127  1  0.71000900  0.72482900  0.86262300  1
  O  O128  1  0.40880300  0.07401300  0.24394300  1
  O  O129  1  0.42807000  0.08819600  0.75068300  1
  O  O130  1  0.41541700  0.56880500  0.24228100  1
  O  O131  1  0.43306800  0.59061700  0.75146900  1
  O  O132  1  0.92106700  0.09043200  0.24527700  1
  O  O133  1  0.91375300  0.07575500  0.75064700  1
  O  O134  1  0.91733500  0.56608900  0.24330000  1
  O  O135  1  0.88596200  0.58016900  0.75560400  1
  O  O136  1  0.17064000  0.43117100  0.24916000  1
  O  O137  1  0.13571900  0.40958500  0.74937700  1
  O  O138  1  0.16688700  0.92502000  0.24343500  1
  O  O139  1  0.14106700  0.93232900  0.75659700  1
  O  O140  1  0.67040300  0.43041500  0.25039100  1
  O  O141  1  0.66829400  0.42568800  0.75565100  1
  O  O142  1  0.63893700  0.92878800  0.25064600  1
  O  O143  1  0.67670500  0.93262700  0.75136500  1
