# generated using pymatgen
data_B
_symmetry_space_group_name_H-M   'P 1'
_cell_length_a   10.16346275
_cell_length_b   10.16346275
_cell_length_c   10.16346325
_cell_angle_alpha   65.39563210
_cell_angle_beta   65.39563210
_cell_angle_gamma   65.39562722
_symmetry_Int_Tables_number   1
_chemical_formula_structural   B
_chemical_formula_sum   B105
_cell_volume   829.51306982
_cell_formula_units_Z   105
loop_
 _symmetry_equiv_pos_site_id
 _symmetry_equiv_pos_as_xyz
  1  'x, y, z'
loop_
 _atom_site_type_symbol
 _atom_site_label
 _atom_site_symmetry_multiplicity
 _atom_site_fract_x
 _atom_site_fract_y
 _atom_site_fract_z
 _atom_site_occupancy
  B  B0  1  0.41959300  0.63550600  0.90414600  1
  B  B1  1  0.90414600  0.41959300  0.63550600  1
  B  B2  1  0.63550600  0.90414600  0.41959300  1
  B  B3  1  0.90414600  0.63550600  0.41959300  1
  B  B4  1  0.41959300  0.90414600  0.63550600  1
  B  B5  1  0.63550600  0.41959300  0.90414600  1
  B  B6  1  0.58040700  0.36449400  0.09585400  1
  B  B7  1  0.09585400  0.58040700  0.36449400  1
  B  B8  1  0.36449400  0.09585400  0.58040700  1
  B  B9  1  0.09585400  0.36449400  0.58040700  1
  B  B10  1  0.58040700  0.09585400  0.36449400  1
  B  B11  1  0.36449400  0.58040700  0.09585400  1
  B  B12  1  0.60672200  0.60672200  0.60672200  1
  B  B13  1  0.39327800  0.39327800  0.39327800  1
  B  B14  1  0.10684300  0.10684300  0.49104100  1
  B  B15  1  0.49104100  0.10684300  0.10684300  1
  B  B16  1  0.10684300  0.49104100  0.10684300  1
  B  B17  1  0.89315700  0.89315700  0.50895900  1
  B  B18  1  0.50895900  0.89315700  0.89315700  1
  B  B19  1  0.89315700  0.50895900  0.89315700  1
  B  B20  1  0.64053900  0.82369300  0.00397700  1
  B  B21  1  0.00397700  0.64053900  0.82369300  1
  B  B22  1  0.82369300  0.00397700  0.64053900  1
  B  B23  1  0.00397700  0.82369300  0.64053900  1
  B  B24  1  0.64053900  0.00397700  0.82369300  1
  B  B25  1  0.82369300  0.64053900  0.00397700  1
  B  B26  1  0.35946100  0.17630700  0.99602300  1
  B  B27  1  0.99602300  0.35946100  0.17630700  1
  B  B28  1  0.17630700  0.99602300  0.35946100  1
  B  B29  1  0.99602300  0.17630700  0.35946100  1
  B  B30  1  0.35946100  0.99602300  0.17630700  1
  B  B31  1  0.17630700  0.35946100  0.99602300  1
  B  B32  1  0.79917700  0.79917700  0.31461100  1
  B  B33  1  0.31461100  0.79917700  0.79917700  1
  B  B34  1  0.79917700  0.31461100  0.79917700  1
  B  B35  1  0.20082300  0.20082300  0.68538900  1
  B  B36  1  0.68538900  0.20082300  0.20082300  1
  B  B37  1  0.20082300  0.68538900  0.20082300  1
  B  B38  1  0.50966900  0.50966900  0.78601400  1
  B  B39  1  0.78601400  0.50966900  0.50966900  1
  B  B40  1  0.50966900  0.78601400  0.50966900  1
  B  B41  1  0.49033100  0.49033100  0.21398600  1
  B  B42  1  0.21398600  0.49033100  0.49033100  1
  B  B43  1  0.49033100  0.21398600  0.49033100  1
  B  B44  1  0.61278100  0.61278100  0.78288600  1
  B  B45  1  0.78288600  0.61278100  0.61278100  1
  B  B46  1  0.61278100  0.78288600  0.61278100  1
  B  B47  1  0.38721900  0.38721900  0.21711400  1
  B  B48  1  0.21711400  0.38721900  0.38721900  1
  B  B49  1  0.38721900  0.21711400  0.38721900  1
  B  B50  1  0.54574200  0.88754500  0.17859800  1
  B  B51  1  0.17859800  0.54574200  0.88754500  1
  B  B52  1  0.88754500  0.17859800  0.54574200  1
  B  B53  1  0.17859800  0.88754500  0.54574200  1
  B  B54  1  0.54574200  0.17859800  0.88754500  1
  B  B55  1  0.88754500  0.54574200  0.17859800  1
  B  B56  1  0.45425800  0.11245500  0.82140200  1
  B  B57  1  0.82140200  0.45425800  0.11245500  1
  B  B58  1  0.11245500  0.82140200  0.45425800  1
  B  B59  1  0.82140200  0.11245500  0.45425800  1
  B  B60  1  0.45425800  0.82140200  0.11245500  1
  B  B61  1  0.11245500  0.45425800  0.82140200  1
  B  B62  1  0.89908800  0.89908800  0.16526600  1
  B  B63  1  0.16526600  0.89908800  0.89908800  1
  B  B64  1  0.89908800  0.16526600  0.89908800  1
  B  B65  1  0.10091200  0.10091200  0.83473400  1
  B  B66  1  0.83473400  0.10091200  0.10091200  1
  B  B67  1  0.10091200  0.83473400  0.10091200  1
  B  B68  1  0.20281700  0.20281700  0.50476100  1
  B  B69  1  0.50476100  0.20281700  0.20281700  1
  B  B70  1  0.20281700  0.50476100  0.20281700  1
  B  B71  1  0.79718300  0.79718300  0.49523900  1
  B  B72  1  0.49523900  0.79718300  0.79718300  1
  B  B73  1  0.79718300  0.49523900  0.79718300  1
  B  B74  1  0.32496600  0.62180900  0.80048300  1
  B  B75  1  0.80048300  0.32496600  0.62180900  1
  B  B76  1  0.62180900  0.80048300  0.32496600  1
  B  B77  1  0.80048300  0.62180900  0.32496600  1
  B  B78  1  0.32496600  0.80048300  0.62180900  1
  B  B79  1  0.62180900  0.32496600  0.80048300  1
  B  B80  1  0.67503400  0.37819100  0.19951700  1
  B  B81  1  0.19951700  0.67503400  0.37819100  1
  B  B82  1  0.37819100  0.19951700  0.67503400  1
  B  B83  1  0.19951700  0.37819100  0.67503400  1
  B  B84  1  0.67503400  0.19951700  0.37819100  1
  B  B85  1  0.37819100  0.67503400  0.19951700  1
  B  B86  1  0.00055400  0.00055400  0.16302800  1
  B  B87  1  0.16302800  0.00055400  0.00055400  1
  B  B88  1  0.00055400  0.16302800  0.00055400  1
  B  B89  1  0.99944600  0.99944600  0.83697200  1
  B  B90  1  0.83697200  0.99944600  0.99944600  1
  B  B91  1  0.99944600  0.83697200  0.99944600  1
  B  B92  1  0.00309300  0.00309300  0.33730700  1
  B  B93  1  0.33730700  0.00309300  0.00309300  1
  B  B94  1  0.00309300  0.33730700  0.00309300  1
  B  B95  1  0.99690700  0.99690700  0.66269300  1
  B  B96  1  0.66269300  0.99690700  0.99690700  1
  B  B97  1  0.99690700  0.66269300  0.99690700  1
  B  B98  1  0.50000000  0.50000000  0.50000000  1
  B  B99  1  0.82169800  0.82169800  0.98176700  1
  B  B100  1  0.98176700  0.82169800  0.82169800  1
  B  B101  1  0.82169800  0.98176700  0.82169800  1
  B  B102  1  0.17830200  0.17830200  0.01823300  1
  B  B103  1  0.01823300  0.17830200  0.17830200  1
  B  B104  1  0.17830200  0.01823300  0.17830200  1
