# generated using pymatgen
data_Ba8Ca5Mn3Fe8F56
_symmetry_space_group_name_H-M   'P 1'
_cell_length_a   5.46441100
_cell_length_b   7.51940444
_cell_length_c   30.58235422
_cell_angle_alpha   91.19941162
_cell_angle_beta   90.25482378
_cell_angle_gamma   111.26992370
_symmetry_Int_Tables_number   1
_chemical_formula_structural   Ba8Ca5Mn3Fe8F56
_chemical_formula_sum   'Ba8 Ca5 Mn3 Fe8 F56'
_cell_volume   1170.65008004
_cell_formula_units_Z   1
loop_
 _symmetry_equiv_pos_site_id
 _symmetry_equiv_pos_as_xyz
  1  'x, y, z'
loop_
 _atom_site_type_symbol
 _atom_site_label
 _atom_site_symmetry_multiplicity
 _atom_site_fract_x
 _atom_site_fract_y
 _atom_site_fract_z
 _atom_site_occupancy
  Ba  Ba0  1  0.14373500  0.37885400  0.81094800  1
  Ba  Ba1  1  0.14339200  0.37830900  0.31112400  1
  Ba  Ba2  1  0.76458500  0.61984100  0.93809900  1
  Ba  Ba3  1  0.76518300  0.62171600  0.43882900  1
  Ba  Ba4  1  0.85660800  0.62169100  0.68887600  1
  Ba  Ba5  1  0.85626500  0.62114600  0.18905200  1
  Ba  Ba6  1  0.23481700  0.37828400  0.56117100  1
  Ba  Ba7  1  0.23541500  0.38015900  0.06190100  1
  Ca  Ca8  1  0.44893900  0.99888400  0.87406200  1
  Ca  Ca9  1  0.44981100  0.99999000  0.37499200  1
  Ca  Ca10  1  0.55018900  0.00001000  0.62500800  1
  Ca  Ca11  1  0.55106100  0.00111600  0.12593800  1
  Ca  Ca12  1  0.50000000  0.00000000  0.00000000  1
  Mn  Mn13  1  0.50009200  0.99989800  0.74990100  1
  Mn  Mn14  1  0.49990800  0.00010200  0.25009900  1
  Mn  Mn15  1  0.50000000  0.00000000  0.50000000  1
  Fe  Fe16  1  0.87973100  0.75992600  0.81188500  1
  Fe  Fe17  1  0.87980600  0.76023000  0.31200800  1
  Fe  Fe18  1  0.12295700  0.24325100  0.93742800  1
  Fe  Fe19  1  0.11958100  0.23961400  0.43802600  1
  Fe  Fe20  1  0.12019400  0.23977000  0.68799200  1
  Fe  Fe21  1  0.12026900  0.24007400  0.18811500  1
  Fe  Fe22  1  0.88041900  0.76038600  0.56197400  1
  Fe  Fe23  1  0.87704300  0.75674900  0.06257200  1
  F  F24  1  0.73757900  0.82791600  0.75866700  1
  F  F25  1  0.73746300  0.82790400  0.25874300  1
  F  F26  1  0.92484800  0.17742100  0.99108500  1
  F  F27  1  0.91009200  0.17219100  0.49115200  1
  F  F28  1  0.26253700  0.17209600  0.74125700  1
  F  F29  1  0.26242100  0.17208400  0.24133300  1
  F  F30  1  0.08990800  0.82780900  0.50884800  1
  F  F31  1  0.07515200  0.82257900  0.00891500  1
  F  F32  1  0.59910000  0.75362300  0.85059300  1
  F  F33  1  0.59970600  0.75475800  0.35128200  1
  F  F34  1  0.84316100  0.24559200  0.89864300  1
  F  F35  1  0.84417100  0.24524100  0.39862800  1
  F  F36  1  0.40029400  0.24524200  0.64871800  1
  F  F37  1  0.40090000  0.24637700  0.14940700  1
  F  F38  1  0.15582900  0.75475900  0.60137200  1
  F  F39  1  0.15683900  0.75440800  0.10135700  1
  F  F40  1  0.90425500  0.01700000  0.57788500  1
  F  F41  1  0.89860500  0.01508600  0.07721800  1
  F  F42  1  0.88733400  0.98304900  0.67214800  1
  F  F43  1  0.88799500  0.98285800  0.17222800  1
  F  F44  1  0.10139500  0.98491400  0.92278200  1
  F  F45  1  0.09574500  0.98300000  0.42211500  1
  F  F46  1  0.11200500  0.01714200  0.82777200  1
  F  F47  1  0.11266600  0.01695100  0.32785200  1
  F  F48  1  0.57238000  0.74054400  0.52384700  1
  F  F49  1  0.56788900  0.73204400  0.02446000  1
  F  F50  1  0.83259200  0.25954200  0.72605200  1
  F  F51  1  0.83224900  0.25939600  0.22607600  1
  F  F52  1  0.43211100  0.26795600  0.97554000  1
  F  F53  1  0.42762000  0.25945600  0.47615300  1
  F  F54  1  0.16775100  0.74060400  0.77392400  1
  F  F55  1  0.16740800  0.74045800  0.27394800  1
  F  F56  1  0.69093500  0.49646800  0.79583000  1
  F  F57  1  0.69082300  0.49688400  0.29590000  1
  F  F58  1  0.19361000  0.50589900  0.95366300  1
  F  F59  1  0.19399500  0.50299500  0.45407700  1
  F  F60  1  0.30917700  0.50311600  0.70410000  1
  F  F61  1  0.30906500  0.50353200  0.20417000  1
  F  F62  1  0.80600500  0.49700500  0.54592300  1
  F  F63  1  0.80639000  0.49410100  0.04633700  1
  F  F64  1  0.37579800  0.32390400  0.88880300  1
  F  F65  1  0.37474400  0.32331600  0.38937000  1
  F  F66  1  0.05225700  0.67656200  0.86060900  1
  F  F67  1  0.05223900  0.67664300  0.36074400  1
  F  F68  1  0.62525600  0.67668400  0.61063000  1
  F  F69  1  0.62420200  0.67609600  0.11119700  1
  F  F70  1  0.94776100  0.32335700  0.63925600  1
  F  F71  1  0.94774300  0.32343800  0.13939100  1
  F  F72  1  0.54366900  0.87961900  0.93527600  1
  F  F73  1  0.53825700  0.88715300  0.43879300  1
  F  F74  1  0.65204000  0.11344200  0.81100400  1
  F  F75  1  0.65111100  0.11289500  0.31128100  1
  F  F76  1  0.46174300  0.11284700  0.56120700  1
  F  F77  1  0.45633100  0.12038100  0.06472400  1
  F  F78  1  0.34888900  0.88710500  0.68871900  1
  F  F79  1  0.34796000  0.88655800  0.18899600  1
