# generated using pymatgen
data_Bi11(Se4Cl3)3
_symmetry_space_group_name_H-M   'P 1'
_cell_length_a   8.27203002
_cell_length_b   12.94975823
_cell_length_c   37.17266208
_cell_angle_alpha   90.42869332
_cell_angle_beta   89.87258210
_cell_angle_gamma   71.85763946
_symmetry_Int_Tables_number   1
_chemical_formula_structural   Bi11(Se4Cl3)3
_chemical_formula_sum   'Bi44 Se48 Cl36'
_cell_volume   3783.85523972
_cell_formula_units_Z   4
loop_
 _symmetry_equiv_pos_site_id
 _symmetry_equiv_pos_as_xyz
  1  'x, y, z'
loop_
 _atom_site_type_symbol
 _atom_site_label
 _atom_site_symmetry_multiplicity
 _atom_site_fract_x
 _atom_site_fract_y
 _atom_site_fract_z
 _atom_site_occupancy
  Bi  Bi0  1  0.24244564  0.51947289  0.29662059  1
  Bi  Bi1  1  0.75755436  0.48052711  0.70337941  1
  Bi  Bi2  1  0.55154393  0.89733234  0.61868509  1
  Bi  Bi3  1  0.44845607  0.10266766  0.38131491  1
  Bi  Bi4  1  0.44835675  0.10886521  0.71973671  1
  Bi  Bi5  1  0.55164325  0.89113479  0.28026329  1
  Bi  Bi6  1  0.39263061  0.21065490  0.48685627  1
  Bi  Bi7  1  0.60736939  0.78934510  0.51314373  1
  Bi  Bi8  1  0.19324834  0.60837598  0.09079804  1
  Bi  Bi9  1  0.80675166  0.39162402  0.90920196  1
  Bi  Bi10  1  0.64100094  0.22039408  0.60064539  1
  Bi  Bi11  1  0.13864381  0.22012696  0.60064855  1
  Bi  Bi12  1  0.35899906  0.77960592  0.39935461  1
  Bi  Bi13  1  0.86135619  0.77987304  0.39935145  1
  Bi  Bi14  1  0.10047912  0.78191939  0.90074115  1
  Bi  Bi15  1  0.89952088  0.21808061  0.09925885  1
  Bi  Bi16  1  0.50782705  0.48690965  0.20054053  1
  Bi  Bi17  1  0.00784499  0.48081145  0.20365147  1
  Bi  Bi18  1  0.49217295  0.51309035  0.79945947  1
  Bi  Bi19  1  0.99215501  0.51918855  0.79634853  1
  Bi  Bi20  1  0.61805649  0.78197184  0.90066175  1
  Bi  Bi21  1  0.38194351  0.21802816  0.09933825  1
  Bi  Bi22  1  0.74233811  0.51166322  0.29859123  1
  Bi  Bi23  1  0.25766189  0.48833678  0.70140877  1
  Bi  Bi24  1  0.90757200  0.18297785  0.50634078  1
  Bi  Bi25  1  0.09242800  0.81702215  0.49365922  1
  Bi  Bi26  1  0.94857145  0.10522035  0.71905283  1
  Bi  Bi27  1  0.05142855  0.89477965  0.28094717  1
  Bi  Bi28  1  0.56207262  0.39236071  0.41029617  1
  Bi  Bi29  1  0.04957985  0.39156457  0.41029558  1
  Bi  Bi30  1  0.43792738  0.60763929  0.58970383  1
  Bi  Bi31  1  0.95042015  0.60843543  0.58970442  1
  Bi  Bi32  1  0.30223821  0.89076942  0.78077349  1
  Bi  Bi33  1  0.80199170  0.89303618  0.78008448  1
  Bi  Bi34  1  0.69776179  0.10923058  0.21922651  1
  Bi  Bi35  1  0.19800830  0.10696382  0.21991552  1
  Bi  Bi36  1  0.69473892  0.60754542  0.09083469  1
  Bi  Bi37  1  0.30526108  0.39245458  0.90916531  1
  Bi  Bi38  1  0.19894848  0.10181193  0.88229093  1
  Bi  Bi39  1  0.80105152  0.89818807  0.11770907  1
  Bi  Bi40  1  0.35169079  0.79906166  0.00479495  1
  Bi  Bi41  1  0.85101098  0.80092594  0.00692254  1
  Bi  Bi42  1  0.64830921  0.20093834  0.99520505  1
  Bi  Bi43  1  0.14898902  0.19907406  0.99307746  1
  Se  Se44  1  0.65230828  0.68514646  0.96838889  1
  Se  Se45  1  0.34769172  0.31485354  0.03161111  1
  Se  Se46  1  0.16063004  0.68547848  0.96842563  1
  Se  Se47  1  0.83936996  0.31452152  0.03157437  1
  Se  Se48  1  0.19223390  0.61912785  0.22968208  1
  Se  Se49  1  0.80776610  0.38087215  0.77031792  1
  Se  Se50  1  0.45249908  0.59184734  0.03989920  1
  Se  Se51  1  0.95614632  0.58521488  0.03907575  1
  Se  Se52  1  0.54750092  0.40815266  0.96010080  1
  Se  Se53  1  0.04385368  0.41478512  0.96092425  1
  Se  Se54  1  0.29373151  0.91608809  0.92595219  1
  Se  Se55  1  0.79433503  0.91476353  0.92602667  1
  Se  Se56  1  0.70626849  0.08391191  0.07404781  1
  Se  Se57  1  0.20566497  0.08523647  0.07397333  1
  Se  Se58  1  0.65799696  0.17540881  0.42533319  1
  Se  Se59  1  0.16481417  0.17460283  0.42548106  1
  Se  Se60  1  0.34200304  0.82459119  0.57466681  1
  Se  Se61  1  0.83518583  0.82539717  0.57451894  1
  Se  Se62  1  0.69476042  0.11669189  0.77229421  1
  Se  Se63  1  0.19305104  0.11461207  0.77185518  1
  Se  Se64  1  0.30523958  0.88330811  0.22770579  1
  Se  Se65  1  0.80694896  0.88538793  0.22814482  1
  Se  Se66  1  0.45754722  0.08190591  0.57492588  1
  Se  Se67  1  0.54245278  0.91809409  0.42507412  1
  Se  Se68  1  0.55776780  0.88438883  0.72774082  1
  Se  Se69  1  0.44223220  0.11561117  0.27225918  1
  Se  Se70  1  0.08895913  0.82491300  0.07522884  1
  Se  Se71  1  0.91104087  0.17508700  0.92477116  1
  Se  Se72  1  0.29037982  0.42218629  0.46101651  1
  Se  Se73  1  0.70962018  0.57781371  0.53898349  1
  Se  Se74  1  0.58868025  0.82404913  0.07518391  1
  Se  Se75  1  0.41131975  0.17595087  0.92481609  1
  Se  Se76  1  0.05577388  0.88169353  0.72771397  1
  Se  Se77  1  0.94422612  0.11830647  0.27228603  1
  Se  Se78  1  0.55580077  0.38264116  0.26909638  1
  Se  Se79  1  0.05918916  0.38016475  0.26997742  1
  Se  Se80  1  0.44419923  0.61735884  0.73090362  1
  Se  Se81  1  0.94081084  0.61983525  0.73002258  1
  Se  Se82  1  0.59067174  0.31384828  0.53313259  1
  Se  Se83  1  0.09731426  0.31451187  0.53314010  1
  Se  Se84  1  0.40932826  0.68615172  0.46686741  1
  Se  Se85  1  0.90268574  0.68548813  0.46685990  1
  Se  Se86  1  0.80105714  0.40013606  0.46150979  1
  Se  Se87  1  0.19894286  0.59986394  0.53849021  1
  Se  Se88  1  0.95640900  0.08354657  0.57630927  1
  Se  Se89  1  0.04359100  0.91645343  0.42369073  1
  Se  Se90  1  0.69335045  0.61683880  0.23090906  1
  Se  Se91  1  0.30664955  0.38316120  0.76909094  1
  Cl  Cl92  1  0.44571309  0.60129885  0.88530018  1
  Cl  Cl93  1  0.94345529  0.60746151  0.88572957  1
  Cl  Cl94  1  0.55428691  0.39870115  0.11469982  1
  Cl  Cl95  1  0.05654471  0.39253849  0.11427043  1
  Cl  Cl96  1  0.51010230  0.96015150  0.83479459  1
  Cl  Cl97  1  0.48989770  0.03984850  0.16520541  1
  Cl  Cl98  1  0.84187761  0.31265458  0.19233746  1
  Cl  Cl99  1  0.15812239  0.68734542  0.80766254  1
  Cl  Cl100  1  0.08773468  0.32663794  0.85220857  1
  Cl  Cl101  1  0.58297900  0.33495803  0.85165026  1
  Cl  Cl102  1  0.91226532  0.67336206  0.14779143  1
  Cl  Cl103  1  0.41702100  0.66504197  0.14834974  1
  Cl  Cl104  1  0.33916158  0.31206972  0.19267384  1
  Cl  Cl105  1  0.66083842  0.68793028  0.80732616  1
  Cl  Cl106  1  0.02733243  0.95971038  0.83449914  1
  Cl  Cl107  1  0.97266757  0.04028962  0.16550086  1
  Cl  Cl108  1  0.30702520  0.39232839  0.61525773  1
  Cl  Cl109  1  0.69297480  0.60767161  0.38474227  1
  Cl  Cl110  1  0.72927825  0.04094726  0.66551374  1
  Cl  Cl111  1  0.23299622  0.03962199  0.66553682  1
  Cl  Cl112  1  0.27072175  0.95905274  0.33448626  1
  Cl  Cl113  1  0.76700378  0.96037801  0.33446318  1
  Cl  Cl114  1  0.33541434  0.32909739  0.35197422  1
  Cl  Cl115  1  0.66458566  0.67090261  0.64802578  1
  Cl  Cl116  1  0.80770670  0.39050581  0.61506629  1
  Cl  Cl117  1  0.19229330  0.60949419  0.38493371  1
  Cl  Cl118  1  0.83405696  0.33490806  0.35239765  1
  Cl  Cl119  1  0.16594304  0.66509194  0.64760235  1
  Cl  Cl120  1  -0.00000000  -0.00000000  0.00000000  1
  Cl  Cl121  1  0.24496170  0.00027048  0.49997733  1
  Cl  Cl122  1  0.75503830  0.99972952  0.50002267  1
  Cl  Cl123  1  0.50000000  -0.00000000  0.00000000  1
  Cl  Cl124  1  0.40831360  0.68770677  0.30756251  1
  Cl  Cl125  1  0.91019648  0.68881480  0.30734435  1
  Cl  Cl126  1  0.59168640  0.31229323  0.69243749  1
  Cl  Cl127  1  0.08980352  0.31118520  0.69265565  1
