# generated using pymatgen
data_AlV2Fe
_symmetry_space_group_name_H-M   'P 1'
_cell_length_a   2.60922484
_cell_length_b   2.60922484
_cell_length_c   8.08399828
_cell_angle_alpha   90.00000000
_cell_angle_beta   90.00000000
_cell_angle_gamma   106.27123351
_symmetry_Int_Tables_number   1
_chemical_formula_structural   AlV2Fe
_chemical_formula_sum   'Al1 V2 Fe1'
_cell_volume   52.83187985
_cell_formula_units_Z   1
loop_
 _symmetry_equiv_pos_site_id
 _symmetry_equiv_pos_as_xyz
  1  'x, y, z'
loop_
 _atom_site_type_symbol
 _atom_site_label
 _atom_site_symmetry_multiplicity
 _atom_site_fract_x
 _atom_site_fract_y
 _atom_site_fract_z
 _atom_site_occupancy
  Al  Al0  1  0.00000000  0.00000000  0.01362300  1
  V  V1  1  0.00000000  0.00000000  0.49171600  1
  V  V2  1  0.50000000  0.50000000  0.74246400  1
  Fe  Fe3  1  0.50000000  0.50000000  0.25219700  1
