# generated using pymatgen
data_AsXeO2F7
_symmetry_space_group_name_H-M   'P 1'
_cell_length_a   8.94732300
_cell_length_b   9.08172800
_cell_length_c   9.23601700
_cell_angle_alpha   90.00000000
_cell_angle_beta   90.00000000
_cell_angle_gamma   90.00000000
_symmetry_Int_Tables_number   1
_chemical_formula_structural   AsXeO2F7
_chemical_formula_sum   'As4 Xe4 O8 F28'
_cell_volume   750.49245400
_cell_formula_units_Z   4
loop_
 _symmetry_equiv_pos_site_id
 _symmetry_equiv_pos_as_xyz
  1  'x, y, z'
loop_
 _atom_site_type_symbol
 _atom_site_label
 _atom_site_symmetry_multiplicity
 _atom_site_fract_x
 _atom_site_fract_y
 _atom_site_fract_z
 _atom_site_occupancy
  As  As0  1  0.13108000  0.37099500  0.10988600  1
  As  As1  1  0.36892000  0.62900500  0.60988600  1
  As  As2  1  0.63108000  0.12900500  0.89011400  1
  As  As3  1  0.86892000  0.87099500  0.39011400  1
  Xe  Xe4  1  0.01389000  0.93709500  0.94913800  1
  Xe  Xe5  1  0.48611000  0.06290500  0.44913800  1
  Xe  Xe6  1  0.51389000  0.56290500  0.05086200  1
  Xe  Xe7  1  0.98611000  0.43709500  0.55086200  1
  O  O8  1  0.10795400  0.02736800  0.79539300  1
  O  O9  1  0.39204600  0.97263200  0.29539300  1
  O  O10  1  0.60795400  0.47263200  0.20460700  1
  O  O11  1  0.89204600  0.52736800  0.70460700  1
  O  O12  1  0.98082800  0.74266200  0.90145300  1
  O  O13  1  0.51917200  0.25733800  0.40145300  1
  O  O14  1  0.48082800  0.75733800  0.09854700  1
  O  O15  1  0.01917200  0.24266200  0.59854700  1
  F  F16  1  0.95693600  0.45555600  0.11817800  1
  F  F17  1  0.54306400  0.54444400  0.61817800  1
  F  F18  1  0.45693600  0.04444400  0.88182200  1
  F  F19  1  0.04306400  0.95555600  0.38182200  1
  F  F20  1  0.05134900  0.19068700  0.11005100  1
  F  F21  1  0.44865100  0.80931300  0.61005100  1
  F  F22  1  0.55134900  0.30931300  0.88994900  1
  F  F23  1  0.94865100  0.69068700  0.38994900  1
  F  F24  1  0.31314300  0.29456900  0.11115800  1
  F  F25  1  0.18685700  0.70543100  0.61115800  1
  F  F26  1  0.81314300  0.20543100  0.88884200  1
  F  F27  1  0.68685700  0.79456900  0.38884200  1
  F  F28  1  0.22308500  0.54967800  0.11584800  1
  F  F29  1  0.27691500  0.45032200  0.61584800  1
  F  F30  1  0.72308500  0.95032200  0.88415200  1
  F  F31  1  0.77691500  0.04967800  0.38415200  1
  F  F32  1  0.13422300  0.36616100  0.30536500  1
  F  F33  1  0.36577700  0.63383900  0.80536500  1
  F  F34  1  0.63422300  0.13383900  0.69463500  1
  F  F35  1  0.86577700  0.86616100  0.19463500  1
  F  F36  1  0.13236100  0.37573100  0.92071400  1
  F  F37  1  0.36763900  0.62426900  0.42071400  1
  F  F38  1  0.63236100  0.12426900  0.07928600  1
  F  F39  1  0.86763900  0.87573100  0.57928600  1
  F  F40  1  0.19697200  0.90037200  0.07464500  1
  F  F41  1  0.30302800  0.09962800  0.57464500  1
  F  F42  1  0.69697200  0.59962800  0.92535500  1
  F  F43  1  0.80302800  0.40037200  0.42535500  1
