# generated using pymatgen
data_BP5(Pb3O10)2
_symmetry_space_group_name_H-M   'P 1'
_cell_length_a   7.05520300
_cell_length_b   7.05520300
_cell_length_c   10.11330400
_cell_angle_alpha   90.00000000
_cell_angle_beta   90.00000000
_cell_angle_gamma   90.00000000
_symmetry_Int_Tables_number   1
_chemical_formula_structural   BP5(Pb3O10)2
_chemical_formula_sum   'B1 P5 Pb6 O20'
_cell_volume   503.39870108
_cell_formula_units_Z   1
loop_
 _symmetry_equiv_pos_site_id
 _symmetry_equiv_pos_as_xyz
  1  'x, y, z'
loop_
 _atom_site_type_symbol
 _atom_site_label
 _atom_site_symmetry_multiplicity
 _atom_site_fract_x
 _atom_site_fract_y
 _atom_site_fract_z
 _atom_site_occupancy
  B  B0  1  0.50000000  0.50000000  0.50000000  1
  P  P1  1  0.00000000  0.00000000  0.00000000  1
  P  P2  1  0.73417400  0.66922100  0.30403800  1
  P  P3  1  0.26582600  0.33077900  0.30403800  1
  P  P4  1  0.33077900  0.73417400  0.69596200  1
  P  P5  1  0.66922100  0.26582600  0.69596200  1
  Pb  Pb6  1  0.83727200  0.77064700  0.68541500  1
  Pb  Pb7  1  0.16272800  0.22935300  0.68541500  1
  Pb  Pb8  1  0.22935300  0.83727200  0.31458500  1
  Pb  Pb9  1  0.77064700  0.16272800  0.31458500  1
  Pb  Pb10  1  0.00000000  0.50000000  0.02126800  1
  Pb  Pb11  1  0.50000000  0.00000000  0.97873200  1
  O  O12  1  0.89459100  0.79539700  0.36055200  1
  O  O13  1  0.10540900  0.20460300  0.36055200  1
  O  O14  1  0.20460300  0.89459100  0.63944800  1
  O  O15  1  0.79539700  0.10540900  0.63944800  1
  O  O16  1  0.67377700  0.53273400  0.42384000  1
  O  O17  1  0.32622300  0.46726600  0.42384000  1
  O  O18  1  0.46726600  0.67377700  0.57616000  1
  O  O19  1  0.53273400  0.32622300  0.57616000  1
  O  O20  1  0.88888900  0.14823600  0.08466900  1
  O  O21  1  0.11111100  0.85176400  0.08466900  1
  O  O22  1  0.85176400  0.88888900  0.91533100  1
  O  O23  1  0.14823600  0.11111100  0.91533100  1
  O  O24  1  0.79919400  0.42741900  0.74883600  1
  O  O25  1  0.20080600  0.57258100  0.74883600  1
  O  O26  1  0.57258100  0.79919400  0.25116400  1
  O  O27  1  0.42741900  0.20080600  0.25116400  1
  O  O28  1  0.79619400  0.51966000  0.20120800  1
  O  O29  1  0.20380600  0.48034000  0.20120800  1
  O  O30  1  0.48034000  0.79619400  0.79879200  1
  O  O31  1  0.51966000  0.20380600  0.79879200  1
