# generated using pymatgen
data_CaFe12(PO6)8
_symmetry_space_group_name_H-M   'P 1'
_cell_length_a   5.13022400
_cell_length_b   13.32788462
_cell_length_c   14.43584201
_cell_angle_alpha   112.62368631
_cell_angle_beta   90.00000000
_cell_angle_gamma   78.90349399
_symmetry_Int_Tables_number   1
_chemical_formula_structural   CaFe12(PO6)8
_chemical_formula_sum   'Ca1 Fe12 P8 O48'
_cell_volume   891.07380030
_cell_formula_units_Z   1
loop_
 _symmetry_equiv_pos_site_id
 _symmetry_equiv_pos_as_xyz
  1  'x, y, z'
loop_
 _atom_site_type_symbol
 _atom_site_label
 _atom_site_symmetry_multiplicity
 _atom_site_fract_x
 _atom_site_fract_y
 _atom_site_fract_z
 _atom_site_occupancy
  Ca  Ca0  1  0.85268900  0.00000000  0.25000000  1
  Fe  Fe1  1  0.18030300  0.68703900  0.40029300  1
  Fe  Fe2  1  0.86734200  0.31296100  0.09970700  1
  Fe  Fe3  1  0.84525900  0.32085500  0.60643100  1
  Fe  Fe4  1  0.16611400  0.67914500  0.89356900  1
  Fe  Fe5  1  0.01527100  0.96514300  0.48072400  1
  Fe  Fe6  1  0.98041500  0.03485700  0.01927600  1
  Fe  Fe7  1  0.91740400  0.71714200  0.13604700  1
  Fe  Fe8  1  0.63454700  0.28285800  0.36395300  1
  Fe  Fe9  1  0.09440600  0.27047100  0.86048900  1
  Fe  Fe10  1  0.36487700  0.72952900  0.63951100  1
  Fe  Fe11  1  0.50088300  0.50282700  0.50502400  1
  Fe  Fe12  1  0.00371000  0.49717300  0.99497600  1
  P  P13  1  0.34943200  0.84769400  0.10087200  1
  P  P14  1  0.19712600  0.15230600  0.39912800  1
  P  P15  1  0.64068000  0.15961800  0.90567400  1
  P  P16  1  0.80029800  0.84038200  0.59432600  1
  P  P17  1  0.48514300  0.56678600  0.17367800  1
  P  P18  1  0.05192900  0.43321400  0.32632200  1
  P  P19  1  0.52366300  0.42773700  0.82321200  1
  P  P20  1  0.95140000  0.57226300  0.67678800  1
  O  O21  1  0.69670400  0.60007700  0.11612900  1
  O  O22  1  0.29678100  0.39992300  0.38387100  1
  O  O23  1  0.30221600  0.39820900  0.87764200  1
  O  O24  1  0.70042500  0.60179100  0.62235800  1
  O  O25  1  0.04311800  0.55051700  0.33239300  1
  O  O26  1  0.59363500  0.44948300  0.16760700  1
  O  O27  1  0.97677600  0.45289900  0.66990300  1
  O  O28  1  0.42967500  0.54710100  0.83009700  1
  O  O29  1  0.16418900  0.82031300  0.17069100  1
  O  O30  1  0.98450200  0.17968700  0.32930900  1
  O  O31  1  0.83709400  0.17981600  0.83686200  1
  O  O32  1  0.01690900  0.82018400  0.66313800  1
  O  O33  1  0.19632600  0.96476300  0.10782300  1
  O  O34  1  0.16108800  0.03523700  0.39217700  1
  O  O35  1  0.74918100  0.04784200  0.91790200  1
  O  O36  1  0.79702300  0.95215800  0.58209800  1
  O  O37  1  0.82211400  0.88768300  0.34992800  1
  O  O38  1  0.70979800  0.11231700  0.15007200  1
  O  O39  1  0.04490200  0.13537100  0.65358400  1
  O  O40  1  0.18027300  0.86462900  0.84641600  1
  O  O41  1  0.62362300  0.85669900  0.14747700  1
  O  O42  1  0.48032200  0.14330100  0.35252300  1
  O  O43  1  0.37968600  0.14996500  0.85341100  1
  O  O44  1  0.52965100  0.85003500  0.64658900  1
  O  O45  1  0.43013600  0.65342900  0.28193800  1
  O  O46  1  0.08356500  0.34657100  0.21806200  1
  O  O47  1  0.57548100  0.34428100  0.71333700  1
  O  O48  1  0.91976100  0.65571900  0.78666300  1
  O  O49  1  0.39413500  0.64246900  0.49174400  1
  O  O50  1  0.03660300  0.35753100  0.00825600  1
  O  O51  1  0.62315100  0.35515600  0.50971700  1
  O  O52  1  0.97830700  0.64484400  0.99028300  1
  O  O53  1  0.21895400  0.57400600  0.12010100  1
  O  O54  1  0.79296000  0.42599400  0.37989900  1
  O  O55  1  0.78401000  0.42092700  0.87822200  1
  O  O56  1  0.20493700  0.57907300  0.62177800  1
  O  O57  1  0.24639200  0.83957900  0.44990900  1
  O  O58  1  0.08597100  0.16042100  0.05009100  1
  O  O59  1  0.87521700  0.13807600  0.57982500  1
  O  O60  1  0.01329300  0.86192400  0.92017500  1
  O  O61  1  0.86897800  0.77894700  0.30342700  1
  O  O62  1  0.64792500  0.22105300  0.19657300  1
  O  O63  1  0.10174700  0.23719100  0.70171700  1
  O  O64  1  0.33893800  0.76280900  0.79828300  1
  O  O65  1  0.39745800  0.75880700  0.99443700  1
  O  O66  1  0.15626500  0.24119300  0.50556300  1
  O  O67  1  0.59172400  0.25606500  0.01047300  1
  O  O68  1  0.84778900  0.74393500  0.48952700  1
