# generated using pymatgen
data_Al8SiO14
_symmetry_space_group_name_H-M   'P 1'
_cell_length_a   2.96633400
_cell_length_b   7.79570900
_cell_length_c   23.30765200
_cell_angle_alpha   90.00000000
_cell_angle_beta   90.00000000
_cell_angle_gamma   90.00000000
_symmetry_Int_Tables_number   1
_chemical_formula_structural   Al8SiO14
_chemical_formula_sum   'Al16 Si2 O28'
_cell_volume   538.98191622
_cell_formula_units_Z   2
loop_
 _symmetry_equiv_pos_site_id
 _symmetry_equiv_pos_as_xyz
  1  'x, y, z'
loop_
 _atom_site_type_symbol
 _atom_site_label
 _atom_site_symmetry_multiplicity
 _atom_site_fract_x
 _atom_site_fract_y
 _atom_site_fract_z
 _atom_site_occupancy
  Al  Al0  1  0.00000000  0.25526200  0.32603200  1
  Al  Al1  1  0.00000000  0.25380000  0.66875400  1
  Al  Al2  1  0.00000000  0.74473800  0.82603200  1
  Al  Al3  1  0.00000000  0.74620000  0.16875400  1
  Al  Al4  1  0.50000000  0.48270900  0.91105400  1
  Al  Al5  1  0.50000000  0.03259200  0.09025600  1
  Al  Al6  1  0.50000000  0.51729100  0.41105400  1
  Al  Al7  1  0.50000000  0.96740800  0.59025600  1
  Al  Al8  1  0.00000000  0.25226100  0.00286100  1
  Al  Al9  1  0.00000000  0.74773900  0.50286100  1
  Al  Al10  1  0.50000000  0.58529400  0.28221500  1
  Al  Al11  1  0.50000000  0.92604100  0.71526200  1
  Al  Al12  1  0.50000000  0.41470600  0.78221500  1
  Al  Al13  1  0.50000000  0.07395900  0.21526200  1
  Al  Al14  1  0.50000000  0.59008400  0.61557900  1
  Al  Al15  1  0.50000000  0.40991600  0.11557900  1
  Si  Si16  1  0.50000000  0.89118100  0.38623400  1
  Si  Si17  1  0.50000000  0.10881900  0.88623400  1
  O  O18  1  0.50000000  0.70210400  0.35284300  1
  O  O19  1  0.50000000  0.80289500  0.64868900  1
  O  O20  1  0.50000000  0.29789600  0.85284300  1
  O  O21  1  0.50000000  0.19710500  0.14868900  1
  O  O22  1  0.00000000  0.47082000  0.29275900  1
  O  O23  1  0.00000000  0.04417700  0.71446900  1
  O  O24  1  0.00000000  0.52918000  0.79275900  1
  O  O25  1  0.00000000  0.95582300  0.21446900  1
  O  O26  1  0.00000000  0.43724500  0.94741700  1
  O  O27  1  0.00000000  0.05803500  0.04998700  1
  O  O28  1  0.00000000  0.56275500  0.44741700  1
  O  O29  1  0.00000000  0.94196500  0.54998700  1
  O  O30  1  0.50000000  0.32857000  0.71528400  1
  O  O31  1  0.50000000  0.17647300  0.28329800  1
  O  O32  1  0.50000000  0.67143000  0.21528400  1
  O  O33  1  0.50000000  0.82352700  0.78329800  1
  O  O34  1  0.00000000  0.47636000  0.63019200  1
  O  O35  1  0.00000000  0.98861800  0.36911900  1
  O  O36  1  0.00000000  0.52364000  0.13019200  1
  O  O37  1  0.00000000  0.01138200  0.86911900  1
  O  O38  1  0.50000000  0.34105500  0.04214400  1
  O  O39  1  0.50000000  0.14828100  0.95418500  1
  O  O40  1  0.50000000  0.65894500  0.54214400  1
  O  O41  1  0.50000000  0.85171900  0.45418500  1
  O  O42  1  0.50000000  0.31934300  0.37598900  1
  O  O43  1  0.50000000  0.16494000  0.62537800  1
  O  O44  1  0.50000000  0.68065700  0.87598900  1
  O  O45  1  0.50000000  0.83506000  0.12537800  1
