# generated using pymatgen
data_Ba10Pr5Ir(Ru2O15)2
_symmetry_space_group_name_H-M   'P 1'
_cell_length_a   6.10021287
_cell_length_b   25.24076746
_cell_length_c   6.10021287
_cell_angle_alpha   83.23092966
_cell_angle_beta   120.34890467
_cell_angle_gamma   96.76907034
_symmetry_Int_Tables_number   1
_chemical_formula_structural   Ba10Pr5Ir(Ru2O15)2
_chemical_formula_sum   'Ba10 Pr5 Ir1 Ru4 O30'
_cell_volume   803.04472902
_cell_formula_units_Z   1
loop_
 _symmetry_equiv_pos_site_id
 _symmetry_equiv_pos_as_xyz
  1  'x, y, z'
loop_
 _atom_site_type_symbol
 _atom_site_label
 _atom_site_symmetry_multiplicity
 _atom_site_fract_x
 _atom_site_fract_y
 _atom_site_fract_z
 _atom_site_occupancy
  Ba  Ba0  1  0.24807800  0.25194000  0.75192200  1
  Ba  Ba1  1  0.64765900  0.45092000  0.35234100  1
  Ba  Ba2  1  0.04768200  0.65093600  0.95231800  1
  Ba  Ba3  1  0.44753600  0.85062000  0.55246400  1
  Ba  Ba4  1  0.84759800  0.05013700  0.15240200  1
  Ba  Ba5  1  0.95246400  0.34938000  0.04753600  1
  Ba  Ba6  1  0.35231800  0.54906400  0.64768200  1
  Ba  Ba7  1  0.75234100  0.74908000  0.24765900  1
  Ba  Ba8  1  0.15192200  0.94806000  0.84807800  1
  Ba  Ba9  1  0.55240200  0.14986300  0.44759800  1
  Pr  Pr10  1  0.29998100  0.40008900  0.70001900  1
  Pr  Pr11  1  0.70000000  0.60000000  0.30000000  1
  Pr  Pr12  1  0.10001900  0.79991100  0.89998100  1
  Pr  Pr13  1  0.50014100  0.00007300  0.49985900  1
  Pr  Pr14  1  0.89985900  0.19992700  0.10014100  1
  Ir  Ir15  1  0.20000000  0.10000000  0.80000000  1
  Ru  Ru16  1  0.59991500  0.29975100  0.40008500  1
  Ru  Ru17  1  0.00002400  0.49993500  0.99997600  1
  Ru  Ru18  1  0.39997600  0.70006500  0.60002400  1
  Ru  Ru19  1  0.80008500  0.90024900  0.19991500  1
  O  O20  1  0.45932500  0.34545000  0.07783300  1
  O  O21  1  0.85947200  0.54562300  0.67798200  1
  O  O22  1  0.25962100  0.74561200  0.27827900  1
  O  O23  1  0.65966100  0.94588000  0.87808200  1
  O  O24  1  0.05973600  0.14543400  0.47774200  1
  O  O25  1  0.92216700  0.34545000  0.54067500  1
  O  O26  1  0.32201800  0.54562300  0.14052800  1
  O  O27  1  0.72172100  0.74561200  0.74037900  1
  O  O28  1  0.12191800  0.94588000  0.34033900  1
  O  O29  1  0.52225800  0.14543400  0.94026400  1
  O  O30  1  0.74033900  0.25412000  0.72191800  1
  O  O31  1  0.14037900  0.45438800  0.32172100  1
  O  O32  1  0.54052800  0.65437700  0.92201800  1
  O  O33  1  0.94067500  0.85455000  0.52216700  1
  O  O34  1  0.34026400  0.05456600  0.12225800  1
  O  O35  1  0.27808200  0.25412000  0.25966100  1
  O  O36  1  0.67827900  0.45438800  0.85962100  1
  O  O37  1  0.07798200  0.65437700  0.45947200  1
  O  O38  1  0.47783300  0.85455000  0.05932500  1
  O  O39  1  0.87774200  0.05456600  0.65973600  1
  O  O40  1  0.13806800  0.45442600  0.86193200  1
  O  O41  1  0.53825200  0.65441200  0.46174800  1
  O  O42  1  0.93836200  0.85457800  0.06163800  1
  O  O43  1  0.33849100  0.05462900  0.66150900  1
  O  O44  1  0.73805600  0.25415800  0.26194400  1
  O  O45  1  0.06150900  0.14537100  0.93849100  1
  O  O46  1  0.46163800  0.34542200  0.53836200  1
  O  O47  1  0.86174800  0.54558800  0.13825200  1
  O  O48  1  0.26193200  0.74557400  0.73806800  1
  O  O49  1  0.66194400  0.94584200  0.33805600  1
