# generated using pymatgen
data_Ba5Eu5(Fe5O13)2
_symmetry_space_group_name_H-M   'P 1'
_cell_length_a   8.79813900
_cell_length_b   8.95271758
_cell_length_c   8.95703633
_cell_angle_alpha   89.90907657
_cell_angle_beta   101.82418932
_cell_angle_gamma   114.04677498
_symmetry_Int_Tables_number   1
_chemical_formula_structural   Ba5Eu5(Fe5O13)2
_chemical_formula_sum   'Ba5 Eu5 Fe10 O26'
_cell_volume   627.96647550
_cell_formula_units_Z   1
loop_
 _symmetry_equiv_pos_site_id
 _symmetry_equiv_pos_as_xyz
  1  'x, y, z'
loop_
 _atom_site_type_symbol
 _atom_site_label
 _atom_site_symmetry_multiplicity
 _atom_site_fract_x
 _atom_site_fract_y
 _atom_site_fract_z
 _atom_site_occupancy
  Ba  Ba0  1  0.00000000  0.50000000  0.50000000  1
  Ba  Ba1  1  0.99980000  0.90093100  0.69781500  1
  Ba  Ba2  1  0.99688400  0.29797600  0.89758200  1
  Ba  Ba3  1  0.00311600  0.70202400  0.10241800  1
  Ba  Ba4  1  0.00020000  0.09906900  0.30218500  1
  Eu  Eu5  1  0.50009300  0.28828000  0.40461400  1
  Eu  Eu6  1  0.49990700  0.71172000  0.59538600  1
  Eu  Eu7  1  0.49967300  0.09513100  0.78828900  1
  Eu  Eu8  1  0.50000000  0.50000000  0.00000000  1
  Eu  Eu9  1  0.50032700  0.90486900  0.21171100  1
  Fe  Fe10  1  0.24720000  0.30219100  0.64988200  1
  Fe  Fe11  1  0.25022300  0.69989900  0.85354900  1
  Fe  Fe12  1  0.25024700  0.10066200  0.04690100  1
  Fe  Fe13  1  0.24987000  0.49655100  0.24911800  1
  Fe  Fe14  1  0.25988900  0.90367600  0.45210700  1
  Fe  Fe15  1  0.75013000  0.50344900  0.75088200  1
  Fe  Fe16  1  0.74975300  0.89933800  0.95309900  1
  Fe  Fe17  1  0.74977700  0.30010100  0.14645100  1
  Fe  Fe18  1  0.75280000  0.69780900  0.35011800  1
  Fe  Fe19  1  0.74011100  0.09632400  0.54789300  1
  O  O20  1  0.30165900  0.42060100  0.46034900  1
  O  O21  1  0.28345300  0.80869600  0.66517300  1
  O  O22  1  0.30091600  0.22120800  0.86077800  1
  O  O23  1  0.30168300  0.61993400  0.05963700  1
  O  O24  1  0.28350700  0.01788400  0.24827000  1
  O  O25  1  0.69834100  0.57939900  0.53965100  1
  O  O26  1  0.71649300  0.98211600  0.75173000  1
  O  O27  1  0.69831700  0.38006600  0.94036300  1
  O  O28  1  0.69908400  0.77879200  0.13922200  1
  O  O29  1  0.71654700  0.19130400  0.33482700  1
  O  O30  1  0.30036900  0.51929200  0.76102400  1
  O  O31  1  0.30163700  0.92074600  0.96055300  1
  O  O32  1  0.30087600  0.32107900  0.15923000  1
  O  O33  1  0.28325900  0.70472100  0.35158200  1
  O  O34  1  0.28272000  0.12154900  0.56125500  1
  O  O35  1  0.69912400  0.67892100  0.84077000  1
  O  O36  1  0.69836300  0.07925400  0.03944700  1
  O  O37  1  0.69963100  0.48070800  0.23897600  1
  O  O38  1  0.71728000  0.87845100  0.43874500  1
  O  O39  1  0.71674100  0.29527900  0.64841800  1
  O  O40  1  0.99779400  0.20170600  0.60101200  1
  O  O41  1  0.00012900  0.60105800  0.80390400  1
  O  O42  1  0.00000000  0.00000000  0.00000000  1
  O  O43  1  0.99987100  0.39894200  0.19609600  1
  O  O44  1  0.00220600  0.79829400  0.39898800  1
  O  O45  1  0.50000000  0.00000000  0.50000000  1
