# generated using pymatgen
data_Ca4AlSiH24SO16F13
_symmetry_space_group_name_H-M   'P 1'
_cell_length_a   11.95981743
_cell_length_b   11.95981743
_cell_length_c   11.94876753
_cell_angle_alpha   60.03142635
_cell_angle_beta   60.03142635
_cell_angle_gamma   89.99662602
_symmetry_Int_Tables_number   1
_chemical_formula_structural   Ca4AlSiH24SO16F13
_chemical_formula_sum   'Ca8 Al2 Si2 H48 S2 O32 F26'
_cell_volume   1209.71207725
_cell_formula_units_Z   2
loop_
 _symmetry_equiv_pos_site_id
 _symmetry_equiv_pos_as_xyz
  1  'x, y, z'
loop_
 _atom_site_type_symbol
 _atom_site_label
 _atom_site_symmetry_multiplicity
 _atom_site_fract_x
 _atom_site_fract_y
 _atom_site_fract_z
 _atom_site_occupancy
  Ca  Ca0  1  0.20504900  0.79436600  0.07962500  1
  Ca  Ca1  1  0.20563400  0.79495100  0.42037500  1
  Ca  Ca2  1  0.20187900  0.12532700  0.08580000  1
  Ca  Ca3  1  0.87467300  0.79812100  0.41420000  1
  Ca  Ca4  1  0.79495100  0.20563400  0.92037500  1
  Ca  Ca5  1  0.79436600  0.20504900  0.57962500  1
  Ca  Ca6  1  0.79812100  0.87467300  0.91420000  1
  Ca  Ca7  1  0.12532700  0.20187900  0.58580000  1
  Al  Al8  1  0.00000000  0.00000000  0.50000000  1
  Al  Al9  1  0.00000000  0.00000000  0.00000000  1
  Si  Si10  1  0.00000000  0.50000000  0.50000000  1
  Si  Si11  1  0.50000000  0.00000000  0.00000000  1
  H  H12  1  0.48995900  0.75776200  0.96096300  1
  H  H13  1  0.24223800  0.51004100  0.53903700  1
  H  H14  1  0.04975000  0.27923500  0.96048800  1
  H  H15  1  0.72076500  0.95025000  0.53951200  1
  H  H16  1  0.49013600  0.28138100  0.76771800  1
  H  H17  1  0.23977600  0.95031900  0.77070700  1
  H  H18  1  0.04968100  0.76022400  0.72929300  1
  H  H19  1  0.71861900  0.50986400  0.73228200  1
  H  H20  1  0.49044700  0.95091100  0.29108500  1
  H  H21  1  0.23994000  0.27889100  0.21026200  1
  H  H22  1  0.04908900  0.50955300  0.20891500  1
  H  H23  1  0.72110900  0.76006000  0.28973800  1
  H  H24  1  0.51004100  0.24223800  0.03903700  1
  H  H25  1  0.75776200  0.48995900  0.46096300  1
  H  H26  1  0.95025000  0.72076500  0.03951200  1
  H  H27  1  0.27923500  0.04975000  0.46048800  1
  H  H28  1  0.50986400  0.71861900  0.23228200  1
  H  H29  1  0.76022400  0.04968100  0.22929300  1
  H  H30  1  0.95031900  0.23977600  0.27070700  1
  H  H31  1  0.28138100  0.49013600  0.26771800  1
  H  H32  1  0.50955300  0.04908900  0.70891500  1
  H  H33  1  0.76006000  0.72110900  0.78973800  1
  H  H34  1  0.95091100  0.49044700  0.79108500  1
  H  H35  1  0.27889100  0.23994000  0.71026200  1
  H  H36  1  0.41598400  0.66624200  0.94221600  1
  H  H37  1  0.33375800  0.58401600  0.55778400  1
  H  H38  1  0.14163800  0.39271200  0.94082500  1
  H  H39  1  0.60728800  0.85836200  0.55917500  1
  H  H40  1  0.41649400  0.39211000  0.74984200  1
  H  H41  1  0.33362300  0.85850800  0.74934000  1
  H  H42  1  0.14149200  0.66637700  0.75066000  1
  H  H43  1  0.60789000  0.58350600  0.75015800  1
  H  H44  1  0.41653400  0.85795100  0.47589100  1
  H  H45  1  0.33342500  0.39178800  0.02519000  1
  H  H46  1  0.14204900  0.58346600  0.02410900  1
  H  H47  1  0.60821200  0.66657500  0.47481000  1
  H  H48  1  0.58401600  0.33375800  0.05778400  1
  H  H49  1  0.66624200  0.41598400  0.44221600  1
  H  H50  1  0.85836200  0.60728800  0.05917500  1
  H  H51  1  0.39271200  0.14163800  0.44082500  1
  H  H52  1  0.58350600  0.60789000  0.25015800  1
  H  H53  1  0.66637700  0.14149200  0.25066000  1
  H  H54  1  0.85850800  0.33362300  0.24934000  1
  H  H55  1  0.39211000  0.41649400  0.24984200  1
  H  H56  1  0.58346600  0.14204900  0.52410900  1
  H  H57  1  0.66657500  0.60821200  0.97481000  1
  H  H58  1  0.85795100  0.41653400  0.97589100  1
  H  H59  1  0.39178800  0.33342500  0.52519000  1
  S  S60  1  0.37493500  0.62506500  0.75000000  1
  S  S61  1  0.62506500  0.37493500  0.25000000  1
  O  O62  1  0.39941500  0.70971200  0.99841300  1
  O  O63  1  0.29028800  0.60058500  0.50158700  1
  O  O64  1  0.10169200  0.29320700  0.99777900  1
  O  O65  1  0.70679300  0.89830800  0.50222100  1
  O  O66  1  0.40013300  0.29266400  0.81010600  1
  O  O67  1  0.29147700  0.89887300  0.80868800  1
  O  O68  1  0.10112700  0.70852300  0.69131200  1
  O  O69  1  0.70733600  0.59986700  0.68989400  1
  O  O70  1  0.40044900  0.89708100  0.39243600  1
  O  O71  1  0.29170600  0.29215900  0.10726500  1
  O  O72  1  0.10291900  0.59955100  0.10756400  1
  O  O73  1  0.70784100  0.70829400  0.39273500  1
  O  O74  1  0.60058500  0.29028800  0.00158700  1
  O  O75  1  0.70971200  0.39941500  0.49841300  1
  O  O76  1  0.89830800  0.70679300  0.00222100  1
  O  O77  1  0.29320700  0.10169200  0.49777900  1
  O  O78  1  0.59986700  0.70733600  0.18989400  1
  O  O79  1  0.70852300  0.10112700  0.19131200  1
  O  O80  1  0.89887300  0.29147700  0.30868800  1
  O  O81  1  0.29266400  0.40013300  0.31010600  1
  O  O82  1  0.59955100  0.10291900  0.60756400  1
  O  O83  1  0.70829400  0.70784100  0.89273500  1
  O  O84  1  0.89708100  0.40044900  0.89243600  1
  O  O85  1  0.29215900  0.29170600  0.60726500  1
  O  O86  1  0.42569400  0.57377100  0.64784400  1
  O  O87  1  0.42622900  0.57430600  0.85215600  1
  O  O88  1  0.42579400  0.77841000  0.64762900  1
  O  O89  1  0.22159000  0.57420600  0.85237100  1
  O  O90  1  0.57430600  0.42622900  0.35215600  1
  O  O91  1  0.57377100  0.42569400  0.14784400  1
  O  O92  1  0.57420600  0.22159000  0.35237100  1
  O  O93  1  0.77841000  0.42579400  0.14762900  1
  F  F94  1  0.12770400  0.87229600  0.25000000  1
  F  F95  1  0.87229600  0.12770400  0.75000000  1
  F  F96  1  0.39681300  0.83799800  0.16958000  1
  F  F97  1  0.16200200  0.60318700  0.33042000  1
  F  F98  1  0.92988300  0.99139000  0.17931400  1
  F  F99  1  0.00861000  0.07011700  0.32068600  1
  F  F100  1  0.39789700  0.99261600  0.94039100  1
  F  F101  1  0.17178000  0.06906600  0.93956900  1
  F  F102  1  0.93093400  0.82822000  0.56043100  1
  F  F103  1  0.00738400  0.60210300  0.55960900  1
  F  F104  1  0.39767500  0.06649400  0.09490300  1
  F  F105  1  0.17216800  0.99141500  0.39777400  1
  F  F106  1  0.93350600  0.60232500  0.40509700  1
  F  F107  1  0.00858500  0.82783200  0.10222600  1
  F  F108  1  0.60318700  0.16200200  0.83042000  1
  F  F109  1  0.83799800  0.39681300  0.66958000  1
  F  F110  1  0.07011700  0.00861000  0.82068600  1
  F  F111  1  0.99139000  0.92988300  0.67931400  1
  F  F112  1  0.60210300  0.00738400  0.05960900  1
  F  F113  1  0.82822000  0.93093400  0.06043100  1
  F  F114  1  0.06906600  0.17178000  0.43956900  1
  F  F115  1  0.99261600  0.39789700  0.44039100  1
  F  F116  1  0.60232500  0.93350600  0.90509700  1
  F  F117  1  0.82783200  0.00858500  0.60222600  1
  F  F118  1  0.06649400  0.39767500  0.59490300  1
  F  F119  1  0.99141500  0.17216800  0.89777400  1
