# generated using pymatgen
data_Al3Ni2Pt
_symmetry_space_group_name_H-M   'P 1'
_cell_length_a   2.96630800
_cell_length_b   2.96630800
_cell_length_c   8.86839600
_cell_angle_alpha   90.00000000
_cell_angle_beta   90.00000000
_cell_angle_gamma   90.00000000
_symmetry_Int_Tables_number   1
_chemical_formula_structural   Al3Ni2Pt
_chemical_formula_sum   'Al3 Ni2 Pt1'
_cell_volume   78.03286698
_cell_formula_units_Z   1
loop_
 _symmetry_equiv_pos_site_id
 _symmetry_equiv_pos_as_xyz
  1  'x, y, z'
loop_
 _atom_site_type_symbol
 _atom_site_label
 _atom_site_symmetry_multiplicity
 _atom_site_fract_x
 _atom_site_fract_y
 _atom_site_fract_z
 _atom_site_occupancy
  Al  Al0  1  0.50000000  0.50000000  0.18374500  1
  Al  Al1  1  0.50000000  0.50000000  0.50000000  1
  Al  Al2  1  0.50000000  0.50000000  0.81625500  1
  Ni  Ni3  1  0.00000000  0.00000000  0.33426500  1
  Ni  Ni4  1  0.00000000  0.00000000  0.66573500  1
  Pt  Pt5  1  0.00000000  0.00000000  0.00000000  1
