# generated using pymatgen
data_AlGa3N4
_symmetry_space_group_name_H-M   'P 1'
_cell_length_a   3.19312100
_cell_length_b   5.19139700
_cell_length_c   5.52885905
_cell_angle_alpha   89.96461022
_cell_angle_beta   90.00000000
_cell_angle_gamma   90.00000000
_symmetry_Int_Tables_number   1
_chemical_formula_structural   AlGa3N4
_chemical_formula_sum   'Al1 Ga3 N4'
_cell_volume   91.65054540
_cell_formula_units_Z   1
loop_
 _symmetry_equiv_pos_site_id
 _symmetry_equiv_pos_as_xyz
  1  'x, y, z'
loop_
 _atom_site_type_symbol
 _atom_site_label
 _atom_site_symmetry_multiplicity
 _atom_site_fract_x
 _atom_site_fract_y
 _atom_site_fract_z
 _atom_site_occupancy
  Al  Al0  1  0.50000000  0.00032200  0.33267200  1
  Ga  Ga1  1  0.50000000  0.49942100  0.66488200  1
  Ga  Ga2  1  0.00000000  0.49925000  0.16861700  1
  Ga  Ga3  1  0.00000000  0.00029800  0.83372600  1
  N  N4  1  0.50000000  0.11937100  0.65884800  1
  N  N5  1  0.00000000  0.11674000  0.17460200  1
  N  N6  1  0.00000000  0.62032500  0.83389000  1
  N  N7  1  0.50000000  0.63187300  0.33276300  1
