# generated using pymatgen
data_Ba3LaV3O12
_symmetry_space_group_name_H-M   'P 1'
_cell_length_a   11.46887953
_cell_length_b   11.46887953
_cell_length_c   9.69917793
_cell_angle_alpha   85.75306078
_cell_angle_beta   85.75306078
_cell_angle_gamma   29.12025647
_symmetry_Int_Tables_number   1
_chemical_formula_structural   Ba3LaV3O12
_chemical_formula_sum   'Ba6 La2 V6 O24'
_cell_volume   619.03266759
_cell_formula_units_Z   2
loop_
 _symmetry_equiv_pos_site_id
 _symmetry_equiv_pos_as_xyz
  1  'x, y, z'
loop_
 _atom_site_type_symbol
 _atom_site_label
 _atom_site_symmetry_multiplicity
 _atom_site_fract_x
 _atom_site_fract_y
 _atom_site_fract_z
 _atom_site_occupancy
  Ba  Ba0  1  0.66181300  0.66181300  0.32488900  1
  Ba  Ba1  1  0.00387900  0.00387900  0.01373800  1
  Ba  Ba2  1  0.33254200  0.33254200  0.65991600  1
  Ba  Ba3  1  0.80136400  0.80136400  0.99417100  1
  Ba  Ba4  1  0.13725100  0.13725100  0.66216400  1
  Ba  Ba5  1  0.19568600  0.19568600  0.01035700  1
  La  La6  1  0.51495100  0.51495100  0.63430000  1
  La  La7  1  0.87762300  0.87762300  0.33216800  1
  V  V8  1  0.60321400  0.60321400  0.98082200  1
  V  V9  1  0.93772600  0.93772600  0.66163600  1
  V  V10  1  0.27399100  0.27399100  0.32146900  1
  V  V11  1  0.73399200  0.73399200  0.66505000  1
  V  V12  1  0.05477400  0.05477400  0.36226200  1
  V  V13  1  0.39715200  0.39715200  0.01481800  1
  O  O14  1  0.98097500  0.49748800  0.77115700  1
  O  O15  1  0.30916700  0.82571900  0.46726400  1
  O  O16  1  0.65478300  0.14464800  0.11385900  1
  O  O17  1  0.49748800  0.98097500  0.77115700  1
  O  O18  1  0.82571900  0.30916700  0.46726400  1
  O  O19  1  0.14464800  0.65478300  0.11385900  1
  O  O20  1  0.66198900  0.66198900  0.60588400  1
  O  O21  1  0.98302500  0.98302500  0.30046900  1
  O  O22  1  0.32634000  0.32634000  0.94962100  1
  O  O23  1  0.34500600  0.84567600  0.88246500  1
  O  O24  1  0.68223000  0.18374500  0.56029300  1
  O  O25  1  0.01618500  0.50982100  0.22153600  1
  O  O26  1  0.84567600  0.34500600  0.88246500  1
  O  O27  1  0.18374500  0.68223000  0.56029300  1
  O  O28  1  0.50982100  0.01618500  0.22153600  1
  O  O29  1  0.67571600  0.67571600  0.04560400  1
  O  O30  1  0.00846100  0.00846100  0.72397300  1
  O  O31  1  0.34612600  0.34612600  0.38013500  1
  O  O32  1  0.22075100  0.22075100  0.46036900  1
  O  O33  1  0.55045800  0.55045800  0.11706300  1
  O  O34  1  0.88167600  0.88167600  0.79102200  1
  O  O35  1  0.10889300  0.10889300  0.22531000  1
  O  O36  1  0.45179300  0.45179300  0.87191600  1
  O  O37  1  0.79377500  0.79377500  0.53176100  1
