# generated using pymatgen
data_Al2GaN3
_symmetry_space_group_name_H-M   'P 1'
_cell_length_a   5.99440380
_cell_length_b   5.99440380
_cell_length_c   7.47097078
_cell_angle_alpha   75.70661874
_cell_angle_beta   75.70661874
_cell_angle_gamma   30.51321006
_symmetry_Int_Tables_number   1
_chemical_formula_structural   Al2GaN3
_chemical_formula_sum   'Al4 Ga2 N6'
_cell_volume   131.76507649
_cell_formula_units_Z   2
loop_
 _symmetry_equiv_pos_site_id
 _symmetry_equiv_pos_as_xyz
  1  'x, y, z'
loop_
 _atom_site_type_symbol
 _atom_site_label
 _atom_site_symmetry_multiplicity
 _atom_site_fract_x
 _atom_site_fract_y
 _atom_site_fract_z
 _atom_site_occupancy
  Al  Al0  1  0.05618900  0.05618900  0.38908000  1
  Al  Al1  1  0.11112200  0.11112200  0.77683400  1
  Al  Al2  1  0.77751100  0.77751100  0.44475600  1
  Al  Al3  1  0.44548900  0.44548900  0.11266400  1
  Ga  Ga4  1  0.72231000  0.72231000  0.05792000  1
  Ga  Ga5  1  0.39037000  0.39037000  0.72174200  1
  N  N6  1  0.85229300  0.85229300  0.18512600  1
  N  N7  1  0.51871800  0.51871800  0.85272400  1
  N  N8  1  0.18213600  0.18213600  0.51532200  1
  N  N9  1  0.23519500  0.23519500  0.90140800  1
  N  N10  1  0.90531000  0.90531000  0.56399600  1
  N  N11  1  0.56799300  0.56799300  0.24322900  1
