# generated using pymatgen
data_Al2Ga2Bi2O9
_symmetry_space_group_name_H-M   'P 1'
_cell_length_a   5.92324200
_cell_length_b   7.90431900
_cell_length_c   8.36208700
_cell_angle_alpha   90.00000000
_cell_angle_beta   90.00000000
_cell_angle_gamma   90.00000000
_symmetry_Int_Tables_number   1
_chemical_formula_structural   Al2Ga2Bi2O9
_chemical_formula_sum   'Al4 Ga4 Bi4 O18'
_cell_volume   391.50617586
_cell_formula_units_Z   2
loop_
 _symmetry_equiv_pos_site_id
 _symmetry_equiv_pos_as_xyz
  1  'x, y, z'
loop_
 _atom_site_type_symbol
 _atom_site_label
 _atom_site_symmetry_multiplicity
 _atom_site_fract_x
 _atom_site_fract_y
 _atom_site_fract_z
 _atom_site_occupancy
  Al  Al0  1  0.50000000  0.85494700  0.15901000  1
  Al  Al1  1  0.50000000  0.14505300  0.84099000  1
  Al  Al2  1  0.50000000  0.35494700  0.34099000  1
  Al  Al3  1  0.50000000  0.64505300  0.65901000  1
  Ga  Ga4  1  0.26161400  0.00000000  0.50000000  1
  Ga  Ga5  1  0.73838600  0.50000000  0.00000000  1
  Ga  Ga6  1  0.73838600  0.00000000  0.50000000  1
  Ga  Ga7  1  0.26161400  0.50000000  0.00000000  1
  Bi  Bi8  1  0.00000000  0.67614900  0.32755500  1
  Bi  Bi9  1  0.00000000  0.32385100  0.67244500  1
  Bi  Bi10  1  0.00000000  0.17614900  0.17244500  1
  Bi  Bi11  1  0.00000000  0.82385100  0.82755500  1
  O  O12  1  0.50000000  0.50000000  0.50000000  1
  O  O13  1  0.50000000  0.00000000  0.00000000  1
  O  O14  1  0.50000000  0.64246300  0.08834400  1
  O  O15  1  0.50000000  0.35753700  0.91165600  1
  O  O16  1  0.50000000  0.14246300  0.41165600  1
  O  O17  1  0.50000000  0.85753700  0.58834400  1
  O  O18  1  0.00000000  0.65110300  0.06299800  1
  O  O19  1  0.00000000  0.34889700  0.93700200  1
  O  O20  1  0.00000000  0.15110300  0.43700200  1
  O  O21  1  0.00000000  0.84889700  0.56299800  1
  O  O22  1  0.25168100  0.12626800  0.71472500  1
  O  O23  1  0.25168100  0.87373200  0.28527500  1
  O  O24  1  0.74831900  0.62626800  0.78527500  1
  O  O25  1  0.74831900  0.37373200  0.21472500  1
  O  O26  1  0.74831900  0.87373200  0.28527500  1
  O  O27  1  0.74831900  0.12626800  0.71472500  1
  O  O28  1  0.25168100  0.37373200  0.21472500  1
  O  O29  1  0.25168100  0.62626800  0.78527500  1
