# generated using pymatgen
data_CsCrNiF6
_symmetry_space_group_name_H-M   'P 1'
_cell_length_a   7.40673614
_cell_length_b   7.40673614
_cell_length_c   7.40673614
_cell_angle_alpha   120.24063567
_cell_angle_beta   120.19243568
_cell_angle_gamma   89.62536170
_symmetry_Int_Tables_number   1
_chemical_formula_structural   CsCrNiF6
_chemical_formula_sum   'Cs2 Cr2 Ni2 F12'
_cell_volume   286.37276723
_cell_formula_units_Z   2
loop_
 _symmetry_equiv_pos_site_id
 _symmetry_equiv_pos_as_xyz
  1  'x, y, z'
loop_
 _atom_site_type_symbol
 _atom_site_label
 _atom_site_symmetry_multiplicity
 _atom_site_fract_x
 _atom_site_fract_y
 _atom_site_fract_z
 _atom_site_occupancy
  Cs  Cs0  1  0.87130500  0.12130500  0.75000000  1
  Cs  Cs1  1  0.12869500  0.87869500  0.25000000  1
  Cr  Cr2  1  0.50000000  0.50000000  0.00000000  1
  Cr  Cr3  1  0.00000000  0.50000000  0.50000000  1
  Ni  Ni4  1  0.50000000  0.50000000  0.50000000  1
  Ni  Ni5  1  0.50000000  0.00000000  0.00000000  1
  F  F6  1  0.81518200  0.56518200  0.25000000  1
  F  F7  1  0.42728400  0.17728400  0.25000000  1
  F  F8  1  0.82702100  0.18791200  0.25923900  1
  F  F9  1  0.42867300  0.56778300  0.24076100  1
  F  F10  1  0.82702100  0.56778300  0.63910900  1
  F  F11  1  0.42867300  0.18791200  0.86089100  1
  F  F12  1  0.18481800  0.43481800  0.75000000  1
  F  F13  1  0.57271600  0.82271600  0.75000000  1
  F  F14  1  0.17297900  0.81208800  0.74076100  1
  F  F15  1  0.57132700  0.43221700  0.75923900  1
  F  F16  1  0.17297900  0.43221700  0.36089100  1
  F  F17  1  0.57132700  0.81208800  0.13910900  1
