# generated using pymatgen
data_AgPd2Au
_symmetry_space_group_name_H-M   'P 1'
_cell_length_a   9.46987424
_cell_length_b   9.46987424
_cell_length_c   9.46987397
_cell_angle_alpha   17.46091703
_cell_angle_beta   17.46091703
_cell_angle_gamma   17.46091682
_symmetry_Int_Tables_number   1
_chemical_formula_structural   AgPd2Au
_chemical_formula_sum   'Ag1 Pd2 Au1'
_cell_volume   66.72878223
_cell_formula_units_Z   1
loop_
 _symmetry_equiv_pos_site_id
 _symmetry_equiv_pos_as_xyz
  1  'x, y, z'
loop_
 _atom_site_type_symbol
 _atom_site_label
 _atom_site_symmetry_multiplicity
 _atom_site_fract_x
 _atom_site_fract_y
 _atom_site_fract_z
 _atom_site_occupancy
  Ag  Ag0  1  0.99803100  0.99803100  0.99803100  1
  Pd  Pd1  1  0.50182900  0.50182900  0.50182900  1
  Pd  Pd2  1  0.24850800  0.24850800  0.24850800  1
  Au  Au3  1  0.75163200  0.75163200  0.75163200  1
