# generated using pymatgen
data_AsSe3(BrF2)3
_symmetry_space_group_name_H-M   'P 1'
_cell_length_a   8.31383900
_cell_length_b   10.38649592
_cell_length_c   11.98962987
_cell_angle_alpha   79.44971246
_cell_angle_beta   87.31674279
_cell_angle_gamma   76.45361186
_symmetry_Int_Tables_number   1
_chemical_formula_structural   AsSe3(BrF2)3
_chemical_formula_sum   'As3 Se9 Br9 F18'
_cell_volume   989.49824462
_cell_formula_units_Z   3
loop_
 _symmetry_equiv_pos_site_id
 _symmetry_equiv_pos_as_xyz
  1  'x, y, z'
loop_
 _atom_site_type_symbol
 _atom_site_label
 _atom_site_symmetry_multiplicity
 _atom_site_fract_x
 _atom_site_fract_y
 _atom_site_fract_z
 _atom_site_occupancy
  As  As0  1  0.49973700  0.00020200  0.00032100  1
  As  As1  1  0.30363100  0.57194400  0.68828500  1
  As  As2  1  0.69788500  0.42722200  0.31113200  1
  Se  Se3  1  0.20026300  0.64467100  0.30794300  1
  Se  Se4  1  0.79937500  0.35564300  0.69211200  1
  Se  Se5  1  0.27419800  0.67018300  0.08645400  1
  Se  Se6  1  0.72535700  0.33064900  0.91194600  1
  Se  Se7  1  0.53254900  0.91098100  0.66543500  1
  Se  Se8  1  0.47586000  0.10350100  0.36161600  1
  Se  Se9  1  0.93519400  0.74654500  0.31122500  1
  Se  Se10  1  0.06444500  0.25175200  0.68882200  1
  Se  Se11  1  0.53887900  0.11641200  0.57547400  1
  Br  Br12  1  0.80192100  0.77736400  0.65222600  1
  Br  Br13  1  0.20083000  0.22032700  0.34712900  1
  Br  Br14  1  0.01961500  0.79352800  0.02099900  1
  Br  Br15  1  0.97986900  0.20667000  0.97855600  1
  Br  Br16  1  0.91602600  0.97629900  0.32336200  1
  Br  Br17  1  0.07619000  0.02344200  0.67804800  1
  Br  Br18  1  0.27353300  0.45547900  0.05946800  1
  Br  Br19  1  0.72653600  0.54492500  0.94002300  1
  Br  Br20  1  0.45450200  0.88338900  0.39708300  1
  F  F21  1  0.48431600  0.61779200  0.62561900  1
  F  F22  1  0.51742400  0.37688300  0.37415100  1
  F  F23  1  0.43328900  0.43382000  0.78023900  1
  F  F24  1  0.56687100  0.56450900  0.22064300  1
  F  F25  1  0.63642600  0.07458700  0.90347600  1
  F  F26  1  0.36293300  0.92553700  0.09713600  1
  F  F27  1  0.58566700  0.84166600  0.96008600  1
  F  F28  1  0.41402900  0.15837800  0.04127400  1
  F  F29  1  0.30660400  0.46518300  0.58774200  1
  F  F30  1  0.69215800  0.53295300  0.41217100  1
  F  F31  1  0.12574700  0.52261200  0.75234400  1
  F  F32  1  0.87579500  0.47655500  0.24744000  1
  F  F33  1  0.30157900  0.67618700  0.79011100  1
  F  F34  1  0.69931100  0.32276400  0.20988300  1
  F  F35  1  0.34940900  0.03665200  0.89257300  1
  F  F36  1  0.64979900  0.96382000  0.10857800  1
  F  F37  1  0.17813700  0.70798600  0.59602000  1
  F  F38  1  0.82410800  0.29098600  0.40285400  1
