# generated using pymatgen
data_La6Sm2Cr3Fe5O24
_symmetry_space_group_name_H-M   'P 1'
_cell_length_a   7.87506200
_cell_length_b   7.87413000
_cell_length_c   7.87526910
_cell_angle_alpha   89.99090574
_cell_angle_beta   90.00000000
_cell_angle_gamma   90.00000000
_symmetry_Int_Tables_number   1
_chemical_formula_structural   La6Sm2Cr3Fe5O24
_chemical_formula_sum   'La6 Sm2 Cr3 Fe5 O24'
_cell_volume   488.33961832
_cell_formula_units_Z   1
loop_
 _symmetry_equiv_pos_site_id
 _symmetry_equiv_pos_as_xyz
  1  'x, y, z'
loop_
 _atom_site_type_symbol
 _atom_site_label
 _atom_site_symmetry_multiplicity
 _atom_site_fract_x
 _atom_site_fract_y
 _atom_site_fract_z
 _atom_site_occupancy
  La  La0  1  0.24971000  0.74912300  0.75029600  1
  La  La1  1  0.75029000  0.74912300  0.75029600  1
  La  La2  1  0.24969100  0.25083500  0.75029100  1
  La  La3  1  0.75030900  0.25083500  0.75029100  1
  La  La4  1  0.24970000  0.25084500  0.24968600  1
  La  La5  1  0.75030000  0.25084500  0.24968600  1
  Sm  Sm6  1  0.24969700  0.74912000  0.24969700  1
  Sm  Sm7  1  0.75030300  0.74912000  0.24969700  1
  Cr  Cr8  1  0.00000000  0.50054100  0.00057800  1
  Cr  Cr9  1  0.50000000  0.50050000  0.00053800  1
  Cr  Cr10  1  0.00000000  0.50054000  0.49947500  1
  Fe  Fe11  1  0.00000000  0.99935600  0.00060200  1
  Fe  Fe12  1  0.50000000  0.99934800  0.00060300  1
  Fe  Fe13  1  0.00000000  0.99935800  0.49937300  1
  Fe  Fe14  1  0.50000000  0.99936900  0.49937900  1
  Fe  Fe15  1  0.50000000  0.50060900  0.49935000  1
  O  O16  1  0.00000000  0.99985600  0.75012300  1
  O  O17  1  0.50000000  0.99987600  0.75024600  1
  O  O18  1  0.00000000  0.50007500  0.75020200  1
  O  O19  1  0.50000000  0.50008300  0.75054000  1
  O  O20  1  0.00000000  0.99775400  0.24986200  1
  O  O21  1  0.50000000  0.99777700  0.24975700  1
  O  O22  1  0.00000000  0.50256200  0.24982300  1
  O  O23  1  0.50000000  0.50239000  0.24939500  1
  O  O24  1  0.00000000  0.74898500  0.00238200  1
  O  O25  1  0.50000000  0.74912200  0.00238700  1
  O  O26  1  0.00000000  0.25095900  0.00010100  1
  O  O27  1  0.50000000  0.25077500  0.00009700  1
  O  O28  1  0.00000000  0.74913400  0.49762000  1
  O  O29  1  0.50000000  0.74932300  0.49776100  1
  O  O30  1  0.00000000  0.25079600  0.49988200  1
  O  O31  1  0.50000000  0.25069200  0.49988700  1
  O  O32  1  0.24987100  0.99879000  0.00117200  1
  O  O33  1  0.75012900  0.99879000  0.00117200  1
  O  O34  1  0.24981200  0.50133300  0.00133900  1
  O  O35  1  0.75018800  0.50133300  0.00133900  1
  O  O36  1  0.24976000  0.99880600  0.49882100  1
  O  O37  1  0.75024000  0.99880600  0.49882100  1
  O  O38  1  0.24942600  0.50125900  0.49871800  1
  O  O39  1  0.75057400  0.50125900  0.49871800  1
