# generated using pymatgen
data_Ba2Pb(SO4)3
_symmetry_space_group_name_H-M   'P 1'
_cell_length_a   5.54427500
_cell_length_b   8.87033600
_cell_length_c   21.61476384
_cell_angle_alpha   89.71529812
_cell_angle_beta   90.00000000
_cell_angle_gamma   90.00000000
_symmetry_Int_Tables_number   1
_chemical_formula_structural   Ba2Pb(SO4)3
_chemical_formula_sum   'Ba8 Pb4 S12 O48'
_cell_volume   1062.99193033
_cell_formula_units_Z   4
loop_
 _symmetry_equiv_pos_site_id
 _symmetry_equiv_pos_as_xyz
  1  'x, y, z'
loop_
 _atom_site_type_symbol
 _atom_site_label
 _atom_site_symmetry_multiplicity
 _atom_site_fract_x
 _atom_site_fract_y
 _atom_site_fract_z
 _atom_site_occupancy
  Ba  Ba0  1  0.00000000  0.18564600  0.61421700  1
  Ba  Ba1  1  0.00000000  0.18550700  0.28016600  1
  Ba  Ba2  1  0.50000000  0.31870700  0.78109000  1
  Ba  Ba3  1  0.50000000  0.31799200  0.44733100  1
  Ba  Ba4  1  0.50000000  0.31665000  0.11373600  1
  Ba  Ba5  1  0.50000000  0.81559700  0.71990800  1
  Ba  Ba6  1  0.50000000  0.81535200  0.38604400  1
  Ba  Ba7  1  0.50000000  0.81677400  0.05220000  1
  Pb  Pb8  1  0.00000000  0.69455800  0.89005400  1
  Pb  Pb9  1  0.00000000  0.68893200  0.55527300  1
  Pb  Pb10  1  0.00000000  0.68918400  0.22183600  1
  Pb  Pb11  1  0.00000000  0.19357000  0.94577700  1
  S  S12  1  0.50000000  0.93566400  0.89523900  1
  S  S13  1  0.50000000  0.93117000  0.56220400  1
  S  S14  1  0.50000000  0.93081900  0.22857600  1
  S  S15  1  0.50000000  0.43559000  0.93788800  1
  S  S16  1  0.50000000  0.44177900  0.60379500  1
  S  S17  1  0.50000000  0.44181800  0.27037000  1
  S  S18  1  0.00000000  0.06151200  0.77242300  1
  S  S19  1  0.00000000  0.06191500  0.43755500  1
  S  S20  1  0.00000000  0.06280000  0.10284200  1
  S  S21  1  0.00000000  0.56389800  0.72969200  1
  S  S22  1  0.00000000  0.56378300  0.39612900  1
  S  S23  1  0.00000000  0.56202600  0.06176800  1
  O  O24  1  0.50000000  0.08595300  0.86624200  1
  O  O25  1  0.50000000  0.08410500  0.53500200  1
  O  O26  1  0.50000000  0.08386600  0.20153800  1
  O  O27  1  0.50000000  0.58559000  0.96676200  1
  O  O28  1  0.50000000  0.58897800  0.63468400  1
  O  O29  1  0.50000000  0.58895900  0.30135000  1
  O  O30  1  0.00000000  0.90866500  0.80005000  1
  O  O31  1  0.00000000  0.91062400  0.46655000  1
  O  O32  1  0.00000000  0.91117900  0.13184300  1
  O  O33  1  0.00000000  0.41163700  0.70223700  1
  O  O34  1  0.00000000  0.41168800  0.36861900  1
  O  O35  1  0.00000000  0.40955700  0.03407900  1
  O  O36  1  0.27841700  0.91927600  0.93584000  1
  O  O37  1  0.27952800  0.91256400  0.60269000  1
  O  O38  1  0.27946800  0.91205300  0.26904500  1
  O  O39  1  0.72150200  0.41979600  0.89738600  1
  O  O40  1  0.72019800  0.42839100  0.56309800  1
  O  O41  1  0.72026900  0.42862500  0.22972800  1
  O  O42  1  0.78177100  0.08063600  0.73176600  1
  O  O43  1  0.78132800  0.07918800  0.39687800  1
  O  O44  1  0.78124200  0.08035400  0.06227600  1
  O  O45  1  0.21865300  0.58245900  0.76999400  1
  O  O46  1  0.21850200  0.58233300  0.43649800  1
  O  O47  1  0.21842600  0.58075300  0.10202300  1
  O  O48  1  0.21822900  0.08063600  0.73176600  1
  O  O49  1  0.21867200  0.07918800  0.39687800  1
  O  O50  1  0.21875800  0.08035400  0.06227600  1
  O  O51  1  0.78134700  0.58245900  0.76999400  1
  O  O52  1  0.78149800  0.58233300  0.43649800  1
  O  O53  1  0.78157400  0.58075300  0.10202300  1
  O  O54  1  0.72158300  0.91927600  0.93584000  1
  O  O55  1  0.72047200  0.91256400  0.60269000  1
  O  O56  1  0.72053200  0.91205300  0.26904500  1
  O  O57  1  0.27849800  0.41979600  0.89738600  1
  O  O58  1  0.27980200  0.42839100  0.56309800  1
  O  O59  1  0.27973100  0.42862500  0.22972800  1
  O  O60  1  0.50000000  0.81015100  0.84984000  1
  O  O61  1  0.50000000  0.80957800  0.51523500  1
  O  O62  1  0.50000000  0.80936400  0.18154500  1
  O  O63  1  0.50000000  0.30961900  0.98363700  1
  O  O64  1  0.50000000  0.31307300  0.64858000  1
  O  O65  1  0.50000000  0.31306800  0.31514200  1
  O  O66  1  0.00000000  0.18328200  0.82004100  1
  O  O67  1  0.00000000  0.18563500  0.48398900  1
  O  O68  1  0.00000000  0.18585800  0.14971400  1
  O  O69  1  0.00000000  0.68553500  0.68135200  1
  O  O70  1  0.00000000  0.68562500  0.34787000  1
  O  O71  1  0.00000000  0.68431700  0.01354000  1
