# generated using pymatgen
data_CsU(PO4)2
_symmetry_space_group_name_H-M   'P 1'
_cell_length_a   5.64429600
_cell_length_b   8.38472500
_cell_length_c   9.13958299
_cell_angle_alpha   67.16859152
_cell_angle_beta   90.00000000
_cell_angle_gamma   90.00000000
_symmetry_Int_Tables_number   1
_chemical_formula_structural   CsU(PO4)2
_chemical_formula_sum   'Cs2 U2 P4 O16'
_cell_volume   398.64955873
_cell_formula_units_Z   2
loop_
 _symmetry_equiv_pos_site_id
 _symmetry_equiv_pos_as_xyz
  1  'x, y, z'
loop_
 _atom_site_type_symbol
 _atom_site_label
 _atom_site_symmetry_multiplicity
 _atom_site_fract_x
 _atom_site_fract_y
 _atom_site_fract_z
 _atom_site_occupancy
  Cs  Cs0  1  0.25000000  0.99717700  0.74899800  1
  Cs  Cs1  1  0.75000000  0.00282300  0.25100200  1
  U  U2  1  0.25000000  0.48285400  0.27758500  1
  U  U3  1  0.75000000  0.51714600  0.72241500  1
  P  P4  1  0.25000000  0.65726900  0.51619600  1
  P  P5  1  0.75000000  0.34273100  0.48380400  1
  P  P6  1  0.75000000  0.71410800  0.01723600  1
  P  P7  1  0.25000000  0.28589200  0.98276400  1
  O  O8  1  0.25000000  0.46073500  0.55532900  1
  O  O9  1  0.75000000  0.53926500  0.44467100  1
  O  O10  1  0.25000000  0.74102000  0.33298000  1
  O  O11  1  0.75000000  0.25898000  0.66702000  1
  O  O12  1  0.75000000  0.90455200  0.97384700  1
  O  O13  1  0.25000000  0.09544800  0.02615300  1
  O  O14  1  0.47116800  0.71095900  0.59034000  1
  O  O15  1  0.97116800  0.28904100  0.40966000  1
  O  O16  1  0.52883200  0.28904100  0.40966000  1
  O  O17  1  0.02883200  0.71095900  0.59034000  1
  O  O18  1  0.52585100  0.62089800  0.11671600  1
  O  O19  1  0.02585100  0.37910200  0.88328400  1
  O  O20  1  0.47414900  0.37910200  0.88328400  1
  O  O21  1  0.97414900  0.62089800  0.11671600  1
  O  O22  1  0.75000000  0.67013100  0.86464900  1
  O  O23  1  0.25000000  0.32986900  0.13535100  1
