# generated using pymatgen
data_AlCr3O8
_symmetry_space_group_name_H-M   'P 1'
_cell_length_a   5.83335793
_cell_length_b   5.83335793
_cell_length_c   5.83335826
_cell_angle_alpha   60.48004926
_cell_angle_beta   60.48004926
_cell_angle_gamma   60.48005918
_symmetry_Int_Tables_number   1
_chemical_formula_structural   AlCr3O8
_chemical_formula_sum   'Al1 Cr3 O8'
_cell_volume   141.88218032
_cell_formula_units_Z   1
loop_
 _symmetry_equiv_pos_site_id
 _symmetry_equiv_pos_as_xyz
  1  'x, y, z'
loop_
 _atom_site_type_symbol
 _atom_site_label
 _atom_site_symmetry_multiplicity
 _atom_site_fract_x
 _atom_site_fract_y
 _atom_site_fract_z
 _atom_site_occupancy
  Al  Al0  1  0.50000000  0.50000000  0.50000000  1
  Cr  Cr1  1  0.00000000  0.50000000  0.50000000  1
  Cr  Cr2  1  0.50000000  0.50000000  0.00000000  1
  Cr  Cr3  1  0.50000000  0.00000000  0.50000000  1
  O  O4  1  0.26495400  0.26495400  0.26495400  1
  O  O5  1  0.69583200  0.26831000  0.26831000  1
  O  O6  1  0.26831000  0.26831000  0.69583200  1
  O  O7  1  0.26831000  0.69583200  0.26831000  1
  O  O8  1  0.73504600  0.73504600  0.73504600  1
  O  O9  1  0.30416800  0.73169000  0.73169000  1
  O  O10  1  0.73169000  0.73169000  0.30416800  1
  O  O11  1  0.73169000  0.30416800  0.73169000  1
