# generated using pymatgen
data_Fe2P2H6C2O13
_symmetry_space_group_name_H-M   'P 1'
_cell_length_a   4.95633340
_cell_length_b   7.48925710
_cell_length_c   17.85686500
_cell_angle_alpha   90.00000000
_cell_angle_beta   90.00000000
_cell_angle_gamma   108.86505236
_symmetry_Int_Tables_number   1
_chemical_formula_structural   Fe2P2H6C2O13
_chemical_formula_sum   'Fe4 P4 H12 C4 O26'
_cell_volume   627.22793808
_cell_formula_units_Z   2
loop_
 _symmetry_equiv_pos_site_id
 _symmetry_equiv_pos_as_xyz
  1  'x, y, z'
loop_
 _atom_site_type_symbol
 _atom_site_label
 _atom_site_symmetry_multiplicity
 _atom_site_fract_x
 _atom_site_fract_y
 _atom_site_fract_z
 _atom_site_occupancy
  Fe  Fe0  1  0.92207900  0.93549600  0.15303800  1
  Fe  Fe1  1  0.07792100  0.56450400  0.65303800  1
  Fe  Fe2  1  0.07855100  0.06441100  0.84734500  1
  Fe  Fe3  1  0.92144900  0.43558900  0.34734500  1
  P  P4  1  0.28178000  0.64411000  0.18887200  1
  P  P5  1  0.71822000  0.85589000  0.68887200  1
  P  P6  1  0.71860500  0.35700700  0.81199100  1
  P  P7  1  0.28139500  0.14299300  0.31199100  1
  H  H8  1  0.68739600  0.19297000  0.20165700  1
  H  H9  1  0.31260400  0.30703000  0.70165700  1
  H  H10  1  0.29793700  0.80192300  0.80037100  1
  H  H11  1  0.70206300  0.69807700  0.30037100  1
  H  H12  1  0.64079800  0.18146800  0.11315800  1
  H  H13  1  0.35920200  0.31853200  0.61315800  1
  H  H14  1  0.40847000  0.84573600  0.88355300  1
  H  H15  1  0.59153000  0.65426400  0.38355300  1
  H  H16  1  0.30536800  0.49931700  0.14204900  1
  H  H17  1  0.69463200  0.00068300  0.64204900  1
  H  H18  1  0.69167500  0.50033800  0.85900600  1
  H  H19  1  0.30832500  0.99966200  0.35900600  1
  C  C20  1  0.14983700  0.07204300  0.00719700  1
  C  C21  1  0.85016300  0.42795700  0.50719700  1
  C  C22  1  0.84760200  0.92952600  0.99357300  1
  C  C23  1  0.15239800  0.57047400  0.49357300  1
  O  O24  1  0.13877400  0.05124000  0.23961400  1
  O  O25  1  0.86122600  0.44876000  0.73961400  1
  O  O26  1  0.86250800  0.94539700  0.76162200  1
  O  O27  1  0.13749200  0.55460300  0.26162200  1
  O  O28  1  0.76465700  0.16432800  0.15352400  1
  O  O29  1  0.23534300  0.33567200  0.65352400  1
  O  O30  1  0.24415000  0.83607600  0.85061600  1
  O  O31  1  0.75585000  0.66392400  0.35061600  1
  O  O32  1  0.70760000  0.85488900  0.05074200  1
  O  O33  1  0.29240000  0.64511100  0.55074200  1
  O  O34  1  0.29187900  0.14636000  0.94996200  1
  O  O35  1  0.70812100  0.35364000  0.44996200  1
  O  O36  1  0.22838900  0.10208000  0.07460800  1
  O  O37  1  0.77161100  0.39792000  0.57460800  1
  O  O38  1  0.76729400  0.90240100  0.92588500  1
  O  O39  1  0.23270600  0.59759900  0.42588500  1
  O  O40  1  0.58755400  0.77268200  0.20906200  1
  O  O41  1  0.41244600  0.72731800  0.70906200  1
  O  O42  1  0.41414800  0.22586200  0.79167000  1
  O  O43  1  0.58585200  0.27413800  0.29167000  1
  O  O44  1  0.10649400  0.74156500  0.14391100  1
  O  O45  1  0.89350600  0.75843500  0.64391100  1
  O  O46  1  0.89512100  0.25955200  0.85669900  1
  O  O47  1  0.10487900  0.24044800  0.35669900  1
  O  O48  1  0.75803900  0.38462300  0.01797500  1
  O  O49  1  0.24196100  0.11537700  0.51797500  1
