# generated using pymatgen
data_Ag2HgI4
_symmetry_space_group_name_H-M   'P 1'
_cell_length_a   8.07509465
_cell_length_b   8.07509465
_cell_length_c   8.07509465
_cell_angle_alpha   131.56932244
_cell_angle_beta   131.56932244
_cell_angle_gamma   70.91009173
_symmetry_Int_Tables_number   1
_chemical_formula_structural   Ag2HgI4
_chemical_formula_sum   'Ag2 Hg1 I4'
_cell_volume   288.63806552
_cell_formula_units_Z   1
loop_
 _symmetry_equiv_pos_site_id
 _symmetry_equiv_pos_as_xyz
  1  'x, y, z'
loop_
 _atom_site_type_symbol
 _atom_site_label
 _atom_site_symmetry_multiplicity
 _atom_site_fract_x
 _atom_site_fract_y
 _atom_site_fract_z
 _atom_site_occupancy
  Ag  Ag0  1  0.75000000  0.25000000  0.50000000  1
  Ag  Ag1  1  0.25000000  0.75000000  0.50000000  1
  Hg  Hg2  1  0.50000000  0.50000000  0.00000000  1
  I  I3  1  0.37360400  0.87604900  0.00000000  1
  I  I4  1  0.12395100  0.12395100  0.49755500  1
  I  I5  1  0.87604900  0.37360400  0.00000000  1
  I  I6  1  0.62639600  0.62639600  0.50244500  1
