# generated using pymatgen
data_Ag6P6O19
_symmetry_space_group_name_H-M   'P 1'
_cell_length_a   8.95651253
_cell_length_b   8.95651253
_cell_length_c   8.95651251
_cell_angle_alpha   114.07068519
_cell_angle_beta   114.07068519
_cell_angle_gamma   114.07068440
_symmetry_Int_Tables_number   1
_chemical_formula_structural   Ag6P6O19
_chemical_formula_sum   'Ag6 P6 O19'
_cell_volume   434.21867895
_cell_formula_units_Z   1
loop_
 _symmetry_equiv_pos_site_id
 _symmetry_equiv_pos_as_xyz
  1  'x, y, z'
loop_
 _atom_site_type_symbol
 _atom_site_label
 _atom_site_symmetry_multiplicity
 _atom_site_fract_x
 _atom_site_fract_y
 _atom_site_fract_z
 _atom_site_occupancy
  Ag  Ag0  1  0.84202300  0.37924000  0.51858800  1
  Ag  Ag1  1  0.37924000  0.51858800  0.84202300  1
  Ag  Ag2  1  0.51858800  0.84202300  0.37924000  1
  Ag  Ag3  1  0.15804600  0.62056600  0.48130100  1
  Ag  Ag4  1  0.62056600  0.48130100  0.15804600  1
  Ag  Ag5  1  0.48130100  0.15804600  0.62056600  1
  P  P6  1  0.02370900  0.26803400  0.89793100  1
  P  P7  1  0.26803400  0.89793100  0.02370900  1
  P  P8  1  0.89793100  0.02370900  0.26803400  1
  P  P9  1  0.97636500  0.73198800  0.10214100  1
  P  P10  1  0.73198800  0.10214100  0.97636500  1
  P  P11  1  0.10214100  0.97636500  0.73198800  1
  O  O12  1  0.45969000  0.05856100  0.27466200  1
  O  O13  1  0.05856100  0.27466200  0.45969000  1
  O  O14  1  0.27466200  0.45969000  0.05856100  1
  O  O15  1  0.54031000  0.94115500  0.72515800  1
  O  O16  1  0.94115500  0.72515800  0.54031000  1
  O  O17  1  0.72515800  0.54031000  0.94115500  1
  O  O18  1  0.97154600  0.25396700  0.04690400  1
  O  O19  1  0.25396700  0.04690400  0.97154600  1
  O  O20  1  0.04690400  0.97154600  0.25396700  1
  O  O21  1  0.02832100  0.74599000  0.95296800  1
  O  O22  1  0.74599000  0.95296800  0.02832100  1
  O  O23  1  0.95296800  0.02832100  0.74599000  1
  O  O24  1  0.86322000  0.25909300  0.73712300  1
  O  O25  1  0.25909300  0.73712300  0.86322000  1
  O  O26  1  0.73712300  0.86322000  0.25909300  1
  O  O27  1  0.13664800  0.74079200  0.26270800  1
  O  O28  1  0.74079200  0.26270800  0.13664800  1
  O  O29  1  0.26270800  0.13664800  0.74079200  1
  O  O30  1  0.47925400  0.47925400  0.47925400  1
