# generated using pymatgen
data_Ce19Ga13
_symmetry_space_group_name_H-M   'P 1'
_cell_length_a   8.29186400
_cell_length_b   8.29186400
_cell_length_c   11.60307500
_cell_angle_alpha   90.00000000
_cell_angle_beta   90.00000000
_cell_angle_gamma   90.00000000
_symmetry_Int_Tables_number   1
_chemical_formula_structural   Ce19Ga13
_chemical_formula_sum   'Ce19 Ga13'
_cell_volume   797.76952135
_cell_formula_units_Z   1
loop_
 _symmetry_equiv_pos_site_id
 _symmetry_equiv_pos_as_xyz
  1  'x, y, z'
loop_
 _atom_site_type_symbol
 _atom_site_label
 _atom_site_symmetry_multiplicity
 _atom_site_fract_x
 _atom_site_fract_y
 _atom_site_fract_z
 _atom_site_occupancy
  Ce  Ce0  1  0.91609000  0.41727100  0.41357300  1
  Ce  Ce1  1  0.56565200  0.40778000  0.90985900  1
  Ce  Ce2  1  0.93434800  0.09222000  0.90985900  1
  Ce  Ce3  1  0.58391000  0.08272900  0.41357300  1
  Ce  Ce4  1  0.40778000  0.93434800  0.90985900  1
  Ce  Ce5  1  0.08272900  0.91609000  0.41357300  1
  Ce  Ce6  1  0.41727100  0.58391000  0.41357300  1
  Ce  Ce7  1  0.09222000  0.56565200  0.90985900  1
  Ce  Ce8  1  0.09161000  0.56664400  0.58873000  1
  Ce  Ce9  1  0.41743100  0.58376000  0.08571700  1
  Ce  Ce10  1  0.08256900  0.91624000  0.08571700  1
  Ce  Ce11  1  0.40839000  0.93335600  0.58873000  1
  Ce  Ce12  1  0.58376000  0.08256900  0.08571700  1
  Ce  Ce13  1  0.93335600  0.09161000  0.58873000  1
  Ce  Ce14  1  0.56664400  0.40839000  0.58873000  1
  Ce  Ce15  1  0.91624000  0.41743100  0.08571700  1
  Ce  Ce16  1  0.25000000  0.25000000  0.25253700  1
  Ce  Ce17  1  0.75000000  0.75000000  0.25142200  1
  Ce  Ce18  1  0.75000000  0.75000000  0.75166500  1
  Ga  Ga19  1  0.12260100  0.62064900  0.24990100  1
  Ga  Ga20  1  0.38331100  0.63606800  0.74939900  1
  Ga  Ga21  1  0.11668900  0.86393200  0.74939900  1
  Ga  Ga22  1  0.37739900  0.87935100  0.24990100  1
  Ga  Ga23  1  0.63606800  0.11668900  0.74939900  1
  Ga  Ga24  1  0.87935100  0.12260100  0.24990100  1
  Ga  Ga25  1  0.62064900  0.37739900  0.24990100  1
  Ga  Ga26  1  0.86393200  0.38331100  0.74939900  1
  Ga  Ga27  1  0.25000000  0.25000000  0.51130500  1
  Ga  Ga28  1  0.25000000  0.25000000  0.99175700  1
  Ga  Ga29  1  0.75000000  0.75000000  0.50136200  1
  Ga  Ga30  1  0.75000000  0.75000000  0.00153600  1
  Ga  Ga31  1  0.25000000  0.25000000  0.74969800  1
