# generated using pymatgen
data_AgMoAsO6
_symmetry_space_group_name_H-M   'P 1'
_cell_length_a   6.64904700
_cell_length_b   7.33854600
_cell_length_c   10.33176700
_cell_angle_alpha   90.00000000
_cell_angle_beta   90.00000000
_cell_angle_gamma   90.00000000
_symmetry_Int_Tables_number   1
_chemical_formula_structural   AgMoAsO6
_chemical_formula_sum   'Ag4 Mo4 As4 O24'
_cell_volume   504.13172355
_cell_formula_units_Z   4
loop_
 _symmetry_equiv_pos_site_id
 _symmetry_equiv_pos_as_xyz
  1  'x, y, z'
loop_
 _atom_site_type_symbol
 _atom_site_label
 _atom_site_symmetry_multiplicity
 _atom_site_fract_x
 _atom_site_fract_y
 _atom_site_fract_z
 _atom_site_occupancy
  Ag  Ag0  1  0.51964000  0.80561900  0.50563600  1
  Ag  Ag1  1  0.98036000  0.19438100  0.00563600  1
  Ag  Ag2  1  0.01964000  0.69438100  0.49436400  1
  Ag  Ag3  1  0.48036000  0.30561900  0.99436400  1
  Mo  Mo4  1  0.25172900  0.80131900  0.82972000  1
  Mo  Mo5  1  0.24827100  0.19868100  0.32972000  1
  Mo  Mo6  1  0.75172900  0.69868100  0.17028000  1
  Mo  Mo7  1  0.74827100  0.30131900  0.67028000  1
  As  As8  1  0.24987700  0.21286800  0.65906200  1
  As  As9  1  0.25012300  0.78713200  0.15906200  1
  As  As10  1  0.74987700  0.28713200  0.34093800  1
  As  As11  1  0.75012300  0.71286800  0.84093800  1
  O  O12  1  0.54490500  0.85834100  0.84153100  1
  O  O13  1  0.95509500  0.14165900  0.34153100  1
  O  O14  1  0.04490400  0.64165900  0.15846900  1
  O  O15  1  0.45509500  0.35834100  0.65846900  1
  O  O16  1  0.45550600  0.64216400  0.15672700  1
  O  O17  1  0.04449400  0.35783600  0.65672700  1
  O  O18  1  0.95550600  0.85783600  0.84327300  1
  O  O19  1  0.54449400  0.14216400  0.34327300  1
  O  O20  1  0.25093500  0.75170100  0.66158800  1
  O  O21  1  0.24906500  0.24829900  0.16158800  1
  O  O22  1  0.75093500  0.74829900  0.33841200  1
  O  O23  1  0.74906500  0.25170100  0.83841200  1
  O  O24  1  0.25517300  0.58422200  0.89829400  1
  O  O25  1  0.24482700  0.41577800  0.39829400  1
  O  O26  1  0.75517300  0.91577800  0.10170600  1
  O  O27  1  0.74482700  0.08422200  0.60170600  1
  O  O28  1  0.24979800  0.09985300  0.80415500  1
  O  O29  1  0.25020200  0.90014700  0.30415500  1
  O  O30  1  0.74979800  0.40014700  0.19584500  1
  O  O31  1  0.75020200  0.59985300  0.69584500  1
  O  O32  1  0.25432100  0.07546500  0.52507300  1
  O  O33  1  0.24567900  0.92453500  0.02507300  1
  O  O34  1  0.75432100  0.42453500  0.47492700  1
  O  O35  1  0.74567900  0.57546500  0.97492700  1
