# generated using pymatgen
data_Ba13B30(PbO30)2
_symmetry_space_group_name_H-M   'P 1'
_cell_length_a   7.87145594
_cell_length_b   7.87145594
_cell_length_c   30.12935862
_cell_angle_alpha   85.80960899
_cell_angle_beta   85.80960899
_cell_angle_gamma   55.00806080
_symmetry_Int_Tables_number   1
_chemical_formula_structural   Ba13B30(PbO30)2
_chemical_formula_sum   'Ba13 B30 Pb2 O60'
_cell_volume   1524.15300696
_cell_formula_units_Z   1
loop_
 _symmetry_equiv_pos_site_id
 _symmetry_equiv_pos_as_xyz
  1  'x, y, z'
loop_
 _atom_site_type_symbol
 _atom_site_label
 _atom_site_symmetry_multiplicity
 _atom_site_fract_x
 _atom_site_fract_y
 _atom_site_fract_z
 _atom_site_occupancy
  Ba  Ba0  1  0.87747800  0.47813000  0.76007300  1
  Ba  Ba1  1  0.47736000  0.07738900  0.96038600  1
  Ba  Ba2  1  0.07735200  0.67746600  0.16041600  1
  Ba  Ba3  1  0.67646100  0.27593400  0.36079900  1
  Ba  Ba4  1  0.27660800  0.87658400  0.56046900  1
  Ba  Ba5  1  0.92261100  0.52264000  0.03961400  1
  Ba  Ba6  1  0.52187000  0.12252200  0.23992700  1
  Ba  Ba7  1  0.12341600  0.72339200  0.43953100  1
  Ba  Ba8  1  0.72406600  0.32353900  0.63920100  1
  Ba  Ba9  1  0.32253400  0.92264800  0.83958400  1
  Ba  Ba10  1  0.60016500  0.20000700  0.79997400  1
  Ba  Ba11  1  0.19997500  0.80002500  0.00000000  1
  Ba  Ba12  1  0.79999300  0.39983500  0.20002600  1
  B  B13  1  0.10516900  0.55885000  0.92637700  1
  B  B14  1  0.70517200  0.15881500  0.12639000  1
  B  B15  1  0.30524200  0.76221500  0.32659700  1
  B  B16  1  0.90372800  0.36322200  0.52651600  1
  B  B17  1  0.50366500  0.95977200  0.72631200  1
  B  B18  1  0.11466500  0.47138000  0.84841900  1
  B  B19  1  0.71468300  0.07140100  0.04843000  1
  B  B20  1  0.31483700  0.67130900  0.24875400  1
  B  B21  1  0.91888400  0.27020400  0.44866900  1
  B  B22  1  0.51875700  0.87024500  0.64832600  1
  B  B23  1  0.81272900  0.80259400  0.87770500  1
  B  B24  1  0.41274900  0.40261100  0.07771100  1
  B  B25  1  0.01234700  0.00240000  0.27774300  1
  B  B26  1  0.61389900  0.60327500  0.47677900  1
  B  B27  1  0.21426000  0.20346200  0.67674500  1
  B  B28  1  0.59738900  0.58725100  0.92228900  1
  B  B29  1  0.19740600  0.18727100  0.12229500  1
  B  B30  1  0.79653800  0.78574000  0.32325500  1
  B  B31  1  0.39672500  0.38610100  0.52322100  1
  B  B32  1  0.99760000  0.98765300  0.72225700  1
  B  B33  1  0.84118500  0.29482800  0.87361000  1
  B  B34  1  0.44115000  0.89483100  0.07362300  1
  B  B35  1  0.04022800  0.49633500  0.27368800  1
  B  B36  1  0.63677800  0.09627200  0.47348400  1
  B  B37  1  0.23778500  0.69475800  0.67340300  1
  B  B38  1  0.92859900  0.28531700  0.95157000  1
  B  B39  1  0.52862000  0.88533500  0.15158100  1
  B  B40  1  0.12975500  0.48124300  0.35167400  1
  B  B41  1  0.72979600  0.08111600  0.55133100  1
  B  B42  1  0.32869100  0.68516300  0.75124600  1
  Pb  Pb43  1  0.39990700  0.00007300  0.40001200  1
  Pb  Pb44  1  0.99992700  0.60009300  0.59998800  1
  O  O45  1  0.20634600  0.42720900  0.89001600  1
  O  O46  1  0.80634200  0.02719700  0.09002500  1
  O  O47  1  0.40571100  0.62795700  0.29053200  1
  O  O48  1  0.00594500  0.22784200  0.49076400  1
  O  O49  1  0.60661400  0.82705500  0.69024500  1
  O  O50  1  0.92165500  0.66457600  0.84273000  1
  O  O51  1  0.52171300  0.26461300  0.04273600  1
  O  O52  1  0.12214700  0.86451400  0.24278700  1
  O  O53  1  0.72432300  0.46133000  0.44253200  1
  O  O54  1  0.32385100  0.06141200  0.64247100  1
  O  O55  1  0.91276700  0.74929300  0.91857900  1
  O  O56  1  0.51277500  0.34928500  0.11858900  1
  O  O57  1  0.11165700  0.95024700  0.31862200  1
  O  O58  1  0.70996800  0.55119200  0.51815800  1
  O  O59  1  0.31104600  0.15022300  0.71812300  1
  O  O60  1  0.65071500  0.48722500  0.88141100  1
  O  O61  1  0.25070700  0.08723300  0.08142100  1
  O  O62  1  0.84977700  0.68895400  0.28187700  1
  O  O63  1  0.44880800  0.29003200  0.48184200  1
  O  O64  1  0.04975300  0.88834300  0.68137800  1
  O  O65  1  0.97280300  0.19365800  0.90997500  1
  O  O66  1  0.57279100  0.79365400  0.10998400  1
  O  O67  1  0.17294500  0.39338600  0.30975500  1
  O  O68  1  0.77215800  0.99405500  0.50923600  1
  O  O69  1  0.37204300  0.59428900  0.70946800  1
  O  O70  1  0.73538700  0.47828700  0.95726400  1
  O  O71  1  0.33542400  0.07834500  0.15727000  1
  O  O72  1  0.93858800  0.67614900  0.35752900  1
  O  O73  1  0.53867000  0.27567700  0.55746800  1
  O  O74  1  0.13548600  0.87785300  0.75721300  1
  O  O75  1  0.18922900  0.50048000  0.96609200  1
  O  O76  1  0.78918700  0.10043100  0.16610900  1
  O  O77  1  0.39028800  0.70663800  0.36639400  1
  O  O78  1  0.98859800  0.30818600  0.56637300  1
  O  O79  1  0.58748300  0.90191400  0.76608500  1
  O  O80  1  0.20106800  0.33824300  0.81571200  1
  O  O81  1  0.80112300  0.93820200  0.01573300  1
  O  O82  1  0.40148400  0.53799900  0.21606800  1
  O  O83  1  0.00940100  0.13666100  0.41577600  1
  O  O84  1  0.60902600  0.73683200  0.61542700  1
  O  O85  1  0.62255000  0.97450100  0.87349000  1
  O  O86  1  0.22257800  0.57450600  0.07349600  1
  O  O87  1  0.82156000  0.17380400  0.27354100  1
  O  O88  1  0.42443700  0.77764800  0.47183500  1
  O  O89  1  0.02541800  0.37829100  0.67179100  1
  O  O90  1  0.42549400  0.77742200  0.92650400  1
  O  O91  1  0.02549900  0.37745000  0.12651000  1
  O  O92  1  0.62170900  0.97458200  0.32820900  1
  O  O93  1  0.22235200  0.57556300  0.52816500  1
  O  O94  1  0.82619600  0.17844000  0.72645900  1
  O  O95  1  0.89956900  0.21081300  0.83389100  1
  O  O96  1  0.49952000  0.81077100  0.03390800  1
  O  O97  1  0.09808600  0.41251700  0.23391500  1
  O  O98  1  0.69181400  0.01140200  0.43362700  1
  O  O99  1  0.29336200  0.60971200  0.63360600  1
  O  O100  1  0.06179800  0.19887700  0.98426700  1
  O  O101  1  0.66175700  0.79893200  0.18428800  1
  O  O102  1  0.26316800  0.39097400  0.38457300  1
  O  O103  1  0.86333900  0.99059900  0.58422400  1
  O  O104  1  0.46200100  0.59851600  0.78393200  1
