# generated using pymatgen
data_Co3CuH56(SO11)4
_symmetry_space_group_name_H-M   'P 1'
_cell_length_a   6.50900517
_cell_length_b   10.98339351
_cell_length_c   14.13834122
_cell_angle_alpha   105.49820380
_cell_angle_beta   90.46264819
_cell_angle_gamma   90.42754507
_symmetry_Int_Tables_number   1
_chemical_formula_structural   Co3CuH56(SO11)4
_chemical_formula_sum   'Co3 Cu1 H56 S4 O44'
_cell_volume   973.93082407
_cell_formula_units_Z   1
loop_
 _symmetry_equiv_pos_site_id
 _symmetry_equiv_pos_as_xyz
  1  'x, y, z'
loop_
 _atom_site_type_symbol
 _atom_site_label
 _atom_site_symmetry_multiplicity
 _atom_site_fract_x
 _atom_site_fract_y
 _atom_site_fract_z
 _atom_site_occupancy
  Co  Co0  1  0.50000000  0.50000000  0.00000000  1
  Co  Co1  1  0.00000000  0.00000000  0.00000000  1
  Co  Co2  1  0.00000000  0.50000000  0.50000000  1
  Cu  Cu3  1  0.50000000  0.00000000  0.50000000  1
  H  H4  1  0.01103500  0.30382000  0.57803100  1
  H  H5  1  0.51973700  0.18765700  0.42223800  1
  H  H6  1  0.98896500  0.69618000  0.42196900  1
  H  H7  1  0.48026300  0.81234300  0.57776200  1
  H  H8  1  0.61841400  0.58035700  0.35132800  1
  H  H9  1  0.11143800  0.93502900  0.64997400  1
  H  H10  1  0.38158600  0.41964300  0.64867200  1
  H  H11  1  0.88856200  0.06497100  0.35002600  1
  H  H12  1  0.31152800  0.29640100  0.88254600  1
  H  H13  1  0.81482000  0.20319500  0.11739600  1
  H  H14  1  0.68847200  0.70359900  0.11745400  1
  H  H15  1  0.18518000  0.79680500  0.88260400  1
  H  H16  1  0.91531200  0.46157200  0.29824100  1
  H  H17  1  0.40197700  0.03878500  0.71356200  1
  H  H18  1  0.08468800  0.53842800  0.70175900  1
  H  H19  1  0.59802300  0.96121500  0.28643800  1
  H  H20  1  0.25542900  0.46043400  0.14619800  1
  H  H21  1  0.75690400  0.03731200  0.85252700  1
  H  H22  1  0.74457100  0.53956600  0.85380200  1
  H  H23  1  0.24309600  0.96268800  0.14747300  1
  H  H24  1  0.43916100  0.35853400  0.12594300  1
  H  H25  1  0.93723800  0.14430500  0.87574300  1
  H  H26  1  0.56083900  0.64146600  0.87405700  1
  H  H27  1  0.06276200  0.85569500  0.12425700  1
  H  H28  1  0.54282900  0.29990000  0.84428100  1
  H  H29  1  0.04636200  0.20116600  0.15631100  1
  H  H30  1  0.45717100  0.70010000  0.15571900  1
  H  H31  1  0.95363800  0.79883400  0.84368900  1
  H  H32  1  0.76174200  0.36823500  0.33433000  1
  H  H33  1  0.25256100  0.13253700  0.67602500  1
  H  H34  1  0.23825800  0.63176500  0.66567000  1
  H  H35  1  0.74743900  0.86746300  0.32397500  1
  H  H36  1  0.27002200  0.36782500  0.37076100  1
  H  H37  1  0.75956100  0.13073400  0.62677000  1
  H  H38  1  0.72997800  0.63217500  0.62923900  1
  H  H39  1  0.24043900  0.86926600  0.37323000  1
  H  H40  1  0.35550600  0.50878100  0.41096500  1
  H  H41  1  0.84212700  0.98903400  0.58913300  1
  H  H42  1  0.64449400  0.49121900  0.58903500  1
  H  H43  1  0.15787300  0.01096600  0.41086700  1
  H  H44  1  0.87860400  0.46536400  0.08919200  1
  H  H45  1  0.37707600  0.03372300  0.91239000  1
  H  H46  1  0.12139600  0.53463600  0.91080800  1
  H  H47  1  0.62292400  0.96627700  0.08761000  1
  H  H48  1  0.41328300  0.64402000  0.32129600  1
  H  H49  1  0.91453400  0.86084200  0.67988700  1
  H  H50  1  0.58671700  0.35598000  0.67870400  1
  H  H51  1  0.08546600  0.13915800  0.32011300  1
  H  H52  1  0.88637600  0.37778200  0.98025200  1
  H  H53  1  0.38574200  0.12482700  0.02041500  1
  H  H54  1  0.11362400  0.62221800  0.01974800  1
  H  H55  1  0.61425800  0.87517300  0.97958500  1
  H  H56  1  0.97366200  0.24328600  0.46430800  1
  H  H57  1  0.47526900  0.24855100  0.53583400  1
  H  H58  1  0.02633800  0.75671400  0.53569200  1
  H  H59  1  0.52473100  0.75144900  0.46416600  1
  S  S60  1  0.03472500  0.67366100  0.22714700  1
  S  S61  1  0.53370000  0.82447700  0.77290300  1
  S  S62  1  0.96527500  0.32633900  0.77285300  1
  S  S63  1  0.46630000  0.17552300  0.22709700  1
  O  O64  1  0.94741000  0.32076000  0.51909100  1
  O  O65  1  0.44964700  0.17097800  0.47968800  1
  O  O66  1  0.05259000  0.67924000  0.48090900  1
  O  O67  1  0.55035300  0.82902200  0.52031200  1
  O  O68  1  0.89322400  0.72521400  0.31006200  1
  O  O69  1  0.39216500  0.77340500  0.68815600  1
  O  O70  1  0.10677600  0.27478600  0.68993800  1
  O  O71  1  0.60783500  0.22659500  0.31184400  1
  O  O72  1  0.27431500  0.44068300  0.42908800  1
  O  O73  1  0.76636300  0.05806800  0.56827000  1
  O  O74  1  0.72568500  0.55931700  0.57091200  1
  O  O75  1  0.23363700  0.94193200  0.43173000  1
  O  O76  1  0.24945700  0.72164300  0.25516300  1
  O  O77  1  0.74780200  0.77900300  0.74630900  1
  O  O78  1  0.75054300  0.27835700  0.74483700  1
  O  O79  1  0.25219800  0.22099700  0.25369100  1
  O  O80  1  0.39381000  0.44122100  0.11806900  1
  O  O81  1  0.89344600  0.06108000  0.88365800  1
  O  O82  1  0.60619000  0.55877900  0.88193100  1
  O  O83  1  0.10655400  0.93892000  0.11634200  1
  O  O84  1  0.45602400  0.31741300  0.90306000  1
  O  O85  1  0.95865500  0.18455600  0.09696200  1
  O  O86  1  0.54397600  0.68258700  0.09694000  1
  O  O87  1  0.04134500  0.81544400  0.90303800  1
  O  O88  1  0.83638900  0.45041900  0.35494700  1
  O  O89  1  0.31592800  0.04793800  0.65798900  1
  O  O90  1  0.16361100  0.54958100  0.64505300  1
  O  O91  1  0.68407200  0.95206200  0.34201100  1
  O  O92  1  0.79572400  0.43098000  0.02921100  1
  O  O93  1  0.29477300  0.06943100  0.97130200  1
  O  O94  1  0.20427600  0.56902000  0.97078900  1
  O  O95  1  0.70522700  0.93056900  0.02869800  1
  O  O96  1  0.48757200  0.62087400  0.37548800  1
  O  O97  1  0.98160500  0.88761000  0.62610000  1
  O  O98  1  0.51242800  0.37912600  0.62451200  1
  O  O99  1  0.01839500  0.11239000  0.37390000  1
  O  O100  1  0.02993600  0.53167000  0.20287800  1
  O  O101  1  0.53072300  0.96664300  0.79959800  1
  O  O102  1  0.97006400  0.46833000  0.79712200  1
  O  O103  1  0.46927700  0.03335700  0.20040200  1
  O  O104  1  0.96740900  0.71335600  0.13842400  1
  O  O105  1  0.46530200  0.78247600  0.86016300  1
  O  O106  1  0.03259100  0.28664400  0.86157600  1
  O  O107  1  0.53469800  0.21752400  0.13983700  1
