# generated using pymatgen
data_La6Sm2V3Cr5O24
_symmetry_space_group_name_H-M   'P 1'
_cell_length_a   7.81597500
_cell_length_b   7.87447200
_cell_length_c   7.91822748
_cell_angle_alpha   89.96498531
_cell_angle_beta   90.00000000
_cell_angle_gamma   90.00000000
_symmetry_Int_Tables_number   1
_chemical_formula_structural   La6Sm2V3Cr5O24
_chemical_formula_sum   'La6 Sm2 V3 Cr5 O24'
_cell_volume   487.34049241
_cell_formula_units_Z   1
loop_
 _symmetry_equiv_pos_site_id
 _symmetry_equiv_pos_as_xyz
  1  'x, y, z'
loop_
 _atom_site_type_symbol
 _atom_site_label
 _atom_site_symmetry_multiplicity
 _atom_site_fract_x
 _atom_site_fract_y
 _atom_site_fract_z
 _atom_site_occupancy
  La  La0  1  0.75028700  0.74844500  0.74767700  1
  La  La1  1  0.24971300  0.74844500  0.74767700  1
  La  La2  1  0.74999000  0.74851800  0.25247000  1
  La  La3  1  0.25001000  0.74851800  0.25247000  1
  La  La4  1  0.75030200  0.25144900  0.25255000  1
  La  La5  1  0.24969800  0.25144900  0.25255000  1
  Sm  Sm6  1  0.75017000  0.25193600  0.74670100  1
  Sm  Sm7  1  0.24983000  0.25193600  0.74670100  1
  V  V8  1  0.00000000  0.00079600  0.99917600  1
  V  V9  1  0.50000000  0.00041200  0.99952800  1
  V  V10  1  0.00000000  0.49950400  0.99928400  1
  Cr  Cr11  1  0.00000000  0.00039900  0.50040000  1
  Cr  Cr12  1  0.50000000  0.00052600  0.50060000  1
  Cr  Cr13  1  0.50000000  0.49944300  0.99952400  1
  Cr  Cr14  1  0.00000000  0.49952800  0.50042700  1
  Cr  Cr15  1  0.50000000  0.49951300  0.50051600  1
  O  O16  1  0.00000000  0.74789500  0.00080100  1
  O  O17  1  0.50000000  0.74781900  0.99842200  1
  O  O18  1  0.00000000  0.75008000  0.50041200  1
  O  O19  1  0.50000000  0.74946900  0.50009800  1
  O  O20  1  0.00000000  0.25222200  0.99552700  1
  O  O21  1  0.50000000  0.25203400  0.99773500  1
  O  O22  1  0.00000000  0.24987600  0.50358900  1
  O  O23  1  0.50000000  0.25052400  0.50392500  1
  O  O24  1  0.00000000  0.00504500  0.74790800  1
  O  O25  1  0.50000000  0.00232000  0.74709900  1
  O  O26  1  0.00000000  0.99874800  0.25179700  1
  O  O27  1  0.50000000  0.00161600  0.25316500  1
  O  O28  1  0.00000000  0.49604600  0.74543700  1
  O  O29  1  0.50000000  0.49608300  0.74947200  1
  O  O30  1  0.00000000  0.49984000  0.25452500  1
  O  O31  1  0.50000000  0.49990800  0.25063900  1
  O  O32  1  0.75011900  0.00174200  0.99833200  1
  O  O33  1  0.24988100  0.00174200  0.99833200  1
  O  O34  1  0.75011500  0.00197800  0.50203800  1
  O  O35  1  0.24988500  0.00197800  0.50203800  1
  O  O36  1  0.74901600  0.49818400  0.99814900  1
  O  O37  1  0.25098400  0.49818400  0.99814900  1
  O  O38  1  0.74950800  0.49792600  0.50208000  1
  O  O39  1  0.25049200  0.49792600  0.50208000  1
