# generated using pymatgen
data_BaSr7MnFe7O24
_symmetry_space_group_name_H-M   'P 1'
_cell_length_a   7.85490346
_cell_length_b   7.85490346
_cell_length_c   7.85490406
_cell_angle_alpha   90.00485847
_cell_angle_beta   90.00485847
_cell_angle_gamma   90.00485867
_symmetry_Int_Tables_number   1
_chemical_formula_structural   BaSr7MnFe7O24
_chemical_formula_sum   'Ba1 Sr7 Mn1 Fe7 O24'
_cell_volume   484.64371382
_cell_formula_units_Z   1
loop_
 _symmetry_equiv_pos_site_id
 _symmetry_equiv_pos_as_xyz
  1  'x, y, z'
loop_
 _atom_site_type_symbol
 _atom_site_label
 _atom_site_symmetry_multiplicity
 _atom_site_fract_x
 _atom_site_fract_y
 _atom_site_fract_z
 _atom_site_occupancy
  Ba  Ba0  1  0.74967300  0.74967300  0.74967300  1
  Sr  Sr1  1  0.74971500  0.25026500  0.74971500  1
  Sr  Sr2  1  0.74973500  0.25029800  0.25029800  1
  Sr  Sr3  1  0.74971500  0.74971500  0.25026500  1
  Sr  Sr4  1  0.25029800  0.25029800  0.74973500  1
  Sr  Sr5  1  0.25021800  0.25021800  0.25021800  1
  Sr  Sr6  1  0.25026500  0.74971500  0.74971500  1
  Sr  Sr7  1  0.25029800  0.74973500  0.25029800  1
  Mn  Mn8  1  0.49907700  0.49907700  0.49907700  1
  Fe  Fe9  1  0.49900700  0.00098400  0.00098400  1
  Fe  Fe10  1  0.49916700  0.00095700  0.49916700  1
  Fe  Fe11  1  0.49916700  0.49916700  0.00095700  1
  Fe  Fe12  1  0.00085000  0.00085000  0.00085000  1
  Fe  Fe13  1  0.00098400  0.00098400  0.49900700  1
  Fe  Fe14  1  0.00098400  0.49900700  0.00098400  1
  Fe  Fe15  1  0.00095700  0.49916700  0.49916700  1
  O  O16  1  0.74952100  0.00379300  0.00379300  1
  O  O17  1  0.75171300  0.00375400  0.49615400  1
  O  O18  1  0.75171300  0.49615400  0.00375400  1
  O  O19  1  0.74518800  0.49604900  0.49604900  1
  O  O20  1  0.25036500  0.00091900  0.00091900  1
  O  O21  1  0.24845100  0.00091000  0.49913300  1
  O  O22  1  0.24845100  0.49913300  0.00091000  1
  O  O23  1  0.25448300  0.49928900  0.49928900  1
  O  O24  1  0.49913300  0.24845100  0.00091000  1
  O  O25  1  0.49928900  0.25448300  0.49928900  1
  O  O26  1  0.49615400  0.75171300  0.00375400  1
  O  O27  1  0.49604900  0.74518800  0.49604900  1
  O  O28  1  0.00091900  0.25036500  0.00091900  1
  O  O29  1  0.00091000  0.24845100  0.49913300  1
  O  O30  1  0.00379300  0.74952100  0.00379300  1
  O  O31  1  0.00375400  0.75171300  0.49615400  1
  O  O32  1  0.49615400  0.00375400  0.75171300  1
  O  O33  1  0.49913300  0.00091000  0.24845100  1
  O  O34  1  0.49604900  0.49604900  0.74518800  1
  O  O35  1  0.49928900  0.49928900  0.25448300  1
  O  O36  1  0.00379300  0.00379300  0.74952100  1
  O  O37  1  0.00091900  0.00091900  0.25036500  1
  O  O38  1  0.00375400  0.49615400  0.75171300  1
  O  O39  1  0.00091000  0.49913300  0.24845100  1
