# generated using pymatgen
data_Ag6HgGeSe6
_symmetry_space_group_name_H-M   'P 1'
_cell_length_a   7.79324700
_cell_length_b   8.24836400
_cell_length_c   11.11167800
_cell_angle_alpha   90.00000000
_cell_angle_beta   90.00000000
_cell_angle_gamma   90.00000000
_symmetry_Int_Tables_number   1
_chemical_formula_structural   Ag6HgGeSe6
_chemical_formula_sum   'Ag12 Hg2 Ge2 Se12'
_cell_volume   714.27575158
_cell_formula_units_Z   2
loop_
 _symmetry_equiv_pos_site_id
 _symmetry_equiv_pos_as_xyz
  1  'x, y, z'
loop_
 _atom_site_type_symbol
 _atom_site_label
 _atom_site_symmetry_multiplicity
 _atom_site_fract_x
 _atom_site_fract_y
 _atom_site_fract_z
 _atom_site_occupancy
  Ag  Ag0  1  0.40345500  0.00000000  0.02543800  1
  Ag  Ag1  1  0.59654500  0.50000000  0.52543800  1
  Ag  Ag2  1  0.91268400  0.21527200  0.83657000  1
  Ag  Ag3  1  0.91268400  0.78472800  0.83657000  1
  Ag  Ag4  1  0.08731600  0.28472800  0.33657000  1
  Ag  Ag5  1  0.08731600  0.71527200  0.33657000  1
  Ag  Ag6  1  0.46980700  0.24433000  0.28428600  1
  Ag  Ag7  1  0.46980700  0.75567000  0.28428600  1
  Ag  Ag8  1  0.53019300  0.25567000  0.78428600  1
  Ag  Ag9  1  0.53019300  0.74433000  0.78428600  1
  Ag  Ag10  1  0.24264000  0.00000000  0.49117600  1
  Ag  Ag11  1  0.75736000  0.50000000  0.99117600  1
  Hg  Hg12  1  0.94901700  0.00000000  0.14941000  1
  Hg  Hg13  1  0.05098300  0.50000000  0.64941000  1
  Ge  Ge14  1  0.75312400  0.00000000  0.52857200  1
  Ge  Ge15  1  0.24687600  0.50000000  0.02857200  1
  Se  Se16  1  0.73743000  0.00000000  0.97859500  1
  Se  Se17  1  0.26257000  0.50000000  0.47859500  1
  Se  Se18  1  0.49829400  0.00000000  0.64620900  1
  Se  Se19  1  0.50170600  0.50000000  0.14620900  1
  Se  Se20  1  0.24360900  0.25901600  0.90848100  1
  Se  Se21  1  0.24360900  0.74098400  0.90848100  1
  Se  Se22  1  0.75639100  0.24098400  0.40848100  1
  Se  Se23  1  0.75639100  0.75901600  0.40848100  1
  Se  Se24  1  0.99578500  0.00000000  0.65632700  1
  Se  Se25  1  0.00421500  0.50000000  0.15632700  1
  Se  Se26  1  0.24916900  0.00000000  0.25389800  1
  Se  Se27  1  0.75083100  0.50000000  0.75389800  1
