# generated using pymatgen
data_CoNiP4(H8O5)4
_symmetry_space_group_name_H-M   'P 1'
_cell_length_a   12.62005561
_cell_length_b   12.62005561
_cell_length_c   12.62005561
_cell_angle_alpha   130.82309524
_cell_angle_beta   130.82309524
_cell_angle_gamma   72.09429466
_symmetry_Int_Tables_number   1
_chemical_formula_structural   CoNiP4(H8O5)4
_chemical_formula_sum   'Co2 Ni2 P8 H64 O40'
_cell_volume   1125.46463487
_cell_formula_units_Z   2
loop_
 _symmetry_equiv_pos_site_id
 _symmetry_equiv_pos_as_xyz
  1  'x, y, z'
loop_
 _atom_site_type_symbol
 _atom_site_label
 _atom_site_symmetry_multiplicity
 _atom_site_fract_x
 _atom_site_fract_y
 _atom_site_fract_z
 _atom_site_occupancy
  Co  Co0  1  0.00000000  0.50000000  0.50000000  1
  Co  Co1  1  0.50000000  0.00000000  0.50000000  1
  Ni  Ni2  1  0.75000000  0.75000000  0.00000000  1
  Ni  Ni3  1  0.25000000  0.25000000  0.00000000  1
  P  P4  1  0.62501900  0.13587600  0.01099600  1
  P  P5  1  0.62488000  0.63587600  0.51085800  1
  P  P6  1  0.86412400  0.87512000  0.48914200  1
  P  P7  1  0.88597700  0.37512000  0.01099600  1
  P  P8  1  0.12501900  0.11402300  0.48914200  1
  P  P9  1  0.12488000  0.61402300  0.98900400  1
  P  P10  1  0.36412400  0.87498100  0.98900400  1
  P  P11  1  0.38597700  0.37498100  0.51085800  1
  H  H12  1  0.77519400  0.58704400  0.30622900  1
  H  H13  1  0.78081500  0.08704400  0.81184900  1
  H  H14  1  0.72037700  0.02795500  0.19197000  1
  H  H15  1  0.33598500  0.52795500  0.30757900  1
  H  H16  1  0.97159300  0.66401500  0.19197000  1
  H  H17  1  0.97204500  0.16401500  0.69242100  1
  H  H18  1  0.03103400  0.21918500  0.30622900  1
  H  H19  1  0.41295600  0.71918500  0.18815100  1
  H  H20  1  0.27519400  0.96896600  0.18815100  1
  H  H21  1  0.28081500  0.46896600  0.69377100  1
  H  H22  1  0.22037700  0.02840700  0.69242100  1
  H  H23  1  0.83598500  0.52840700  0.80803000  1
  H  H24  1  0.47159300  0.27962300  0.30757900  1
  H  H25  1  0.47204500  0.77962300  0.80803000  1
  H  H26  1  0.53103400  0.22480600  0.81184900  1
  H  H27  1  0.91295600  0.72480600  0.69377100  1
  H  H28  1  0.71995800  0.41781900  0.18827700  1
  H  H29  1  0.72954300  0.91781900  0.69786100  1
  H  H30  1  0.78108500  0.97691700  0.30956500  1
  H  H31  1  0.16735200  0.47691700  0.19583300  1
  H  H32  1  0.02848000  0.83264800  0.30956500  1
  H  H33  1  0.02308300  0.33264800  0.80416700  1
  H  H34  1  0.96831900  0.27045700  0.18827700  1
  H  H35  1  0.58218100  0.77045700  0.30213900  1
  H  H36  1  0.21995800  0.03168100  0.30213900  1
  H  H37  1  0.22954300  0.53168100  0.81172300  1
  H  H38  1  0.28108500  0.97152000  0.80416700  1
  H  H39  1  0.66735200  0.47152000  0.69043500  1
  H  H40  1  0.52848000  0.21891500  0.19583300  1
  H  H41  1  0.52308300  0.71891500  0.69043500  1
  H  H42  1  0.46831900  0.28004200  0.69786100  1
  H  H43  1  0.08218100  0.78004200  0.81172300  1
  H  H44  1  0.51040400  0.01555300  0.85264200  1
  H  H45  1  0.66291100  0.51555300  0.50514900  1
  H  H46  1  0.90783900  0.91286500  0.64736500  1
  H  H47  1  0.76550100  0.41286500  0.00502600  1
  H  H48  1  0.23952500  0.23449900  0.64736500  1
  H  H49  1  0.08713500  0.73449900  0.99497400  1
  H  H50  1  0.84223800  0.33708900  0.85264200  1
  H  H51  1  0.98444700  0.83708900  0.49485100  1
  H  H52  1  0.01040400  0.15776200  0.49485100  1
  H  H53  1  0.16291100  0.65776200  0.14735800  1
  H  H54  1  0.40783900  0.76047500  0.99497400  1
  H  H55  1  0.26550100  0.26047500  0.35263500  1
  H  H56  1  0.73952500  0.09216100  0.00502600  1
  H  H57  1  0.58713500  0.59216100  0.35263500  1
  H  H58  1  0.34223800  0.48959600  0.50514900  1
  H  H59  1  0.48444700  0.98959600  0.14735800  1
  H  H60  1  0.81407000  0.31298100  0.38967500  1
  H  H61  1  0.42330600  0.81298100  0.49891000  1
  H  H62  1  0.67651400  0.67555700  0.11013000  1
  H  H63  1  0.06542600  0.17555700  0.99904300  1
  H  H64  1  0.93361700  0.93457400  0.11013000  1
  H  H65  1  0.32444300  0.43457400  0.00095700  1
  H  H66  1  0.07560400  0.57669400  0.38967500  1
  H  H67  1  0.68701900  0.07669400  0.50109000  1
  H  H68  1  0.31407000  0.92439600  0.50109000  1
  H  H69  1  0.92330600  0.42439600  0.61032500  1
  H  H70  1  0.17651400  0.06638300  0.00095700  1
  H  H71  1  0.56542600  0.56638300  0.88987000  1
  H  H72  1  0.43361700  0.32348600  0.99904300  1
  H  H73  1  0.82444300  0.82348600  0.88987000  1
  H  H74  1  0.57560400  0.18593000  0.49891000  1
  H  H75  1  0.18701900  0.68593000  0.61032500  1
  O  O76  1  0.66544000  0.16658300  0.17431800  1
  O  O77  1  0.49226500  0.66658300  0.50114200  1
  O  O78  1  0.74084600  0.74277100  0.32534700  1
  O  O79  1  0.91742400  0.24277100  0.00192600  1
  O  O80  1  0.08450100  0.08257600  0.32534700  1
  O  O81  1  0.25722900  0.58257600  0.99807400  1
  O  O82  1  0.00887700  0.50773500  0.17431800  1
  O  O83  1  0.83341700  0.00773500  0.49885800  1
  O  O84  1  0.16544000  0.99112300  0.49885800  1
  O  O85  1  0.99226500  0.49112300  0.82568200  1
  O  O86  1  0.24084600  0.91549900  0.99807400  1
  O  O87  1  0.41742400  0.41549900  0.67465300  1
  O  O88  1  0.58450100  0.25915400  0.00192600  1
  O  O89  1  0.75722900  0.75915400  0.67465300  1
  O  O90  1  0.50887700  0.33456000  0.50114200  1
  O  O91  1  0.33341700  0.83456000  0.82568200  1
  O  O92  1  0.89599500  0.39599500  0.50000000  1
  O  O93  1  0.39599500  0.89599500  0.50000000  1
  O  O94  1  0.64832300  0.64832300  0.00000000  1
  O  O95  1  0.14832300  0.14832300  0.00000000  1
  O  O96  1  0.85167700  0.85167700  0.00000000  1
  O  O97  1  0.35167700  0.35167700  0.00000000  1
  O  O98  1  0.10400500  0.60400500  0.50000000  1
  O  O99  1  0.60400500  0.10400500  0.50000000  1
  O  O100  1  0.80305000  0.50053000  0.29691900  1
  O  O101  1  0.70361100  0.00053000  0.69747900  1
  O  O102  1  0.75533200  0.95024300  0.20048700  1
  O  O103  1  0.24975700  0.45024300  0.19491100  1
  O  O104  1  0.94515400  0.75024300  0.20048700  1
  O  O105  1  0.04975700  0.25024300  0.80508900  1
  O  O106  1  0.99386900  0.29638900  0.29691900  1
  O  O107  1  0.49947000  0.79638900  0.30252100  1
  O  O108  1  0.30305000  0.00613100  0.30252100  1
  O  O109  1  0.20361100  0.50613100  0.70308100  1
  O  O110  1  0.25533200  0.05484600  0.80508900  1
  O  O111  1  0.74975700  0.55484600  0.79951300  1
  O  O112  1  0.44515400  0.24466800  0.19491100  1
  O  O113  1  0.54975700  0.74466800  0.79951300  1
  O  O114  1  0.49386900  0.19695000  0.69747900  1
  O  O115  1  0.99947000  0.69695000  0.70308100  1
