# generated using pymatgen
data_AlCoP2NO8
_symmetry_space_group_name_H-M   'P 1'
_cell_length_a   8.93672000
_cell_length_b   9.48789260
_cell_length_c   9.51643168
_cell_angle_alpha   90.20442304
_cell_angle_beta   97.52301853
_cell_angle_gamma   96.95278158
_symmetry_Int_Tables_number   1
_chemical_formula_structural   AlCoP2NO8
_chemical_formula_sum   'Al4 Co4 P8 N4 O32'
_cell_volume   793.92150218
_cell_formula_units_Z   4
loop_
 _symmetry_equiv_pos_site_id
 _symmetry_equiv_pos_as_xyz
  1  'x, y, z'
loop_
 _atom_site_type_symbol
 _atom_site_label
 _atom_site_symmetry_multiplicity
 _atom_site_fract_x
 _atom_site_fract_y
 _atom_site_fract_z
 _atom_site_occupancy
  Al  Al0  1  0.10874700  0.30699300  0.42738400  1
  Al  Al1  1  0.60789200  0.42052800  0.30495100  1
  Al  Al2  1  0.89343300  0.69389100  0.57500100  1
  Al  Al3  1  0.44149500  0.05153200  0.78735100  1
  Co  Co4  1  0.39131900  0.57473000  0.69330400  1
  Co  Co5  1  0.05335700  0.21217800  0.94878500  1
  Co  Co6  1  0.55681800  0.95246100  0.21356000  1
  Co  Co7  1  0.94793300  0.78762400  0.05090100  1
  P  P8  1  0.54886400  0.70346400  0.44141100  1
  P  P9  1  0.95351300  0.55445400  0.29671400  1
  P  P10  1  0.45637200  0.28927500  0.55583000  1
  P  P11  1  0.03875800  0.44414200  0.70441600  1
  P  P12  1  0.58794400  0.79931100  0.91819000  1
  P  P13  1  0.91411900  0.08250800  0.20799000  1
  P  P14  1  0.41111600  0.20647800  0.07797500  1
  P  P15  1  0.09135100  0.91930800  0.79418200  1
  N  N16  1  0.72482100  0.42685900  0.92964600  1
  N  N17  1  0.77503800  0.07047200  0.57377300  1
  N  N18  1  0.27458700  0.57373500  0.07120900  1
  N  N19  1  0.22575900  0.92910300  0.42668600  1
  O  O20  1  0.41324000  0.67066200  0.52702300  1
  O  O21  1  0.08431600  0.46256400  0.32992700  1
  O  O22  1  0.58118400  0.31865400  0.45825900  1
  O  O23  1  0.90644800  0.53408200  0.66862400  1
  O  O24  1  0.47240600  0.14871100  0.63415800  1
  O  O25  1  0.01883900  0.37092700  0.84620500  1
  O  O26  1  0.53126700  0.84765300  0.37166500  1
  O  O27  1  0.97019000  0.62580400  0.15313600  1
  O  O28  1  0.18768900  0.54704300  0.71697900  1
  O  O29  1  0.30107200  0.28341700  0.46281800  1
  O  O30  1  0.80163100  0.45642600  0.28801500  1
  O  O31  1  0.69961000  0.71411000  0.54227900  1
  O  O32  1  0.47422500  0.40811600  0.67107700  1
  O  O33  1  0.03741800  0.32919600  0.58908800  1
  O  O34  1  0.54231200  0.58640500  0.32729600  1
  O  O35  1  0.96182600  0.67088100  0.41194800  1
  O  O36  1  0.49455500  0.66113700  0.85618800  1
  O  O37  1  0.01329500  0.15515400  0.33798600  1
  O  O38  1  0.51557200  0.33487800  0.14829200  1
  O  O39  1  0.99877200  0.84358600  0.66225200  1
  O  O40  1  0.57041400  0.92438600  0.81504200  1
  O  O41  1  0.91655100  0.18228400  0.07853400  1
  O  O42  1  0.41538600  0.07907800  0.18061500  1
  O  O43  1  0.08810700  0.81893300  0.92315500  1
  O  O44  1  0.25707400  0.95769200  0.76639900  1
  O  O45  1  0.24726000  0.24454400  0.05242900  1
  O  O46  1  0.74965700  0.05531500  0.24250700  1
  O  O47  1  0.75585300  0.77294700  0.94346200  1
  O  O48  1  0.46629100  0.16600900  0.93763600  1
  O  O49  1  0.01984900  0.05471700  0.82559900  1
  O  O50  1  0.52497500  0.83142600  0.05731800  1
  O  O51  1  0.97948000  0.94421600  0.17483000  1
