# generated using pymatgen
data_BiRh7Pb2O15
_symmetry_space_group_name_H-M   'P 1'
_cell_length_a   10.60076368
_cell_length_b   10.60076368
_cell_length_c   13.40915200
_cell_angle_alpha   90.00000000
_cell_angle_beta   90.00000000
_cell_angle_gamma   120.09537516
_symmetry_Int_Tables_number   1
_chemical_formula_structural   BiRh7Pb2O15
_chemical_formula_sum   'Bi4 Rh28 Pb8 O60'
_cell_volume   1303.73121542
_cell_formula_units_Z   4
loop_
 _symmetry_equiv_pos_site_id
 _symmetry_equiv_pos_as_xyz
  1  'x, y, z'
loop_
 _atom_site_type_symbol
 _atom_site_label
 _atom_site_symmetry_multiplicity
 _atom_site_fract_x
 _atom_site_fract_y
 _atom_site_fract_z
 _atom_site_occupancy
  Bi  Bi0  1  0.00123800  0.28883300  0.75000000  1
  Bi  Bi1  1  0.28883300  0.00123800  0.75000000  1
  Bi  Bi2  1  0.99876200  0.71116700  0.25000000  1
  Bi  Bi3  1  0.71116700  0.99876200  0.25000000  1
  Rh  Rh4  1  0.00000000  0.00000000  0.00000000  1
  Rh  Rh5  1  0.00000000  0.00000000  0.50000000  1
  Rh  Rh6  1  0.83140100  0.16859900  0.00000000  1
  Rh  Rh7  1  0.33766900  0.16937600  0.99919800  1
  Rh  Rh8  1  0.83062400  0.66233100  0.00080200  1
  Rh  Rh9  1  0.16937600  0.33766900  0.99919800  1
  Rh  Rh10  1  0.66233100  0.83062400  0.00080200  1
  Rh  Rh11  1  0.16859900  0.83140100  0.00000000  1
  Rh  Rh12  1  0.16859900  0.83140100  0.50000000  1
  Rh  Rh13  1  0.66233100  0.83062400  0.49919800  1
  Rh  Rh14  1  0.16937600  0.33766900  0.50080200  1
  Rh  Rh15  1  0.83062400  0.66233100  0.49919800  1
  Rh  Rh16  1  0.33766900  0.16937600  0.50080200  1
  Rh  Rh17  1  0.83140100  0.16859900  0.50000000  1
  Rh  Rh18  1  0.00000000  0.50000000  0.00000000  1
  Rh  Rh19  1  0.50000000  0.00000000  0.00000000  1
  Rh  Rh20  1  0.50000000  0.50000000  0.00000000  1
  Rh  Rh21  1  0.00000000  0.50000000  0.50000000  1
  Rh  Rh22  1  0.50000000  0.00000000  0.50000000  1
  Rh  Rh23  1  0.50000000  0.50000000  0.50000000  1
  Rh  Rh24  1  0.33365800  0.66701300  0.85395200  1
  Rh  Rh25  1  0.66701300  0.33365800  0.85395200  1
  Rh  Rh26  1  0.66634200  0.33298700  0.14604800  1
  Rh  Rh27  1  0.33298700  0.66634200  0.14604800  1
  Rh  Rh28  1  0.66634200  0.33298700  0.35395200  1
  Rh  Rh29  1  0.33298700  0.66634200  0.35395200  1
  Rh  Rh30  1  0.33365800  0.66701300  0.64604800  1
  Rh  Rh31  1  0.66701300  0.33365800  0.64604800  1
  Pb  Pb32  1  0.73102200  0.73102200  0.75000000  1
  Pb  Pb33  1  0.26897800  0.26897800  0.25000000  1
  Pb  Pb34  1  0.39837000  0.39837000  0.75000000  1
  Pb  Pb35  1  0.99610200  0.61391200  0.75000000  1
  Pb  Pb36  1  0.61391200  0.99610200  0.75000000  1
  Pb  Pb37  1  0.60163000  0.60163000  0.25000000  1
  Pb  Pb38  1  0.00389800  0.38608800  0.25000000  1
  Pb  Pb39  1  0.38608800  0.00389800  0.25000000  1
  O  O40  1  0.99931200  0.83083700  0.92531100  1
  O  O41  1  0.83083700  0.99931200  0.92531100  1
  O  O42  1  0.16853500  0.16853500  0.92394000  1
  O  O43  1  0.00068800  0.16916300  0.07468900  1
  O  O44  1  0.16916300  0.00068800  0.07468900  1
  O  O45  1  0.83146500  0.83146500  0.07606000  1
  O  O46  1  0.00068800  0.16916300  0.42531100  1
  O  O47  1  0.16916300  0.00068800  0.42531100  1
  O  O48  1  0.83146500  0.83146500  0.42394000  1
  O  O49  1  0.99931200  0.83083700  0.57468900  1
  O  O50  1  0.83083700  0.99931200  0.57468900  1
  O  O51  1  0.16853500  0.16853500  0.57606000  1
  O  O52  1  0.15800400  0.66639700  0.91771400  1
  O  O53  1  0.50889600  0.84221000  0.91682200  1
  O  O54  1  0.33502700  0.49323300  0.91681000  1
  O  O55  1  0.84221000  0.50889600  0.91682200  1
  O  O56  1  0.49323300  0.33502700  0.91681000  1
  O  O57  1  0.66639700  0.15800400  0.91771400  1
  O  O58  1  0.84199600  0.33360300  0.08228600  1
  O  O59  1  0.49110400  0.15779000  0.08317800  1
  O  O60  1  0.66497300  0.50676700  0.08319000  1
  O  O61  1  0.15779000  0.49110400  0.08317800  1
  O  O62  1  0.50676700  0.66497300  0.08319000  1
  O  O63  1  0.33360300  0.84199600  0.08228600  1
  O  O64  1  0.84199600  0.33360300  0.41771400  1
  O  O65  1  0.49110400  0.15779000  0.41682200  1
  O  O66  1  0.66497300  0.50676700  0.41681000  1
  O  O67  1  0.15779000  0.49110400  0.41682200  1
  O  O68  1  0.50676700  0.66497300  0.41681000  1
  O  O69  1  0.33360300  0.84199600  0.41771400  1
  O  O70  1  0.15800400  0.66639700  0.58228600  1
  O  O71  1  0.50889600  0.84221000  0.58317800  1
  O  O72  1  0.33502700  0.49323300  0.58319000  1
  O  O73  1  0.84221000  0.50889600  0.58317800  1
  O  O74  1  0.49323300  0.33502700  0.58319000  1
  O  O75  1  0.66639700  0.15800400  0.58228600  1
  O  O76  1  0.99941200  0.33349300  0.92033100  1
  O  O77  1  0.33349300  0.99941200  0.92033100  1
  O  O78  1  0.66706200  0.66706200  0.92423000  1
  O  O79  1  0.00058800  0.66650700  0.07966900  1
  O  O80  1  0.66650700  0.00058800  0.07966900  1
  O  O81  1  0.33293800  0.33293800  0.07577000  1
  O  O82  1  0.00058800  0.66650700  0.42033100  1
  O  O83  1  0.66650700  0.00058800  0.42033100  1
  O  O84  1  0.33293800  0.33293800  0.42423000  1
  O  O85  1  0.99941200  0.33349300  0.57966900  1
  O  O86  1  0.33349300  0.99941200  0.57966900  1
  O  O87  1  0.66706200  0.66706200  0.57577000  1
  O  O88  1  0.47854500  0.65800000  0.75000000  1
  O  O89  1  0.17042900  0.51864400  0.75000000  1
  O  O90  1  0.34669900  0.82922500  0.75000000  1
  O  O91  1  0.51864400  0.17042900  0.75000000  1
  O  O92  1  0.82922500  0.34669900  0.75000000  1
  O  O93  1  0.65800000  0.47854500  0.75000000  1
  O  O94  1  0.52145500  0.34200000  0.25000000  1
  O  O95  1  0.82957100  0.48135600  0.25000000  1
  O  O96  1  0.65330100  0.17077500  0.25000000  1
  O  O97  1  0.48135600  0.82957100  0.25000000  1
  O  O98  1  0.17077500  0.65330100  0.25000000  1
  O  O99  1  0.34200000  0.52145500  0.25000000  1
