# generated using pymatgen
data_BiMo30(PbS10)4
_symmetry_space_group_name_H-M   'P 1'
_cell_length_a   9.40616900
_cell_length_b   11.35962368
_cell_length_c   14.64851493
_cell_angle_alpha   105.22769458
_cell_angle_beta   107.94370233
_cell_angle_gamma   90.63683443
_symmetry_Int_Tables_number   1
_chemical_formula_structural   BiMo30(PbS10)4
_chemical_formula_sum   'Bi1 Mo30 Pb4 S40'
_cell_volume   1429.54851824
_cell_formula_units_Z   1
loop_
 _symmetry_equiv_pos_site_id
 _symmetry_equiv_pos_as_xyz
  1  'x, y, z'
loop_
 _atom_site_type_symbol
 _atom_site_label
 _atom_site_symmetry_multiplicity
 _atom_site_fract_x
 _atom_site_fract_y
 _atom_site_fract_z
 _atom_site_occupancy
  Bi  Bi0  1  0.50000000  0.00000000  0.00000000  1
  Mo  Mo1  1  0.24807400  0.81299700  0.51900600  1
  Mo  Mo2  1  0.64799500  0.41279500  0.31919400  1
  Mo  Mo3  1  0.04773100  0.01385800  0.11810500  1
  Mo  Mo4  1  0.44811200  0.61272800  0.91944000  1
  Mo  Mo5  1  0.84827400  0.21298700  0.71872400  1
  Mo  Mo6  1  0.15146500  0.76462200  0.66372600  1
  Mo  Mo7  1  0.55100200  0.36375000  0.46315300  1
  Mo  Mo8  1  0.94936700  0.96416500  0.26278700  1
  Mo  Mo9  1  0.35170400  0.56328800  0.06288000  1
  Mo  Mo10  1  0.75252600  0.16322200  0.86245900  1
  Mo  Mo11  1  0.14358300  0.58204300  0.49901300  1
  Mo  Mo12  1  0.54484000  0.18320700  0.29961300  1
  Mo  Mo13  1  0.94320700  0.78234600  0.09880200  1
  Mo  Mo14  1  0.34388200  0.38116500  0.89922400  1
  Mo  Mo15  1  0.74454000  0.98271500  0.69955500  1
  Mo  Mo16  1  0.35200500  0.58720500  0.68080600  1
  Mo  Mo17  1  0.75192600  0.18700300  0.48099400  1
  Mo  Mo18  1  0.15172600  0.78701300  0.28127600  1
  Mo  Mo19  1  0.55188800  0.38727200  0.08056000  1
  Mo  Mo20  1  0.95226900  0.98614200  0.88189500  1
  Mo  Mo21  1  0.44899800  0.63625000  0.53684700  1
  Mo  Mo22  1  0.84853500  0.23537800  0.33627400  1
  Mo  Mo23  1  0.24747400  0.83677800  0.13754100  1
  Mo  Mo24  1  0.64829600  0.43671200  0.93712000  1
  Mo  Mo25  1  0.05063300  0.03583500  0.73721300  1
  Mo  Mo26  1  0.45516000  0.81679300  0.70038700  1
  Mo  Mo27  1  0.85641700  0.41795700  0.50098700  1
  Mo  Mo28  1  0.25546000  0.01728500  0.30044500  1
  Mo  Mo29  1  0.65611800  0.61883500  0.10077600  1
  Mo  Mo30  1  0.05679300  0.21765400  0.90119800  1
  Pb  Pb31  1  0.90024100  0.59976800  0.80007700  1
  Pb  Pb32  1  0.30041900  0.20027200  0.60008700  1
  Pb  Pb33  1  0.69958100  0.79972800  0.39991300  1
  Pb  Pb34  1  0.09975900  0.40023200  0.19992300  1
  S  S35  1  0.79058500  0.95173500  0.09668600  1
  S  S36  1  0.59300000  0.15140900  0.69758000  1
  S  S37  1  0.99252400  0.75092500  0.49782200  1
  S  S38  1  0.39241000  0.35073200  0.29756700  1
  S  S39  1  0.19288600  0.55039200  0.89700500  1
  S  S40  1  0.40700000  0.84859100  0.30242000  1
  S  S41  1  0.20941500  0.04826500  0.90331400  1
  S  S42  1  0.60759000  0.64926800  0.70243300  1
  S  S43  1  0.00747600  0.24907500  0.50217800  1
  S  S44  1  0.80711400  0.44960800  0.10299500  1
  S  S45  1  0.87790300  0.74954200  0.24516200  1
  S  S46  1  0.67627400  0.95049600  0.84677300  1
  S  S47  1  0.07777800  0.54984500  0.64496200  1
  S  S48  1  0.47696900  0.14928500  0.44494000  1
  S  S49  1  0.27713600  0.34995100  0.04517100  1
  S  S50  1  0.05122700  0.83240800  0.97933400  1
  S  S51  1  0.85180900  0.03269000  0.57969000  1
  S  S52  1  0.25159100  0.63267800  0.37918300  1
  S  S53  1  0.65049400  0.23029400  0.17756200  1
  S  S54  1  0.45162600  0.43227200  0.77919400  1
  S  S55  1  0.07130200  0.16808500  0.27629200  1
  S  S56  1  0.87217700  0.36893600  0.87682100  1
  S  S57  1  0.27140600  0.96857900  0.67631000  1
  S  S58  1  0.67173500  0.56865500  0.47676500  1
  S  S59  1  0.47198500  0.77129900  0.07585400  1
  S  S60  1  0.32372600  0.04950400  0.15322700  1
  S  S61  1  0.12209700  0.25045800  0.75483800  1
  S  S62  1  0.52303100  0.85071500  0.55506000  1
  S  S63  1  0.92222200  0.45015500  0.35503800  1
  S  S64  1  0.72286400  0.65004900  0.95482900  1
  S  S65  1  0.14819100  0.96731000  0.42031000  1
  S  S66  1  0.94877300  0.16759200  0.02066600  1
  S  S67  1  0.34950600  0.76970600  0.82243800  1
  S  S68  1  0.74840900  0.36732200  0.62081700  1
  S  S69  1  0.54837400  0.56772800  0.22080600  1
  S  S70  1  0.12782300  0.63106400  0.12317900  1
  S  S71  1  0.92869800  0.83191500  0.72370800  1
  S  S72  1  0.32826500  0.43134500  0.52323500  1
  S  S73  1  0.72859400  0.03142100  0.32369000  1
  S  S74  1  0.52801500  0.22870100  0.92414600  1
