# generated using pymatgen
data_Ca17Ni19(PO4)24
_symmetry_space_group_name_H-M   'P 1'
_cell_length_a   10.08912213
_cell_length_b   12.52426908
_cell_length_c   17.15028488
_cell_angle_alpha   99.13080536
_cell_angle_beta   89.93380739
_cell_angle_gamma   66.68335464
_symmetry_Int_Tables_number   1
_chemical_formula_structural   Ca17Ni19(PO4)24
_chemical_formula_sum   'Ca17 Ni19 P24 O96'
_cell_volume   1959.99432798
_cell_formula_units_Z   1
loop_
 _symmetry_equiv_pos_site_id
 _symmetry_equiv_pos_as_xyz
  1  'x, y, z'
loop_
 _atom_site_type_symbol
 _atom_site_label
 _atom_site_symmetry_multiplicity
 _atom_site_fract_x
 _atom_site_fract_y
 _atom_site_fract_z
 _atom_site_occupancy
  Ca  Ca0  1  0.11204723  0.67942499  0.06857572  1
  Ca  Ca1  1  0.79165798  0.31859042  0.43297985  1
  Ca  Ca2  1  0.88795393  0.32148035  0.93187452  1
  Ca  Ca3  1  0.20636642  0.67960307  0.56407698  1
  Ca  Ca4  1  0.51006035  0.82302430  0.89175849  1
  Ca  Ca5  1  0.33332823  0.17481076  0.60766935  1
  Ca  Ca6  1  0.48956166  0.17652360  0.10815681  1
  Ca  Ca7  1  0.66508192  0.82401250  0.39192744  1
  Ca  Ca8  1  0.10371773  0.99901335  0.25263785  1
  Ca  Ca9  1  0.89628722  0.99919713  0.74894100  1
  Ca  Ca10  1  0.53666403  0.62452260  0.06699413  1
  Ca  Ca11  1  0.16200930  0.37958115  0.43424147  1
  Ca  Ca12  1  0.46141731  0.37660391  0.93392491  1
  Ca  Ca13  1  0.83857304  0.62449200  0.56507101  1
  Ca  Ca14  1  0.03994965  0.12883641  0.08883574  1
  Ca  Ca15  1  0.82960349  0.13067796  0.58948478  1
  Ca  Ca16  1  0.96048705  0.87065627  0.91127334  1
  Ni  Ni17  1  0.14530838  0.47325583  0.22630344  1
  Ni  Ni18  1  0.61759310  0.52678689  0.27508497  1
  Ni  Ni19  1  0.85448942  0.52861155  0.77475609  1
  Ni  Ni20  1  0.38348280  0.47306009  0.72517916  1
  Ni  Ni21  1  0.67403613  0.83504663  0.04881928  1
  Ni  Ni22  1  0.50854540  0.16297308  0.45064899  1
  Ni  Ni23  1  0.32587852  0.16495705  0.95118334  1
  Ni  Ni24  1  0.49042237  0.83343215  0.54856248  1
  Ni  Ni25  1  0.57701941  0.00025906  0.25165465  1
  Ni  Ni26  1  0.42008147  0.00027068  0.75047658  1
  Ni  Ni27  1  0.73389649  0.21604037  0.23698488  1
  Ni  Ni28  1  0.94982295  0.78460493  0.26483535  1
  Ni  Ni29  1  0.26605386  0.78338815  0.75986950  1
  Ni  Ni30  1  0.04953022  0.21577559  0.73535253  1
  Ni  Ni31  1  0.89419928  0.47244292  0.13156364  1
  Ni  Ni32  1  0.36680081  0.52978709  0.36905347  1
  Ni  Ni33  1  0.10623423  0.52771604  0.86861060  1
  Ni  Ni34  1  0.63452118  0.47189307  0.63111130  1
  Ni  Ni35  1  0.17334523  0.86582213  0.40593306  1
  P  P36  1  0.69679895  0.36627177  0.10008570  1
  P  P37  1  0.06383206  0.64069683  0.40005082  1
  P  P38  1  0.30280776  0.63433945  0.90000955  1
  P  P39  1  0.93668311  0.36755919  0.60007387  1
  P  P40  1  0.34986409  0.99442110  0.40459369  1
  P  P41  1  0.35379459  0.99783651  0.09794522  1
  P  P42  1  0.64640069  0.99841053  0.59734835  1
  P  P43  1  0.64614872  0.00189764  0.90250909  1
  P  P44  1  0.81852982  0.61151998  0.97602764  1
  P  P45  1  0.42941745  0.38858812  0.52361201  1
  P  P46  1  0.18140138  0.38862520  0.02439812  1
  P  P47  1  0.57173760  0.61013845  0.47617452  1
  P  P48  1  0.28033303  0.67954487  0.22868012  1
  P  P49  1  0.95864099  0.32271440  0.27533571  1
  P  P50  1  0.71940537  0.32289201  0.77507769  1
  P  P51  1  0.04231743  0.67701238  0.72487442  1
  P  P52  1  0.71652521  0.72084733  0.21350821  1
  P  P53  1  0.43657745  0.27983569  0.28692590  1
  P  P54  1  0.28337471  0.27926536  0.78639119  1
  P  P55  1  0.56332215  0.72050957  0.71337428  1
  P  P56  1  0.83317429  0.05226691  0.37946395  1
  P  P57  1  0.88401538  0.94701969  0.12311118  1
  P  P58  1  0.16982393  0.94553557  0.61446092  1
  P  P59  1  0.11633607  0.05271657  0.87650804  1
  O  O60  1  0.87449110  0.63505402  0.18743854  1
  O  O61  1  0.50804593  0.36698588  0.31302779  1
  O  O62  1  0.12580630  0.36557714  0.81270016  1
  O  O63  1  0.49180616  0.63313612  0.68766849  1
  O  O64  1  0.82411580  0.51243473  0.02192730  1
  O  O65  1  0.33587500  0.48806257  0.47807046  1
  O  O66  1  0.17604090  0.48761658  0.97846519  1
  O  O67  1  0.66581757  0.51103656  0.52146228  1
  O  O68  1  0.62583578  0.75094673  0.14171236  1
  O  O69  1  0.37584732  0.24871212  0.35854139  1
  O  O70  1  0.37428954  0.24872648  0.85812557  1
  O  O71  1  0.62457660  0.75068511  0.64171971  1
  O  O72  1  0.65509289  0.68684640  0.96927905  1
  O  O73  1  0.34143721  0.31191997  0.52984499  1
  O  O74  1  0.34478355  0.31306830  0.03108739  1
  O  O75  1  0.65989971  0.68625595  0.46911127  1
  O  O76  1  0.96032381  0.93210254  0.34238125  1
  O  O77  1  0.88836356  0.06532580  0.16595252  1
  O  O78  1  0.04678422  0.06230407  0.65914180  1
  O  O79  1  0.11222854  0.93471353  0.83234210  1
  O  O80  1  0.86356289  0.31166552  0.07738126  1
  O  O81  1  0.17267356  0.70140865  0.42043841  1
  O  O82  1  0.13610608  0.68832923  0.92284534  1
  O  O83  1  0.82377160  0.31285445  0.57771728  1
  O  O84  1  0.64975526  0.28258261  0.13807589  1
  O  O85  1  0.93028320  0.71707143  0.36164142  1
  O  O86  1  0.34915132  0.71792174  0.86147475  1
  O  O87  1  0.06646269  0.28386249  0.63771081  1
  O  O88  1  0.89584012  0.55097326  0.89294784  1
  O  O89  1  0.44711240  0.44850650  0.60679578  1
  O  O90  1  0.10447951  0.44940349  0.10756983  1
  O  O91  1  0.55405423  0.55038156  0.39292622  1
  O  O92  1  0.72830068  0.83764518  0.25844460  1
  O  O93  1  0.56482771  0.16381017  0.24236903  1
  O  O94  1  0.27000499  0.16304492  0.74153019  1
  O  O95  1  0.43386349  0.83653260  0.75729979  1
  O  O96  1  0.67206318  0.48642023  0.15683033  1
  O  O97  1  0.16074284  0.51939059  0.34478898  1
  O  O98  1  0.32819388  0.51379070  0.84353031  1
  O  O99  1  0.84196900  0.48750052  0.65665990  1
  O  O100  1  0.40169936  0.87863060  0.44124374  1
  O  O101  1  0.28562771  0.11212671  0.05909362  1
  O  O102  1  0.60044835  0.11289395  0.55863213  1
  O  O103  1  0.71430787  0.88759660  0.94123629  1
  O  O104  1  0.82708620  0.14850495  0.32987437  1
  O  O105  1  0.97572296  0.84721321  0.16947495  1
  O  O106  1  0.17781099  0.84488040  0.66084294  1
  O  O107  1  0.02486861  0.15379292  0.83128975  1
  O  O108  1  0.46101472  0.96937672  0.33477298  1
  O  O109  1  0.44091653  0.02906881  0.16493321  1
  O  O110  1  0.52958333  0.02907902  0.66485948  1
  O  O111  1  0.55940191  0.97063351  0.83536511  1
  O  O112  1  0.86926165  0.09852677  0.46057922  1
  O  O113  1  0.96699486  0.91176544  0.04198782  1
  O  O114  1  0.12826138  0.91063692  0.53073611  1
  O  O115  1  0.03420086  0.08623300  0.95778591  1
  O  O116  1  0.32589685  0.68030662  0.14313825  1
  O  O117  1  0.00046576  0.32886461  0.36178080  1
  O  O118  1  0.67160318  0.32873491  0.86154647  1
  O  O119  1  0.00051968  0.67071022  0.63859472  1
  O  O120  1  0.61435688  0.40127438  0.02683547  1
  O  O121  1  0.02152551  0.60602077  0.47522168  1
  O  O122  1  0.38401928  0.60020011  0.97391713  1
  O  O123  1  0.98450639  0.40245347  0.52662994  1
  O  O124  1  0.88336522  0.69478589  0.02050109  1
  O  O125  1  0.57575945  0.30618682  0.47862705  1
  O  O126  1  0.11665607  0.30531790  0.97989961  1
  O  O127  1  0.42550423  0.69083959  0.52166623  1
  O  O128  1  0.23093787  0.80217035  0.28170875  1
  O  O129  1  0.03323277  0.19834072  0.22678723  1
  O  O130  1  0.77006740  0.19829420  0.72660806  1
  O  O131  1  0.96795764  0.80130477  0.77351537  1
  O  O132  1  0.64867933  0.67861494  0.27702791  1
  O  O133  1  0.32662216  0.32162666  0.22356552  1
  O  O134  1  0.35188398  0.32103360  0.72284671  1
  O  O135  1  0.67205385  0.67991178  0.77745694  1
  O  O136  1  0.19573741  0.01446960  0.37813672  1
  O  O137  1  0.22902552  0.97127595  0.12934957  1
  O  O138  1  0.79762115  0.97167144  0.62809431  1
  O  O139  1  0.77098984  0.02867037  0.87150727  1
  O  O140  1  0.68779418  0.03509620  0.37935695  1
  O  O141  1  0.72417115  0.96087390  0.12040970  1
  O  O142  1  0.31480525  0.96220355  0.61676286  1
  O  O143  1  0.27646144  0.03866565  0.87938344  1
  O  O144  1  0.39999795  0.58524738  0.26712656  1
  O  O145  1  0.98592204  0.41472421  0.23369856  1
  O  O146  1  0.60112827  0.41361404  0.73312348  1
  O  O147  1  0.01525114  0.58537273  0.76690921  1
  O  O148  1  0.35058112  0.09932509  0.46642868  1
  O  O149  1  0.45650165  0.89588989  0.03385345  1
  O  O150  1  0.64523440  0.89653486  0.53312256  1
  O  O151  1  0.54315722  0.10395814  0.96644658  1
  O  O152  1  0.14816833  0.64113162  0.22057731  1
  O  O153  1  0.78865592  0.36000170  0.28103176  1
  O  O154  1  0.85182814  0.36117412  0.78106489  1
  O  O155  1  0.21217689  0.63990206  0.71910915  1
