# generated using pymatgen
data_KNaMo2O5
_symmetry_space_group_name_H-M   'P 1'
_cell_length_a   11.49589711
_cell_length_b   11.77643094
_cell_length_c   17.48134405
_cell_angle_alpha   109.76154013
_cell_angle_beta   109.22117133
_cell_angle_gamma   89.89269203
_symmetry_Int_Tables_number   1
_chemical_formula_structural   KNaMo2O5
_chemical_formula_sum   'K16 Na16 Mo32 O80'
_cell_volume   2087.09167804
_cell_formula_units_Z   16
loop_
 _symmetry_equiv_pos_site_id
 _symmetry_equiv_pos_as_xyz
  1  'x, y, z'
loop_
 _atom_site_type_symbol
 _atom_site_label
 _atom_site_symmetry_multiplicity
 _atom_site_fract_x
 _atom_site_fract_y
 _atom_site_fract_z
 _atom_site_occupancy
  K  K0  1  0.30493200  0.06624700  0.10897800  1
  K  K1  1  0.30443000  0.56240400  0.10842800  1
  K  K2  1  0.80592700  0.06475800  0.11070000  1
  K  K3  1  0.80554100  0.56294000  0.10921000  1
  K  K4  1  0.20017500  0.93622700  0.39461300  1
  K  K5  1  0.19226500  0.92942800  0.88304600  1
  K  K6  1  0.70072100  0.43645000  0.39572700  1
  K  K7  1  0.69265200  0.42982300  0.88383100  1
  K  K8  1  0.69921200  0.93453900  0.39507800  1
  K  K9  1  0.05771400  0.29571600  0.10918000  1
  K  K10  1  0.05481200  0.79219400  0.10760700  1
  K  K11  1  0.55412000  0.29344600  0.10750800  1
  K  K12  1  0.55498400  0.79411100  0.10670300  1
  K  K13  1  0.45107100  0.71037400  0.39589400  1
  K  K14  1  0.44110600  0.70443700  0.88307500  1
  K  K15  1  0.94179700  0.70285600  0.88298500  1
  Na  Na16  1  0.30021500  0.06918800  0.60445400  1
  Na  Na17  1  0.30105100  0.56523000  0.60189200  1
  Na  Na18  1  0.80215200  0.06710300  0.60465700  1
  Na  Na19  1  0.79963700  0.56751600  0.60282900  1
  Na  Na20  1  0.20178500  0.43724200  0.40310600  1
  Na  Na21  1  0.19804800  0.43339400  0.89531300  1
  Na  Na22  1  0.69697800  0.93351000  0.89469900  1
  Na  Na23  1  0.05160000  0.28471700  0.60314200  1
  Na  Na24  1  0.05134500  0.78632100  0.60259300  1
  Na  Na25  1  0.55105900  0.28623500  0.60241300  1
  Na  Na26  1  0.55201600  0.78633400  0.60389400  1
  Na  Na27  1  0.45140800  0.21514400  0.40393100  1
  Na  Na28  1  0.44700800  0.21124900  0.89496900  1
  Na  Na29  1  0.95067700  0.21636900  0.40343500  1
  Na  Na30  1  0.94658200  0.21175000  0.89489800  1
  Na  Na31  1  0.95051900  0.71520800  0.40278700  1
  Mo  Mo32  1  0.00493100  0.99867800  0.99564500  1
  Mo  Mo33  1  0.01368400  0.00224600  0.50482400  1
  Mo  Mo34  1  0.00444900  0.49597900  0.99478800  1
  Mo  Mo35  1  0.01441300  0.50169900  0.50294200  1
  Mo  Mo36  1  0.50459400  0.99824800  0.99411000  1
  Mo  Mo37  1  0.51365400  0.00503300  0.50660100  1
  Mo  Mo38  1  0.50501500  0.49644100  0.99515200  1
  Mo  Mo39  1  0.51421100  0.50153600  0.50589400  1
  Mo  Mo40  1  0.25483800  0.24821700  0.99440900  1
  Mo  Mo41  1  0.26370100  0.25323800  0.50443700  1
  Mo  Mo42  1  0.25429700  0.74659400  0.99484700  1
  Mo  Mo43  1  0.26305500  0.75063900  0.50461300  1
  Mo  Mo44  1  0.75547800  0.24528800  0.99346900  1
  Mo  Mo45  1  0.76570900  0.25129600  0.50506000  1
  Mo  Mo46  1  0.75471300  0.74903800  0.99558500  1
  Mo  Mo47  1  0.76496100  0.75297300  0.50678100  1
  Mo  Mo48  1  0.09846700  0.10581800  0.25726200  1
  Mo  Mo49  1  0.08888100  0.09604100  0.74647200  1
  Mo  Mo50  1  0.09711400  0.59352800  0.25682300  1
  Mo  Mo51  1  0.09041100  0.58386200  0.74089800  1
  Mo  Mo52  1  0.59842500  0.09996300  0.25507700  1
  Mo  Mo53  1  0.58892700  0.08874900  0.74618400  1
  Mo  Mo54  1  0.59970400  0.59266800  0.25187700  1
  Mo  Mo55  1  0.58954200  0.58958300  0.74325600  1
  Mo  Mo56  1  0.34640900  0.40362400  0.25741000  1
  Mo  Mo57  1  0.33865700  0.39959700  0.74630000  1
  Mo  Mo58  1  0.34889900  0.91413400  0.25254700  1
  Mo  Mo59  1  0.34021800  0.90936400  0.74220400  1
  Mo  Mo60  1  0.85434200  0.40608600  0.25396700  1
  Mo  Mo61  1  0.84282500  0.39999500  0.74298300  1
  Mo  Mo62  1  0.85172800  0.91051800  0.25505400  1
  Mo  Mo63  1  0.83726800  0.91065300  0.74659600  1
  O  O64  1  0.12822700  0.12447400  0.49003300  1
  O  O65  1  0.12215500  0.12087000  0.98400500  1
  O  O66  1  0.12766500  0.61685700  0.48437200  1
  O  O67  1  0.12406400  0.61400800  0.98340700  1
  O  O68  1  0.63035900  0.12503900  0.49356800  1
  O  O69  1  0.62300900  0.11544700  0.98057000  1
  O  O70  1  0.63217800  0.62343100  0.49487600  1
  O  O71  1  0.62371300  0.61886300  0.98594700  1
  O  O72  1  0.13240800  0.37609200  0.00211100  1
  O  O73  1  0.14619500  0.38609000  0.51920700  1
  O  O74  1  0.13401800  0.87667400  0.00626600  1
  O  O75  1  0.14428900  0.88183400  0.51996200  1
  O  O76  1  0.63268600  0.37380200  0.00414800  1
  O  O77  1  0.64602400  0.38384000  0.52153800  1
  O  O78  1  0.63442400  0.87881200  0.00433600  1
  O  O79  1  0.64727200  0.88724800  0.52452100  1
  O  O80  1  0.38157900  0.12294300  0.48986700  1
  O  O81  1  0.37438200  0.11849900  0.98228100  1
  O  O82  1  0.37893400  0.61692500  0.49245500  1
  O  O83  1  0.37135600  0.61358400  0.98373200  1
  O  O84  1  0.88247600  0.12007000  0.48953500  1
  O  O85  1  0.87309200  0.11507700  0.98164100  1
  O  O86  1  0.88365700  0.62227600  0.49195800  1
  O  O87  1  0.87370400  0.61709500  0.98617400  1
  O  O88  1  0.38290100  0.37725900  0.00310100  1
  O  O89  1  0.39616800  0.38544600  0.52031000  1
  O  O90  1  0.38339200  0.87893400  0.00561600  1
  O  O91  1  0.39698600  0.89007200  0.52494400  1
  O  O92  1  0.88514300  0.37589600  0.00467500  1
  O  O93  1  0.89793100  0.38556500  0.52110900  1
  O  O94  1  0.88175200  0.87973600  0.00449400  1
  O  O95  1  0.89653100  0.88621600  0.52163200  1
  O  O96  1  0.07443400  0.09001500  0.13833700  1
  O  O97  1  0.09003400  0.10991800  0.64019300  1
  O  O98  1  0.07691400  0.58575900  0.14097900  1
  O  O99  1  0.09537300  0.61001400  0.64034900  1
  O  O100  1  0.57457600  0.08965000  0.13752000  1
  O  O101  1  0.59002300  0.11154200  0.64347800  1
  O  O102  1  0.57678800  0.59004100  0.13686000  1
  O  O103  1  0.59254100  0.61209700  0.64083300  1
  O  O104  1  0.44783400  0.39164300  0.36514100  1
  O  O105  1  0.43970600  0.39393200  0.85632000  1
  O  O106  1  0.44550700  0.90896200  0.36475800  1
  O  O107  1  0.44134700  0.90803800  0.85455200  1
  O  O108  1  0.95144300  0.39155500  0.36313600  1
  O  O109  1  0.93891400  0.39714900  0.85551500  1
  O  O110  1  0.94451000  0.89342900  0.36427600  1
  O  O111  1  0.94127900  0.90669900  0.85681600  1
  O  O112  1  0.32486600  0.30198200  0.13848300  1
  O  O113  1  0.33884000  0.27976400  0.63998300  1
  O  O114  1  0.32975300  0.79910400  0.13967200  1
  O  O115  1  0.34030400  0.77943300  0.64114600  1
  O  O116  1  0.83269500  0.29840000  0.13815400  1
  O  O117  1  0.84620000  0.27609400  0.64006300  1
  O  O118  1  0.83221600  0.80106800  0.13998000  1
  O  O119  1  0.84198100  0.78544100  0.64406500  1
  O  O120  1  0.20428100  0.22331700  0.36440900  1
  O  O121  1  0.19328800  0.21104900  0.85581700  1
  O  O122  1  0.20251600  0.70965400  0.36552500  1
  O  O123  1  0.18613900  0.69691700  0.85531700  1
  O  O124  1  0.70856100  0.20816600  0.36497300  1
  O  O125  1  0.69995900  0.19949000  0.85551700  1
  O  O126  1  0.69989600  0.70422900  0.36535000  1
  O  O127  1  0.68351800  0.70740000  0.85578500  1
  O  O128  1  0.44126600  0.07114200  0.26687600  1
  O  O129  1  0.41973600  0.06602100  0.74732300  1
  O  O130  1  0.44048800  0.54620900  0.25344200  1
  O  O131  1  0.42020300  0.54212400  0.73317400  1
  O  O132  1  0.94283000  0.06820000  0.26904000  1
  O  O133  1  0.92171600  0.06323000  0.74764200  1
  O  O134  1  0.93792300  0.56619200  0.26678800  1
  O  O135  1  0.91974300  0.54484100  0.73156100  1
  O  O136  1  0.18857000  0.44831000  0.26740700  1
  O  O137  1  0.17143500  0.43228900  0.74624700  1
  O  O138  1  0.18651800  0.95604300  0.25159700  1
  O  O139  1  0.16867800  0.93987900  0.73293000  1
  O  O140  1  0.69190600  0.44786400  0.25280500  1
  O  O141  1  0.67319400  0.43636300  0.73324400  1
  O  O142  1  0.68839400  0.95213200  0.25221100  1
  O  O143  1  0.66743000  0.93445300  0.74637200  1
