# generated using pymatgen
data_Ba4Sr2Gd2Co4O15
_symmetry_space_group_name_H-M   'P 1'
_cell_length_a   6.87866100
_cell_length_b   11.70811613
_cell_length_c   11.73681664
_cell_angle_alpha   119.87801004
_cell_angle_beta   90.31973439
_cell_angle_gamma   90.29589771
_symmetry_Int_Tables_number   1
_chemical_formula_structural   Ba4Sr2Gd2Co4O15
_chemical_formula_sum   'Ba8 Sr4 Gd4 Co8 O30'
_cell_volume   819.55750952
_cell_formula_units_Z   2
loop_
 _symmetry_equiv_pos_site_id
 _symmetry_equiv_pos_as_xyz
  1  'x, y, z'
loop_
 _atom_site_type_symbol
 _atom_site_label
 _atom_site_symmetry_multiplicity
 _atom_site_fract_x
 _atom_site_fract_y
 _atom_site_fract_z
 _atom_site_occupancy
  Ba  Ba0  1  0.67060200  0.82239600  0.17324500  1
  Ba  Ba1  1  0.67364400  0.82531400  0.65128800  1
  Ba  Ba2  1  0.66619600  0.34752500  0.17410100  1
  Ba  Ba3  1  0.17305500  0.17213300  0.82372800  1
  Ba  Ba4  1  0.16621600  0.17288900  0.34464900  1
  Ba  Ba5  1  0.17365400  0.65371200  0.82696900  1
  Ba  Ba6  1  0.98492600  0.66631100  0.33433100  1
  Ba  Ba7  1  0.49387200  0.33494500  0.66569600  1
  Sr  Sr8  1  0.48423700  0.99990300  0.99983200  1
  Sr  Sr9  1  0.98306900  0.00052500  0.00028000  1
  Sr  Sr10  1  0.33504500  0.52466000  0.04947700  1
  Sr  Sr11  1  0.83101800  0.04775800  0.52301800  1
  Gd  Gd12  1  0.33972900  0.52135000  0.47627700  1
  Gd  Gd13  1  0.33248600  0.94960000  0.47492400  1
  Gd  Gd14  1  0.83855000  0.47505200  0.52077800  1
  Gd  Gd15  1  0.83128000  0.47597700  0.95262200  1
  Co  Co16  1  0.16096800  0.82096800  0.17341600  1
  Co  Co17  1  0.16713600  0.82138300  0.64857700  1
  Co  Co18  1  0.15794200  0.35317800  0.17343300  1
  Co  Co19  1  0.66302900  0.17291700  0.82104500  1
  Co  Co20  1  0.65484700  0.17204900  0.35058900  1
  Co  Co21  1  0.66887300  0.64863300  0.82170600  1
  Co  Co22  1  0.51772500  0.66150200  0.33154000  1
  Co  Co23  1  0.03541000  0.33176700  0.66465200  1
  O  O24  1  0.51779900  0.06132300  0.66783500  1
  O  O25  1  0.52938300  0.33612500  0.39862000  1
  O  O26  1  0.55215100  0.60161700  0.93401800  1
  O  O27  1  0.51582400  0.06624100  0.39565700  1
  O  O28  1  0.54513500  0.33162200  0.93686100  1
  O  O29  1  0.53715600  0.60300700  0.66311300  1
  O  O30  1  0.04593500  0.93761200  0.33286100  1
  O  O31  1  0.03728600  0.66324300  0.60381600  1
  O  O32  1  0.01787100  0.39606600  0.06785800  1
  O  O33  1  0.05094200  0.93481500  0.60168500  1
  O  O34  1  0.01897700  0.66940100  0.06208700  1
  O  O35  1  0.03532200  0.40126500  0.33735700  1
  O  O36  1  0.33507400  0.75739000  0.25717200  1
  O  O37  1  0.34021700  0.74838900  0.50307400  1
  O  O38  1  0.34000800  0.50090500  0.26048500  1
  O  O39  1  0.83764900  0.25446900  0.75793000  1
  O  O40  1  0.83674100  0.25819900  0.49499300  1
  O  O41  1  0.84135000  0.50274400  0.74621300  1
  O  O42  1  0.67021700  0.58073100  0.42049000  1
  O  O43  1  0.67568900  0.58429500  0.16866700  1
  O  O44  1  0.65656200  0.82445200  0.41264400  1
  O  O45  1  0.17294300  0.42008100  0.58125000  1
  O  O46  1  0.15734400  0.41882500  0.83269800  1
  O  O47  1  0.17207400  0.17020700  0.58372500  1
  O  O48  1  0.74310100  0.08664900  0.90577900  1
  O  O49  1  0.74543600  0.09603300  0.18436800  1
  O  O50  1  0.74093000  0.82078700  0.90680400  1
  O  O51  1  0.24307400  0.90677500  0.08846700  1
  O  O52  1  0.23901800  0.90772600  0.82066600  1
  O  O53  1  0.24808400  0.18655600  0.09663700  1
