# generated using pymatgen
data_AsH25(ClO)10
_symmetry_space_group_name_H-M   'P 1'
_cell_length_a   9.93678159
_cell_length_b   9.93678159
_cell_length_c   12.47515928
_cell_angle_alpha   86.49460586
_cell_angle_beta   86.49460586
_cell_angle_gamma   86.37209594
_symmetry_Int_Tables_number   1
_chemical_formula_structural   AsH25(ClO)10
_chemical_formula_sum   'As2 H50 Cl20 O20'
_cell_volume   1224.99427343
_cell_formula_units_Z   2
loop_
 _symmetry_equiv_pos_site_id
 _symmetry_equiv_pos_as_xyz
  1  'x, y, z'
loop_
 _atom_site_type_symbol
 _atom_site_label
 _atom_site_symmetry_multiplicity
 _atom_site_fract_x
 _atom_site_fract_y
 _atom_site_fract_z
 _atom_site_occupancy
  As  As0  1  0.00008900  0.49943900  0.49996500  1
  As  As1  1  0.49943900  0.00008900  0.99996500  1
  H  H2  1  0.08381900  0.95097400  0.88404300  1
  H  H3  1  0.04666500  0.91563200  0.62440000  1
  H  H4  1  0.91563200  0.04666500  0.12440000  1
  H  H5  1  0.95097400  0.08381900  0.38404300  1
  H  H6  1  0.88001700  0.28824200  0.82341800  1
  H  H7  1  0.70826900  0.12364200  0.68208700  1
  H  H8  1  0.12364200  0.70826900  0.18208700  1
  H  H9  1  0.28824200  0.88001700  0.32341800  1
  H  H10  1  0.29799700  0.09672100  0.47348700  1
  H  H11  1  0.90300000  0.70197900  0.02663800  1
  H  H12  1  0.70197900  0.90300000  0.52663800  1
  H  H13  1  0.09672100  0.29799700  0.97348700  1
  H  H14  1  0.20702200  0.24190100  0.73111100  1
  H  H15  1  0.75861100  0.79344400  0.76821000  1
  H  H16  1  0.79344400  0.75861100  0.26821000  1
  H  H17  1  0.24190100  0.20702200  0.23111100  1
  H  H18  1  0.44983200  0.16164000  0.49210800  1
  H  H19  1  0.83386400  0.55251000  0.00730600  1
  H  H20  1  0.55251000  0.83386400  0.50730600  1
  H  H21  1  0.16164000  0.44983200  0.99210800  1
  H  H22  1  0.13994600  0.79104800  0.88593200  1
  H  H23  1  0.20373700  0.85695200  0.62254700  1
  H  H24  1  0.85695200  0.20373700  0.12254700  1
  H  H25  1  0.79104800  0.13994600  0.38593200  1
  H  H26  1  0.35322200  0.19259800  0.75708000  1
  H  H27  1  0.81014100  0.64804000  0.74215500  1
  H  H28  1  0.64804000  0.81014100  0.24215500  1
  H  H29  1  0.19259800  0.35322200  0.25708000  1
  H  H30  1  0.37580700  0.40497200  0.67645200  1
  H  H31  1  0.59329200  0.61906400  0.81911400  1
  H  H32  1  0.61906400  0.59329200  0.31911400  1
  H  H33  1  0.40497200  0.37580700  0.17645200  1
  H  H34  1  0.41010500  0.55559100  0.61935900  1
  H  H35  1  0.44380300  0.58719500  0.87461200  1
  H  H36  1  0.58719500  0.44380300  0.37461200  1
  H  H37  1  0.55559100  0.41010500  0.11935900  1
  H  H38  1  0.74593000  0.34512300  0.88586700  1
  H  H39  1  0.65879000  0.25768100  0.61866800  1
  H  H40  1  0.25768100  0.65879000  0.11866800  1
  H  H41  1  0.34512300  0.74593000  0.38586700  1
  H  H42  1  0.32957500  0.16537400  0.59303600  1
  H  H43  1  0.83481400  0.67164400  0.90586100  1
  H  H44  1  0.67164400  0.83481400  0.40586100  1
  H  H45  1  0.16537400  0.32957500  0.09303600  1
  H  H46  1  0.72824800  0.27837600  0.75471300  1
  H  H47  1  0.27837600  0.72824800  0.25471300  1
  H  H48  1  0.11125200  0.88379800  0.75714500  1
  H  H49  1  0.88379800  0.11125200  0.25714500  1
  H  H50  1  0.48089600  0.51353400  0.74482600  1
  H  H51  1  0.51353400  0.48089600  0.24482600  1
  Cl  Cl52  1  0.06127700  0.55027800  0.66664200  1
  Cl  Cl53  1  0.44846600  0.93933500  0.83348600  1
  Cl  Cl54  1  0.93933500  0.44846600  0.33348600  1
  Cl  Cl55  1  0.55027800  0.06127700  0.16664200  1
  Cl  Cl56  1  0.05105600  0.18381700  0.86688100  1
  Cl  Cl57  1  0.81461700  0.94962700  0.63423400  1
  Cl  Cl58  1  0.94962700  0.81461700  0.13423400  1
  Cl  Cl59  1  0.18381700  0.05105600  0.36688000  1
  Cl  Cl60  1  0.97787100  0.28121100  0.56156500  1
  Cl  Cl61  1  0.71764200  0.02237600  0.93895400  1
  Cl  Cl62  1  0.02237600  0.71764200  0.43895400  1
  Cl  Cl63  1  0.28121100  0.97787100  0.06156500  1
  Cl  Cl64  1  0.22233900  0.44747100  0.44886200  1
  Cl  Cl65  1  0.55103600  0.77798100  0.05108700  1
  Cl  Cl66  1  0.77798100  0.55103600  0.55108700  1
  Cl  Cl67  1  0.44747100  0.22233900  0.94886200  1
  Cl  Cl68  1  0.61204500  0.24788200  0.44214700  1
  Cl  Cl69  1  0.74653400  0.38937900  0.05357100  1
  Cl  Cl70  1  0.38937900  0.74653400  0.55357100  1
  Cl  Cl71  1  0.24788200  0.61204500  0.94214700  1
  O  O72  1  0.08169200  0.86404300  0.84954800  1
  O  O73  1  0.13303100  0.91498700  0.66004300  1
  O  O74  1  0.91498700  0.13303100  0.16004300  1
  O  O75  1  0.86404300  0.08169200  0.34954800  1
  O  O76  1  0.36856400  0.11366900  0.52815800  1
  O  O77  1  0.88459000  0.63203700  0.97182200  1
  O  O78  1  0.63203700  0.88459000  0.47182200  1
  O  O79  1  0.11366900  0.36856400  0.02815800  1
  O  O80  1  0.30190600  0.24187800  0.70079900  1
  O  O81  1  0.75983800  0.69846200  0.79847700  1
  O  O82  1  0.69846200  0.75983800  0.29847700  1
  O  O83  1  0.24187800  0.30190600  0.20079900  1
  O  O84  1  0.44365000  0.47518400  0.66510500  1
  O  O85  1  0.52298100  0.55203900  0.82896000  1
  O  O86  1  0.55203900  0.52298100  0.32896000  1
  O  O87  1  0.47518400  0.44365000  0.16510500  1
  O  O88  1  0.78952600  0.33742800  0.81202000  1
  O  O89  1  0.66298300  0.21541200  0.69250000  1
  O  O90  1  0.21541200  0.66298300  0.19250000  1
  O  O91  1  0.33742800  0.78952600  0.31202000  1
