# generated using pymatgen
data_Be8P8H34N8O33
_symmetry_space_group_name_H-M   'P 1'
_cell_length_a   9.51004700
_cell_length_b   13.10476376
_cell_length_c   13.10476376
_cell_angle_alpha   88.77293208
_cell_angle_beta   90.00000000
_cell_angle_gamma   90.00000000
_symmetry_Int_Tables_number   1
_chemical_formula_structural   Be8P8H34N8O33
_chemical_formula_sum   'Be16 P16 H68 N16 O66'
_cell_volume   1632.83180565
_cell_formula_units_Z   2
loop_
 _symmetry_equiv_pos_site_id
 _symmetry_equiv_pos_as_xyz
  1  'x, y, z'
loop_
 _atom_site_type_symbol
 _atom_site_label
 _atom_site_symmetry_multiplicity
 _atom_site_fract_x
 _atom_site_fract_y
 _atom_site_fract_z
 _atom_site_occupancy
  Be  Be0  1  0.86682419  0.86460183  0.54418434  1
  Be  Be1  1  0.36682419  0.95581566  0.63539817  1
  Be  Be2  1  0.36682419  0.54418434  0.86460183  1
  Be  Be3  1  0.86682419  0.63539817  0.95581566  1
  Be  Be4  1  0.12971737  0.13358261  0.45584844  1
  Be  Be5  1  0.62971737  0.04415156  0.36641739  1
  Be  Be6  1  0.62971737  0.45584844  0.13358261  1
  Be  Be7  1  0.12971737  0.36641739  0.04415156  1
  Be  Be8  1  0.07387916  0.01510239  0.86319666  1
  Be  Be9  1  0.57387916  0.63680334  0.48489761  1
  Be  Be10  1  0.57387916  0.86319666  0.01510239  1
  Be  Be11  1  0.07387916  0.48489761  0.63680334  1
  Be  Be12  1  0.92445442  0.98492759  0.13625922  1
  Be  Be13  1  0.42445442  0.36374078  0.51507241  1
  Be  Be14  1  0.42445442  0.13625922  0.98492759  1
  Be  Be15  1  0.92445442  0.51507241  0.36374078  1
  P  P16  1  0.37603104  0.95831516  0.86430454  1
  P  P17  1  0.87603104  0.63569546  0.54168484  1
  P  P18  1  0.87603104  0.86430454  0.95831516  1
  P  P19  1  0.37603104  0.54168484  0.63569546  1
  P  P20  1  0.62253291  0.04336215  0.13556366  1
  P  P21  1  0.12253291  0.36443634  0.45663785  1
  P  P22  1  0.12253291  0.13556366  0.04336215  1
  P  P23  1  0.62253291  0.45663785  0.36443634  1
  P  P24  1  0.06251212  0.01089282  0.63991616  1
  P  P25  1  0.56251212  0.86008384  0.48910718  1
  P  P26  1  0.56251212  0.63991616  0.01089282  1
  P  P27  1  0.06251212  0.48910718  0.86008384  1
  P  P28  1  0.93375395  0.98671126  0.36081506  1
  P  P29  1  0.43375395  0.13918494  0.51328874  1
  P  P30  1  0.43375395  0.36081506  0.98671126  1
  P  P31  1  0.93375395  0.51328874  0.13918494  1
  H  H32  1  0.21243207  0.82197474  0.95355633  1
  H  H33  1  0.71243207  0.54644367  0.67802526  1
  H  H34  1  0.71243207  0.95355633  0.82197474  1
  H  H35  1  0.21243207  0.67802526  0.54644367  1
  H  H36  1  0.79035371  0.17827301  0.04473050  1
  H  H37  1  0.29035371  0.45526950  0.32172699  1
  H  H38  1  0.29035371  0.04473050  0.17827301  1
  H  H39  1  0.79035371  0.32172699  0.45526950  1
  H  H40  1  0.03385435  0.31712331  0.75447988  1
  H  H41  1  0.53385435  0.74552012  0.18287669  1
  H  H42  1  0.53385435  0.75447988  0.31712331  1
  H  H43  1  0.03385435  0.18287669  0.74552012  1
  H  H44  1  0.98712167  0.67885594  0.24590841  1
  H  H45  1  0.48712167  0.25409159  0.82114406  1
  H  H46  1  0.48712167  0.24590841  0.67885594  1
  H  H47  1  0.98712167  0.82114406  0.25409159  1
  H  H48  1  0.29220912  0.70214561  0.96666613  1
  H  H49  1  0.79220912  0.53333387  0.79785439  1
  H  H50  1  0.79220912  0.96666613  0.70214561  1
  H  H51  1  0.29220912  0.79785439  0.53333387  1
  H  H52  1  0.70911496  0.29676529  0.02986505  1
  H  H53  1  0.20911496  0.47013495  0.20323471  1
  H  H54  1  0.20911496  0.02986505  0.29676529  1
  H  H55  1  0.70911496  0.20323471  0.47013495  1
  H  H56  1  0.15290450  0.68516494  0.75755750  1
  H  H57  1  0.65290450  0.74244250  0.81483506  1
  H  H58  1  0.65290450  0.75755750  0.68516494  1
  H  H59  1  0.15290450  0.81483506  0.74244250  1
  H  H60  1  0.84601974  0.31482483  0.24322661  1
  H  H61  1  0.34601974  0.25677339  0.18517517  1
  H  H62  1  0.34601974  0.24322661  0.31482483  1
  H  H63  1  0.84601974  0.18517517  0.25677339  1
  H  H64  1  0.24630497  0.76976366  0.06659983  1
  H  H65  1  0.74630497  0.43340017  0.73023634  1
  H  H66  1  0.74630497  0.06659983  0.76976366  1
  H  H67  1  0.24630497  0.73023634  0.43340017  1
  H  H68  1  0.76170163  0.22975854  0.93044108  1
  H  H69  1  0.26170163  0.56955892  0.27024146  1
  H  H70  1  0.26170163  0.93044108  0.22975854  1
  H  H71  1  0.76170163  0.27024146  0.56955892  1
  H  H72  1  0.11363744  0.72080801  0.99577196  1
  H  H73  1  0.61363744  0.50422804  0.77919199  1
  H  H74  1  0.61363744  0.99577196  0.72080801  1
  H  H75  1  0.11363744  0.77919199  0.50422804  1
  H  H76  1  0.88872444  0.28034533  0.00391566  1
  H  H77  1  0.38872444  0.49608434  0.21965467  1
  H  H78  1  0.38872444  0.00391566  0.28034533  1
  H  H79  1  0.88872444  0.21965467  0.49608434  1
  H  H80  1  0.02708914  0.75514088  0.81477747  1
  H  H81  1  0.52708914  0.68522253  0.74485912  1
  H  H82  1  0.52708914  0.81477747  0.75514088  1
  H  H83  1  0.02708914  0.74485912  0.68522253  1
  H  H84  1  0.97205893  0.24538163  0.18517439  1
  H  H85  1  0.47205893  0.31482561  0.25461837  1
  H  H86  1  0.47205893  0.18517439  0.24538163  1
  H  H87  1  0.97205893  0.25461837  0.31482561  1
  H  H88  1  0.91338122  0.25686090  0.68479403  1
  H  H89  1  0.41338122  0.81520597  0.24313910  1
  H  H90  1  0.41338122  0.68479403  0.25686090  1
  H  H91  1  0.91338122  0.24313910  0.81520597  1
  H  H92  1  0.10410154  0.74421474  0.31485454  1
  H  H93  1  0.60410154  0.18514546  0.75578526  1
  H  H94  1  0.60410154  0.31485454  0.74421474  1
  H  H95  1  0.10410154  0.75578526  0.18514546  1
  H  H96  1  0.29086214  0.25994747  0.68956023  1
  H  H97  1  0.79086214  0.81043977  0.24005253  1
  H  H98  1  0.79086214  0.68956023  0.25994747  1
  H  H99  1  0.29086214  0.24005253  0.81043977  1
  N  N100  1  0.97101994  0.25000000  0.75000000  1
  N  N101  1  0.47101994  0.75000000  0.25000000  1
  N  N102  1  0.04512005  0.75000000  0.25000000  1
  N  N103  1  0.54512005  0.25000000  0.75000000  1
  N  N104  1  0.21322236  0.75249722  0.99496167  1
  N  N105  1  0.71322236  0.50503833  0.74750278  1
  N  N106  1  0.71322236  0.99496167  0.75249722  1
  N  N107  1  0.21322236  0.74750278  0.50503833  1
  N  N108  1  0.78972352  0.24757301  0.00295620  1
  N  N109  1  0.28972352  0.49704380  0.25242699  1
  N  N110  1  0.28972352  0.00295620  0.24757301  1
  N  N111  1  0.78972352  0.25242699  0.49704380  1
  N  N112  1  0.09188020  0.75000000  0.75000000  1
  N  N113  1  0.59188020  0.75000000  0.75000000  1
  N  N114  1  0.90712061  0.25000000  0.25000000  1
  N  N115  1  0.40712061  0.25000000  0.25000000  1
  O  O116  1  0.41914031  0.92611022  0.75378410  1
  O  O117  1  0.91914031  0.74621590  0.57388978  1
  O  O118  1  0.91914031  0.75378410  0.92611022  1
  O  O119  1  0.41914031  0.57388978  0.74621590  1
  O  O120  1  0.57965330  0.07511558  0.24674437  1
  O  O121  1  0.07965330  0.25325563  0.42488442  1
  O  O122  1  0.07965330  0.24674437  0.07511558  1
  O  O123  1  0.57965330  0.42488442  0.25325563  1
  O  O124  1  0.05503666  0.10139451  0.56213019  1
  O  O125  1  0.55503666  0.93786981  0.39860549  1
  O  O126  1  0.55503666  0.56213019  0.10139451  1
  O  O127  1  0.05503666  0.39860549  0.93786981  1
  O  O128  1  0.94181316  0.89621161  0.43728036  1
  O  O129  1  0.44181316  0.06271964  0.60378839  1
  O  O130  1  0.44181316  0.43728036  0.89621161  1
  O  O131  1  0.94181316  0.60378839  0.06271964  1
  O  O132  1  0.93032122  0.94052563  0.63164258  1
  O  O133  1  0.43032122  0.86835742  0.55947437  1
  O  O134  1  0.43032122  0.63164258  0.94052563  1
  O  O135  1  0.93032122  0.55947437  0.86835742  1
  O  O136  1  0.06665876  0.05654450  0.36634483  1
  O  O137  1  0.56665876  0.13365517  0.44345550  1
  O  O138  1  0.56665876  0.36634483  0.05654450  1
  O  O139  1  0.06665876  0.44345550  0.13365517  1
  O  O140  1  0.05610583  0.05889986  0.74651997  1
  O  O141  1  0.55610583  0.75348003  0.44110014  1
  O  O142  1  0.55610583  0.74651997  0.05889986  1
  O  O143  1  0.05610583  0.44110014  0.75348003  1
  O  O144  1  0.93547891  0.93512295  0.25369491  1
  O  O145  1  0.43547891  0.24630509  0.56487705  1
  O  O146  1  0.43547891  0.25369491  0.93512295  1
  O  O147  1  0.93547891  0.56487705  0.24630509  1
  O  O148  1  0.21482930  0.94530500  0.87779115  1
  O  O149  1  0.71482930  0.62220885  0.55469500  1
  O  O150  1  0.71482930  0.87779115  0.94530500  1
  O  O151  1  0.21482930  0.55469500  0.62220885  1
  O  O152  1  0.78427900  0.05603083  0.12271028  1
  O  O153  1  0.28427900  0.37728972  0.44396917  1
  O  O154  1  0.28427900  0.12271028  0.05603083  1
  O  O155  1  0.78427900  0.44396917  0.37728972  1
  O  O156  1  0.44179110  0.88182450  0.94032459  1
  O  O157  1  0.94179110  0.55967541  0.61817550  1
  O  O158  1  0.94179110  0.94032459  0.88182450  1
  O  O159  1  0.44179110  0.61817550  0.55967541  1
  O  O160  1  0.55756714  0.12107716  0.05974676  1
  O  O161  1  0.05756714  0.44025324  0.37892284  1
  O  O162  1  0.05756714  0.05974676  0.12107716  1
  O  O163  1  0.55756714  0.37892284  0.44025324  1
  O  O164  1  0.23289100  0.25000000  0.75000000  1
  O  O165  1  0.73289100  0.75000000  0.25000000  1
  O  O166  1  0.19580572  0.94535947  0.62671647  1
  O  O167  1  0.69580572  0.87328353  0.55464053  1
  O  O168  1  0.69580572  0.62671647  0.94535947  1
  O  O169  1  0.19580572  0.55464053  0.87328353  1
  O  O170  1  0.80146620  0.05328097  0.37308055  1
  O  O171  1  0.30146620  0.12691945  0.44671903  1
  O  O172  1  0.30146620  0.37308055  0.05328097  1
  O  O173  1  0.80146620  0.44671903  0.12691945  1
  O  O174  1  0.42813940  0.06816779  0.88171932  1
  O  O175  1  0.92813940  0.61828068  0.43183221  1
  O  O176  1  0.92813940  0.88171932  0.06816779  1
  O  O177  1  0.42813940  0.43183221  0.61828068  1
  O  O178  1  0.57027550  0.93400270  0.11786585  1
  O  O179  1  0.07027550  0.38213415  0.56599730  1
  O  O180  1  0.07027550  0.11786585  0.93400270  1
  O  O181  1  0.57027550  0.56599730  0.38213415  1
