# generated using pymatgen
data_Ag14H8I4(OF2)5
_symmetry_space_group_name_H-M   'P 1'
_cell_length_a   7.45294786
_cell_length_b   9.39069067
_cell_length_c   18.54401000
_cell_angle_alpha   90.00000000
_cell_angle_beta   90.00000000
_cell_angle_gamma   91.09947223
_symmetry_Int_Tables_number   1
_chemical_formula_structural   Ag14H8I4(OF2)5
_chemical_formula_sum   'Ag28 H16 I8 O10 F20'
_cell_volume   1297.62530156
_cell_formula_units_Z   2
loop_
 _symmetry_equiv_pos_site_id
 _symmetry_equiv_pos_as_xyz
  1  'x, y, z'
loop_
 _atom_site_type_symbol
 _atom_site_label
 _atom_site_symmetry_multiplicity
 _atom_site_fract_x
 _atom_site_fract_y
 _atom_site_fract_z
 _atom_site_occupancy
  Ag  Ag0  1  0.33469900  0.99137100  0.23179800  1
  Ag  Ag1  1  0.83663400  0.48839300  0.27178800  1
  Ag  Ag2  1  0.66336600  0.01160700  0.77178800  1
  Ag  Ag3  1  0.16530100  0.50862900  0.73179800  1
  Ag  Ag4  1  0.34985900  0.75240700  0.01488400  1
  Ag  Ag5  1  0.86308800  0.26921500  0.49061900  1
  Ag  Ag6  1  0.63691200  0.23078500  0.99061900  1
  Ag  Ag7  1  0.15014100  0.74759300  0.51488400  1
  Ag  Ag8  1  0.68485000  0.99145400  0.28989900  1
  Ag  Ag9  1  0.18717600  0.49174700  0.21146800  1
  Ag  Ag10  1  0.31282400  0.00825300  0.71146800  1
  Ag  Ag11  1  0.81515000  0.50854600  0.78989900  1
  Ag  Ag12  1  0.09262000  0.80760300  0.34076400  1
  Ag  Ag13  1  0.59116700  0.30504000  0.15749900  1
  Ag  Ag14  1  0.90883300  0.19496000  0.65749900  1
  Ag  Ag15  1  0.40738000  0.69239700  0.84076400  1
  Ag  Ag16  1  0.04643200  0.19209100  0.34198400  1
  Ag  Ag17  1  0.55079100  0.68994000  0.15966800  1
  Ag  Ag18  1  0.94920900  0.81006000  0.65966800  1
  Ag  Ag19  1  0.45356800  0.30790900  0.84198400  1
  Ag  Ag20  1  0.42736400  0.29156100  0.33908900  1
  Ag  Ag21  1  0.92822200  0.79390700  0.16359500  1
  Ag  Ag22  1  0.57177800  0.70609300  0.66359500  1
  Ag  Ag23  1  0.07263600  0.20843900  0.83908900  1
  Ag  Ag24  1  0.48097700  0.73303500  0.33205800  1
  Ag  Ag25  1  0.97937900  0.23474700  0.17074500  1
  Ag  Ag26  1  0.52062100  0.26525300  0.67074500  1
  Ag  Ag27  1  0.01902300  0.76696500  0.83205800  1
  H  H28  1  0.11804600  0.95657600  0.05420400  1
  H  H29  1  0.62392100  0.46348700  0.44558600  1
  H  H30  1  0.87607900  0.03651300  0.94558600  1
  H  H31  1  0.38195400  0.54342400  0.55420400  1
  H  H32  1  0.00120300  0.85056200  0.00440500  1
  H  H33  1  0.51614200  0.35461900  0.49661100  1
  H  H34  1  0.98385800  0.14538100  0.99661100  1
  H  H35  1  0.49879700  0.64943800  0.50440500  1
  H  H36  1  0.70237100  0.76160000  0.96002900  1
  H  H37  1  0.22034600  0.26839400  0.54381600  1
  H  H38  1  0.27965400  0.23160600  0.04381600  1
  H  H39  1  0.79762900  0.73840000  0.46002900  1
  H  H40  1  0.63582600  0.59451100  0.94576300  1
  H  H41  1  0.14441000  0.10215900  0.55312700  1
  H  H42  1  0.35559000  0.39784100  0.05312700  1
  H  H43  1  0.86417400  0.90548900  0.44576300  1
  I  I44  1  0.36231500  0.98097100  0.39778000  1
  I  I45  1  0.86035700  0.48815700  0.10752700  1
  I  I46  1  0.63964300  0.01184300  0.60752700  1
  I  I47  1  0.13768500  0.51902900  0.89778000  1
  I  I48  1  0.62595000  0.97759000  0.13354400  1
  I  I49  1  0.12743300  0.47340600  0.37141300  1
  I  I50  1  0.37256700  0.02659400  0.87141300  1
  I  I51  1  0.87405000  0.52241000  0.63354400  1
  O  O52  1  0.61687400  0.68400100  0.97591700  1
  O  O53  1  0.12472700  0.19726400  0.52916200  1
  O  O54  1  0.37527300  0.30273600  0.02916200  1
  O  O55  1  0.88312600  0.81599900  0.47591700  1
  O  O56  1  0.08862700  0.85155700  0.04742500  1
  O  O57  1  0.60307200  0.35770500  0.45394500  1
  O  O58  1  0.89692800  0.14229500  0.95394500  1
  O  O59  1  0.41137300  0.64844300  0.54742500  1
  O  O60  1  0.45213100  0.96480800  0.00170100  1
  O  O61  1  0.04786900  0.53519200  0.50170100  1
  F  F62  1  0.98421600  0.96887600  0.76189000  1
  F  F63  1  0.48192700  0.47087200  0.73991800  1
  F  F64  1  0.01807300  0.02912800  0.23991800  1
  F  F65  1  0.51578400  0.53112400  0.26189000  1
  F  F66  1  0.68187800  0.75291100  0.79315200  1
  F  F67  1  0.18407500  0.24901900  0.70837900  1
  F  F68  1  0.31592500  0.25098100  0.20837900  1
  F  F69  1  0.81812200  0.74708900  0.29315200  1
  F  F70  1  0.87651200  0.86906100  0.94017700  1
  F  F71  1  0.39248200  0.37001000  0.56201100  1
  F  F72  1  0.10751800  0.12999000  0.06201100  1
  F  F73  1  0.62348800  0.63093900  0.44017700  1
  F  F74  1  0.21990100  0.74689700  0.21303000  1
  F  F75  1  0.71191500  0.24904200  0.28579800  1
  F  F76  1  0.78808500  0.25095800  0.78579800  1
  F  F77  1  0.28009900  0.75310300  0.71303000  1
  F  F78  1  0.33897100  0.54375500  0.09230500  1
  F  F79  1  0.84520600  0.03797800  0.40092800  1
  F  F80  1  0.65479400  0.46202200  0.90092800  1
  F  F81  1  0.16102900  0.95624500  0.59230500  1
