# generated using pymatgen
data_Ce3SiCl5O4
_symmetry_space_group_name_H-M   'P 1'
_cell_length_a   4.23781110
_cell_length_b   14.26484359
_cell_length_c   16.25955901
_cell_angle_alpha   90.00000000
_cell_angle_beta   90.00000000
_cell_angle_gamma   90.00000000
_symmetry_Int_Tables_number   1
_chemical_formula_structural   Ce3SiCl5O4
_chemical_formula_sum   'Ce12 Si4 Cl20 O16'
_cell_volume   982.91818674
_cell_formula_units_Z   4
loop_
 _symmetry_equiv_pos_site_id
 _symmetry_equiv_pos_as_xyz
  1  'x, y, z'
loop_
 _atom_site_type_symbol
 _atom_site_label
 _atom_site_symmetry_multiplicity
 _atom_site_fract_x
 _atom_site_fract_y
 _atom_site_fract_z
 _atom_site_occupancy
  Ce  Ce0  1  0.23710900  0.91549401  0.62610056  1
  Ce  Ce1  1  0.23710900  0.58450599  0.12610056  1
  Ce  Ce2  1  0.73710900  0.08450599  0.37389944  1
  Ce  Ce3  1  0.73710900  0.41549401  0.87389944  1
  Ce  Ce4  1  0.23822325  0.06608899  0.87314919  1
  Ce  Ce5  1  0.23822325  0.43391101  0.37314919  1
  Ce  Ce6  1  0.73822325  0.93391101  0.12685081  1
  Ce  Ce7  1  0.73822325  0.56608899  0.62685081  1
  Ce  Ce8  1  0.23702629  0.74665932  0.86726581  1
  Ce  Ce9  1  0.23702629  0.75334068  0.36726581  1
  Ce  Ce10  1  0.73702629  0.25334068  0.13273419  1
  Ce  Ce11  1  0.73702629  0.24665932  0.63273419  1
  Si  Si12  1  0.16879817  0.40815102  0.70949847  1
  Si  Si13  1  0.66879817  0.59184898  0.29050153  1
  Si  Si14  1  0.66879817  0.90815102  0.79050153  1
  Si  Si15  1  0.16879817  0.09184898  0.20949847  1
  Cl  Cl16  1  0.25139875  0.28731168  0.98016906  1
  Cl  Cl17  1  0.25139875  0.21268832  0.48016906  1
  Cl  Cl18  1  0.75139875  0.71268832  0.01983094  1
  Cl  Cl19  1  0.75139875  0.78731168  0.51983094  1
  Cl  Cl20  1  0.24804484  0.90359668  0.98784941  1
  Cl  Cl21  1  0.24804484  0.59640332  0.48784941  1
  Cl  Cl22  1  0.74804484  0.09640332  0.01215059  1
  Cl  Cl23  1  0.74804484  0.40359668  0.51215059  1
  Cl  Cl24  1  0.24827170  0.72040832  0.67909415  1
  Cl  Cl25  1  0.24827170  0.77959168  0.17909415  1
  Cl  Cl26  1  0.74827170  0.27959168  0.32090585  1
  Cl  Cl27  1  0.74827170  0.22040832  0.82090585  1
  Cl  Cl28  1  0.24816998  0.10379986  0.69963518  1
  Cl  Cl29  1  0.24816998  0.39620014  0.19963518  1
  Cl  Cl30  1  0.74816998  0.89620014  0.30036482  1
  Cl  Cl31  1  0.74816998  0.60379986  0.80036482  1
  Cl  Cl32  1  0.24777665  0.55372350  0.94388202  1
  Cl  Cl33  1  0.24777665  0.94627650  0.44388202  1
  Cl  Cl34  1  0.74777665  0.44627650  0.05611798  1
  Cl  Cl35  1  0.74777665  0.05372350  0.55611798  1
  O  O36  1  0.24917272  0.40879764  0.80844053  1
  O  O37  1  0.24917272  0.09120236  0.30844053  1
  O  O38  1  0.74917272  0.59120236  0.19155947  1
  O  O39  1  0.74917272  0.90879764  0.69155947  1
  O  O40  1  0.24972555  0.50485954  0.65847328  1
  O  O41  1  0.24972555  0.99514046  0.15847328  1
  O  O42  1  0.74972555  0.49514046  0.34152672  1
  O  O43  1  0.74972555  0.00485954  0.84152672  1
  O  O44  1  0.24838970  0.31010883  0.66035035  1
  O  O45  1  0.24838970  0.18989117  0.16035035  1
  O  O46  1  0.74838970  0.68989117  0.33964965  1
  O  O47  1  0.74838970  0.81010883  0.83964965  1
  O  O48  1  0.27589339  0.90862384  0.79191576  1
  O  O49  1  0.27589339  0.59137616  0.29191576  1
  O  O50  1  0.77589339  0.09137616  0.20808424  1
  O  O51  1  0.77589339  0.40862384  0.70808424  1
