# generated using pymatgen
data_Ba4La4Co8O17
_symmetry_space_group_name_H-M   'P 1'
_cell_length_a   15.59545300
_cell_length_b   7.98282300
_cell_length_c   16.32669407
_cell_angle_alpha   89.99454299
_cell_angle_beta   90.00000000
_cell_angle_gamma   90.00000000
_symmetry_Int_Tables_number   1
_chemical_formula_structural   Ba4La4Co8O17
_chemical_formula_sum   'Ba16 La16 Co32 O68'
_cell_volume   2032.60386604
_cell_formula_units_Z   4
loop_
 _symmetry_equiv_pos_site_id
 _symmetry_equiv_pos_as_xyz
  1  'x, y, z'
loop_
 _atom_site_type_symbol
 _atom_site_label
 _atom_site_symmetry_multiplicity
 _atom_site_fract_x
 _atom_site_fract_y
 _atom_site_fract_z
 _atom_site_occupancy
  Ba  Ba0  1  0.50736500  0.50628600  0.74993200  1
  Ba  Ba1  1  0.49263500  0.49371400  0.25006800  1
  Ba  Ba2  1  0.99263500  0.50628600  0.24993200  1
  Ba  Ba3  1  0.00736500  0.49371400  0.75006800  1
  Ba  Ba4  1  0.50000000  0.50000000  0.00000000  1
  Ba  Ba5  1  0.00000000  0.50000000  0.50000000  1
  Ba  Ba6  1  0.50000000  0.00000000  0.50000000  1
  Ba  Ba7  1  0.00000000  0.00000000  0.00000000  1
  Ba  Ba8  1  0.50000000  0.00000000  0.00000000  1
  Ba  Ba9  1  0.00000000  0.00000000  0.50000000  1
  Ba  Ba10  1  0.50000000  0.50000000  0.50000000  1
  Ba  Ba11  1  0.00000000  0.50000000  0.00000000  1
  Ba  Ba12  1  0.49648500  0.99308700  0.74951900  1
  Ba  Ba13  1  0.50351500  0.00691300  0.25048100  1
  Ba  Ba14  1  0.00351500  0.99308700  0.24951900  1
  Ba  Ba15  1  0.99648500  0.00691300  0.75048100  1
  La  La16  1  0.76075700  0.49941200  0.49372600  1
  La  La17  1  0.23924300  0.50058800  0.50627400  1
  La  La18  1  0.73924300  0.49941200  0.99372600  1
  La  La19  1  0.26075700  0.50058800  0.00627400  1
  La  La20  1  0.76121000  0.00024400  0.50633300  1
  La  La21  1  0.23879000  0.99975600  0.49366700  1
  La  La22  1  0.73879000  0.00024400  0.00633300  1
  La  La23  1  0.26121000  0.99975600  0.99366700  1
  La  La24  1  0.74771800  0.99579300  0.74423800  1
  La  La25  1  0.25228200  0.00420700  0.25576200  1
  La  La26  1  0.75228200  0.99579300  0.24423800  1
  La  La27  1  0.24771800  0.00420700  0.75576200  1
  La  La28  1  0.75375600  0.49511300  0.75552100  1
  La  La29  1  0.24624400  0.50488700  0.24447900  1
  La  La30  1  0.74624400  0.49511300  0.25552100  1
  La  La31  1  0.25375600  0.50488700  0.74447900  1
  Co  Co32  1  0.62624700  0.76318500  0.61860500  1
  Co  Co33  1  0.37584400  0.76406600  0.37888000  1
  Co  Co34  1  0.87584400  0.23593400  0.12112000  1
  Co  Co35  1  0.12624700  0.23681500  0.88139500  1
  Co  Co36  1  0.37375300  0.23681500  0.38139500  1
  Co  Co37  1  0.62415600  0.23593400  0.62112000  1
  Co  Co38  1  0.12415600  0.76406600  0.87888000  1
  Co  Co39  1  0.87375300  0.76318500  0.11860500  1
  Co  Co40  1  0.62342800  0.73565400  0.37806500  1
  Co  Co41  1  0.37332400  0.73674500  0.61940700  1
  Co  Co42  1  0.87332400  0.26325500  0.88059300  1
  Co  Co43  1  0.12342800  0.26434600  0.12193500  1
  Co  Co44  1  0.37657200  0.26434600  0.62193500  1
  Co  Co45  1  0.62667600  0.26325500  0.38059300  1
  Co  Co46  1  0.12667600  0.73674500  0.11940700  1
  Co  Co47  1  0.87657200  0.73565400  0.87806500  1
  Co  Co48  1  0.63535300  0.74658900  0.12927600  1
  Co  Co49  1  0.37542300  0.75009500  0.87331000  1
  Co  Co50  1  0.87542300  0.24990500  0.62669000  1
  Co  Co51  1  0.13535300  0.25341100  0.37072400  1
  Co  Co52  1  0.36464700  0.25341100  0.87072400  1
  Co  Co53  1  0.62457700  0.24990500  0.12669000  1
  Co  Co54  1  0.12457700  0.75009500  0.37331000  1
  Co  Co55  1  0.86464700  0.74658900  0.62927600  1
  Co  Co56  1  0.62552600  0.74984800  0.87498000  1
  Co  Co57  1  0.36232600  0.75354000  0.12788900  1
  Co  Co58  1  0.86232600  0.24646000  0.37211100  1
  Co  Co59  1  0.12552600  0.25015200  0.62502000  1
  Co  Co60  1  0.37447400  0.25015200  0.12502000  1
  Co  Co61  1  0.63767400  0.24646000  0.87211100  1
  Co  Co62  1  0.13767400  0.75354000  0.62788900  1
  Co  Co63  1  0.87447400  0.74984800  0.37498000  1
  O  O64  1  0.65851300  0.99719300  0.86786100  1
  O  O65  1  0.34148700  0.00280700  0.13213900  1
  O  O66  1  0.84148700  0.99719300  0.36786100  1
  O  O67  1  0.15851300  0.00280700  0.63213900  1
  O  O68  1  0.64620300  0.77451600  0.25923100  1
  O  O69  1  0.34892900  0.78295400  0.73513200  1
  O  O70  1  0.84892900  0.21704600  0.76486800  1
  O  O71  1  0.14620300  0.22548400  0.24076900  1
  O  O72  1  0.35379700  0.22548400  0.74076900  1
  O  O73  1  0.65107100  0.21704600  0.26486800  1
  O  O74  1  0.15107100  0.78295400  0.23513200  1
  O  O75  1  0.85379700  0.77451600  0.75923100  1
  O  O76  1  0.65749300  0.75188000  0.49797300  1
  O  O77  1  0.34315200  0.74578500  0.49828900  1
  O  O78  1  0.84315200  0.25421500  0.00171100  1
  O  O79  1  0.15749300  0.24812000  0.00202700  1
  O  O80  1  0.34250700  0.24812000  0.50202700  1
  O  O81  1  0.65684800  0.25421500  0.50171100  1
  O  O82  1  0.15684800  0.74578500  0.99828900  1
  O  O83  1  0.84250700  0.75188000  0.99797300  1
  O  O84  1  0.64643400  0.49875800  0.87632400  1
  O  O85  1  0.35356600  0.50124200  0.12367600  1
  O  O86  1  0.85356600  0.49875800  0.37632400  1
  O  O87  1  0.14643400  0.50124200  0.62367600  1
  O  O88  1  0.66276500  0.00051900  0.62383900  1
  O  O89  1  0.33723500  0.99948100  0.37616100  1
  O  O90  1  0.83723500  0.00051900  0.12383900  1
  O  O91  1  0.16276500  0.99948100  0.87616100  1
  O  O92  1  0.65827300  0.49766900  0.13186600  1
  O  O93  1  0.34172700  0.50233100  0.86813400  1
  O  O94  1  0.84172700  0.49766900  0.63186600  1
  O  O95  1  0.15827300  0.50233100  0.36813400  1
  O  O96  1  0.66232100  0.50163000  0.37602000  1
  O  O97  1  0.33767900  0.49837000  0.62398000  1
  O  O98  1  0.83767900  0.50163000  0.87602000  1
  O  O99  1  0.16232100  0.49837000  0.12398000  1
  O  O100  1  0.65286800  0.71689400  0.73380800  1
  O  O101  1  0.35240000  0.72508900  0.25995600  1
  O  O102  1  0.85240000  0.27491100  0.24004400  1
  O  O103  1  0.15286800  0.28310600  0.76619200  1
  O  O104  1  0.34713200  0.28310600  0.26619200  1
  O  O105  1  0.64760000  0.27491100  0.74004400  1
  O  O106  1  0.14760000  0.72508900  0.75995600  1
  O  O107  1  0.84713200  0.71689400  0.23380800  1
  O  O108  1  0.64662200  0.99902100  0.12373400  1
  O  O109  1  0.35337800  0.00097900  0.87626600  1
  O  O110  1  0.85337800  0.99902100  0.62373400  1
  O  O111  1  0.14662200  0.00097900  0.37626600  1
  O  O112  1  0.50008700  0.74905100  0.62031100  1
  O  O113  1  0.49969500  0.75220100  0.38193000  1
  O  O114  1  0.99969500  0.24779900  0.11807000  1
  O  O115  1  0.00008700  0.25094900  0.87968900  1
  O  O116  1  0.49991300  0.25094900  0.37968900  1
  O  O117  1  0.50030500  0.24779900  0.61807000  1
  O  O118  1  0.00030500  0.75220100  0.88193000  1
  O  O119  1  0.99991300  0.74905100  0.12031100  1
  O  O120  1  0.63972700  0.74916600  0.00330600  1
  O  O121  1  0.36013400  0.75191500  0.00244300  1
  O  O122  1  0.86013400  0.24808500  0.49755700  1
  O  O123  1  0.13972700  0.25083400  0.49669400  1
  O  O124  1  0.36027300  0.25083400  0.99669400  1
  O  O125  1  0.63986600  0.24808500  0.99755700  1
  O  O126  1  0.13986600  0.75191500  0.50244300  1
  O  O127  1  0.86027300  0.74916600  0.50330600  1
  O  O128  1  0.50062500  0.74933200  0.86644500  1
  O  O129  1  0.00062500  0.25066800  0.63355500  1
  O  O130  1  0.49937500  0.25066800  0.13355500  1
  O  O131  1  0.99937500  0.74933200  0.36644500  1
