# generated using pymatgen
data_Y2MgS4
_symmetry_space_group_name_H-M   'P 1'
_cell_length_a   3.85409200
_cell_length_b   12.62844500
_cell_length_c   13.48523300
_cell_angle_alpha   90.00000000
_cell_angle_beta   90.00000000
_cell_angle_gamma   90.00000000
_symmetry_Int_Tables_number   1
_chemical_formula_structural   Y2MgS4
_chemical_formula_sum   'Y8 Mg4 S16'
_cell_volume   656.34232199
_cell_formula_units_Z   4
loop_
 _symmetry_equiv_pos_site_id
 _symmetry_equiv_pos_as_xyz
  1  'x, y, z'
loop_
 _atom_site_type_symbol
 _atom_site_label
 _atom_site_symmetry_multiplicity
 _atom_site_fract_x
 _atom_site_fract_y
 _atom_site_fract_z
 _atom_site_occupancy
  Y  Y0  1  0.25000000  0.11756500  0.07538900  1
  Y  Y1  1  0.75000000  0.88243500  0.92461100  1
  Y  Y2  1  0.75000000  0.38243500  0.57538900  1
  Y  Y3  1  0.25000000  0.61756500  0.42461100  1
  Y  Y4  1  0.25000000  0.13873300  0.70485200  1
  Y  Y5  1  0.75000000  0.86126700  0.29514800  1
  Y  Y6  1  0.75000000  0.36126700  0.20485200  1
  Y  Y7  1  0.25000000  0.63873300  0.79514800  1
  Mg  Mg8  1  0.75000000  0.11111800  0.45216800  1
  Mg  Mg9  1  0.25000000  0.88888200  0.54783200  1
  Mg  Mg10  1  0.25000000  0.38888200  0.95216800  1
  Mg  Mg11  1  0.75000000  0.61111800  0.04783200  1
  S  S12  1  0.75000000  0.00884100  0.61495800  1
  S  S13  1  0.25000000  0.99115900  0.38504200  1
  S  S14  1  0.25000000  0.49115900  0.11495800  1
  S  S15  1  0.75000000  0.50884100  0.88504200  1
  S  S16  1  0.25000000  0.02754000  0.88334500  1
  S  S17  1  0.75000000  0.97246000  0.11665500  1
  S  S18  1  0.75000000  0.47246000  0.38334500  1
  S  S19  1  0.25000000  0.52754000  0.61665500  1
  S  S20  1  0.25000000  0.22494600  0.24861500  1
  S  S21  1  0.75000000  0.77505400  0.75138500  1
  S  S22  1  0.75000000  0.27505400  0.74861500  1
  S  S23  1  0.25000000  0.72494600  0.25138500  1
  S  S24  1  0.75000000  0.26266100  0.01584000  1
  S  S25  1  0.25000000  0.73733900  0.98416000  1
  S  S26  1  0.25000000  0.23733900  0.51584000  1
  S  S27  1  0.75000000  0.76266100  0.48416000  1
