# generated using pymatgen
data_Eu2MgS4
_symmetry_space_group_name_H-M   'P 1'
_cell_length_a   3.95925600
_cell_length_b   13.22389300
_cell_length_c   13.44205300
_cell_angle_alpha   90.00000000
_cell_angle_beta   90.00000000
_cell_angle_gamma   90.00000000
_symmetry_Int_Tables_number   1
_chemical_formula_structural   Eu2MgS4
_chemical_formula_sum   'Eu8 Mg4 S16'
_cell_volume   703.78258080
_cell_formula_units_Z   4
loop_
 _symmetry_equiv_pos_site_id
 _symmetry_equiv_pos_as_xyz
  1  'x, y, z'
loop_
 _atom_site_type_symbol
 _atom_site_label
 _atom_site_symmetry_multiplicity
 _atom_site_fract_x
 _atom_site_fract_y
 _atom_site_fract_z
 _atom_site_occupancy
  Eu  Eu0  1  0.25000000  0.12147500  0.07340300  1
  Eu  Eu1  1  0.75000000  0.87852500  0.92659700  1
  Eu  Eu2  1  0.75000000  0.37852500  0.57340300  1
  Eu  Eu3  1  0.25000000  0.62147500  0.42659700  1
  Eu  Eu4  1  0.25000000  0.13195300  0.70763200  1
  Eu  Eu5  1  0.75000000  0.86804700  0.29236800  1
  Eu  Eu6  1  0.75000000  0.36804700  0.20763200  1
  Eu  Eu7  1  0.25000000  0.63195300  0.79236800  1
  Mg  Mg8  1  0.75000000  0.10806300  0.45911700  1
  Mg  Mg9  1  0.25000000  0.89193700  0.54088300  1
  Mg  Mg10  1  0.25000000  0.39193700  0.95911700  1
  Mg  Mg11  1  0.75000000  0.60806300  0.04088300  1
  S  S12  1  0.75000000  0.00540000  0.61522300  1
  S  S13  1  0.25000000  0.99460000  0.38477700  1
  S  S14  1  0.25000000  0.49460000  0.11522300  1
  S  S15  1  0.75000000  0.50540000  0.88477700  1
  S  S16  1  0.25000000  0.02319400  0.88743100  1
  S  S17  1  0.75000000  0.97680600  0.11256900  1
  S  S18  1  0.75000000  0.47680600  0.38743100  1
  S  S19  1  0.25000000  0.52319400  0.61256900  1
  S  S20  1  0.25000000  0.22917800  0.25159600  1
  S  S21  1  0.75000000  0.77082200  0.74840400  1
  S  S22  1  0.75000000  0.27082200  0.75159600  1
  S  S23  1  0.25000000  0.72917800  0.24840400  1
  S  S24  1  0.75000000  0.26866600  0.01268000  1
  S  S25  1  0.25000000  0.73133400  0.98732000  1
  S  S26  1  0.25000000  0.23133400  0.51268000  1
  S  S27  1  0.75000000  0.76866600  0.48732000  1
