# generated using pymatgen
data_Mg(InSe2)2
_symmetry_space_group_name_H-M   'P 1'
_cell_length_a   13.80497100
_cell_length_b   8.20534100
_cell_length_c   6.73756100
_cell_angle_alpha   90.00000000
_cell_angle_beta   90.00000000
_cell_angle_gamma   90.00000000
_symmetry_Int_Tables_number   1
_chemical_formula_structural   Mg(InSe2)2
_chemical_formula_sum   'Mg4 In8 Se16'
_cell_volume   763.19381678
_cell_formula_units_Z   4
loop_
 _symmetry_equiv_pos_site_id
 _symmetry_equiv_pos_as_xyz
  1  'x, y, z'
loop_
 _atom_site_type_symbol
 _atom_site_label
 _atom_site_symmetry_multiplicity
 _atom_site_fract_x
 _atom_site_fract_y
 _atom_site_fract_z
 _atom_site_occupancy
  Mg  Mg0  1  0.09316700  0.25000000  0.92960500  1
  Mg  Mg1  1  0.90683300  0.75000000  0.07039500  1
  Mg  Mg2  1  0.40683300  0.75000000  0.42960500  1
  Mg  Mg3  1  0.59316700  0.25000000  0.57039500  1
  In  In4  1  0.00000000  0.00000000  0.50000000  1
  In  In5  1  0.50000000  0.00000000  0.00000000  1
  In  In6  1  0.50000000  0.50000000  0.00000000  1
  In  In7  1  0.00000000  0.50000000  0.50000000  1
  In  In8  1  0.22938500  0.75000000  0.99960300  1
  In  In9  1  0.77061500  0.25000000  0.00039700  1
  In  In10  1  0.27061500  0.25000000  0.49960300  1
  In  In11  1  0.72938500  0.75000000  0.50039700  1
  Se  Se12  1  0.16672700  0.00249800  0.74336500  1
  Se  Se13  1  0.83327300  0.99750200  0.25663500  1
  Se  Se14  1  0.33327300  0.99750200  0.24336500  1
  Se  Se15  1  0.66672700  0.00249800  0.75663500  1
  Se  Se16  1  0.66672700  0.49750200  0.75663500  1
  Se  Se17  1  0.33327300  0.50249800  0.24336500  1
  Se  Se18  1  0.83327300  0.50249800  0.25663500  1
  Se  Se19  1  0.16672700  0.49750200  0.74336500  1
  Se  Se20  1  0.07404700  0.75000000  0.24847400  1
  Se  Se21  1  0.92595300  0.25000000  0.75152600  1
  Se  Se22  1  0.42595300  0.25000000  0.74847400  1
  Se  Se23  1  0.57404700  0.75000000  0.25152600  1
  Se  Se24  1  0.09304100  0.25000000  0.30961000  1
  Se  Se25  1  0.90695900  0.75000000  0.69039000  1
  Se  Se26  1  0.40695900  0.75000000  0.80961000  1
  Se  Se27  1  0.59304100  0.25000000  0.19039000  1
