# generated using pymatgen
data_Nd2MgS4
_symmetry_space_group_name_H-M   'P 1'
_cell_length_a   7.36872196
_cell_length_b   7.36872196
_cell_length_c   7.36872196
_cell_angle_alpha   110.96405060
_cell_angle_beta   110.96405060
_cell_angle_gamma   106.52512450
_symmetry_Int_Tables_number   1
_chemical_formula_structural   Nd2MgS4
_chemical_formula_sum   'Nd4 Mg2 S8'
_cell_volume   307.39600128
_cell_formula_units_Z   2
loop_
 _symmetry_equiv_pos_site_id
 _symmetry_equiv_pos_as_xyz
  1  'x, y, z'
loop_
 _atom_site_type_symbol
 _atom_site_label
 _atom_site_symmetry_multiplicity
 _atom_site_fract_x
 _atom_site_fract_y
 _atom_site_fract_z
 _atom_site_occupancy
  Nd  Nd0  1  0.87500000  0.75707400  0.38207400  1
  Nd  Nd1  1  0.50707400  0.12500000  0.88207400  1
  Nd  Nd2  1  0.37500000  0.49292600  0.61792600  1
  Nd  Nd3  1  0.24292600  0.62500000  0.11792600  1
  Mg  Mg4  1  0.00000000  0.00000000  0.00000000  1
  Mg  Mg5  1  0.75000000  0.25000000  0.50000000  1
  S  S6  1  0.50627100  0.37652300  0.26700200  1
  S  S7  1  0.76073000  0.49372900  0.87025200  1
  S  S8  1  0.10952200  0.23927000  0.73299800  1
  S  S9  1  0.62347700  0.89047800  0.12974800  1
  S  S10  1  0.24372900  0.01073000  0.37025200  1
  S  S11  1  0.98927000  0.35952200  0.23299800  1
  S  S12  1  0.64047800  0.87347700  0.62974800  1
  S  S13  1  0.12652300  0.75627100  0.76700200  1
