# generated using pymatgen
data_Nd2MgSe4
_symmetry_space_group_name_H-M   'P 1'
_cell_length_a   8.14705100
_cell_length_b   13.60526200
_cell_length_c   13.64875700
_cell_angle_alpha   90.00000000
_cell_angle_beta   90.00000000
_cell_angle_gamma   90.00000000
_symmetry_Int_Tables_number   1
_chemical_formula_structural   Nd2MgSe4
_chemical_formula_sum   'Nd16 Mg8 Se32'
_cell_volume   1512.86594261
_cell_formula_units_Z   8
loop_
 _symmetry_equiv_pos_site_id
 _symmetry_equiv_pos_as_xyz
  1  'x, y, z'
loop_
 _atom_site_type_symbol
 _atom_site_label
 _atom_site_symmetry_multiplicity
 _atom_site_fract_x
 _atom_site_fract_y
 _atom_site_fract_z
 _atom_site_occupancy
  Nd  Nd0  1  0.88544400  0.10821300  0.68496600  1
  Nd  Nd1  1  0.11455600  0.89178700  0.18496600  1
  Nd  Nd2  1  0.88544400  0.39178700  0.18496600  1
  Nd  Nd3  1  0.11455600  0.60821300  0.68496600  1
  Nd  Nd4  1  0.38372700  0.12670600  0.32633800  1
  Nd  Nd5  1  0.61627300  0.87329400  0.82633800  1
  Nd  Nd6  1  0.38372700  0.37329400  0.82633800  1
  Nd  Nd7  1  0.61627300  0.62670600  0.32633800  1
  Nd  Nd8  1  0.63090700  0.13436300  0.99280000  1
  Nd  Nd9  1  0.36909300  0.86563700  0.49280000  1
  Nd  Nd10  1  0.63090700  0.36563700  0.49280000  1
  Nd  Nd11  1  0.36909300  0.63436300  0.99280000  1
  Nd  Nd12  1  0.13099100  0.13494100  0.99348200  1
  Nd  Nd13  1  0.86900900  0.86505900  0.49348200  1
  Nd  Nd14  1  0.13099100  0.36505900  0.49348200  1
  Nd  Nd15  1  0.86900900  0.63494100  0.99348200  1
  Mg  Mg16  1  0.38524900  0.11210800  0.69282400  1
  Mg  Mg17  1  0.61475100  0.88789200  0.19282400  1
  Mg  Mg18  1  0.38524900  0.38789200  0.19282400  1
  Mg  Mg19  1  0.61475100  0.61210800  0.69282400  1
  Mg  Mg20  1  0.88039500  0.12608300  0.32003600  1
  Mg  Mg21  1  0.11960500  0.87391700  0.82003600  1
  Mg  Mg22  1  0.88039500  0.37391700  0.82003600  1
  Mg  Mg23  1  0.11960500  0.62608300  0.32003600  1
  Se  Se24  1  0.88169800  0.01052100  0.87991300  1
  Se  Se25  1  0.11830200  0.98947900  0.37991300  1
  Se  Se26  1  0.88169800  0.48947900  0.37991300  1
  Se  Se27  1  0.11830200  0.51052100  0.87991300  1
  Se  Se28  1  0.38293800  0.02852400  0.12862600  1
  Se  Se29  1  0.61706200  0.97147600  0.62862600  1
  Se  Se30  1  0.38293800  0.47147600  0.62862600  1
  Se  Se31  1  0.61706200  0.52852400  0.12862600  1
  Se  Se32  1  0.37364600  0.02582700  0.86765200  1
  Se  Se33  1  0.62635400  0.97417300  0.36765200  1
  Se  Se34  1  0.37364600  0.47417300  0.36765200  1
  Se  Se35  1  0.62635400  0.52582700  0.86765200  1
  Se  Se36  1  0.87454600  0.04713400  0.13923300  1
  Se  Se37  1  0.12545400  0.95286600  0.63923300  1
  Se  Se38  1  0.87454600  0.45286600  0.63923300  1
  Se  Se39  1  0.12545400  0.54713400  0.13923300  1
  Se  Se40  1  0.88180500  0.20927000  0.49696700  1
  Se  Se41  1  0.11819500  0.79073000  0.99696700  1
  Se  Se42  1  0.88180500  0.29073000  0.99696700  1
  Se  Se43  1  0.11819500  0.70927000  0.49696700  1
  Se  Se44  1  0.38176000  0.21033900  0.52314000  1
  Se  Se45  1  0.61824000  0.78966100  0.02314000  1
  Se  Se46  1  0.38176000  0.28966100  0.02314000  1
  Se  Se47  1  0.61824000  0.71033900  0.52314000  1
  Se  Se48  1  0.13406800  0.23180300  0.77370000  1
  Se  Se49  1  0.86593200  0.76819700  0.27370000  1
  Se  Se50  1  0.13406800  0.26819700  0.27370000  1
  Se  Se51  1  0.86593200  0.73180300  0.77370000  1
  Se  Se52  1  0.63744000  0.23293700  0.77732300  1
  Se  Se53  1  0.36256000  0.76706300  0.27732300  1
  Se  Se54  1  0.63744000  0.26706300  0.27732300  1
  Se  Se55  1  0.36256000  0.73293700  0.77732300  1
