# generated using pymatgen
data_Nd2MgSe4
_symmetry_space_group_name_H-M   'P 1'
_cell_length_a   13.48813700
_cell_length_b   4.13893000
_cell_length_c   14.66522400
_cell_angle_alpha   90.00000000
_cell_angle_beta   90.00000000
_cell_angle_gamma   90.00000000
_symmetry_Int_Tables_number   1
_chemical_formula_structural   Nd2MgSe4
_chemical_formula_sum   'Nd8 Mg4 Se16'
_cell_volume   818.70746584
_cell_formula_units_Z   4
loop_
 _symmetry_equiv_pos_site_id
 _symmetry_equiv_pos_as_xyz
  1  'x, y, z'
loop_
 _atom_site_type_symbol
 _atom_site_label
 _atom_site_symmetry_multiplicity
 _atom_site_fract_x
 _atom_site_fract_y
 _atom_site_fract_z
 _atom_site_occupancy
  Nd  Nd0  1  0.11914300  0.25000000  0.07352100  1
  Nd  Nd1  1  0.88085700  0.75000000  0.92647900  1
  Nd  Nd2  1  0.38085700  0.75000000  0.57352100  1
  Nd  Nd3  1  0.61914300  0.25000000  0.42647900  1
  Nd  Nd4  1  0.13622300  0.25000000  0.70457300  1
  Nd  Nd5  1  0.86377700  0.75000000  0.29542700  1
  Nd  Nd6  1  0.36377700  0.75000000  0.20457300  1
  Nd  Nd7  1  0.63622300  0.25000000  0.79542700  1
  Mg  Mg8  1  0.10708900  0.75000000  0.46119400  1
  Mg  Mg9  1  0.89291100  0.25000000  0.53880600  1
  Mg  Mg10  1  0.39291100  0.25000000  0.96119400  1
  Mg  Mg11  1  0.60708900  0.75000000  0.03880600  1
  Se  Se12  1  0.00196200  0.75000000  0.61439500  1
  Se  Se13  1  0.99803800  0.25000000  0.38560500  1
  Se  Se14  1  0.49803800  0.25000000  0.11439500  1
  Se  Se15  1  0.50196200  0.75000000  0.88560500  1
  Se  Se16  1  0.02816700  0.25000000  0.88330700  1
  Se  Se17  1  0.97183300  0.75000000  0.11669300  1
  Se  Se18  1  0.47183300  0.75000000  0.38330700  1
  Se  Se19  1  0.52816700  0.25000000  0.61669300  1
  Se  Se20  1  0.22488900  0.25000000  0.24658800  1
  Se  Se21  1  0.77511100  0.75000000  0.75341200  1
  Se  Se22  1  0.27511100  0.75000000  0.74658800  1
  Se  Se23  1  0.72488900  0.25000000  0.25341200  1
  Se  Se24  1  0.26664900  0.75000000  0.01407000  1
  Se  Se25  1  0.73335100  0.25000000  0.98593000  1
  Se  Se26  1  0.23335100  0.25000000  0.51407000  1
  Se  Se27  1  0.76664900  0.75000000  0.48593000  1
