# generated using pymatgen
data_Pr2MgS4
_symmetry_space_group_name_H-M   'P 1'
_cell_length_a   14.12643700
_cell_length_b   8.29669300
_cell_length_c   6.67727500
_cell_angle_alpha   90.00000000
_cell_angle_beta   90.00000000
_cell_angle_gamma   90.00000000
_symmetry_Int_Tables_number   1
_chemical_formula_structural   Pr2MgS4
_chemical_formula_sum   'Pr8 Mg4 S16'
_cell_volume   782.59473191
_cell_formula_units_Z   4
loop_
 _symmetry_equiv_pos_site_id
 _symmetry_equiv_pos_as_xyz
  1  'x, y, z'
loop_
 _atom_site_type_symbol
 _atom_site_label
 _atom_site_symmetry_multiplicity
 _atom_site_fract_x
 _atom_site_fract_y
 _atom_site_fract_z
 _atom_site_occupancy
  Pr  Pr0  1  0.00000000  0.00000000  0.50000000  1
  Pr  Pr1  1  0.50000000  0.00000000  0.00000000  1
  Pr  Pr2  1  0.50000000  0.50000000  0.00000000  1
  Pr  Pr3  1  0.00000000  0.50000000  0.50000000  1
  Pr  Pr4  1  0.23038000  0.75000000  0.99808500  1
  Pr  Pr5  1  0.76962000  0.25000000  0.00191500  1
  Pr  Pr6  1  0.26962000  0.25000000  0.49808500  1
  Pr  Pr7  1  0.73038000  0.75000000  0.50191500  1
  Mg  Mg8  1  0.09254900  0.25000000  0.92281200  1
  Mg  Mg9  1  0.90745100  0.75000000  0.07718800  1
  Mg  Mg10  1  0.40745100  0.75000000  0.42281200  1
  Mg  Mg11  1  0.59254900  0.25000000  0.57718800  1
  S  S12  1  0.16727400  0.01862200  0.75110000  1
  S  S13  1  0.83272600  0.98137800  0.24890000  1
  S  S14  1  0.33272600  0.98137800  0.25110000  1
  S  S15  1  0.66727400  0.01862200  0.74890000  1
  S  S16  1  0.66727400  0.48137800  0.74890000  1
  S  S17  1  0.33272600  0.51862200  0.25110000  1
  S  S18  1  0.83272600  0.51862200  0.24890000  1
  S  S19  1  0.16727400  0.48137800  0.75110000  1
  S  S20  1  0.06562300  0.75000000  0.24112200  1
  S  S21  1  0.93437700  0.25000000  0.75887800  1
  S  S22  1  0.43437700  0.25000000  0.74112200  1
  S  S23  1  0.56562300  0.75000000  0.25887800  1
  S  S24  1  0.09286200  0.25000000  0.28488100  1
  S  S25  1  0.90713800  0.75000000  0.71511900  1
  S  S26  1  0.40713800  0.75000000  0.78488100  1
  S  S27  1  0.59286200  0.25000000  0.21511900  1
