# generated using pymatgen
data_Nd2MgS4
_symmetry_space_group_name_H-M   'P 1'
_cell_length_a   7.62386780
_cell_length_b   8.90113248
_cell_length_c   11.94238978
_cell_angle_alpha   79.79683340
_cell_angle_beta   83.56928201
_cell_angle_gamma   91.22166044
_symmetry_Int_Tables_number   1
_chemical_formula_structural   Nd2MgS4
_chemical_formula_sum   'Nd8 Mg4 S16'
_cell_volume   791.88623163
_cell_formula_units_Z   4
loop_
 _symmetry_equiv_pos_site_id
 _symmetry_equiv_pos_as_xyz
  1  'x, y, z'
loop_
 _atom_site_type_symbol
 _atom_site_label
 _atom_site_symmetry_multiplicity
 _atom_site_fract_x
 _atom_site_fract_y
 _atom_site_fract_z
 _atom_site_occupancy
  Nd  Nd0  1  0.13632600  0.70603500  0.65829400  1
  Nd  Nd1  1  0.86367400  0.29396500  0.34170600  1
  Nd  Nd2  1  0.24776200  0.86955900  0.99721500  1
  Nd  Nd3  1  0.75223800  0.13044100  0.00278500  1
  Nd  Nd4  1  0.36862400  0.55264200  0.33453100  1
  Nd  Nd5  1  0.63137600  0.44735800  0.66546900  1
  Nd  Nd6  1  0.36091800  0.02749800  0.34572800  1
  Nd  Nd7  1  0.63908200  0.97250200  0.65427200  1
  Mg  Mg8  1  0.13955500  0.20714300  0.68568900  1
  Mg  Mg9  1  0.86044500  0.79285700  0.31431100  1
  Mg  Mg10  1  0.24802700  0.38900300  0.99332400  1
  Mg  Mg11  1  0.75197300  0.61099700  0.00667600  1
  S  S12  1  0.09917500  0.63988600  0.88773900  1
  S  S13  1  0.90082500  0.36011400  0.11226100  1
  S  S14  1  0.11536100  0.16598200  0.89229400  1
  S  S15  1  0.88463900  0.83401800  0.10770600  1
  S  S16  1  0.14940300  0.77067100  0.39360400  1
  S  S17  1  0.85059700  0.22932900  0.60639600  1
  S  S18  1  0.20120600  0.28032400  0.37818500  1
  S  S19  1  0.79879400  0.71967600  0.62181500  1
  S  S20  1  0.29642300  0.99388200  0.60908100  1
  S  S21  1  0.70357700  0.00611800  0.39091900  1
  S  S22  1  0.30036000  0.45455600  0.60260100  1
  S  S23  1  0.69964000  0.54544400  0.39739900  1
  S  S24  1  0.39686400  0.08579700  0.11704800  1
  S  S25  1  0.60313600  0.91420300  0.88295200  1
  S  S26  1  0.40367000  0.58879700  0.10478700  1
  S  S27  1  0.59633000  0.41120300  0.89521300  1
