# generated using pymatgen
data_Tm2MgSe4
_symmetry_space_group_name_H-M   'P 1'
_cell_length_a   7.82167200
_cell_length_b   13.12273500
_cell_length_c   13.38731200
_cell_angle_alpha   90.00000000
_cell_angle_beta   90.00000000
_cell_angle_gamma   90.00000000
_symmetry_Int_Tables_number   1
_chemical_formula_structural   Tm2MgSe4
_chemical_formula_sum   'Tm16 Mg8 Se32'
_cell_volume   1374.09684918
_cell_formula_units_Z   8
loop_
 _symmetry_equiv_pos_site_id
 _symmetry_equiv_pos_as_xyz
  1  'x, y, z'
loop_
 _atom_site_type_symbol
 _atom_site_label
 _atom_site_symmetry_multiplicity
 _atom_site_fract_x
 _atom_site_fract_y
 _atom_site_fract_z
 _atom_site_occupancy
  Tm  Tm0  1  0.88386400  0.10772500  0.68634600  1
  Tm  Tm1  1  0.11613600  0.89227500  0.18634600  1
  Tm  Tm2  1  0.88386400  0.39227500  0.18634600  1
  Tm  Tm3  1  0.11613600  0.60772500  0.68634600  1
  Tm  Tm4  1  0.38229700  0.12693400  0.32618400  1
  Tm  Tm5  1  0.61770300  0.87306600  0.82618400  1
  Tm  Tm6  1  0.38229700  0.37306600  0.82618400  1
  Tm  Tm7  1  0.61770300  0.62693400  0.32618400  1
  Tm  Tm8  1  0.63034700  0.13370400  0.99045000  1
  Tm  Tm9  1  0.36965300  0.86629600  0.49045000  1
  Tm  Tm10  1  0.63034700  0.36629600  0.49045000  1
  Tm  Tm11  1  0.36965300  0.63370400  0.99045000  1
  Tm  Tm12  1  0.13029700  0.13374100  0.99122100  1
  Tm  Tm13  1  0.86970300  0.86625900  0.49122100  1
  Tm  Tm14  1  0.13029700  0.36625900  0.49122100  1
  Tm  Tm15  1  0.86970300  0.63374100  0.99122100  1
  Mg  Mg16  1  0.38291600  0.11154000  0.69047700  1
  Mg  Mg17  1  0.61708400  0.88846000  0.19047700  1
  Mg  Mg18  1  0.38291600  0.38846000  0.19047700  1
  Mg  Mg19  1  0.61708400  0.61154000  0.69047700  1
  Mg  Mg20  1  0.87942900  0.12623400  0.32146800  1
  Mg  Mg21  1  0.12057100  0.87376600  0.82146800  1
  Mg  Mg22  1  0.87942900  0.37376600  0.82146800  1
  Mg  Mg23  1  0.12057100  0.62623400  0.32146800  1
  Se  Se24  1  0.87688000  0.01392500  0.87744800  1
  Se  Se25  1  0.12312000  0.98607500  0.37744800  1
  Se  Se26  1  0.87688000  0.48607500  0.37744800  1
  Se  Se27  1  0.12312000  0.51392500  0.87744800  1
  Se  Se28  1  0.37708700  0.03377500  0.13102800  1
  Se  Se29  1  0.62291300  0.96622500  0.63102800  1
  Se  Se30  1  0.37708700  0.46622500  0.63102800  1
  Se  Se31  1  0.62291300  0.53377500  0.13102800  1
  Se  Se32  1  0.37538500  0.02223400  0.87076000  1
  Se  Se33  1  0.62461500  0.97776600  0.37076000  1
  Se  Se34  1  0.37538500  0.47776600  0.37076000  1
  Se  Se35  1  0.62461500  0.52223400  0.87076000  1
  Se  Se36  1  0.87580500  0.04341700  0.13554200  1
  Se  Se37  1  0.12419500  0.95658300  0.63554200  1
  Se  Se38  1  0.87580500  0.45658300  0.63554200  1
  Se  Se39  1  0.12419500  0.54341700  0.13554200  1
  Se  Se40  1  0.88099400  0.21161900  0.50432500  1
  Se  Se41  1  0.11900600  0.78838100  0.00432500  1
  Se  Se42  1  0.88099400  0.28838100  0.00432500  1
  Se  Se43  1  0.11900600  0.71161900  0.50432500  1
  Se  Se44  1  0.38078600  0.21310600  0.51747700  1
  Se  Se45  1  0.61921400  0.78689400  0.01747700  1
  Se  Se46  1  0.38078600  0.28689400  0.01747700  1
  Se  Se47  1  0.61921400  0.71310600  0.51747700  1
  Se  Se48  1  0.13109500  0.23153000  0.77642000  1
  Se  Se49  1  0.86890500  0.76847000  0.27642000  1
  Se  Se50  1  0.13109500  0.26847000  0.27642000  1
  Se  Se51  1  0.86890500  0.73153000  0.77642000  1
  Se  Se52  1  0.63433300  0.23232700  0.77785500  1
  Se  Se53  1  0.36566700  0.76767300  0.27785500  1
  Se  Se54  1  0.63433300  0.26767300  0.27785500  1
  Se  Se55  1  0.36566700  0.73232700  0.77785500  1
