# generated using pymatgen
data_Sm2MgS4
_symmetry_space_group_name_H-M   'P 1'
_cell_length_a   7.72778100
_cell_length_b   12.91993600
_cell_length_c   12.94951400
_cell_angle_alpha   90.00000000
_cell_angle_beta   90.00000000
_cell_angle_gamma   90.00000000
_symmetry_Int_Tables_number   1
_chemical_formula_structural   Sm2MgS4
_chemical_formula_sum   'Sm16 Mg8 S32'
_cell_volume   1292.91102203
_cell_formula_units_Z   8
loop_
 _symmetry_equiv_pos_site_id
 _symmetry_equiv_pos_as_xyz
  1  'x, y, z'
loop_
 _atom_site_type_symbol
 _atom_site_label
 _atom_site_symmetry_multiplicity
 _atom_site_fract_x
 _atom_site_fract_y
 _atom_site_fract_z
 _atom_site_occupancy
  Sm  Sm0  1  0.88481500  0.10944000  0.68466800  1
  Sm  Sm1  1  0.11518500  0.89056000  0.18466800  1
  Sm  Sm2  1  0.88481500  0.39056000  0.18466800  1
  Sm  Sm3  1  0.11518500  0.60944000  0.68466800  1
  Sm  Sm4  1  0.38320800  0.12707500  0.32611400  1
  Sm  Sm5  1  0.61679200  0.87292500  0.82611400  1
  Sm  Sm6  1  0.38320800  0.37292500  0.82611400  1
  Sm  Sm7  1  0.61679200  0.62707500  0.32611400  1
  Sm  Sm8  1  0.63013300  0.13424300  0.99359100  1
  Sm  Sm9  1  0.36986700  0.86575700  0.49359100  1
  Sm  Sm10  1  0.63013300  0.36575700  0.49359100  1
  Sm  Sm11  1  0.36986700  0.63424300  0.99359100  1
  Sm  Sm12  1  0.13001800  0.13491900  0.99266100  1
  Sm  Sm13  1  0.86998200  0.86508100  0.49266100  1
  Sm  Sm14  1  0.13001800  0.36508100  0.49266100  1
  Sm  Sm15  1  0.86998200  0.63491900  0.99266100  1
  Mg  Mg16  1  0.38436900  0.11108000  0.69245200  1
  Mg  Mg17  1  0.61563100  0.88892000  0.19245200  1
  Mg  Mg18  1  0.38436900  0.38892000  0.19245200  1
  Mg  Mg19  1  0.61563100  0.61108000  0.69245200  1
  Mg  Mg20  1  0.87965300  0.12580200  0.32057300  1
  Mg  Mg21  1  0.12034700  0.87419800  0.82057300  1
  Mg  Mg22  1  0.87965300  0.37419800  0.82057300  1
  Mg  Mg23  1  0.12034700  0.62580200  0.32057300  1
  S  S24  1  0.87998400  0.01192500  0.87873900  1
  S  S25  1  0.12001600  0.98807500  0.37873900  1
  S  S26  1  0.87998400  0.48807500  0.37873900  1
  S  S27  1  0.12001600  0.51192500  0.87873900  1
  S  S28  1  0.38019800  0.03005900  0.12943300  1
  S  S29  1  0.61980200  0.96994100  0.62943300  1
  S  S30  1  0.38019800  0.46994100  0.62943300  1
  S  S31  1  0.61980200  0.53005900  0.12943300  1
  S  S32  1  0.37238100  0.02375500  0.86819900  1
  S  S33  1  0.62761900  0.97624500  0.36819900  1
  S  S34  1  0.37238100  0.47624500  0.36819900  1
  S  S35  1  0.62761900  0.52375500  0.86819900  1
  S  S36  1  0.87361100  0.04477900  0.13871400  1
  S  S37  1  0.12638900  0.95522100  0.63871400  1
  S  S38  1  0.87361100  0.45522100  0.63871400  1
  S  S39  1  0.12638900  0.54477900  0.13871400  1
  S  S40  1  0.88044500  0.21082800  0.49791300  1
  S  S41  1  0.11955500  0.78917200  0.99791300  1
  S  S42  1  0.88044500  0.28917200  0.99791300  1
  S  S43  1  0.11955500  0.71082800  0.49791300  1
  S  S44  1  0.38093900  0.21135100  0.52233300  1
  S  S45  1  0.61906100  0.78864900  0.02233300  1
  S  S46  1  0.38093900  0.28864900  0.02233300  1
  S  S47  1  0.61906100  0.71135100  0.52233300  1
  S  S48  1  0.13066100  0.23293200  0.77477500  1
  S  S49  1  0.86933900  0.76706800  0.27477500  1
  S  S50  1  0.13066100  0.26706800  0.27477500  1
  S  S51  1  0.86933900  0.73293200  0.77477500  1
  S  S52  1  0.63313600  0.23146600  0.77683400  1
  S  S53  1  0.36686400  0.76853400  0.27683400  1
  S  S54  1  0.63313600  0.26853400  0.27683400  1
  S  S55  1  0.36686400  0.73146600  0.77683400  1
