# generated using pymatgen
data_Ce2MgSe4
_symmetry_space_group_name_H-M   'P 1'
_cell_length_a   6.95475200
_cell_length_b   8.65909400
_cell_length_c   14.72921400
_cell_angle_alpha   90.00000000
_cell_angle_beta   90.00000000
_cell_angle_gamma   90.00000000
_symmetry_Int_Tables_number   1
_chemical_formula_structural   Ce2MgSe4
_chemical_formula_sum   'Ce8 Mg4 Se16'
_cell_volume   887.02053549
_cell_formula_units_Z   4
loop_
 _symmetry_equiv_pos_site_id
 _symmetry_equiv_pos_as_xyz
  1  'x, y, z'
loop_
 _atom_site_type_symbol
 _atom_site_label
 _atom_site_symmetry_multiplicity
 _atom_site_fract_x
 _atom_site_fract_y
 _atom_site_fract_z
 _atom_site_occupancy
  Ce  Ce0  1  0.50000000  0.00000000  0.00000000  1
  Ce  Ce1  1  0.00000000  0.00000000  0.50000000  1
  Ce  Ce2  1  0.00000000  0.50000000  0.50000000  1
  Ce  Ce3  1  0.50000000  0.50000000  0.00000000  1
  Ce  Ce4  1  0.99693400  0.75000000  0.23278800  1
  Ce  Ce5  1  0.00306600  0.25000000  0.76721200  1
  Ce  Ce6  1  0.49693400  0.25000000  0.26721200  1
  Ce  Ce7  1  0.50306600  0.75000000  0.73278800  1
  Mg  Mg8  1  0.91407500  0.25000000  0.09318800  1
  Mg  Mg9  1  0.08592500  0.75000000  0.90681200  1
  Mg  Mg10  1  0.41407500  0.75000000  0.40681200  1
  Mg  Mg11  1  0.58592500  0.25000000  0.59318800  1
  Se  Se12  1  0.74344900  0.01393600  0.16862400  1
  Se  Se13  1  0.25655100  0.98606400  0.83137600  1
  Se  Se14  1  0.24344900  0.98606400  0.33137600  1
  Se  Se15  1  0.75655100  0.01393600  0.66862400  1
  Se  Se16  1  0.75655100  0.48606400  0.66862400  1
  Se  Se17  1  0.24344900  0.51393600  0.33137600  1
  Se  Se18  1  0.25655100  0.51393600  0.83137600  1
  Se  Se19  1  0.74344900  0.48606400  0.16862400  1
  Se  Se20  1  0.24506600  0.75000000  0.06838500  1
  Se  Se21  1  0.75493400  0.25000000  0.93161500  1
  Se  Se22  1  0.74506600  0.25000000  0.43161500  1
  Se  Se23  1  0.25493400  0.75000000  0.56838500  1
  Se  Se24  1  0.28161100  0.25000000  0.09129500  1
  Se  Se25  1  0.71838900  0.75000000  0.90870500  1
  Se  Se26  1  0.78161100  0.75000000  0.40870500  1
  Se  Se27  1  0.21838900  0.25000000  0.59129500  1
