# generated using pymatgen
data_Pr2MgS4
_symmetry_space_group_name_H-M   'P 1'
_cell_length_a   7.88167100
_cell_length_b   13.05281100
_cell_length_c   13.13787800
_cell_angle_alpha   90.00000000
_cell_angle_beta   90.00000000
_cell_angle_gamma   90.00000000
_symmetry_Int_Tables_number   1
_chemical_formula_structural   Pr2MgS4
_chemical_formula_sum   'Pr16 Mg8 S32'
_cell_volume   1351.59811269
_cell_formula_units_Z   8
loop_
 _symmetry_equiv_pos_site_id
 _symmetry_equiv_pos_as_xyz
  1  'x, y, z'
loop_
 _atom_site_type_symbol
 _atom_site_label
 _atom_site_symmetry_multiplicity
 _atom_site_fract_x
 _atom_site_fract_y
 _atom_site_fract_z
 _atom_site_occupancy
  Pr  Pr0  1  0.88616000  0.68349900  0.11002000  1
  Pr  Pr1  1  0.11384000  0.18349900  0.88998000  1
  Pr  Pr2  1  0.88616000  0.18349900  0.38998000  1
  Pr  Pr3  1  0.11384000  0.68349900  0.61002000  1
  Pr  Pr4  1  0.38412700  0.32629000  0.12701200  1
  Pr  Pr5  1  0.61587300  0.82629000  0.87298800  1
  Pr  Pr6  1  0.38412700  0.82629000  0.37298800  1
  Pr  Pr7  1  0.61587300  0.32629000  0.62701200  1
  Pr  Pr8  1  0.63045100  0.99448700  0.13489100  1
  Pr  Pr9  1  0.36954900  0.49448700  0.86510900  1
  Pr  Pr10  1  0.63045100  0.49448700  0.36510900  1
  Pr  Pr11  1  0.36954900  0.99448700  0.63489100  1
  Pr  Pr12  1  0.13016300  0.99335500  0.13607200  1
  Pr  Pr13  1  0.86983700  0.49335500  0.86392800  1
  Pr  Pr14  1  0.13016300  0.49335500  0.36392800  1
  Pr  Pr15  1  0.86983700  0.99335500  0.63607200  1
  Mg  Mg16  1  0.38569600  0.69376500  0.11143900  1
  Mg  Mg17  1  0.61430400  0.19376500  0.88856100  1
  Mg  Mg18  1  0.38569600  0.19376500  0.38856100  1
  Mg  Mg19  1  0.61430400  0.69376500  0.61143900  1
  Mg  Mg20  1  0.88022300  0.31988000  0.12561800  1
  Mg  Mg21  1  0.11977700  0.81988000  0.87438200  1
  Mg  Mg22  1  0.88022300  0.81988000  0.37438200  1
  Mg  Mg23  1  0.11977700  0.31988000  0.62561800  1
  S  S24  1  0.88263800  0.87942800  0.01039800  1
  S  S25  1  0.11736200  0.37942800  0.98960200  1
  S  S26  1  0.88263800  0.37942800  0.48960200  1
  S  S27  1  0.11736200  0.87942800  0.51039800  1
  S  S28  1  0.38296300  0.12879100  0.02762400  1
  S  S29  1  0.61703700  0.62879100  0.97237600  1
  S  S30  1  0.38296300  0.62879100  0.47237600  1
  S  S31  1  0.61703700  0.12879100  0.52762400  1
  S  S32  1  0.37138300  0.86640600  0.02559500  1
  S  S33  1  0.62861700  0.36640600  0.97440500  1
  S  S34  1  0.37138300  0.36640600  0.47440500  1
  S  S35  1  0.62861700  0.86640600  0.52559500  1
  S  S36  1  0.87328300  0.14097300  0.04737100  1
  S  S37  1  0.12671700  0.64097300  0.95262900  1
  S  S38  1  0.87328300  0.64097300  0.45262900  1
  S  S39  1  0.12671700  0.14097300  0.54737100  1
  S  S40  1  0.88033900  0.49415000  0.20967500  1
  S  S41  1  0.11966100  0.99415000  0.79032500  1
  S  S42  1  0.88033900  0.99415000  0.29032500  1
  S  S43  1  0.11966100  0.49415000  0.70967500  1
  S  S44  1  0.38125800  0.52544200  0.20991700  1
  S  S45  1  0.61874200  0.02544200  0.79008300  1
  S  S46  1  0.38125800  0.02544200  0.29008300  1
  S  S47  1  0.61874200  0.52544200  0.70991700  1
  S  S48  1  0.13237100  0.77389300  0.23301900  1
  S  S49  1  0.86762900  0.27389300  0.76698100  1
  S  S50  1  0.13237100  0.27389300  0.26698100  1
  S  S51  1  0.86762900  0.77389300  0.73301900  1
  S  S52  1  0.63407300  0.77664100  0.23151900  1
  S  S53  1  0.36592700  0.27664100  0.76848100  1
  S  S54  1  0.63407300  0.27664100  0.26848100  1
  S  S55  1  0.36592700  0.77664100  0.73151900  1
