# generated using pymatgen
data_Tb2MgS4
_symmetry_space_group_name_H-M   'P 1'
_cell_length_a   13.59283400
_cell_length_b   7.94671200
_cell_length_c   6.54944600
_cell_angle_alpha   90.00000000
_cell_angle_beta   90.00000000
_cell_angle_gamma   90.00000000
_symmetry_Int_Tables_number   1
_chemical_formula_structural   Tb2MgS4
_chemical_formula_sum   'Tb8 Mg4 S16'
_cell_volume   707.46026560
_cell_formula_units_Z   4
loop_
 _symmetry_equiv_pos_site_id
 _symmetry_equiv_pos_as_xyz
  1  'x, y, z'
loop_
 _atom_site_type_symbol
 _atom_site_label
 _atom_site_symmetry_multiplicity
 _atom_site_fract_x
 _atom_site_fract_y
 _atom_site_fract_z
 _atom_site_occupancy
  Tb  Tb0  1  0.00000000  0.00000000  0.50000000  1
  Tb  Tb1  1  0.50000000  0.00000000  0.00000000  1
  Tb  Tb2  1  0.50000000  0.50000000  0.00000000  1
  Tb  Tb3  1  0.00000000  0.50000000  0.50000000  1
  Tb  Tb4  1  0.23205700  0.75000000  0.99892600  1
  Tb  Tb5  1  0.76794300  0.25000000  0.00107400  1
  Tb  Tb6  1  0.26794300  0.25000000  0.49892600  1
  Tb  Tb7  1  0.73205700  0.75000000  0.50107400  1
  Mg  Mg8  1  0.09341200  0.25000000  0.92240500  1
  Mg  Mg9  1  0.90658800  0.75000000  0.07759500  1
  Mg  Mg10  1  0.40658800  0.75000000  0.42240500  1
  Mg  Mg11  1  0.59341200  0.25000000  0.57759500  1
  S  S12  1  0.16865500  0.01041500  0.74212000  1
  S  S13  1  0.83134500  0.98958500  0.25788000  1
  S  S14  1  0.33134500  0.98958500  0.24212000  1
  S  S15  1  0.66865500  0.01041500  0.75788000  1
  S  S16  1  0.66865500  0.48958500  0.75788000  1
  S  S17  1  0.33134500  0.51041500  0.24212000  1
  S  S18  1  0.83134500  0.51041500  0.25788000  1
  S  S19  1  0.16865500  0.48958500  0.74212000  1
  S  S20  1  0.06996800  0.75000000  0.24686600  1
  S  S21  1  0.93003200  0.25000000  0.75313400  1
  S  S22  1  0.43003200  0.25000000  0.74686600  1
  S  S23  1  0.56996800  0.75000000  0.25313400  1
  S  S24  1  0.09161600  0.25000000  0.28915200  1
  S  S25  1  0.90838400  0.75000000  0.71084800  1
  S  S26  1  0.40838400  0.75000000  0.78915200  1
  S  S27  1  0.59161600  0.25000000  0.21084800  1
