# generated using pymatgen
data_Sm2MgS4
_symmetry_space_group_name_H-M   'P 1'
_cell_length_a   13.82769400
_cell_length_b   8.10780100
_cell_length_c   6.60650300
_cell_angle_alpha   90.00000000
_cell_angle_beta   90.00000000
_cell_angle_gamma   90.00000000
_symmetry_Int_Tables_number   1
_chemical_formula_structural   Sm2MgS4
_chemical_formula_sum   'Sm8 Mg4 S16'
_cell_volume   740.66952777
_cell_formula_units_Z   4
loop_
 _symmetry_equiv_pos_site_id
 _symmetry_equiv_pos_as_xyz
  1  'x, y, z'
loop_
 _atom_site_type_symbol
 _atom_site_label
 _atom_site_symmetry_multiplicity
 _atom_site_fract_x
 _atom_site_fract_y
 _atom_site_fract_z
 _atom_site_occupancy
  Sm  Sm0  1  0.00000000  0.00000000  0.50000000  1
  Sm  Sm1  1  0.50000000  0.00000000  0.00000000  1
  Sm  Sm2  1  0.50000000  0.50000000  0.00000000  1
  Sm  Sm3  1  0.00000000  0.50000000  0.50000000  1
  Sm  Sm4  1  0.23113300  0.75000000  0.99878900  1
  Sm  Sm5  1  0.76886700  0.25000000  0.00121100  1
  Sm  Sm6  1  0.26886700  0.25000000  0.49878900  1
  Sm  Sm7  1  0.73113300  0.75000000  0.50121100  1
  Mg  Mg8  1  0.09301600  0.25000000  0.92292600  1
  Mg  Mg9  1  0.90698400  0.75000000  0.07707400  1
  Mg  Mg10  1  0.40698400  0.75000000  0.42292600  1
  Mg  Mg11  1  0.59301600  0.25000000  0.57707400  1
  S  S12  1  0.16789000  0.01428000  0.74648100  1
  S  S13  1  0.83211000  0.98572000  0.25351900  1
  S  S14  1  0.33211000  0.98572000  0.24648100  1
  S  S15  1  0.66789000  0.01428000  0.75351900  1
  S  S16  1  0.66789000  0.48572000  0.75351900  1
  S  S17  1  0.33211000  0.51428000  0.24648100  1
  S  S18  1  0.83211000  0.51428000  0.25351900  1
  S  S19  1  0.16789000  0.48572000  0.74648100  1
  S  S20  1  0.06783500  0.75000000  0.24427400  1
  S  S21  1  0.93216500  0.25000000  0.75572600  1
  S  S22  1  0.43216500  0.25000000  0.74427400  1
  S  S23  1  0.56783500  0.75000000  0.25572600  1
  S  S24  1  0.09214700  0.25000000  0.28703300  1
  S  S25  1  0.90785300  0.75000000  0.71296600  1
  S  S26  1  0.40785300  0.75000000  0.78703400  1
  S  S27  1  0.59214700  0.25000000  0.21296700  1
