# generated using pymatgen
data_Mg(ScS2)2
_symmetry_space_group_name_H-M   'P 1'
_cell_length_a   12.11212400
_cell_length_b   7.20410600
_cell_length_c   12.40202500
_cell_angle_alpha   90.00000000
_cell_angle_beta   90.00000000
_cell_angle_gamma   90.00000000
_symmetry_Int_Tables_number   1
_chemical_formula_structural   Mg(ScS2)2
_chemical_formula_sum   'Mg8 Sc16 S32'
_cell_volume   1082.16380772
_cell_formula_units_Z   8
loop_
 _symmetry_equiv_pos_site_id
 _symmetry_equiv_pos_as_xyz
  1  'x, y, z'
loop_
 _atom_site_type_symbol
 _atom_site_label
 _atom_site_symmetry_multiplicity
 _atom_site_fract_x
 _atom_site_fract_y
 _atom_site_fract_z
 _atom_site_occupancy
  Mg  Mg0  1  0.10879500  0.37916800  0.68714800  1
  Mg  Mg1  1  0.89120500  0.62083200  0.18714800  1
  Mg  Mg2  1  0.39120500  0.37916800  0.18714800  1
  Mg  Mg3  1  0.60879500  0.62083200  0.68714800  1
  Mg  Mg4  1  0.12551800  0.87784100  0.32327000  1
  Mg  Mg5  1  0.87448200  0.12215900  0.82327000  1
  Mg  Mg6  1  0.37448200  0.87784100  0.82327000  1
  Mg  Mg7  1  0.62551800  0.12215900  0.32327000  1
  Sc  Sc8  1  0.10807000  0.88079400  0.68713700  1
  Sc  Sc9  1  0.89193000  0.11920600  0.18713700  1
  Sc  Sc10  1  0.39192900  0.88079400  0.18713700  1
  Sc  Sc11  1  0.60807000  0.11920600  0.68713700  1
  Sc  Sc12  1  0.12842500  0.37998000  0.32661500  1
  Sc  Sc13  1  0.87157500  0.62002000  0.82661500  1
  Sc  Sc14  1  0.37157500  0.37998000  0.82661500  1
  Sc  Sc15  1  0.62842500  0.62002000  0.32661500  1
  Sc  Sc16  1  0.13288700  0.62848400  0.98866900  1
  Sc  Sc17  1  0.86711300  0.37151600  0.48866900  1
  Sc  Sc18  1  0.36711300  0.62848400  0.48866900  1
  Sc  Sc19  1  0.63288700  0.37151600  0.98866900  1
  Sc  Sc20  1  0.13201900  0.12906200  0.99009200  1
  Sc  Sc21  1  0.86798100  0.87093800  0.49009200  1
  Sc  Sc22  1  0.36798100  0.12906200  0.49009200  1
  Sc  Sc23  1  0.63201900  0.87093800  0.99009200  1
  S  S24  1  0.01644600  0.87178300  0.87534100  1
  S  S25  1  0.98355400  0.12821700  0.37534100  1
  S  S26  1  0.48355400  0.87178300  0.37534100  1
  S  S27  1  0.51644600  0.12821700  0.87534100  1
  S  S28  1  0.03799300  0.36991700  0.13248200  1
  S  S29  1  0.96200700  0.63008300  0.63248200  1
  S  S30  1  0.46200700  0.36991700  0.63248200  1
  S  S31  1  0.53799300  0.63008300  0.13248200  1
  S  S32  1  0.01800700  0.37882000  0.87381100  1
  S  S33  1  0.98199300  0.62118000  0.37381100  1
  S  S34  1  0.48199300  0.37882000  0.37381100  1
  S  S35  1  0.51800700  0.62118000  0.87381100  1
  S  S36  1  0.03710300  0.87687900  0.13238500  1
  S  S37  1  0.96289700  0.12312100  0.63238500  1
  S  S38  1  0.46289700  0.87687900  0.63238500  1
  S  S39  1  0.53710300  0.12312100  0.13238500  1
  S  S40  1  0.21640300  0.87970600  0.51039700  1
  S  S41  1  0.78359700  0.12029400  0.01039700  1
  S  S42  1  0.28359600  0.87970600  0.01039700  1
  S  S43  1  0.71640300  0.12029400  0.51039700  1
  S  S44  1  0.21688300  0.37881500  0.51252300  1
  S  S45  1  0.78311700  0.62118500  0.01252300  1
  S  S46  1  0.28311700  0.37881500  0.01252300  1
  S  S47  1  0.71688300  0.62118500  0.51252300  1
  S  S48  1  0.23016400  0.12842400  0.77933700  1
  S  S49  1  0.76983600  0.87157600  0.27933700  1
  S  S50  1  0.26983600  0.12842400  0.27933700  1
  S  S51  1  0.73016400  0.87157600  0.77933700  1
  S  S52  1  0.23178400  0.63013700  0.77779600  1
  S  S53  1  0.76821600  0.36986300  0.27779600  1
  S  S54  1  0.26821600  0.63013700  0.27779600  1
  S  S55  1  0.73178400  0.36986300  0.77779600  1
