# generated using pymatgen
data_Dy2MgS4
_symmetry_space_group_name_H-M   'P 1'
_cell_length_a   7.23150119
_cell_length_b   8.37218498
_cell_length_c   12.91617285
_cell_angle_alpha   80.45608500
_cell_angle_beta   84.34950476
_cell_angle_gamma   90.01100630
_symmetry_Int_Tables_number   1
_chemical_formula_structural   Dy2MgS4
_chemical_formula_sum   'Dy8 Mg4 S16'
_cell_volume   767.31040711
_cell_formula_units_Z   4
loop_
 _symmetry_equiv_pos_site_id
 _symmetry_equiv_pos_as_xyz
  1  'x, y, z'
loop_
 _atom_site_type_symbol
 _atom_site_label
 _atom_site_symmetry_multiplicity
 _atom_site_fract_x
 _atom_site_fract_y
 _atom_site_fract_z
 _atom_site_occupancy
  Dy  Dy0  1  0.13518900  0.70027800  0.69396100  1
  Dy  Dy1  1  0.86481100  0.29972200  0.30603900  1
  Dy  Dy2  1  0.24144000  0.87237300  0.00061000  1
  Dy  Dy3  1  0.75856000  0.12762700  0.99939000  1
  Dy  Dy4  1  0.36792200  0.55496800  0.30427900  1
  Dy  Dy5  1  0.63207800  0.44503200  0.69572100  1
  Dy  Dy6  1  0.36634800  0.04268700  0.30782300  1
  Dy  Dy7  1  0.63365200  0.95731300  0.69217700  1
  Mg  Mg8  1  0.13373900  0.20038200  0.70015100  1
  Mg  Mg9  1  0.86626100  0.79961800  0.29984900  1
  Mg  Mg10  1  0.24922900  0.37751700  0.99625400  1
  Mg  Mg11  1  0.75077100  0.62248300  0.00374600  1
  S  S12  1  0.09395800  0.64533800  0.89683100  1
  S  S13  1  0.90604200  0.35466200  0.10316900  1
  S  S14  1  0.10714600  0.15520000  0.89257400  1
  S  S15  1  0.89285400  0.84480000  0.10742600  1
  S  S16  1  0.16972000  0.78116200  0.37213500  1
  S  S17  1  0.83028000  0.21883800  0.62786500  1
  S  S18  1  0.19145500  0.28182600  0.37527500  1
  S  S19  1  0.80854500  0.71817400  0.62472500  1
  S  S20  1  0.30365500  0.97879000  0.62933200  1
  S  S21  1  0.69634500  0.02121000  0.37066800  1
  S  S22  1  0.30539000  0.45660300  0.62890900  1
  S  S23  1  0.69461000  0.54339700  0.37109100  1
  S  S24  1  0.39426900  0.10285400  0.10445100  1
  S  S25  1  0.60573100  0.89714600  0.89554900  1
  S  S26  1  0.40414100  0.59301000  0.10178100  1
  S  S27  1  0.59585900  0.40699000  0.89821900  1
