# generated using pymatgen
data_Dy2MgS4
_symmetry_space_group_name_H-M   'P 1'
_cell_length_a   7.56544200
_cell_length_b   12.66299400
_cell_length_c   12.78881300
_cell_angle_alpha   90.00000000
_cell_angle_beta   90.00000000
_cell_angle_gamma   90.00000000
_symmetry_Int_Tables_number   1
_chemical_formula_structural   Dy2MgS4
_chemical_formula_sum   'Dy16 Mg8 S32'
_cell_volume   1225.18294974
_cell_formula_units_Z   8
loop_
 _symmetry_equiv_pos_site_id
 _symmetry_equiv_pos_as_xyz
  1  'x, y, z'
loop_
 _atom_site_type_symbol
 _atom_site_label
 _atom_site_symmetry_multiplicity
 _atom_site_fract_x
 _atom_site_fract_y
 _atom_site_fract_z
 _atom_site_occupancy
  Dy  Dy0  1  0.88284200  0.10912200  0.68539500  1
  Dy  Dy1  1  0.11715800  0.89087800  0.18539500  1
  Dy  Dy2  1  0.88284200  0.39087800  0.18539500  1
  Dy  Dy3  1  0.11715800  0.60912200  0.68539500  1
  Dy  Dy4  1  0.38177500  0.12758800  0.32649200  1
  Dy  Dy5  1  0.61822500  0.87241200  0.82649200  1
  Dy  Dy6  1  0.38177500  0.37241200  0.82649200  1
  Dy  Dy7  1  0.61822500  0.62758800  0.32649200  1
  Dy  Dy8  1  0.62873300  0.13337100  0.99232600  1
  Dy  Dy9  1  0.37126700  0.86662900  0.49232600  1
  Dy  Dy10  1  0.62873300  0.36662900  0.49232600  1
  Dy  Dy11  1  0.37126700  0.63337100  0.99232600  1
  Dy  Dy12  1  0.12887400  0.13377400  0.99135900  1
  Dy  Dy13  1  0.87112600  0.86622600  0.49135900  1
  Dy  Dy14  1  0.12887400  0.36622600  0.49135900  1
  Dy  Dy15  1  0.87112600  0.63377400  0.99135900  1
  Mg  Mg16  1  0.38131900  0.11007300  0.69104300  1
  Mg  Mg17  1  0.61868100  0.88992700  0.19104300  1
  Mg  Mg18  1  0.38131900  0.38992700  0.19104300  1
  Mg  Mg19  1  0.61868100  0.61007300  0.69104300  1
  Mg  Mg20  1  0.87825100  0.12579600  0.32116600  1
  Mg  Mg21  1  0.12174900  0.87420400  0.82116600  1
  Mg  Mg22  1  0.87825100  0.37420400  0.82116600  1
  Mg  Mg23  1  0.12174900  0.62579600  0.32116600  1
  S  S24  1  0.87775200  0.01286400  0.87769700  1
  S  S25  1  0.12224800  0.98713600  0.37769700  1
  S  S26  1  0.87775200  0.48713600  0.37769700  1
  S  S27  1  0.12224800  0.51286400  0.87769700  1
  S  S28  1  0.37735200  0.03260300  0.13041300  1
  S  S29  1  0.62264800  0.96739700  0.63041300  1
  S  S30  1  0.37735200  0.46739700  0.63041300  1
  S  S31  1  0.62264800  0.53260300  0.13041300  1
  S  S32  1  0.37304300  0.02154400  0.86950100  1
  S  S33  1  0.62695700  0.97845600  0.36950100  1
  S  S34  1  0.37304300  0.47845600  0.36950100  1
  S  S35  1  0.62695700  0.52154400  0.86950100  1
  S  S36  1  0.87300600  0.04209700  0.13697000  1
  S  S37  1  0.12699400  0.95790300  0.63697000  1
  S  S38  1  0.87300600  0.45790300  0.63697000  1
  S  S39  1  0.12699400  0.54209700  0.13697000  1
  S  S40  1  0.87931800  0.21236100  0.50166400  1
  S  S41  1  0.12068200  0.78763900  0.00166400  1
  S  S42  1  0.87931800  0.28763900  0.00166400  1
  S  S43  1  0.12068200  0.71236100  0.50166400  1
  S  S44  1  0.37963600  0.21290300  0.51963000  1
  S  S45  1  0.62036400  0.78709700  0.01963000  1
  S  S46  1  0.37963600  0.28709700  0.01963000  1
  S  S47  1  0.62036400  0.71290300  0.51963000  1
  S  S48  1  0.12911700  0.23214600  0.77618700  1
  S  S49  1  0.87088300  0.76785400  0.27618700  1
  S  S50  1  0.12911700  0.26785400  0.27618700  1
  S  S51  1  0.87088300  0.73214600  0.77618700  1
  S  S52  1  0.63206900  0.23149800  0.77715800  1
  S  S53  1  0.36793100  0.76850200  0.27715800  1
  S  S54  1  0.63206900  0.26850200  0.27715800  1
  S  S55  1  0.36793100  0.73149800  0.77715800  1
