# generated using pymatgen
data_KNa7V7CrO24
_symmetry_space_group_name_H-M   'P 1'
_cell_length_a   7.58195672
_cell_length_b   7.58195672
_cell_length_c   7.58195712
_cell_angle_alpha   89.99270565
_cell_angle_beta   89.99270565
_cell_angle_gamma   89.99271146
_symmetry_Int_Tables_number   1
_chemical_formula_structural   KNa7V7CrO24
_chemical_formula_sum   'K1 Na7 V7 Cr1 O24'
_cell_volume   435.85688982
_cell_formula_units_Z   1
loop_
 _symmetry_equiv_pos_site_id
 _symmetry_equiv_pos_as_xyz
  1  'x, y, z'
loop_
 _atom_site_type_symbol
 _atom_site_label
 _atom_site_symmetry_multiplicity
 _atom_site_fract_x
 _atom_site_fract_y
 _atom_site_fract_z
 _atom_site_occupancy
  K  K0  1  0.24951900  0.24951900  0.24951900  1
  Na  Na1  1  0.24948600  0.24948600  0.75051800  1
  Na  Na2  1  0.75052300  0.24945700  0.75052300  1
  Na  Na3  1  0.75051800  0.24948600  0.24948600  1
  Na  Na4  1  0.24945700  0.75052300  0.75052300  1
  Na  Na5  1  0.75050800  0.75050800  0.75050800  1
  Na  Na6  1  0.24948600  0.75051800  0.24948600  1
  Na  Na7  1  0.75052300  0.75052300  0.24945700  1
  V  V8  1  0.50068200  0.99933200  0.99933200  1
  V  V9  1  0.99933200  0.99933200  0.50068200  1
  V  V10  1  0.50072900  0.99930200  0.50072900  1
  V  V11  1  0.99933200  0.50068200  0.99933200  1
  V  V12  1  0.50072900  0.50072900  0.99930200  1
  V  V13  1  0.99930200  0.50072900  0.50072900  1
  V  V14  1  0.50070200  0.50070200  0.50070200  1
  Cr  Cr15  1  0.99927500  0.99927500  0.99927500  1
  O  O16  1  0.99774800  0.25449100  0.99774800  1
  O  O17  1  0.50214100  0.25147200  0.99784800  1
  O  O18  1  0.99784800  0.25147200  0.50214100  1
  O  O19  1  0.50223200  0.25065500  0.50223200  1
  O  O20  1  0.99939700  0.74570700  0.99939700  1
  O  O21  1  0.50060200  0.74851200  0.99933100  1
  O  O22  1  0.99933100  0.74851200  0.50060200  1
  O  O23  1  0.50056100  0.74935500  0.50056100  1
  O  O24  1  0.99939700  0.99939700  0.74570700  1
  O  O25  1  0.50060200  0.99933100  0.74851200  1
  O  O26  1  0.99774800  0.99774800  0.25449100  1
  O  O27  1  0.50214100  0.99784800  0.25147200  1
  O  O28  1  0.99933100  0.50060200  0.74851200  1
  O  O29  1  0.50056100  0.50056100  0.74935500  1
  O  O30  1  0.99784800  0.50214100  0.25147200  1
  O  O31  1  0.50223200  0.50223200  0.25065500  1
  O  O32  1  0.25449100  0.99774800  0.99774800  1
  O  O33  1  0.74570700  0.99939700  0.99939700  1
  O  O34  1  0.25147200  0.99784800  0.50214100  1
  O  O35  1  0.74851200  0.99933100  0.50060200  1
  O  O36  1  0.25147200  0.50214100  0.99784800  1
  O  O37  1  0.74851200  0.50060200  0.99933100  1
  O  O38  1  0.25065500  0.50223200  0.50223200  1
  O  O39  1  0.74935500  0.50056100  0.50056100  1
