# generated using pymatgen
data_Mg(ScSe2)2
_symmetry_space_group_name_H-M   'P 1'
_cell_length_a   7.32688763
_cell_length_b   7.32688763
_cell_length_c   7.32688763
_cell_angle_alpha   110.08095422
_cell_angle_beta   110.08095422
_cell_angle_gamma   108.25851730
_symmetry_Int_Tables_number   1
_chemical_formula_structural   Mg(ScSe2)2
_chemical_formula_sum   'Mg2 Sc4 Se8'
_cell_volume   302.68516456
_cell_formula_units_Z   2
loop_
 _symmetry_equiv_pos_site_id
 _symmetry_equiv_pos_as_xyz
  1  'x, y, z'
loop_
 _atom_site_type_symbol
 _atom_site_label
 _atom_site_symmetry_multiplicity
 _atom_site_fract_x
 _atom_site_fract_y
 _atom_site_fract_z
 _atom_site_occupancy
  Mg  Mg0  1  0.00000000  0.00000000  0.00000000  1
  Mg  Mg1  1  0.75000000  0.25000000  0.50000000  1
  Sc  Sc2  1  0.87500000  0.75755500  0.38255500  1
  Sc  Sc3  1  0.50755500  0.12500000  0.88255500  1
  Sc  Sc4  1  0.37500000  0.49244500  0.61744500  1
  Sc  Sc5  1  0.24244500  0.62500000  0.11744500  1
  Se  Se6  1  0.52002500  0.38360800  0.25715500  1
  Se  Se7  1  0.73713000  0.47997500  0.86358300  1
  Se  Se8  1  0.12645300  0.26287000  0.74284500  1
  Se  Se9  1  0.61639200  0.87354700  0.13641700  1
  Se  Se10  1  0.22997500  0.98713000  0.36358300  1
  Se  Se11  1  0.01287000  0.37645300  0.24284500  1
  Se  Se12  1  0.62354700  0.86639200  0.63641700  1
  Se  Se13  1  0.13360800  0.77002500  0.75715500  1
