# generated using pymatgen
data_LuMgSe3
_symmetry_space_group_name_H-M   'P 1'
_cell_length_a   8.07363344
_cell_length_b   12.04376000
_cell_length_c   7.32050598
_cell_angle_alpha   90.00000000
_cell_angle_beta   130.84432088
_cell_angle_gamma   90.00000000
_symmetry_Int_Tables_number   1
_chemical_formula_structural   LuMgSe3
_chemical_formula_sum   'Lu4 Mg4 Se12'
_cell_volume   538.48679149
_cell_formula_units_Z   4
loop_
 _symmetry_equiv_pos_site_id
 _symmetry_equiv_pos_as_xyz
  1  'x, y, z'
loop_
 _atom_site_type_symbol
 _atom_site_label
 _atom_site_symmetry_multiplicity
 _atom_site_fract_x
 _atom_site_fract_y
 _atom_site_fract_z
 _atom_site_occupancy
  Lu  Lu0  1  0.00974300  0.00000000  0.22787600  1
  Lu  Lu1  1  0.99025700  0.00000000  0.77212400  1
  Lu  Lu2  1  0.50974300  0.50000000  0.22787600  1
  Lu  Lu3  1  0.49025700  0.50000000  0.77212400  1
  Mg  Mg4  1  0.00000000  0.32794100  0.00000000  1
  Mg  Mg5  1  0.00000000  0.67205900  0.00000000  1
  Mg  Mg6  1  0.50000000  0.82794100  0.00000000  1
  Mg  Mg7  1  0.50000000  0.17205900  0.00000000  1
  Se  Se8  1  0.25908200  0.15435400  0.22366700  1
  Se  Se9  1  0.74091800  0.84564600  0.77633300  1
  Se  Se10  1  0.74091800  0.15435400  0.77633300  1
  Se  Se11  1  0.25908200  0.84564600  0.22366700  1
  Se  Se12  1  0.75908200  0.65435400  0.22366700  1
  Se  Se13  1  0.24091800  0.34564600  0.77633300  1
  Se  Se14  1  0.24091800  0.65435400  0.77633300  1
  Se  Se15  1  0.75908200  0.34564600  0.22366700  1
  Se  Se16  1  0.29045400  0.00000000  0.71139300  1
  Se  Se17  1  0.70954600  0.00000000  0.28860700  1
  Se  Se18  1  0.79045400  0.50000000  0.71139300  1
  Se  Se19  1  0.20954600  0.50000000  0.28860700  1
