# generated using pymatgen
data_Ho2MgSe4
_symmetry_space_group_name_H-M   'P 1'
_cell_length_a   14.10169600
_cell_length_b   8.22351600
_cell_length_c   6.82290800
_cell_angle_alpha   90.00000000
_cell_angle_beta   90.00000000
_cell_angle_gamma   90.00000000
_symmetry_Int_Tables_number   1
_chemical_formula_structural   Ho2MgSe4
_chemical_formula_sum   'Ho8 Mg4 Se16'
_cell_volume   791.22209244
_cell_formula_units_Z   4
loop_
 _symmetry_equiv_pos_site_id
 _symmetry_equiv_pos_as_xyz
  1  'x, y, z'
loop_
 _atom_site_type_symbol
 _atom_site_label
 _atom_site_symmetry_multiplicity
 _atom_site_fract_x
 _atom_site_fract_y
 _atom_site_fract_z
 _atom_site_occupancy
  Ho  Ho0  1  0.00000000  0.00000000  0.50000000  1
  Ho  Ho1  1  0.50000000  0.00000000  0.00000000  1
  Ho  Ho2  1  0.50000000  0.50000000  0.00000000  1
  Ho  Ho3  1  0.00000000  0.50000000  0.50000000  1
  Ho  Ho4  1  0.23430200  0.75000000  0.00252600  1
  Ho  Ho5  1  0.76569800  0.25000000  0.99747400  1
  Ho  Ho6  1  0.26569800  0.25000000  0.50252600  1
  Ho  Ho7  1  0.73430200  0.75000000  0.49747400  1
  Mg  Mg8  1  0.09240600  0.25000000  0.92021800  1
  Mg  Mg9  1  0.90759400  0.75000000  0.07978200  1
  Mg  Mg10  1  0.40759400  0.75000000  0.42021800  1
  Mg  Mg11  1  0.59240600  0.25000000  0.57978200  1
  Se  Se12  1  0.16925900  0.00545400  0.74075000  1
  Se  Se13  1  0.83074100  0.99454600  0.25925000  1
  Se  Se14  1  0.33074100  0.99454600  0.24075000  1
  Se  Se15  1  0.66925900  0.00545400  0.75925000  1
  Se  Se16  1  0.66925900  0.49454600  0.75925000  1
  Se  Se17  1  0.33074100  0.50545400  0.24075000  1
  Se  Se18  1  0.83074100  0.50545400  0.25925000  1
  Se  Se19  1  0.16925900  0.49454600  0.74075000  1
  Se  Se20  1  0.07331200  0.75000000  0.25013700  1
  Se  Se21  1  0.92668800  0.25000000  0.74986300  1
  Se  Se22  1  0.42668800  0.25000000  0.75013700  1
  Se  Se23  1  0.57331200  0.75000000  0.24986300  1
  Se  Se24  1  0.09160800  0.25000000  0.29065600  1
  Se  Se25  1  0.90839200  0.75000000  0.70934400  1
  Se  Se26  1  0.40839200  0.75000000  0.79065600  1
  Se  Se27  1  0.59160800  0.25000000  0.20934400  1
