# generated using pymatgen
data_Pr2MgSe4
_symmetry_space_group_name_H-M   'P 1'
_cell_length_a   8.20516000
_cell_length_b   13.69109800
_cell_length_c   13.69182200
_cell_angle_alpha   90.00000000
_cell_angle_beta   90.00000000
_cell_angle_gamma   90.00000000
_symmetry_Int_Tables_number   1
_chemical_formula_structural   Pr2MgSe4
_chemical_formula_sum   'Pr16 Mg8 Se32'
_cell_volume   1538.10710312
_cell_formula_units_Z   8
loop_
 _symmetry_equiv_pos_site_id
 _symmetry_equiv_pos_as_xyz
  1  'x, y, z'
loop_
 _atom_site_type_symbol
 _atom_site_label
 _atom_site_symmetry_multiplicity
 _atom_site_fract_x
 _atom_site_fract_y
 _atom_site_fract_z
 _atom_site_occupancy
  Pr  Pr0  1  0.88573100  0.68476300  0.10833800  1
  Pr  Pr1  1  0.11426900  0.18476300  0.89166200  1
  Pr  Pr2  1  0.88573100  0.18476300  0.39166200  1
  Pr  Pr3  1  0.11426900  0.68476300  0.60833800  1
  Pr  Pr4  1  0.38381200  0.32625600  0.12673300  1
  Pr  Pr5  1  0.61618800  0.82625600  0.87326700  1
  Pr  Pr6  1  0.38381200  0.82625600  0.37326700  1
  Pr  Pr7  1  0.61618800  0.32625600  0.62673300  1
  Pr  Pr8  1  0.63079900  0.99310300  0.13457500  1
  Pr  Pr9  1  0.36920100  0.49310300  0.86542500  1
  Pr  Pr10  1  0.63079900  0.49310300  0.36542500  1
  Pr  Pr11  1  0.36920100  0.99310300  0.63457500  1
  Pr  Pr12  1  0.13096800  0.99375700  0.13525500  1
  Pr  Pr13  1  0.86903200  0.49375700  0.86474500  1
  Pr  Pr14  1  0.13096800  0.49375700  0.36474500  1
  Pr  Pr15  1  0.86903200  0.99375700  0.63525500  1
  Mg  Mg16  1  0.38541100  0.69317300  0.11212300  1
  Mg  Mg17  1  0.61458900  0.19317300  0.88787700  1
  Mg  Mg18  1  0.38541100  0.19317300  0.38787700  1
  Mg  Mg19  1  0.61458900  0.69317300  0.61212300  1
  Mg  Mg20  1  0.88031600  0.31992300  0.12609600  1
  Mg  Mg21  1  0.11968400  0.81992300  0.87390400  1
  Mg  Mg22  1  0.88031600  0.81992300  0.37390400  1
  Mg  Mg23  1  0.11968400  0.31992300  0.62609600  1
  Se  Se24  1  0.88271100  0.88022300  0.00991000  1
  Se  Se25  1  0.11728900  0.38022300  0.99009000  1
  Se  Se26  1  0.88271100  0.38022300  0.49009000  1
  Se  Se27  1  0.11728900  0.88022300  0.50991000  1
  Se  Se28  1  0.38393500  0.12841900  0.02781000  1
  Se  Se29  1  0.61606500  0.62841900  0.97219000  1
  Se  Se30  1  0.38393500  0.62841900  0.47219000  1
  Se  Se31  1  0.61606500  0.12841900  0.52781000  1
  Se  Se32  1  0.37307000  0.86687100  0.02622300  1
  Se  Se33  1  0.62693000  0.36687100  0.97377700  1
  Se  Se34  1  0.37307000  0.36687100  0.47377700  1
  Se  Se35  1  0.62693000  0.86687100  0.52622300  1
  Se  Se36  1  0.87424700  0.13997300  0.04772300  1
  Se  Se37  1  0.12575300  0.63997300  0.95227700  1
  Se  Se38  1  0.87424700  0.63997300  0.45227700  1
  Se  Se39  1  0.12575300  0.13997300  0.54772300  1
  Se  Se40  1  0.88167600  0.49566900  0.20884600  1
  Se  Se41  1  0.11832400  0.99566900  0.79115400  1
  Se  Se42  1  0.88167600  0.99566900  0.29115400  1
  Se  Se43  1  0.11832400  0.49566900  0.70884600  1
  Se  Se44  1  0.38186600  0.52424900  0.20980300  1
  Se  Se45  1  0.61813400  0.02424900  0.79019700  1
  Se  Se46  1  0.38186600  0.02424900  0.29019700  1
  Se  Se47  1  0.61813400  0.52424900  0.70980300  1
  Se  Se48  1  0.13462300  0.77339400  0.23162100  1
  Se  Se49  1  0.86537700  0.27339400  0.76837900  1
  Se  Se50  1  0.13462300  0.27339400  0.26837900  1
  Se  Se51  1  0.86537700  0.77339400  0.73162100  1
  Se  Se52  1  0.63787800  0.77722700  0.23309100  1
  Se  Se53  1  0.36212200  0.27722700  0.76690900  1
  Se  Se54  1  0.63787800  0.27722700  0.26690900  1
  Se  Se55  1  0.36212200  0.77722700  0.73309100  1
