# generated using pymatgen
data_Yb2MgSe4
_symmetry_space_group_name_H-M   'P 1'
_cell_length_a   11.33737100
_cell_length_b   9.02566600
_cell_length_c   7.46833900
_cell_angle_alpha   90.00000000
_cell_angle_beta   90.00000000
_cell_angle_gamma   90.00000000
_symmetry_Int_Tables_number   1
_chemical_formula_structural   Yb2MgSe4
_chemical_formula_sum   'Yb8 Mg4 Se16'
_cell_volume   764.21514433
_cell_formula_units_Z   4
loop_
 _symmetry_equiv_pos_site_id
 _symmetry_equiv_pos_as_xyz
  1  'x, y, z'
loop_
 _atom_site_type_symbol
 _atom_site_label
 _atom_site_symmetry_multiplicity
 _atom_site_fract_x
 _atom_site_fract_y
 _atom_site_fract_z
 _atom_site_occupancy
  Yb  Yb0  1  0.00000000  0.00000000  0.50000000  1
  Yb  Yb1  1  0.50000000  0.00000000  0.00000000  1
  Yb  Yb2  1  0.50000000  0.50000000  0.00000000  1
  Yb  Yb3  1  0.00000000  0.50000000  0.50000000  1
  Yb  Yb4  1  0.21175500  0.75000000  0.91784400  1
  Yb  Yb5  1  0.78824500  0.25000000  0.08215600  1
  Yb  Yb6  1  0.28824500  0.25000000  0.41784400  1
  Yb  Yb7  1  0.71175500  0.75000000  0.58215600  1
  Mg  Mg8  1  0.11444700  0.25000000  0.94363900  1
  Mg  Mg9  1  0.88555300  0.75000000  0.05636100  1
  Mg  Mg10  1  0.38555300  0.75000000  0.44363900  1
  Mg  Mg11  1  0.61444700  0.25000000  0.55636100  1
  Se  Se12  1  0.20095500  0.05016500  0.74542500  1
  Se  Se13  1  0.79904500  0.94983500  0.25457500  1
  Se  Se14  1  0.29904500  0.94983500  0.24542500  1
  Se  Se15  1  0.70095500  0.05016500  0.75457500  1
  Se  Se16  1  0.70095500  0.44983500  0.75457500  1
  Se  Se17  1  0.29904500  0.55016500  0.24542500  1
  Se  Se18  1  0.79904500  0.55016500  0.25457500  1
  Se  Se19  1  0.20095500  0.44983500  0.74542500  1
  Se  Se20  1  0.07840300  0.75000000  0.25099900  1
  Se  Se21  1  0.92159700  0.25000000  0.74900100  1
  Se  Se22  1  0.42159700  0.25000000  0.75099900  1
  Se  Se23  1  0.57840300  0.75000000  0.24900100  1
  Se  Se24  1  0.04480400  0.25000000  0.26383500  1
  Se  Se25  1  0.95519600  0.75000000  0.73616500  1
  Se  Se26  1  0.45519600  0.75000000  0.76383500  1
  Se  Se27  1  0.54480400  0.25000000  0.23616500  1
