# generated using pymatgen
data_TmMgS3
_symmetry_space_group_name_H-M   'P 1'
_cell_length_a   7.57040153
_cell_length_b   11.56177000
_cell_length_c   7.12435910
_cell_angle_alpha   90.00000000
_cell_angle_beta   125.36276449
_cell_angle_gamma   90.00000000
_symmetry_Int_Tables_number   1
_chemical_formula_structural   TmMgS3
_chemical_formula_sum   'Tm4 Mg4 S12'
_cell_volume   508.52836808
_cell_formula_units_Z   4
loop_
 _symmetry_equiv_pos_site_id
 _symmetry_equiv_pos_as_xyz
  1  'x, y, z'
loop_
 _atom_site_type_symbol
 _atom_site_label
 _atom_site_symmetry_multiplicity
 _atom_site_fract_x
 _atom_site_fract_y
 _atom_site_fract_z
 _atom_site_occupancy
  Tm  Tm0  1  0.02745700  0.00000000  0.24658900  1
  Tm  Tm1  1  0.97254300  0.00000000  0.75341100  1
  Tm  Tm2  1  0.52745700  0.50000000  0.24658900  1
  Tm  Tm3  1  0.47254300  0.50000000  0.75341100  1
  Mg  Mg4  1  0.00000000  0.33964000  0.00000000  1
  Mg  Mg5  1  0.00000000  0.66036000  0.00000000  1
  Mg  Mg6  1  0.50000000  0.83964000  0.00000000  1
  Mg  Mg7  1  0.50000000  0.16036000  0.00000000  1
  S  S8  1  0.22597500  0.14920500  0.14678400  1
  S  S9  1  0.77402500  0.85079500  0.85321600  1
  S  S10  1  0.77402500  0.14920500  0.85321600  1
  S  S11  1  0.22597500  0.85079500  0.14678400  1
  S  S12  1  0.72597500  0.64920500  0.14678400  1
  S  S13  1  0.27402500  0.35079500  0.85321600  1
  S  S14  1  0.27402500  0.64920500  0.85321600  1
  S  S15  1  0.72597500  0.35079500  0.14678400  1
  S  S16  1  0.29361100  0.00000000  0.70173400  1
  S  S17  1  0.70638900  0.00000000  0.29826600  1
  S  S18  1  0.79361100  0.50000000  0.70173400  1
  S  S19  1  0.20638900  0.50000000  0.29826600  1
