# generated using pymatgen
data_Ce2MgS4
_symmetry_space_group_name_H-M   'P 1'
_cell_length_a   7.76701200
_cell_length_b   12.92620600
_cell_length_c   12.93658700
_cell_angle_alpha   90.00000000
_cell_angle_beta   90.00000000
_cell_angle_gamma   90.00000000
_symmetry_Int_Tables_number   1
_chemical_formula_structural   Ce2MgS4
_chemical_formula_sum   'Ce16 Mg8 S32'
_cell_volume   1298.80742432
_cell_formula_units_Z   8
loop_
 _symmetry_equiv_pos_site_id
 _symmetry_equiv_pos_as_xyz
  1  'x, y, z'
loop_
 _atom_site_type_symbol
 _atom_site_label
 _atom_site_symmetry_multiplicity
 _atom_site_fract_x
 _atom_site_fract_y
 _atom_site_fract_z
 _atom_site_occupancy
  Ce  Ce0  1  0.88525200  0.68472800  0.10860100  1
  Ce  Ce1  1  0.11474800  0.18472800  0.89139900  1
  Ce  Ce2  1  0.88525200  0.18472800  0.39139900  1
  Ce  Ce3  1  0.11474800  0.68472800  0.60860100  1
  Ce  Ce4  1  0.38422400  0.32730200  0.12427800  1
  Ce  Ce5  1  0.61577600  0.82730200  0.87572200  1
  Ce  Ce6  1  0.38422400  0.82730200  0.37572200  1
  Ce  Ce7  1  0.61577600  0.32730200  0.62427800  1
  Ce  Ce8  1  0.62939400  0.99373300  0.13345100  1
  Ce  Ce9  1  0.37060600  0.49373300  0.86654900  1
  Ce  Ce10  1  0.62939400  0.49373300  0.36654900  1
  Ce  Ce11  1  0.37060600  0.99373300  0.63345100  1
  Ce  Ce12  1  0.12891100  0.99322600  0.13411800  1
  Ce  Ce13  1  0.87108900  0.49322600  0.86588200  1
  Ce  Ce14  1  0.12891100  0.49322600  0.36588200  1
  Ce  Ce15  1  0.87108900  0.99322600  0.63411800  1
  Mg  Mg16  1  0.38314900  0.69280100  0.10858400  1
  Mg  Mg17  1  0.61685100  0.19280100  0.89141600  1
  Mg  Mg18  1  0.38314900  0.19280100  0.39141600  1
  Mg  Mg19  1  0.61685100  0.69280100  0.60858400  1
  Mg  Mg20  1  0.87800900  0.32066000  0.12355700  1
  Mg  Mg21  1  0.12199100  0.82066000  0.87644300  1
  Mg  Mg22  1  0.87800900  0.82066000  0.37644300  1
  Mg  Mg23  1  0.12199100  0.32066000  0.62355700  1
  S  S24  1  0.88060600  0.87828900  0.01172100  1
  S  S25  1  0.11939400  0.37828900  0.98827900  1
  S  S26  1  0.88060600  0.37828900  0.48827900  1
  S  S27  1  0.11939400  0.87828900  0.51172100  1
  S  S28  1  0.38028300  0.13033800  0.02867000  1
  S  S29  1  0.61971700  0.63033800  0.97133000  1
  S  S30  1  0.38028300  0.63033800  0.47133000  1
  S  S31  1  0.61971700  0.13033800  0.52867000  1
  S  S32  1  0.37044500  0.86748900  0.02208400  1
  S  S33  1  0.62955500  0.36748900  0.97791600  1
  S  S34  1  0.37044500  0.36748900  0.47791600  1
  S  S35  1  0.62955500  0.86748900  0.52208400  1
  S  S36  1  0.87123600  0.14049400  0.04370500  1
  S  S37  1  0.12876400  0.64049400  0.95629500  1
  S  S38  1  0.87123600  0.64049400  0.45629500  1
  S  S39  1  0.12876400  0.14049400  0.54370500  1
  S  S40  1  0.87876200  0.49755100  0.20916100  1
  S  S41  1  0.12123800  0.99755100  0.79083900  1
  S  S42  1  0.87876200  0.99755100  0.29083900  1
  S  S43  1  0.12123800  0.49755100  0.70916100  1
  S  S44  1  0.38033800  0.52239300  0.20913700  1
  S  S45  1  0.61966200  0.02239300  0.79086300  1
  S  S46  1  0.38033800  0.02239300  0.29086300  1
  S  S47  1  0.61966200  0.52239300  0.70913700  1
  S  S48  1  0.13128400  0.77285600  0.23333500  1
  S  S49  1  0.86871600  0.27285600  0.76666500  1
  S  S50  1  0.13128400  0.27285600  0.26666500  1
  S  S51  1  0.86871600  0.77285600  0.73333500  1
  S  S52  1  0.63384700  0.77514000  0.23219700  1
  S  S53  1  0.36615300  0.27514000  0.76780300  1
  S  S54  1  0.63384700  0.27514000  0.26780300  1
  S  S55  1  0.36615300  0.77514000  0.73219700  1
