# generated using pymatgen
data_Y2MgSe4
_symmetry_space_group_name_H-M   'P 1'
_cell_length_a   4.02311500
_cell_length_b   13.19433700
_cell_length_c   14.14745500
_cell_angle_alpha   90.00000000
_cell_angle_beta   90.00000000
_cell_angle_gamma   90.00000000
_symmetry_Int_Tables_number   1
_chemical_formula_structural   Y2MgSe4
_chemical_formula_sum   'Y8 Mg4 Se16'
_cell_volume   750.97994712
_cell_formula_units_Z   4
loop_
 _symmetry_equiv_pos_site_id
 _symmetry_equiv_pos_as_xyz
  1  'x, y, z'
loop_
 _atom_site_type_symbol
 _atom_site_label
 _atom_site_symmetry_multiplicity
 _atom_site_fract_x
 _atom_site_fract_y
 _atom_site_fract_z
 _atom_site_occupancy
  Y  Y0  1  0.25000000  0.11629100  0.07299200  1
  Y  Y1  1  0.75000000  0.88370900  0.92700800  1
  Y  Y2  1  0.75000000  0.38370900  0.57299200  1
  Y  Y3  1  0.25000000  0.61629100  0.42700800  1
  Y  Y4  1  0.25000000  0.14272300  0.70247200  1
  Y  Y5  1  0.75000000  0.85727700  0.29752800  1
  Y  Y6  1  0.75000000  0.35727700  0.20247200  1
  Y  Y7  1  0.25000000  0.64272300  0.79752800  1
  Mg  Mg8  1  0.75000000  0.10912800  0.45622600  1
  Mg  Mg9  1  0.25000000  0.89087200  0.54377400  1
  Mg  Mg10  1  0.25000000  0.39087200  0.95622600  1
  Mg  Mg11  1  0.75000000  0.60912800  0.04377400  1
  Se  Se12  1  0.75000000  0.00796300  0.61812500  1
  Se  Se13  1  0.25000000  0.99203700  0.38187500  1
  Se  Se14  1  0.25000000  0.49203700  0.11812500  1
  Se  Se15  1  0.75000000  0.50796300  0.88187500  1
  Se  Se16  1  0.25000000  0.02833700  0.88104400  1
  Se  Se17  1  0.75000000  0.97166300  0.11895600  1
  Se  Se18  1  0.75000000  0.47166300  0.38104400  1
  Se  Se19  1  0.25000000  0.52833700  0.61895600  1
  Se  Se20  1  0.25000000  0.22111200  0.24805500  1
  Se  Se21  1  0.75000000  0.77888800  0.75194500  1
  Se  Se22  1  0.75000000  0.27888800  0.74805500  1
  Se  Se23  1  0.25000000  0.72111200  0.25194500  1
  Se  Se24  1  0.75000000  0.26103900  0.01334000  1
  Se  Se25  1  0.25000000  0.73896100  0.98666000  1
  Se  Se26  1  0.25000000  0.23896100  0.51334000  1
  Se  Se27  1  0.75000000  0.76103900  0.48666000  1
