# generated using pymatgen
data_Gd2MgS4
_symmetry_space_group_name_H-M   'P 1'
_cell_length_a   12.81795166
_cell_length_b   7.70914990
_cell_length_c   12.93159370
_cell_angle_alpha   90.00000000
_cell_angle_beta   90.00000000
_cell_angle_gamma   90.00000000
_symmetry_Int_Tables_number   1
_chemical_formula_structural   Gd2MgS4
_chemical_formula_sum   'Gd16 Mg8 S32'
_cell_volume   1277.84203638
_cell_formula_units_Z   8
loop_
 _symmetry_equiv_pos_site_id
 _symmetry_equiv_pos_as_xyz
  1  'x, y, z'
loop_
 _atom_site_type_symbol
 _atom_site_label
 _atom_site_symmetry_multiplicity
 _atom_site_fract_x
 _atom_site_fract_y
 _atom_site_fract_z
 _atom_site_occupancy
  Gd  Gd0  1  0.10861689  0.88612613  0.68526276  1
  Gd  Gd1  1  0.89138311  0.11387387  0.18526276  1
  Gd  Gd2  1  0.39138311  0.88612613  0.18526276  1
  Gd  Gd3  1  0.60861689  0.11387387  0.68526276  1
  Gd  Gd4  1  0.12638779  0.38454799  0.32596050  1
  Gd  Gd5  1  0.87361221  0.61545201  0.82596050  1
  Gd  Gd6  1  0.37361221  0.38454799  0.82596050  1
  Gd  Gd7  1  0.62638779  0.61545201  0.32596050  1
  Gd  Gd8  1  0.13491203  0.63163603  0.99343966  1
  Gd  Gd9  1  0.86508797  0.36836397  0.49343966  1
  Gd  Gd10  1  0.36508797  0.63163603  0.49343966  1
  Gd  Gd11  1  0.63491203  0.36836397  0.99343966  1
  Gd  Gd12  1  0.13545642  0.13067382  0.99266945  1
  Gd  Gd13  1  0.86454358  0.86932618  0.49266945  1
  Gd  Gd14  1  0.36454358  0.13067382  0.49266945  1
  Gd  Gd15  1  0.63545642  0.86932618  0.99266945  1
  Mg  Mg16  1  0.11154880  0.38430314  0.69240105  1
  Mg  Mg17  1  0.88845120  0.61569686  0.19240105  1
  Mg  Mg18  1  0.38845120  0.38430314  0.19240105  1
  Mg  Mg19  1  0.61154880  0.61569686  0.69240105  1
  Mg  Mg20  1  0.12571821  0.88026870  0.32112802  1
  Mg  Mg21  1  0.87428179  0.11973130  0.82112802  1
  Mg  Mg22  1  0.37428179  0.88026870  0.82112802  1
  Mg  Mg23  1  0.62571821  0.11973130  0.32112802  1
  S  S24  1  0.01131364  0.88021686  0.87831903  1
  S  S25  1  0.98868636  0.11978314  0.37831903  1
  S  S26  1  0.48868636  0.88021686  0.37831903  1
  S  S27  1  0.51131364  0.11978314  0.87831903  1
  S  S28  1  0.02873763  0.38169592  0.13074499  1
  S  S29  1  0.97126237  0.61830408  0.63074499  1
  S  S30  1  0.47126237  0.38169592  0.63074499  1
  S  S31  1  0.52873763  0.61830408  0.13074499  1
  S  S32  1  0.02435247  0.37533341  0.86927032  1
  S  S33  1  0.97564753  0.62466659  0.36927032  1
  S  S34  1  0.47564753  0.37533341  0.36927032  1
  S  S35  1  0.52435247  0.62466659  0.86927032  1
  S  S36  1  0.04622882  0.87630336  0.13851539  1
  S  S37  1  0.95377118  0.12369664  0.63851539  1
  S  S38  1  0.45377118  0.87630336  0.63851539  1
  S  S39  1  0.54622882  0.12369664  0.13851539  1
  S  S40  1  0.21005218  0.88191430  0.49942767  1
  S  S41  1  0.78994782  0.11808570  0.99942767  1
  S  S42  1  0.28994782  0.88191430  0.99942767  1
  S  S43  1  0.71005218  0.11808570  0.49942767  1
  S  S44  1  0.21126154  0.38174396  0.52056711  1
  S  S45  1  0.78873846  0.61825604  0.02056711  1
  S  S46  1  0.28873846  0.38174396  0.02056711  1
  S  S47  1  0.71126154  0.61825604  0.52056711  1
  S  S48  1  0.23206749  0.13638757  0.77282229  1
  S  S49  1  0.76793251  0.86361243  0.27282229  1
  S  S50  1  0.26793251  0.13638757  0.27282229  1
  S  S51  1  0.73206749  0.86361243  0.77282229  1
  S  S52  1  0.23489166  0.63792874  0.77647276  1
  S  S53  1  0.76510834  0.36207126  0.27647276  1
  S  S54  1  0.26510834  0.63792874  0.27647276  1
  S  S55  1  0.73489166  0.36207126  0.77647276  1
