# generated using pymatgen
data_Mg(InS2)2
_symmetry_space_group_name_H-M   'P 1'
_cell_length_a   13.11236000
_cell_length_b   7.76819200
_cell_length_c   6.39983200
_cell_angle_alpha   90.00000000
_cell_angle_beta   90.00000000
_cell_angle_gamma   90.00000000
_symmetry_Int_Tables_number   1
_chemical_formula_structural   Mg(InS2)2
_chemical_formula_sum   'Mg4 In8 S16'
_cell_volume   651.88259997
_cell_formula_units_Z   4
loop_
 _symmetry_equiv_pos_site_id
 _symmetry_equiv_pos_as_xyz
  1  'x, y, z'
loop_
 _atom_site_type_symbol
 _atom_site_label
 _atom_site_symmetry_multiplicity
 _atom_site_fract_x
 _atom_site_fract_y
 _atom_site_fract_z
 _atom_site_occupancy
  Mg  Mg0  1  0.09338900  0.25000000  0.93138700  1
  Mg  Mg1  1  0.90661100  0.75000000  0.06861300  1
  Mg  Mg2  1  0.40661100  0.75000000  0.43138700  1
  Mg  Mg3  1  0.59338900  0.25000000  0.56861300  1
  In  In4  1  0.00000000  0.00000000  0.50000000  1
  In  In5  1  0.50000000  0.00000000  0.00000000  1
  In  In6  1  0.50000000  0.50000000  0.00000000  1
  In  In7  1  0.00000000  0.50000000  0.50000000  1
  In  In8  1  0.22843800  0.75000000  0.99749900  1
  In  In9  1  0.77156200  0.25000000  0.00250100  1
  In  In10  1  0.27156200  0.25000000  0.49749900  1
  In  In11  1  0.72843800  0.75000000  0.50250100  1
  S  S12  1  0.16629400  0.00361300  0.74448500  1
  S  S13  1  0.83370600  0.99638700  0.25551500  1
  S  S14  1  0.33370600  0.99638700  0.24448500  1
  S  S15  1  0.66629400  0.00361300  0.75551500  1
  S  S16  1  0.66629400  0.49638700  0.75551500  1
  S  S17  1  0.33370600  0.50361300  0.24448500  1
  S  S18  1  0.83370600  0.50361300  0.25551500  1
  S  S19  1  0.16629400  0.49638700  0.74448500  1
  S  S20  1  0.07416500  0.75000000  0.24648600  1
  S  S21  1  0.92583500  0.25000000  0.75351400  1
  S  S22  1  0.42583500  0.25000000  0.74648600  1
  S  S23  1  0.57416500  0.75000000  0.25351400  1
  S  S24  1  0.09253800  0.25000000  0.31061300  1
  S  S25  1  0.90746200  0.75000000  0.68938700  1
  S  S26  1  0.40746200  0.75000000  0.81061300  1
  S  S27  1  0.59253800  0.25000000  0.18938700  1
