# generated using pymatgen
data_La2MgS4
_symmetry_space_group_name_H-M   'P 1'
_cell_length_a   7.98090000
_cell_length_b   13.14415300
_cell_length_c   13.26493400
_cell_angle_alpha   90.00000000
_cell_angle_beta   90.00000000
_cell_angle_gamma   90.00000000
_symmetry_Int_Tables_number   1
_chemical_formula_structural   La2MgS4
_chemical_formula_sum   'La16 Mg8 S32'
_cell_volume   1391.52037050
_cell_formula_units_Z   8
loop_
 _symmetry_equiv_pos_site_id
 _symmetry_equiv_pos_as_xyz
  1  'x, y, z'
loop_
 _atom_site_type_symbol
 _atom_site_label
 _atom_site_symmetry_multiplicity
 _atom_site_fract_x
 _atom_site_fract_y
 _atom_site_fract_z
 _atom_site_occupancy
  La  La0  1  0.88719300  0.68460100  0.10955500  1
  La  La1  1  0.11280700  0.18460100  0.89044500  1
  La  La2  1  0.88719300  0.18460100  0.39044500  1
  La  La3  1  0.11280700  0.68460100  0.60955500  1
  La  La4  1  0.38571700  0.32555500  0.12652800  1
  La  La5  1  0.61428300  0.82555500  0.87347200  1
  La  La6  1  0.38571700  0.82555500  0.37347200  1
  La  La7  1  0.61428300  0.32555500  0.62652800  1
  La  La8  1  0.63178700  0.99486100  0.13532900  1
  La  La9  1  0.36821300  0.49486100  0.86467100  1
  La  La10  1  0.63178700  0.49486100  0.36467100  1
  La  La11  1  0.36821300  0.99486100  0.63532900  1
  La  La12  1  0.13111800  0.99296700  0.13587300  1
  La  La13  1  0.86888200  0.49296700  0.86412700  1
  La  La14  1  0.13111800  0.49296700  0.36412700  1
  La  La15  1  0.86888200  0.99296700  0.63587300  1
  Mg  Mg16  1  0.38505400  0.69341900  0.11147800  1
  Mg  Mg17  1  0.61494600  0.19341900  0.88852200  1
  Mg  Mg18  1  0.38505400  0.19341900  0.38852200  1
  Mg  Mg19  1  0.61494600  0.69341900  0.61147800  1
  Mg  Mg20  1  0.88004400  0.32053600  0.12570900  1
  Mg  Mg21  1  0.11995600  0.82053600  0.87429100  1
  Mg  Mg22  1  0.88004400  0.82053600  0.37429100  1
  Mg  Mg23  1  0.11995600  0.32053600  0.62570900  1
  S  S24  1  0.88464700  0.87935100  0.00986400  1
  S  S25  1  0.11535300  0.37935100  0.99013600  1
  S  S26  1  0.88464700  0.37935100  0.49013600  1
  S  S27  1  0.11535300  0.87935100  0.50986400  1
  S  S28  1  0.38560200  0.12959900  0.02633300  1
  S  S29  1  0.61439800  0.62959900  0.97366700  1
  S  S30  1  0.38560200  0.62959900  0.47366700  1
  S  S31  1  0.61439800  0.12959900  0.52633300  1
  S  S32  1  0.37309400  0.86652800  0.02690900  1
  S  S33  1  0.62690600  0.36652800  0.97309100  1
  S  S34  1  0.37309400  0.36652800  0.47309100  1
  S  S35  1  0.62690600  0.86652800  0.52690900  1
  S  S36  1  0.87494600  0.14139800  0.04893100  1
  S  S37  1  0.12505400  0.64139800  0.95106900  1
  S  S38  1  0.87494600  0.64139800  0.45106900  1
  S  S39  1  0.12505400  0.14139800  0.54893100  1
  S  S40  1  0.88207600  0.49441700  0.20902700  1
  S  S41  1  0.11792400  0.99441700  0.79097300  1
  S  S42  1  0.88207600  0.99441700  0.29097300  1
  S  S43  1  0.11792400  0.49441700  0.70902700  1
  S  S44  1  0.38199700  0.52512700  0.21008000  1
  S  S45  1  0.61800300  0.02512700  0.78992000  1
  S  S46  1  0.38199700  0.02512700  0.28992000  1
  S  S47  1  0.61800300  0.52512700  0.71008000  1
  S  S48  1  0.13852200  0.77203400  0.23089800  1
  S  S49  1  0.86147800  0.27203400  0.76910200  1
  S  S50  1  0.13852200  0.27203400  0.26910200  1
  S  S51  1  0.86147800  0.77203400  0.73089800  1
  S  S52  1  0.64120900  0.77660800  0.23548900  1
  S  S53  1  0.35879100  0.27660800  0.76451100  1
  S  S54  1  0.64120900  0.27660800  0.26451100  1
  S  S55  1  0.35879100  0.77660800  0.73548900  1
