# generated using pymatgen
data_TmMgS3
_symmetry_space_group_name_H-M   'P 1'
_cell_length_a   6.62411200
_cell_length_b   6.62411177
_cell_length_c   17.88239700
_cell_angle_alpha   90.00000000
_cell_angle_beta   90.00000000
_cell_angle_gamma   120.00000117
_symmetry_Int_Tables_number   1
_chemical_formula_structural   TmMgS3
_chemical_formula_sum   'Tm6 Mg6 S18'
_cell_volume   679.53476049
_cell_formula_units_Z   6
loop_
 _symmetry_equiv_pos_site_id
 _symmetry_equiv_pos_as_xyz
  1  'x, y, z'
loop_
 _atom_site_type_symbol
 _atom_site_label
 _atom_site_symmetry_multiplicity
 _atom_site_fract_x
 _atom_site_fract_y
 _atom_site_fract_z
 _atom_site_occupancy
  Tm  Tm0  1  0.00000000  0.00000000  0.34801800  1
  Tm  Tm1  1  0.00000000  0.00000000  0.65198200  1
  Tm  Tm2  1  0.66666700  0.33333300  0.68135100  1
  Tm  Tm3  1  0.66666700  0.33333300  0.98531500  1
  Tm  Tm4  1  0.33333300  0.66666700  0.01468500  1
  Tm  Tm5  1  0.33333300  0.66666700  0.31864900  1
  Mg  Mg6  1  0.00000000  0.00000000  0.15410200  1
  Mg  Mg7  1  0.00000000  0.00000000  0.84589800  1
  Mg  Mg8  1  0.66666700  0.33333300  0.48743500  1
  Mg  Mg9  1  0.66666700  0.33333300  0.17923100  1
  Mg  Mg10  1  0.33333300  0.66666700  0.82076900  1
  Mg  Mg11  1  0.33333300  0.66666700  0.51256500  1
  S  S12  1  0.98204300  0.34609100  0.58240300  1
  S  S13  1  0.01795700  0.65390900  0.41759700  1
  S  S14  1  0.65390900  0.63595200  0.58240300  1
  S  S15  1  0.34609100  0.36404800  0.41759700  1
  S  S16  1  0.36404800  0.01795700  0.58240300  1
  S  S17  1  0.63595200  0.98204300  0.41759700  1
  S  S18  1  0.64871000  0.67942400  0.91573600  1
  S  S19  1  0.68462400  0.98724200  0.75093000  1
  S  S20  1  0.32057600  0.96928500  0.91573600  1
  S  S21  1  0.01275800  0.69738100  0.75093000  1
  S  S22  1  0.03071500  0.35129000  0.91573600  1
  S  S23  1  0.30261900  0.31537600  0.75093000  1
  S  S24  1  0.31537600  0.01275800  0.24907000  1
  S  S25  1  0.35129000  0.32057600  0.08426400  1
  S  S26  1  0.98724200  0.30261900  0.24907000  1
  S  S27  1  0.67942400  0.03071500  0.08426400  1
  S  S28  1  0.69738100  0.68462400  0.24907000  1
  S  S29  1  0.96928500  0.64871000  0.08426400  1
