# generated using pymatgen
data_Ho2MgS4
_symmetry_space_group_name_H-M   'P 1'
_cell_length_a   7.53662100
_cell_length_b   12.62841800
_cell_length_c   12.76527500
_cell_angle_alpha   90.00000000
_cell_angle_beta   90.00000000
_cell_angle_gamma   90.00000000
_symmetry_Int_Tables_number   1
_chemical_formula_structural   Ho2MgS4
_chemical_formula_sum   'Ho16 Mg8 S32'
_cell_volume   1214.94271106
_cell_formula_units_Z   8
loop_
 _symmetry_equiv_pos_site_id
 _symmetry_equiv_pos_as_xyz
  1  'x, y, z'
loop_
 _atom_site_type_symbol
 _atom_site_label
 _atom_site_symmetry_multiplicity
 _atom_site_fract_x
 _atom_site_fract_y
 _atom_site_fract_z
 _atom_site_occupancy
  Ho  Ho0  1  0.88416700  0.10872000  0.68559500  1
  Ho  Ho1  1  0.11583300  0.89128000  0.18559500  1
  Ho  Ho2  1  0.88416700  0.39128000  0.18559500  1
  Ho  Ho3  1  0.11583300  0.60872000  0.68559500  1
  Ho  Ho4  1  0.38280400  0.12708200  0.32613800  1
  Ho  Ho5  1  0.61719600  0.87291800  0.82613800  1
  Ho  Ho6  1  0.38280400  0.37291800  0.82613800  1
  Ho  Ho7  1  0.61719600  0.62708200  0.32613800  1
  Ho  Ho8  1  0.63023000  0.13386800  0.99227600  1
  Ho  Ho9  1  0.36977000  0.86613200  0.49227600  1
  Ho  Ho10  1  0.63023000  0.36613200  0.49227600  1
  Ho  Ho11  1  0.36977000  0.63386800  0.99227600  1
  Ho  Ho12  1  0.13008400  0.13417200  0.99157100  1
  Ho  Ho13  1  0.86991600  0.86582800  0.49157100  1
  Ho  Ho14  1  0.13008400  0.36582800  0.49157100  1
  Ho  Ho15  1  0.86991600  0.63417200  0.99157100  1
  Mg  Mg16  1  0.38320200  0.11137400  0.69157600  1
  Mg  Mg17  1  0.61679800  0.88862600  0.19157600  1
  Mg  Mg18  1  0.38320200  0.38862600  0.19157600  1
  Mg  Mg19  1  0.61679800  0.61137400  0.69157600  1
  Mg  Mg20  1  0.87971400  0.12621300  0.32137300  1
  Mg  Mg21  1  0.12028600  0.87378700  0.82137300  1
  Mg  Mg22  1  0.87971400  0.37378700  0.82137300  1
  Mg  Mg23  1  0.12028600  0.62621300  0.32137300  1
  S  S24  1  0.87765300  0.01333700  0.87759300  1
  S  S25  1  0.12234700  0.98666300  0.37759300  1
  S  S26  1  0.87765300  0.48666300  0.37759300  1
  S  S27  1  0.12234700  0.51333700  0.87759300  1
  S  S28  1  0.37778400  0.03221900  0.13069700  1
  S  S29  1  0.62221600  0.96778100  0.63069700  1
  S  S30  1  0.37778400  0.46778100  0.63069700  1
  S  S31  1  0.62221600  0.53221900  0.13069700  1
  S  S32  1  0.37443700  0.02223900  0.87037200  1
  S  S33  1  0.62556300  0.97776100  0.37037200  1
  S  S34  1  0.37443700  0.47776100  0.37037200  1
  S  S35  1  0.62556300  0.52223900  0.87037200  1
  S  S36  1  0.87504000  0.04300000  0.13651600  1
  S  S37  1  0.12496000  0.95700000  0.63651600  1
  S  S38  1  0.87504000  0.45700000  0.63651600  1
  S  S39  1  0.12496000  0.54300000  0.13651600  1
  S  S40  1  0.88064000  0.21215400  0.50218000  1
  S  S41  1  0.11936000  0.78784600  0.00218000  1
  S  S42  1  0.88064000  0.28784600  0.00218000  1
  S  S43  1  0.11936000  0.71215400  0.50218000  1
  S  S44  1  0.38063900  0.21310200  0.51888900  1
  S  S45  1  0.61936100  0.78689800  0.01888900  1
  S  S46  1  0.38063900  0.28689800  0.01888900  1
  S  S47  1  0.61936100  0.71310200  0.51888900  1
  S  S48  1  0.13113400  0.23216400  0.77532100  1
  S  S49  1  0.86886600  0.76783600  0.27532100  1
  S  S50  1  0.13113400  0.26783600  0.27532100  1
  S  S51  1  0.86886600  0.73216400  0.77532100  1
  S  S52  1  0.63393700  0.23254300  0.77690500  1
  S  S53  1  0.36606300  0.76745700  0.27690500  1
  S  S54  1  0.63393700  0.26745700  0.27690500  1
  S  S55  1  0.36606300  0.73254300  0.77690500  1
