# generated using pymatgen
data_Ho2MgS4
_symmetry_space_group_name_H-M   'P 1'
_cell_length_a   7.16272647
_cell_length_b   7.16272647
_cell_length_c   7.16272647
_cell_angle_alpha   110.48753612
_cell_angle_beta   110.48753612
_cell_angle_gamma   107.45716908
_symmetry_Int_Tables_number   1
_chemical_formula_structural   Ho2MgS4
_chemical_formula_sum   'Ho4 Mg2 S8'
_cell_volume   282.62612376
_cell_formula_units_Z   2
loop_
 _symmetry_equiv_pos_site_id
 _symmetry_equiv_pos_as_xyz
  1  'x, y, z'
loop_
 _atom_site_type_symbol
 _atom_site_label
 _atom_site_symmetry_multiplicity
 _atom_site_fract_x
 _atom_site_fract_y
 _atom_site_fract_z
 _atom_site_occupancy
  Ho  Ho0  1  0.87500000  0.75748700  0.38248700  1
  Ho  Ho1  1  0.50748700  0.12500000  0.88248700  1
  Ho  Ho2  1  0.37500000  0.49251300  0.61751300  1
  Ho  Ho3  1  0.24251300  0.62500000  0.11751300  1
  Mg  Mg4  1  0.00000000  0.00000000  0.00000000  1
  Mg  Mg5  1  0.75000000  0.25000000  0.50000000  1
  S  S6  1  0.50715000  0.37910800  0.26175700  1
  S  S7  1  0.75460700  0.49285000  0.87195800  1
  S  S8  1  0.11735000  0.24539300  0.73824300  1
  S  S9  1  0.62089200  0.88265000  0.12804200  1
  S  S10  1  0.24285000  0.00460700  0.37195800  1
  S  S11  1  0.99539300  0.36735000  0.23824300  1
  S  S12  1  0.63265000  0.87089200  0.62804200  1
  S  S13  1  0.12910800  0.75715000  0.76175700  1
