# generated using pymatgen
data_Tm2MgS4
_symmetry_space_group_name_H-M   'P 1'
_cell_length_a   13.34654100
_cell_length_b   7.78760100
_cell_length_c   6.47934300
_cell_angle_alpha   90.00000000
_cell_angle_beta   90.00000000
_cell_angle_gamma   90.00000000
_symmetry_Int_Tables_number   1
_chemical_formula_structural   Tm2MgS4
_chemical_formula_sum   'Tm8 Mg4 S16'
_cell_volume   673.44694657
_cell_formula_units_Z   4
loop_
 _symmetry_equiv_pos_site_id
 _symmetry_equiv_pos_as_xyz
  1  'x, y, z'
loop_
 _atom_site_type_symbol
 _atom_site_label
 _atom_site_symmetry_multiplicity
 _atom_site_fract_x
 _atom_site_fract_y
 _atom_site_fract_z
 _atom_site_occupancy
  Tm  Tm0  1  0.00000000  0.00000000  0.50000000  1
  Tm  Tm1  1  0.50000000  0.00000000  0.00000000  1
  Tm  Tm2  1  0.50000000  0.50000000  0.00000000  1
  Tm  Tm3  1  0.00000000  0.50000000  0.50000000  1
  Tm  Tm4  1  0.23321200  0.75000000  0.00140800  1
  Tm  Tm5  1  0.76678800  0.25000000  0.99859200  1
  Tm  Tm6  1  0.26678800  0.25000000  0.50140800  1
  Tm  Tm7  1  0.73321200  0.75000000  0.49859200  1
  Mg  Mg8  1  0.09311000  0.25000000  0.92338200  1
  Mg  Mg9  1  0.90689000  0.75000000  0.07661800  1
  Mg  Mg10  1  0.40689000  0.75000000  0.42338200  1
  Mg  Mg11  1  0.59311000  0.25000000  0.57661800  1
  S  S12  1  0.16879500  0.00657300  0.73948900  1
  S  S13  1  0.83120500  0.99342700  0.26051100  1
  S  S14  1  0.33120500  0.99342700  0.23948900  1
  S  S15  1  0.66879500  0.00657300  0.76051100  1
  S  S16  1  0.66879500  0.49342700  0.76051100  1
  S  S17  1  0.33120500  0.50657300  0.23948900  1
  S  S18  1  0.83120500  0.50657300  0.26051100  1
  S  S19  1  0.16879500  0.49342700  0.73948900  1
  S  S20  1  0.07211500  0.75000000  0.24992500  1
  S  S21  1  0.92788500  0.25000000  0.75007500  1
  S  S22  1  0.42788500  0.25000000  0.74992500  1
  S  S23  1  0.57211500  0.75000000  0.25007500  1
  S  S24  1  0.09157500  0.25000000  0.29235700  1
  S  S25  1  0.90842500  0.75000000  0.70764300  1
  S  S26  1  0.40842500  0.75000000  0.79235700  1
  S  S27  1  0.59157500  0.25000000  0.20764300  1
