# generated using pymatgen
data_Tb2MgSe4
_symmetry_space_group_name_H-M   'P 1'
_cell_length_a   7.55384653
_cell_length_b   7.55384653
_cell_length_c   7.55384653
_cell_angle_alpha   110.58179003
_cell_angle_beta   110.58179003
_cell_angle_gamma   107.27220932
_symmetry_Int_Tables_number   1
_chemical_formula_structural   Tb2MgSe4
_chemical_formula_sum   'Tb4 Mg2 Se8'
_cell_volume   331.43992280
_cell_formula_units_Z   2
loop_
 _symmetry_equiv_pos_site_id
 _symmetry_equiv_pos_as_xyz
  1  'x, y, z'
loop_
 _atom_site_type_symbol
 _atom_site_label
 _atom_site_symmetry_multiplicity
 _atom_site_fract_x
 _atom_site_fract_y
 _atom_site_fract_z
 _atom_site_occupancy
  Tb  Tb0  1  0.87500000  0.75678300  0.38178300  1
  Tb  Tb1  1  0.50678300  0.12500000  0.88178300  1
  Tb  Tb2  1  0.37500000  0.49321700  0.61821700  1
  Tb  Tb3  1  0.24321700  0.62500000  0.11821700  1
  Mg  Mg4  1  0.00000000  0.00000000  0.00000000  1
  Mg  Mg5  1  0.75000000  0.25000000  0.50000000  1
  Se  Se6  1  0.50673800  0.37806300  0.26288200  1
  Se  Se7  1  0.75614400  0.49326200  0.87132500  1
  Se  Se8  1  0.11518100  0.24385600  0.73711800  1
  Se  Se9  1  0.62193700  0.88481900  0.12867500  1
  Se  Se10  1  0.24326200  0.00614400  0.37132500  1
  Se  Se11  1  0.99385600  0.36518100  0.23711800  1
  Se  Se12  1  0.63481900  0.87193700  0.62867500  1
  Se  Se13  1  0.12806300  0.75673800  0.76288200  1
