# generated using pymatgen
data_Rb2Ta2O5
_symmetry_space_group_name_H-M   'P 1'
_cell_length_a   9.07974619
_cell_length_b   9.07974619
_cell_length_c   9.07974619
_cell_angle_alpha   142.42369942
_cell_angle_beta   142.16595442
_cell_angle_gamma   54.38522474
_symmetry_Int_Tables_number   1
_chemical_formula_structural   Rb2Ta2O5
_chemical_formula_sum   'Rb4 Ta4 O10'
_cell_volume   278.08409176
_cell_formula_units_Z   2
loop_
 _symmetry_equiv_pos_site_id
 _symmetry_equiv_pos_as_xyz
  1  'x, y, z'
loop_
 _atom_site_type_symbol
 _atom_site_label
 _atom_site_symmetry_multiplicity
 _atom_site_fract_x
 _atom_site_fract_y
 _atom_site_fract_z
 _atom_site_occupancy
  Rb  Rb0  1  0.62202800  0.11425900  0.49223100  1
  Rb  Rb1  1  0.37797200  0.88574100  0.50776900  1
  Rb  Rb2  1  0.12202800  0.62979700  0.50776900  1
  Rb  Rb3  1  0.87797200  0.37020300  0.49223100  1
  Ta  Ta4  1  0.00000000  0.00000000  0.00000000  1
  Ta  Ta5  1  0.50000000  0.50000000  0.00000000  1
  Ta  Ta6  1  0.25000000  0.28277900  0.03277900  1
  Ta  Ta7  1  0.75000000  0.71722100  0.96722100  1
  O  O8  1  0.24905900  0.74905900  0.00000000  1
  O  O9  1  0.25094100  0.25094100  0.50000000  1
  O  O10  1  0.74905900  0.74905900  0.50000000  1
  O  O11  1  0.75094100  0.25094100  0.00000000  1
  O  O12  1  0.12801800  0.12451000  0.99649200  1
  O  O13  1  0.87198200  0.87549000  0.00350800  1
  O  O14  1  0.62801800  0.63152500  0.00350800  1
  O  O15  1  0.37198200  0.36847500  0.99649200  1
  O  O16  1  0.00000000  0.50000000  0.00000000  1
  O  O17  1  0.50000000  0.50000000  0.50000000  1
