# generated using pymatgen
data_Sr3NdTaAl3O12
_symmetry_space_group_name_H-M   'P 1'
_cell_length_a   5.47632400
_cell_length_b   9.50982548
_cell_length_c   9.51377750
_cell_angle_alpha   70.59646880
_cell_angle_beta   89.93570484
_cell_angle_gamma   89.90716825
_symmetry_Int_Tables_number   1
_chemical_formula_structural   Sr3NdTaAl3O12
_chemical_formula_sum   'Sr6 Nd2 Ta2 Al6 O24'
_cell_volume   467.32478707
_cell_formula_units_Z   2
loop_
 _symmetry_equiv_pos_site_id
 _symmetry_equiv_pos_as_xyz
  1  'x, y, z'
loop_
 _atom_site_type_symbol
 _atom_site_label
 _atom_site_symmetry_multiplicity
 _atom_site_fract_x
 _atom_site_fract_y
 _atom_site_fract_z
 _atom_site_occupancy
  Sr  Sr0  1  0.50210600  0.39278400  0.37729900  1
  Sr  Sr1  1  0.99834800  0.38475600  0.86563700  1
  Sr  Sr2  1  0.50063500  0.86963800  0.88885300  1
  Sr  Sr3  1  0.49896300  0.12273400  0.10521200  1
  Sr  Sr4  1  0.00133300  0.63493300  0.11717500  1
  Sr  Sr5  1  0.49803000  0.61103600  0.63240700  1
  Nd  Nd6  1  0.00004900  0.84829400  0.36563800  1
  Nd  Nd7  1  0.00047400  0.13714100  0.64800300  1
  Ta  Ta8  1  0.99827200  0.25555100  0.24074300  1
  Ta  Ta9  1  0.50042600  0.99212300  0.50664200  1
  Al  Al10  1  0.50110600  0.74621800  0.24858700  1
  Al  Al11  1  0.49912600  0.25521200  0.75095700  1
  Al  Al12  1  0.00417100  0.74855900  0.75480500  1
  Al  Al13  1  0.00027500  0.99800400  0.99926800  1
  Al  Al14  1  0.50199400  0.50619400  0.99605200  1
  Al  Al15  1  0.99997700  0.49942900  0.50411400  1
  O  O16  1  0.27357600  0.37246300  0.13670100  1
  O  O17  1  0.75826000  0.87816400  0.13777400  1
  O  O18  1  0.75733100  0.37236200  0.63018300  1
  O  O19  1  0.26900700  0.86710400  0.64650400  1
  O  O20  1  0.20416500  0.09186500  0.38380900  1
  O  O21  1  0.75524900  0.62171800  0.37333500  1
  O  O22  1  0.74947000  0.11985700  0.86532600  1
  O  O23  1  0.24022100  0.61696700  0.88054500  1
  O  O24  1  0.00135300  0.13382400  0.10830000  1
  O  O25  1  0.50096200  0.63154800  0.11989700  1
  O  O26  1  0.49585700  0.14017800  0.61196100  1
  O  O27  1  0.99969400  0.63931000  0.61403300  1
  O  O28  1  0.71086900  0.13013100  0.34899200  1
  O  O29  1  0.24121000  0.62486400  0.37150300  1
  O  O30  1  0.24456700  0.12198600  0.86299100  1
  O  O31  1  0.74137400  0.63278800  0.86508200  1
  O  O32  1  0.00102700  0.35657500  0.39388200  1
  O  O33  1  0.50354800  0.85504500  0.38854000  1
  O  O34  1  0.50099000  0.37174200  0.88059000  1
  O  O35  1  0.99992000  0.87334900  0.87930300  1
  O  O36  1  0.76130400  0.39264100  0.11746800  1
  O  O37  1  0.24842600  0.88012700  0.13526200  1
  O  O38  1  0.24633800  0.37574400  0.62876500  1
  O  O39  1  0.78999800  0.89704300  0.61786100  1
