# generated using pymatgen
data_Sr3LaTaAl3O12
_symmetry_space_group_name_H-M   'P 1'
_cell_length_a   7.75672916
_cell_length_b   7.75672916
_cell_length_c   3.91820600
_cell_angle_alpha   90.00000000
_cell_angle_beta   90.00000000
_cell_angle_gamma   90.22193000
_symmetry_Int_Tables_number   1
_chemical_formula_structural   Sr3LaTaAl3O12
_chemical_formula_sum   'Sr3 La1 Ta1 Al3 O12'
_cell_volume   235.74433324
_cell_formula_units_Z   1
loop_
 _symmetry_equiv_pos_site_id
 _symmetry_equiv_pos_as_xyz
  1  'x, y, z'
loop_
 _atom_site_type_symbol
 _atom_site_label
 _atom_site_symmetry_multiplicity
 _atom_site_fract_x
 _atom_site_fract_y
 _atom_site_fract_z
 _atom_site_occupancy
  Sr  Sr0  1  0.73659600  0.26340400  0.00000000  1
  Sr  Sr1  1  0.26165000  0.26094300  0.00000000  1
  Sr  Sr2  1  0.73905700  0.73835000  0.00000000  1
  La  La3  1  0.26531500  0.73468500  0.00000000  1
  Ta  Ta4  1  0.99751400  0.00248600  0.50000000  1
  Al  Al5  1  0.49977400  0.00233900  0.50000000  1
  Al  Al6  1  0.99766100  0.50022600  0.50000000  1
  Al  Al7  1  0.50277900  0.49722100  0.50000000  1
  O  O8  1  0.49563000  0.99506800  0.00000000  1
  O  O9  1  0.00281200  0.99718800  0.00000000  1
  O  O10  1  0.49510100  0.50489900  0.00000000  1
  O  O11  1  0.00493200  0.50437000  0.00000000  1
  O  O12  1  0.00153400  0.25537800  0.50000000  1
  O  O13  1  0.49890400  0.25066400  0.50000000  1
  O  O14  1  0.00532900  0.74648500  0.50000000  1
  O  O15  1  0.49213900  0.74970400  0.50000000  1
  O  O16  1  0.74462200  0.99846600  0.50000000  1
  O  O17  1  0.25351500  0.99467100  0.50000000  1
  O  O18  1  0.74933600  0.50109600  0.50000000  1
  O  O19  1  0.25029600  0.50786100  0.50000000  1
