# generated using pymatgen
data_Sr3NdTaAl3O12
_symmetry_space_group_name_H-M   'P 1'
_cell_length_a   9.51487294
_cell_length_b   9.51487294
_cell_length_c   5.45910497
_cell_angle_alpha   89.82791003
_cell_angle_beta   89.82791003
_cell_angle_gamma   70.60417803
_symmetry_Int_Tables_number   1
_chemical_formula_structural   Sr3NdTaAl3O12
_chemical_formula_sum   'Sr6 Nd2 Ta2 Al6 O24'
_cell_volume   466.17595196
_cell_formula_units_Z   2
loop_
 _symmetry_equiv_pos_site_id
 _symmetry_equiv_pos_as_xyz
  1  'x, y, z'
loop_
 _atom_site_type_symbol
 _atom_site_label
 _atom_site_symmetry_multiplicity
 _atom_site_fract_x
 _atom_site_fract_y
 _atom_site_fract_z
 _atom_site_occupancy
  Sr  Sr0  1  0.61385600  0.86311700  0.50122800  1
  Sr  Sr1  1  0.14003800  0.85996200  0.00000000  1
  Sr  Sr2  1  0.13688300  0.38614400  0.49877200  1
  Sr  Sr3  1  0.37458300  0.12335400  0.00018000  1
  Sr  Sr4  1  0.87664600  0.62541700  0.99982000  1
  Sr  Sr5  1  0.37221600  0.62778400  0.50000000  1
  Nd  Nd6  1  0.60570300  0.39429700  0.00000000  1
  Nd  Nd7  1  0.87248300  0.12751700  0.50000000  1
  Ta  Ta8  1  0.74401600  0.99613200  0.99924400  1
  Ta  Ta9  1  0.00386800  0.25598400  0.00075600  1
  Al  Al10  1  0.25317200  0.99399500  0.49768900  1
  Al  Al11  1  0.74706700  0.50465300  0.50186200  1
  Al  Al12  1  0.25403100  0.50275900  0.99965800  1
  Al  Al13  1  0.49534700  0.25293300  0.49813800  1
  Al  Al14  1  0.00600500  0.74682800  0.50231100  1
  Al  Al15  1  0.49724100  0.74596900  0.00034200  1
  O  O16  1  0.62758200  0.11042000  0.72064400  1
  O  O17  1  0.12013800  0.10755000  0.24029900  1
  O  O18  1  0.62526300  0.60626400  0.23659500  1
  O  O19  1  0.12731500  0.61757700  0.74574800  1
  O  O20  1  0.89245000  0.87986200  0.75970100  1
  O  O21  1  0.38242300  0.87268500  0.25425200  1
  O  O22  1  0.88958000  0.37241800  0.27935600  1
  O  O23  1  0.39373600  0.37473700  0.76340500  1
  O  O24  1  0.84632300  0.15367700  0.00000000  1
  O  O25  1  0.36071800  0.13499500  0.50083600  1
  O  O26  1  0.86500500  0.63928200  0.49916400  1
  O  O27  1  0.37259500  0.62740500  0.00000000  1
  O  O28  1  0.87731500  0.89681400  0.27393200  1
  O  O29  1  0.37426400  0.88203600  0.75851700  1
  O  O30  1  0.86895800  0.39184900  0.76485000  1
  O  O31  1  0.38205500  0.38629100  0.25475600  1
  O  O32  1  0.63315200  0.85815400  0.00253900  1
  O  O33  1  0.13383200  0.86616800  0.50000000  1
  O  O34  1  0.64928700  0.35071300  0.50000000  1
  O  O35  1  0.14184600  0.36684800  0.99746100  1
  O  O36  1  0.60815100  0.13104200  0.23515000  1
  O  O37  1  0.10318600  0.12268500  0.72606800  1
  O  O38  1  0.61370900  0.61794500  0.74524400  1
  O  O39  1  0.11796400  0.62573600  0.24148300  1
