# generated using pymatgen
data_PrMgS3
_symmetry_space_group_name_H-M   'P 1'
_cell_length_a   7.00278200
_cell_length_b   7.00278191
_cell_length_c   17.28135700
_cell_angle_alpha   90.00000000
_cell_angle_beta   90.00000000
_cell_angle_gamma   120.00000045
_symmetry_Int_Tables_number   1
_chemical_formula_structural   PrMgS3
_chemical_formula_sum   'Pr6 Mg6 S18'
_cell_volume   733.92161658
_cell_formula_units_Z   6
loop_
 _symmetry_equiv_pos_site_id
 _symmetry_equiv_pos_as_xyz
  1  'x, y, z'
loop_
 _atom_site_type_symbol
 _atom_site_label
 _atom_site_symmetry_multiplicity
 _atom_site_fract_x
 _atom_site_fract_y
 _atom_site_fract_z
 _atom_site_occupancy
  Pr  Pr0  1  0.00000000  0.00000000  0.35992100  1
  Pr  Pr1  1  0.00000000  0.00000000  0.64007900  1
  Pr  Pr2  1  0.66666700  0.33333300  0.69325400  1
  Pr  Pr3  1  0.66666700  0.33333300  0.97341200  1
  Pr  Pr4  1  0.33333300  0.66666700  0.02658800  1
  Pr  Pr5  1  0.33333300  0.66666700  0.30674600  1
  Mg  Mg6  1  0.00000000  0.00000000  0.15376200  1
  Mg  Mg7  1  0.00000000  0.00000000  0.84623800  1
  Mg  Mg8  1  0.66666700  0.33333300  0.48709500  1
  Mg  Mg9  1  0.66666700  0.33333300  0.17957100  1
  Mg  Mg10  1  0.33333300  0.66666700  0.82042900  1
  Mg  Mg11  1  0.33333300  0.66666700  0.51290500  1
  S  S12  1  0.98484700  0.36657400  0.58014700  1
  S  S13  1  0.01515300  0.63342600  0.41985300  1
  S  S14  1  0.63342600  0.61827300  0.58014700  1
  S  S15  1  0.36657400  0.38172700  0.41985300  1
  S  S16  1  0.38172700  0.01515300  0.58014700  1
  S  S17  1  0.61827300  0.98484700  0.41985300  1
  S  S18  1  0.65151400  0.69990700  0.91348000  1
  S  S19  1  0.68182000  0.96675900  0.75318600  1
  S  S20  1  0.30009300  0.95160600  0.91348000  1
  S  S21  1  0.03324100  0.71506000  0.75318600  1
  S  S22  1  0.04839400  0.34848600  0.91348000  1
  S  S23  1  0.28494000  0.31818000  0.75318600  1
  S  S24  1  0.31818000  0.03324100  0.24681400  1
  S  S25  1  0.34848600  0.30009300  0.08652000  1
  S  S26  1  0.96675900  0.28494000  0.24681400  1
  S  S27  1  0.69990700  0.04839400  0.08652000  1
  S  S28  1  0.71506000  0.68182000  0.24681400  1
  S  S29  1  0.95160600  0.65151400  0.08652000  1
