# generated using pymatgen
data_Eu2MgSe4
_symmetry_space_group_name_H-M   'P 1'
_cell_length_a   13.87543559
_cell_length_b   8.18561742
_cell_length_c   13.19455772
_cell_angle_alpha   90.00000000
_cell_angle_beta   90.00000000
_cell_angle_gamma   90.00000000
_symmetry_Int_Tables_number   1
_chemical_formula_structural   Eu2MgSe4
_chemical_formula_sum   'Eu16 Mg8 Se32'
_cell_volume   1498.62476728
_cell_formula_units_Z   8
loop_
 _symmetry_equiv_pos_site_id
 _symmetry_equiv_pos_as_xyz
  1  'x, y, z'
loop_
 _atom_site_type_symbol
 _atom_site_label
 _atom_site_symmetry_multiplicity
 _atom_site_fract_x
 _atom_site_fract_y
 _atom_site_fract_z
 _atom_site_occupancy
  Eu  Eu0  1  0.10873712  0.88370698  0.68514553  1
  Eu  Eu1  1  0.89126288  0.11629302  0.18514553  1
  Eu  Eu2  1  0.39126288  0.88370698  0.18514553  1
  Eu  Eu3  1  0.60873712  0.11629302  0.68514553  1
  Eu  Eu4  1  0.12691684  0.38166942  0.32440754  1
  Eu  Eu5  1  0.87308316  0.61833058  0.82440754  1
  Eu  Eu6  1  0.37308316  0.38166942  0.82440754  1
  Eu  Eu7  1  0.62691684  0.61833058  0.32440754  1
  Eu  Eu8  1  0.13584597  0.62952721  0.99147027  1
  Eu  Eu9  1  0.86415403  0.37047279  0.49147027  1
  Eu  Eu10  1  0.36415403  0.62952721  0.49147027  1
  Eu  Eu11  1  0.63584597  0.37047279  0.99147027  1
  Eu  Eu12  1  0.13732847  0.12809288  0.99335716  1
  Eu  Eu13  1  0.86267153  0.87190712  0.49335716  1
  Eu  Eu14  1  0.36267153  0.12809288  0.49335716  1
  Eu  Eu15  1  0.63732847  0.87190712  0.99335716  1
  Mg  Mg16  1  0.10973431  0.38137991  0.69306921  1
  Mg  Mg17  1  0.89026569  0.61862009  0.19306921  1
  Mg  Mg18  1  0.39026569  0.38137991  0.19306921  1
  Mg  Mg19  1  0.60973431  0.61862009  0.69306921  1
  Mg  Mg20  1  0.12578552  0.87798651  0.31920807  1
  Mg  Mg21  1  0.87421448  0.12201349  0.81920807  1
  Mg  Mg22  1  0.37421448  0.87798651  0.81920807  1
  Mg  Mg23  1  0.62578552  0.12201349  0.31920807  1
  Se  Se24  1  0.00954494  0.88212239  0.88285978  1
  Se  Se25  1  0.99045506  0.11787761  0.38285978  1
  Se  Se26  1  0.49045506  0.88212239  0.38285978  1
  Se  Se27  1  0.50954494  0.11787761  0.88285978  1
  Se  Se28  1  0.02460448  0.38549077  0.12807472  1
  Se  Se29  1  0.97539552  0.61450923  0.62807472  1
  Se  Se30  1  0.47539552  0.38549077  0.62807472  1
  Se  Se31  1  0.52460448  0.61450923  0.12807472  1
  Se  Se32  1  0.01753904  0.36768770  0.87312650  1
  Se  Se33  1  0.98246096  0.63231230  0.37312650  1
  Se  Se34  1  0.48246096  0.36768770  0.37312650  1
  Se  Se35  1  0.51753904  0.63231230  0.87312650  1
  Se  Se36  1  0.03876600  0.86615717  0.14029704  1
  Se  Se37  1  0.96123400  0.13384283  0.64029704  1
  Se  Se38  1  0.46123400  0.86615717  0.64029704  1
  Se  Se39  1  0.53876600  0.13384283  0.14029704  1
  Se  Se40  1  0.20937879  0.87922737  0.49578784  1
  Se  Se41  1  0.79062121  0.12077263  0.99578784  1
  Se  Se42  1  0.29062121  0.87922737  0.99578784  1
  Se  Se43  1  0.70937879  0.12077263  0.49578784  1
  Se  Se44  1  0.21001467  0.38037627  0.52460161  1
  Se  Se45  1  0.78998533  0.61962373  0.02460161  1
  Se  Se46  1  0.28998533  0.38037627  0.02460161  1
  Se  Se47  1  0.71001467  0.61962373  0.52460161  1
  Se  Se48  1  0.23298534  0.13276669  0.77145598  1
  Se  Se49  1  0.76701466  0.86723331  0.27145598  1
  Se  Se50  1  0.26701466  0.13276669  0.27145598  1
  Se  Se51  1  0.73298534  0.86723331  0.77145598  1
  Se  Se52  1  0.23384282  0.63499462  0.77413977  1
  Se  Se53  1  0.76615718  0.36500538  0.27413977  1
  Se  Se54  1  0.26615718  0.63499462  0.27413977  1
  Se  Se55  1  0.73384282  0.36500538  0.77413977  1
