# generated using pymatgen
data_Nd2MgS4
_symmetry_space_group_name_H-M   'P 1'
_cell_length_a   8.23210600
_cell_length_b   7.23798600
_cell_length_c   11.72657800
_cell_angle_alpha   90.00000000
_cell_angle_beta   90.00000000
_cell_angle_gamma   90.00000000
_symmetry_Int_Tables_number   1
_chemical_formula_structural   Nd2MgS4
_chemical_formula_sum   'Nd8 Mg4 S16'
_cell_volume   698.71487539
_cell_formula_units_Z   4
loop_
 _symmetry_equiv_pos_site_id
 _symmetry_equiv_pos_as_xyz
  1  'x, y, z'
loop_
 _atom_site_type_symbol
 _atom_site_label
 _atom_site_symmetry_multiplicity
 _atom_site_fract_x
 _atom_site_fract_y
 _atom_site_fract_z
 _atom_site_occupancy
  Nd  Nd0  1  0.03145700  0.75000000  0.31409100  1
  Nd  Nd1  1  0.96854300  0.25000000  0.68590900  1
  Nd  Nd2  1  0.46854300  0.25000000  0.81409100  1
  Nd  Nd3  1  0.53145700  0.75000000  0.18590900  1
  Nd  Nd4  1  0.08631900  0.25000000  0.03535900  1
  Nd  Nd5  1  0.91368100  0.75000000  0.96464100  1
  Nd  Nd6  1  0.41368100  0.75000000  0.53535900  1
  Nd  Nd7  1  0.58631900  0.25000000  0.46464100  1
  Mg  Mg8  1  0.19209900  0.25000000  0.41507300  1
  Mg  Mg9  1  0.80790100  0.75000000  0.58492700  1
  Mg  Mg10  1  0.30790100  0.75000000  0.91507300  1
  Mg  Mg11  1  0.69209900  0.25000000  0.08492700  1
  S  S12  1  0.14289600  0.49478900  0.84611200  1
  S  S13  1  0.85710400  0.50521100  0.15388800  1
  S  S14  1  0.35710400  0.50521100  0.34611200  1
  S  S15  1  0.64289600  0.49478900  0.65388800  1
  S  S16  1  0.64289600  0.00521100  0.65388800  1
  S  S17  1  0.35710400  0.99478900  0.34611200  1
  S  S18  1  0.85710400  0.99478900  0.15388800  1
  S  S19  1  0.14289600  0.00521100  0.84611200  1
  S  S20  1  0.91209700  0.25000000  0.44425400  1
  S  S21  1  0.08790300  0.75000000  0.55574600  1
  S  S22  1  0.58790300  0.75000000  0.94425400  1
  S  S23  1  0.41209700  0.25000000  0.05574600  1
  S  S24  1  0.20576700  0.75000000  0.10886600  1
  S  S25  1  0.79423300  0.25000000  0.89113400  1
  S  S26  1  0.29423300  0.25000000  0.60886600  1
  S  S27  1  0.70576700  0.75000000  0.39113400  1
