# generated using pymatgen
data_Ho2MgS4
_symmetry_space_group_name_H-M   'P 1'
_cell_length_a   7.20506664
_cell_length_b   8.33690191
_cell_length_c   12.87772087
_cell_angle_alpha   80.50481776
_cell_angle_beta   84.39267418
_cell_angle_gamma   90.03616338
_symmetry_Int_Tables_number   1
_chemical_formula_structural   Ho2MgS4
_chemical_formula_sum   'Ho8 Mg4 S16'
_cell_volume   759.17891798
_cell_formula_units_Z   4
loop_
 _symmetry_equiv_pos_site_id
 _symmetry_equiv_pos_as_xyz
  1  'x, y, z'
loop_
 _atom_site_type_symbol
 _atom_site_label
 _atom_site_symmetry_multiplicity
 _atom_site_fract_x
 _atom_site_fract_y
 _atom_site_fract_z
 _atom_site_occupancy
  Ho  Ho0  1  0.13550300  0.70042500  0.69417900  1
  Ho  Ho1  1  0.86449700  0.29957500  0.30582100  1
  Ho  Ho2  1  0.24119800  0.87289000  0.00066200  1
  Ho  Ho3  1  0.75880200  0.12711000  0.99933800  1
  Ho  Ho4  1  0.36789200  0.55491600  0.30415000  1
  Ho  Ho5  1  0.63210800  0.44508400  0.69585000  1
  Ho  Ho6  1  0.36654300  0.04293700  0.30756700  1
  Ho  Ho7  1  0.63345700  0.95706300  0.69243300  1
  Mg  Mg8  1  0.13370700  0.20051000  0.69955400  1
  Mg  Mg9  1  0.86629300  0.79949000  0.30044600  1
  Mg  Mg10  1  0.24938200  0.37762400  0.99600400  1
  Mg  Mg11  1  0.75061800  0.62237600  0.00399600  1
  S  S12  1  0.09479500  0.64597200  0.89653600  1
  S  S13  1  0.90520500  0.35402800  0.10346400  1
  S  S14  1  0.10665200  0.15498700  0.89208500  1
  S  S15  1  0.89334800  0.84501300  0.10791500  1
  S  S16  1  0.17094100  0.78123900  0.37235500  1
  S  S17  1  0.82905900  0.21876100  0.62764500  1
  S  S18  1  0.19103400  0.28183800  0.37509700  1
  S  S19  1  0.80896600  0.71816200  0.62490300  1
  S  S20  1  0.30424500  0.97840000  0.62893200  1
  S  S21  1  0.69575500  0.02160000  0.37106800  1
  S  S22  1  0.30578700  0.45726700  0.62879200  1
  S  S23  1  0.69421300  0.54273300  0.37120800  1
  S  S24  1  0.39509300  0.10237500  0.10466800  1
  S  S25  1  0.60490700  0.89762500  0.89533200  1
  S  S26  1  0.40339300  0.59363500  0.10216500  1
  S  S27  1  0.59660700  0.40636500  0.89783500  1
