# generated using pymatgen
data_B3H5N3
_symmetry_space_group_name_H-M   'P 1'
_cell_length_a   11.30868165
_cell_length_b   11.30868165
_cell_length_c   5.63808722
_cell_angle_alpha   76.78637705
_cell_angle_beta   76.78637705
_cell_angle_gamma   129.77324647
_symmetry_Int_Tables_number   1
_chemical_formula_structural   B3H5N3
_chemical_formula_sum   'B12 H20 N12'
_cell_volume   466.93017248
_cell_formula_units_Z   4
loop_
 _symmetry_equiv_pos_site_id
 _symmetry_equiv_pos_as_xyz
  1  'x, y, z'
loop_
 _atom_site_type_symbol
 _atom_site_label
 _atom_site_symmetry_multiplicity
 _atom_site_fract_x
 _atom_site_fract_y
 _atom_site_fract_z
 _atom_site_occupancy
  B  B0  1  0.81937000  0.02157100  0.13317800  1
  B  B1  1  0.18063000  0.97842900  0.86682200  1
  B  B2  1  0.97842900  0.18063000  0.36682200  1
  B  B3  1  0.02157100  0.81937000  0.63317800  1
  B  B4  1  0.60673400  0.24121800  0.12889900  1
  B  B5  1  0.39326600  0.75878200  0.87110100  1
  B  B6  1  0.75878200  0.39326600  0.37110100  1
  B  B7  1  0.24121800  0.60673400  0.62889900  1
  B  B8  1  0.79154200  0.20845800  0.25000000  1
  B  B9  1  0.20845800  0.79154200  0.75000000  1
  B  B10  1  0.57607300  0.42392700  0.25000000  1
  B  B11  1  0.42392700  0.57607300  0.75000000  1
  H  H12  1  0.67844600  0.06789400  0.03984700  1
  H  H13  1  0.32155400  0.93210600  0.96015300  1
  H  H14  1  0.93210600  0.32155400  0.46015300  1
  H  H15  1  0.06789400  0.67844600  0.53984700  1
  H  H16  1  0.98269500  0.01730500  0.25000000  1
  H  H17  1  0.01730500  0.98269500  0.75000000  1
  H  H18  1  0.46602900  0.28803300  0.03517500  1
  H  H19  1  0.53397100  0.71196700  0.96482500  1
  H  H20  1  0.71196700  0.53397100  0.46482500  1
  H  H21  1  0.28803300  0.46602900  0.53517500  1
  H  H22  1  0.51740700  0.48259300  0.25000000  1
  H  H23  1  0.48259300  0.51740700  0.75000000  1
  H  H24  1  0.77779400  0.92194600  0.04206100  1
  H  H25  1  0.22220600  0.07805400  0.95793900  1
  H  H26  1  0.07805400  0.22220600  0.45793900  1
  H  H27  1  0.92194600  0.77779400  0.54206100  1
  H  H28  1  0.56346700  0.14447400  0.03174000  1
  H  H29  1  0.43653300  0.85552600  0.96826000  1
  H  H30  1  0.85552600  0.43653300  0.46826000  1
  H  H31  1  0.14447400  0.56346700  0.53174000  1
  N  N32  1  0.71938900  0.28061100  0.25000000  1
  N  N33  1  0.28061100  0.71938900  0.75000000  1
  N  N34  1  0.54368600  0.31742400  0.12347200  1
  N  N35  1  0.45631400  0.68257600  0.87652800  1
  N  N36  1  0.68257600  0.45631400  0.37652800  1
  N  N37  1  0.31742400  0.54368600  0.62347200  1
  N  N38  1  0.75621200  0.09777600  0.12774200  1
  N  N39  1  0.24378800  0.90222400  0.87225800  1
  N  N40  1  0.90222400  0.24378800  0.37225800  1
  N  N41  1  0.09777600  0.75621200  0.62774200  1
  N  N42  1  0.93322300  0.06677700  0.25000000  1
  N  N43  1  0.06677700  0.93322300  0.75000000  1
