# generated using pymatgen
data_CaAl2Si3O10
_symmetry_space_group_name_H-M   'P 1'
_cell_length_a   7.96861400
_cell_length_b   9.72628871
_cell_length_c   9.74802410
_cell_angle_alpha   83.38700093
_cell_angle_beta   77.54760228
_cell_angle_gamma   77.91968585
_symmetry_Int_Tables_number   1
_chemical_formula_structural   CaAl2Si3O10
_chemical_formula_sum   'Ca2 Al4 Si6 O20'
_cell_volume   719.46734757
_cell_formula_units_Z   2
loop_
 _symmetry_equiv_pos_site_id
 _symmetry_equiv_pos_as_xyz
  1  'x, y, z'
loop_
 _atom_site_type_symbol
 _atom_site_label
 _atom_site_symmetry_multiplicity
 _atom_site_fract_x
 _atom_site_fract_y
 _atom_site_fract_z
 _atom_site_occupancy
  Ca  Ca0  1  0.64269800  0.23894500  0.22696900  1
  Ca  Ca1  1  0.14565300  0.22404300  0.22853700  1
  Al  Al2  1  0.31426900  0.73764300  0.03714100  1
  Al  Al3  1  0.83016000  0.04636000  0.73448300  1
  Al  Al4  1  0.43626100  0.16603600  0.92027400  1
  Al  Al5  1  0.92019500  0.89913200  0.16721400  1
  Si  Si6  1  0.07092600  0.04330900  0.96488300  1
  Si  Si7  1  0.58933800  0.94660100  0.03256900  1
  Si  Si8  1  0.84023800  0.20254400  0.46453400  1
  Si  Si9  1  0.33257900  0.47039600  0.20043000  1
  Si  Si10  1  0.89278400  0.95282800  0.45616100  1
  Si  Si11  1  0.39856100  0.45700800  0.95086400  1
  O  O12  1  0.11808100  0.87011800  0.03135800  1
  O  O13  1  0.62991900  0.03045300  0.86407500  1
  O  O14  1  0.22614300  0.12988400  0.94768000  1
  O  O15  1  0.75098000  0.86791000  0.10070400  1
  O  O16  1  0.84924200  0.32195700  0.33767700  1
  O  O17  1  0.34082200  0.34456100  0.32060400  1
  O  O18  1  0.02859400  0.07435100  0.42056100  1
  O  O19  1  0.52644500  0.43479800  0.07634500  1
  O  O20  1  0.48405500  0.10258900  0.09878900  1
  O  O21  1  0.92566100  0.08844000  0.11345500  1
  O  O22  1  0.46414800  0.84323600  0.02378700  1
  O  O23  1  0.99096200  0.04656100  0.82898100  1
  O  O24  1  0.86935300  0.90725100  0.62171800  1
  O  O25  1  0.35965000  0.62138800  0.90059700  1
  O  O26  1  0.72036100  0.08648800  0.42778800  1
  O  O27  1  0.22547400  0.42165300  0.08141700  1
  O  O28  1  0.27984200  0.63913000  0.20421900  1
  O  O29  1  0.79964800  0.21108900  0.63231500  1
  O  O30  1  0.45652700  0.33304200  0.84584600  1
  O  O31  1  0.93263400  0.84145500  0.33922600  1
