# generated using pymatgen
data_KGa(PH)2
_symmetry_space_group_name_H-M   'P 1'
_cell_length_a   5.32493200
_cell_length_b   7.97831000
_cell_length_c   11.90174300
_cell_angle_alpha   90.00000000
_cell_angle_beta   90.00000000
_cell_angle_gamma   90.00000000
_symmetry_Int_Tables_number   1
_chemical_formula_structural   KGa(PH)2
_chemical_formula_sum   'K4 Ga4 P8 H8'
_cell_volume   505.63315242
_cell_formula_units_Z   4
loop_
 _symmetry_equiv_pos_site_id
 _symmetry_equiv_pos_as_xyz
  1  'x, y, z'
loop_
 _atom_site_type_symbol
 _atom_site_label
 _atom_site_symmetry_multiplicity
 _atom_site_fract_x
 _atom_site_fract_y
 _atom_site_fract_z
 _atom_site_occupancy
  K  K0  1  0.25000000  0.73436500  0.19360600  1
  K  K1  1  0.75000000  0.26563500  0.80639400  1
  K  K2  1  0.75000000  0.23436500  0.30639400  1
  K  K3  1  0.25000000  0.76563500  0.69360600  1
  Ga  Ga4  1  0.25000000  0.19005000  0.00669900  1
  Ga  Ga5  1  0.75000000  0.80995000  0.99330100  1
  Ga  Ga6  1  0.75000000  0.69005000  0.49330100  1
  Ga  Ga7  1  0.25000000  0.30995000  0.50669900  1
  P  P8  1  0.96435100  0.40813800  0.06812000  1
  P  P9  1  0.03564900  0.59186200  0.93188000  1
  P  P10  1  0.03564900  0.90813800  0.43188000  1
  P  P11  1  0.46435100  0.59186200  0.93188000  1
  P  P12  1  0.96435100  0.09186200  0.56812000  1
  P  P13  1  0.53564900  0.40813800  0.06812000  1
  P  P14  1  0.53564900  0.09186200  0.56812000  1
  P  P15  1  0.46435100  0.90813800  0.43188000  1
  H  H16  1  0.25000000  0.36250500  0.37731400  1
  H  H17  1  0.75000000  0.63749500  0.62268600  1
  H  H18  1  0.75000000  0.86250500  0.12268600  1
  H  H19  1  0.25000000  0.13749500  0.87731400  1
  H  H20  1  0.25000000  0.04773700  0.09903700  1
  H  H21  1  0.75000000  0.95226300  0.90096300  1
  H  H22  1  0.75000000  0.54773700  0.40096300  1
  H  H23  1  0.25000000  0.45226300  0.59903700  1
