# generated using pymatgen
data_K2Na2Nb(WO4)3
_symmetry_space_group_name_H-M   'P 1'
_cell_length_a   3.99291900
_cell_length_b   8.02444700
_cell_length_c   8.03103500
_cell_angle_alpha   90.00000000
_cell_angle_beta   90.00000000
_cell_angle_gamma   90.00000000
_symmetry_Int_Tables_number   1
_chemical_formula_structural   K2Na2Nb(WO4)3
_chemical_formula_sum   'K2 Na2 Nb1 W3 O12'
_cell_volume   257.32212653
_cell_formula_units_Z   1
loop_
 _symmetry_equiv_pos_site_id
 _symmetry_equiv_pos_as_xyz
  1  'x, y, z'
loop_
 _atom_site_type_symbol
 _atom_site_label
 _atom_site_symmetry_multiplicity
 _atom_site_fract_x
 _atom_site_fract_y
 _atom_site_fract_z
 _atom_site_occupancy
  K  K0  1  0.50000000  0.25125700  0.25117100  1
  K  K1  1  0.50000000  0.25125700  0.74882900  1
  Na  Na2  1  0.50000000  0.74852500  0.25129600  1
  Na  Na3  1  0.50000000  0.74852500  0.74870400  1
  Nb  Nb4  1  0.00000000  0.50273300  0.50000000  1
  W  W5  1  0.00000000  0.99800200  0.00000000  1
  W  W6  1  0.00000000  0.50208000  0.00000000  1
  W  W7  1  0.00000000  0.99812100  0.50000000  1
  O  O8  1  0.50000000  0.99592900  0.00000000  1
  O  O9  1  0.50000000  0.50384300  0.00000000  1
  O  O10  1  0.50000000  0.99610000  0.50000000  1
  O  O11  1  0.50000000  0.50404100  0.50000000  1
  O  O12  1  0.00000000  0.99546900  0.25870500  1
  O  O13  1  0.00000000  0.50411600  0.24889600  1
  O  O14  1  0.00000000  0.99546900  0.74129500  1
  O  O15  1  0.00000000  0.50411600  0.75110400  1
  O  O16  1  0.00000000  0.25909400  0.00000000  1
  O  O17  1  0.00000000  0.74232200  0.00000000  1
  O  O18  1  0.00000000  0.24840600  0.50000000  1
  O  O19  1  0.00000000  0.75059600  0.50000000  1
