# generated using pymatgen
data_NdMnFeBiO6
_symmetry_space_group_name_H-M   'P 1'
_cell_length_a   5.64592600
_cell_length_b   5.47515300
_cell_length_c   7.91350695
_cell_angle_alpha   89.24121396
_cell_angle_beta   90.00000000
_cell_angle_gamma   90.00000000
_symmetry_Int_Tables_number   1
_chemical_formula_structural   NdMnFeBiO6
_chemical_formula_sum   'Nd2 Mn2 Fe2 Bi2 O12'
_cell_volume   244.60331796
_cell_formula_units_Z   2
loop_
 _symmetry_equiv_pos_site_id
 _symmetry_equiv_pos_as_xyz
  1  'x, y, z'
loop_
 _atom_site_type_symbol
 _atom_site_label
 _atom_site_symmetry_multiplicity
 _atom_site_fract_x
 _atom_site_fract_y
 _atom_site_fract_z
 _atom_site_occupancy
  Nd  Nd0  1  0.44865300  0.23585300  0.50139400  1
  Nd  Nd1  1  0.94865300  0.76414700  0.49860600  1
  Mn  Mn2  1  0.49931100  0.75046900  0.74824900  1
  Mn  Mn3  1  0.99931100  0.24953100  0.25175100  1
  Fe  Fe4  1  0.49929900  0.75386800  0.24861000  1
  Fe  Fe5  1  0.99929900  0.24613200  0.75139000  1
  Bi  Bi6  1  0.55380800  0.26631700  0.00123300  1
  Bi  Bi7  1  0.05380800  0.73368300  0.99876700  1
  O  O8  1  0.46633900  0.84689800  0.98500700  1
  O  O9  1  0.96633900  0.15310200  0.01499300  1
  O  O10  1  0.53037500  0.65677600  0.51261400  1
  O  O11  1  0.03037500  0.34322400  0.48738600  1
  O  O12  1  0.29735300  0.46197300  0.79471300  1
  O  O13  1  0.79735300  0.53802700  0.20528700  1
  O  O14  1  0.72238200  0.05406600  0.30805300  1
  O  O15  1  0.22238200  0.94593400  0.69194700  1
  O  O16  1  0.70642100  0.02977500  0.69883500  1
  O  O17  1  0.20642100  0.97022500  0.30116500  1
  O  O18  1  0.27605800  0.44988600  0.19618500  1
  O  O19  1  0.77605800  0.55011400  0.80381500  1
