# generated using pymatgen
data_PdPt3F6
_symmetry_space_group_name_H-M   'P 1'
_cell_length_a   5.25995028
_cell_length_b   5.30169196
_cell_length_c   12.83100230
_cell_angle_alpha   92.73190925
_cell_angle_beta   83.87263876
_cell_angle_gamma   117.66443271
_symmetry_Int_Tables_number   1
_chemical_formula_structural   PdPt3F6
_chemical_formula_sum   'Pd1 Pt3 F6'
_cell_volume   315.09777039
_cell_formula_units_Z   1
loop_
 _symmetry_equiv_pos_site_id
 _symmetry_equiv_pos_as_xyz
  1  'x, y, z'
loop_
 _atom_site_type_symbol
 _atom_site_label
 _atom_site_symmetry_multiplicity
 _atom_site_fract_x
 _atom_site_fract_y
 _atom_site_fract_z
 _atom_site_occupancy
  Pd  Pd0  1  0.00000000  0.00000000  0.00000000  1
  Pt  Pt1  1  0.00000000  0.00000000  0.50000000  1
  Pt  Pt2  1  0.50000000  0.50000000  0.00000000  1
  Pt  Pt3  1  0.00000000  0.50000000  0.00000000  1
  F  F4  1  0.04139400  0.50608600  0.84929300  1
  F  F5  1  0.95860600  0.49391400  0.15070700  1
  F  F6  1  0.90851800  0.92791700  0.64209500  1
  F  F7  1  0.09148200  0.07208300  0.35790500  1
  F  F8  1  0.68859300  0.82571300  0.89924900  1
  F  F9  1  0.31140700  0.17428700  0.10075100  1
