# generated using pymatgen
data_MgZnBr4O7
_symmetry_space_group_name_H-M   'P 1'
_cell_length_a   14.85955200
_cell_length_b   6.32271000
_cell_length_c   11.77445301
_cell_angle_alpha   66.68204815
_cell_angle_beta   90.00000000
_cell_angle_gamma   90.00000000
_symmetry_Int_Tables_number   1
_chemical_formula_structural   MgZnBr4O7
_chemical_formula_sum   'Mg4 Zn4 Br16 O28'
_cell_volume   1015.88582310
_cell_formula_units_Z   4
loop_
 _symmetry_equiv_pos_site_id
 _symmetry_equiv_pos_as_xyz
  1  'x, y, z'
loop_
 _atom_site_type_symbol
 _atom_site_label
 _atom_site_symmetry_multiplicity
 _atom_site_fract_x
 _atom_site_fract_y
 _atom_site_fract_z
 _atom_site_occupancy
  Mg  Mg0  1  0.00000000  0.50000000  0.50000000  1
  Mg  Mg1  1  0.50000000  0.50000000  0.00000000  1
  Mg  Mg2  1  0.00000000  0.50000000  0.00000000  1
  Mg  Mg3  1  0.50000000  0.50000000  0.50000000  1
  Zn  Zn4  1  0.73923500  0.79137000  0.21825000  1
  Zn  Zn5  1  0.76076500  0.79137000  0.71825000  1
  Zn  Zn6  1  0.26076500  0.20863000  0.78175000  1
  Zn  Zn7  1  0.23923500  0.20863000  0.28175000  1
  Br  Br8  1  0.67127900  0.14272500  0.06299500  1
  Br  Br9  1  0.82872100  0.14272500  0.56299500  1
  Br  Br10  1  0.32872100  0.85727500  0.93700500  1
  Br  Br11  1  0.17127900  0.85727500  0.43700500  1
  Br  Br12  1  0.06794900  0.86446400  0.11959700  1
  Br  Br13  1  0.43205100  0.86446400  0.61959700  1
  Br  Br14  1  0.93205100  0.13553600  0.88040300  1
  Br  Br15  1  0.56794900  0.13553600  0.38040300  1
  Br  Br16  1  0.76967000  0.44429700  0.21153900  1
  Br  Br17  1  0.73033000  0.44429700  0.71153900  1
  Br  Br18  1  0.23033000  0.55570300  0.78846100  1
  Br  Br19  1  0.26967000  0.55570300  0.28846100  1
  Br  Br20  1  0.82677700  0.89318800  0.36372500  1
  Br  Br21  1  0.67322300  0.89318800  0.86372500  1
  Br  Br22  1  0.17322300  0.10681200  0.63627500  1
  Br  Br23  1  0.32677700  0.10681200  0.13627500  1
  O  O24  1  0.06471400  0.80261000  0.38475400  1
  O  O25  1  0.43528600  0.80261000  0.88475400  1
  O  O26  1  0.93528600  0.19739000  0.61524600  1
  O  O27  1  0.56471400  0.19739000  0.11524600  1
  O  O28  1  0.87266800  0.62790500  0.46744900  1
  O  O29  1  0.62733200  0.62790500  0.96744900  1
  O  O30  1  0.12733200  0.37209500  0.53255100  1
  O  O31  1  0.37266800  0.37209500  0.03255100  1
  O  O32  1  0.98594300  0.48459300  0.30779000  1
  O  O33  1  0.51405700  0.48459300  0.80779000  1
  O  O34  1  0.01405700  0.51540700  0.69221000  1
  O  O35  1  0.48594300  0.51540700  0.19221000  1
  O  O36  1  0.90037400  0.31743500  0.95176800  1
  O  O37  1  0.59962600  0.31743500  0.45176800  1
  O  O38  1  0.09962600  0.68256500  0.04823200  1
  O  O39  1  0.40037400  0.68256500  0.54823200  1
  O  O40  1  0.90951100  0.86101200  0.98669100  1
  O  O41  1  0.59048900  0.86101200  0.48669100  1
  O  O42  1  0.09048900  0.13898800  0.01330900  1
  O  O43  1  0.40951100  0.13898800  0.51330900  1
  O  O44  1  0.98201200  0.28120800  0.18503900  1
  O  O45  1  0.51798800  0.28120800  0.68503900  1
  O  O46  1  0.01798800  0.71879200  0.81496100  1
  O  O47  1  0.48201200  0.71879200  0.31496100  1
  O  O48  1  0.99844900  0.28265100  0.29781200  1
  O  O49  1  0.50155100  0.28265100  0.79781200  1
  O  O50  1  0.00155100  0.71734900  0.70218800  1
  O  O51  1  0.49844900  0.71734900  0.20218800  1
