# generated using pymatgen
data_Ca(BH4)2
_symmetry_space_group_name_H-M   'P 1'
_cell_length_a   5.80489811
_cell_length_b   5.80489811
_cell_length_c   7.75415666
_cell_angle_alpha   72.05260678
_cell_angle_beta   72.05260678
_cell_angle_gamma   99.81042681
_symmetry_Int_Tables_number   1
_chemical_formula_structural   Ca(BH4)2
_chemical_formula_sum   'Ca2 B4 H16'
_cell_volume   226.08884055
_cell_formula_units_Z   2
loop_
 _symmetry_equiv_pos_site_id
 _symmetry_equiv_pos_as_xyz
  1  'x, y, z'
loop_
 _atom_site_type_symbol
 _atom_site_label
 _atom_site_symmetry_multiplicity
 _atom_site_fract_x
 _atom_site_fract_y
 _atom_site_fract_z
 _atom_site_occupancy
  Ca  Ca0  1  0.64184100  0.35815900  0.25000000  1
  Ca  Ca1  1  0.35815900  0.64184100  0.75000000  1
  B  B2  1  0.82764000  0.55582100  0.83103400  1
  B  B3  1  0.44417900  0.17236000  0.66896600  1
  B  B4  1  0.17236000  0.44417900  0.16896600  1
  B  B5  1  0.55582100  0.82764000  0.33103400  1
  H  H6  1  0.77518400  0.71352400  0.71502900  1
  H  H7  1  0.28647600  0.22481600  0.78497100  1
  H  H8  1  0.22481600  0.28647600  0.28497100  1
  H  H9  1  0.71352400  0.77518400  0.21502900  1
  H  H10  1  0.91487500  0.66601200  0.92072300  1
  H  H11  1  0.33398800  0.08512500  0.57927700  1
  H  H12  1  0.08512500  0.33398800  0.07927700  1
  H  H13  1  0.66601200  0.91487500  0.42072300  1
  H  H14  1  0.62779300  0.35629800  0.55669900  1
  H  H15  1  0.64370200  0.37220700  0.94330100  1
  H  H16  1  0.37220700  0.64370200  0.44330100  1
  H  H17  1  0.35629800  0.62779300  0.05669900  1
  H  H18  1  0.98040700  0.47316800  0.73874600  1
  H  H19  1  0.52683200  0.01959300  0.76125400  1
  H  H20  1  0.01959300  0.52683200  0.26125400  1
  H  H21  1  0.47316800  0.98040700  0.23874600  1
