# generated using pymatgen
data_Zr3FeF6
_symmetry_space_group_name_H-M   'P 1'
_cell_length_a   5.94032331
_cell_length_b   6.12382070
_cell_length_c   12.11024331
_cell_angle_alpha   94.10320945
_cell_angle_beta   105.83772232
_cell_angle_gamma   119.81918483
_symmetry_Int_Tables_number   1
_chemical_formula_structural   Zr3FeF6
_chemical_formula_sum   'Zr3 Fe1 F6'
_cell_volume   356.18563056
_cell_formula_units_Z   1
loop_
 _symmetry_equiv_pos_site_id
 _symmetry_equiv_pos_as_xyz
  1  'x, y, z'
loop_
 _atom_site_type_symbol
 _atom_site_label
 _atom_site_symmetry_multiplicity
 _atom_site_fract_x
 _atom_site_fract_y
 _atom_site_fract_z
 _atom_site_occupancy
  Zr  Zr0  1  0.00000000  0.00000000  0.50000000  1
  Zr  Zr1  1  0.50000000  0.50000000  0.00000000  1
  Zr  Zr2  1  0.00000000  0.50000000  0.00000000  1
  Fe  Fe3  1  0.00000000  0.00000000  0.00000000  1
  F  F4  1  0.10596900  0.40294700  0.86243700  1
  F  F5  1  0.89403100  0.59705300  0.13756300  1
  F  F6  1  0.93756300  0.95016000  0.65050700  1
  F  F7  1  0.06243700  0.04984000  0.34949300  1
  F  F8  1  0.61271300  0.76711200  0.88866200  1
  F  F9  1  0.38728700  0.23288800  0.11133800  1
