# generated using pymatgen
data_K2Na2Mo3WO12
_symmetry_space_group_name_H-M   'P 1'
_cell_length_a   8.02311800
_cell_length_b   8.02311800
_cell_length_c   7.91262900
_cell_angle_alpha   90.00000000
_cell_angle_beta   90.00000000
_cell_angle_gamma   90.00000000
_symmetry_Int_Tables_number   1
_chemical_formula_structural   K2Na2Mo3WO12
_chemical_formula_sum   'K4 Na4 Mo6 W2 O24'
_cell_volume   509.33927136
_cell_formula_units_Z   2
loop_
 _symmetry_equiv_pos_site_id
 _symmetry_equiv_pos_as_xyz
  1  'x, y, z'
loop_
 _atom_site_type_symbol
 _atom_site_label
 _atom_site_symmetry_multiplicity
 _atom_site_fract_x
 _atom_site_fract_y
 _atom_site_fract_z
 _atom_site_occupancy
  K  K0  1  0.25228300  0.25228300  0.00000000  1
  K  K1  1  0.74771700  0.25228300  0.00000000  1
  K  K2  1  0.25228300  0.74771700  0.00000000  1
  K  K3  1  0.74771700  0.74771700  0.00000000  1
  Na  Na4  1  0.25230100  0.25230100  0.50000000  1
  Na  Na5  1  0.74769900  0.25230100  0.50000000  1
  Na  Na6  1  0.25230100  0.74769900  0.50000000  1
  Na  Na7  1  0.74769900  0.74769900  0.50000000  1
  Mo  Mo8  1  0.50000000  0.00000000  0.74810200  1
  Mo  Mo9  1  0.50000000  0.00000000  0.25189800  1
  Mo  Mo10  1  0.00000000  0.50000000  0.74810200  1
  Mo  Mo11  1  0.00000000  0.50000000  0.25189800  1
  Mo  Mo12  1  0.50000000  0.50000000  0.74724500  1
  Mo  Mo13  1  0.50000000  0.50000000  0.25275500  1
  W  W14  1  0.00000000  0.00000000  0.74744700  1
  W  W15  1  0.00000000  0.00000000  0.25255300  1
  O  O16  1  0.00000000  0.24064800  0.74506200  1
  O  O17  1  0.00000000  0.24064800  0.25493800  1
  O  O18  1  0.50000000  0.25609200  0.74481600  1
  O  O19  1  0.50000000  0.25609200  0.25518400  1
  O  O20  1  0.00000000  0.75935200  0.74506200  1
  O  O21  1  0.00000000  0.75935200  0.25493800  1
  O  O22  1  0.50000000  0.74390800  0.74481600  1
  O  O23  1  0.50000000  0.74390800  0.25518400  1
  O  O24  1  0.24064800  0.00000000  0.74506200  1
  O  O25  1  0.24064800  0.00000000  0.25493800  1
  O  O26  1  0.75935200  0.00000000  0.74506200  1
  O  O27  1  0.75935200  0.00000000  0.25493800  1
  O  O28  1  0.25609200  0.50000000  0.74481600  1
  O  O29  1  0.25609200  0.50000000  0.25518400  1
  O  O30  1  0.74390800  0.50000000  0.74481600  1
  O  O31  1  0.74390800  0.50000000  0.25518400  1
  O  O32  1  0.00000000  0.00000000  0.00000000  1
  O  O33  1  0.00000000  0.00000000  0.50000000  1
  O  O34  1  0.50000000  0.00000000  0.00000000  1
  O  O35  1  0.50000000  0.00000000  0.50000000  1
  O  O36  1  0.00000000  0.50000000  0.00000000  1
  O  O37  1  0.00000000  0.50000000  0.50000000  1
  O  O38  1  0.50000000  0.50000000  0.00000000  1
  O  O39  1  0.50000000  0.50000000  0.50000000  1
