# generated using pymatgen
data_Mg2ClO3
_symmetry_space_group_name_H-M   'P 1'
_cell_length_a   6.70803689
_cell_length_b   5.64862852
_cell_length_c   7.85185690
_cell_angle_alpha   85.49048615
_cell_angle_beta   76.89408976
_cell_angle_gamma   88.11474746
_symmetry_Int_Tables_number   1
_chemical_formula_structural   Mg2ClO3
_chemical_formula_sum   'Mg4 Cl2 O6'
_cell_volume   288.83498544
_cell_formula_units_Z   2
loop_
 _symmetry_equiv_pos_site_id
 _symmetry_equiv_pos_as_xyz
  1  'x, y, z'
loop_
 _atom_site_type_symbol
 _atom_site_label
 _atom_site_symmetry_multiplicity
 _atom_site_fract_x
 _atom_site_fract_y
 _atom_site_fract_z
 _atom_site_occupancy
  Mg  Mg0  1  0.07945200  0.75407200  0.48004200  1
  Mg  Mg1  1  0.92054800  0.24592800  0.51995800  1
  Mg  Mg2  1  0.36719700  0.31104600  0.54906600  1
  Mg  Mg3  1  0.63280300  0.68895400  0.45093400  1
  Cl  Cl4  1  0.57455000  0.35288400  0.03066300  1
  Cl  Cl5  1  0.42545000  0.64711600  0.96933700  1
  O  O6  1  0.09308200  0.45267100  0.64911800  1
  O  O7  1  0.90691800  0.54732900  0.35088200  1
  O  O8  1  0.36239500  0.62794100  0.40906600  1
  O  O9  1  0.63760500  0.37205900  0.59093400  1
  O  O10  1  0.19641500  0.06893700  0.50779700  1
  O  O11  1  0.80358500  0.93106300  0.49220300  1
