# generated using pymatgen
data_Dy2MnCoO6
_symmetry_space_group_name_H-M   'P 1'
_cell_length_a   5.65504900
_cell_length_b   4.28566000
_cell_length_c   10.19624895
_cell_angle_alpha   70.67936265
_cell_angle_beta   90.00000000
_cell_angle_gamma   90.00000000
_symmetry_Int_Tables_number   1
_chemical_formula_structural   Dy2MnCoO6
_chemical_formula_sum   'Dy4 Mn2 Co2 O12'
_cell_volume   233.19547317
_cell_formula_units_Z   2
loop_
 _symmetry_equiv_pos_site_id
 _symmetry_equiv_pos_as_xyz
  1  'x, y, z'
loop_
 _atom_site_type_symbol
 _atom_site_label
 _atom_site_symmetry_multiplicity
 _atom_site_fract_x
 _atom_site_fract_y
 _atom_site_fract_z
 _atom_site_occupancy
  Dy  Dy0  1  0.41002000  0.18805200  0.75818500  1
  Dy  Dy1  1  0.91002000  0.81194800  0.74181500  1
  Dy  Dy2  1  0.58998000  0.81194800  0.24181500  1
  Dy  Dy3  1  0.08998000  0.18805200  0.25818500  1
  Mn  Mn4  1  0.50000000  0.00000000  0.50000000  1
  Mn  Mn5  1  0.00000000  0.00000000  0.00000000  1
  Co  Co6  1  0.50000000  0.50000000  0.00000000  1
  Co  Co7  1  0.00000000  0.50000000  0.50000000  1
  O  O8  1  0.22170600  0.73674500  0.92098000  1
  O  O9  1  0.72170600  0.26325500  0.57902000  1
  O  O10  1  0.82042700  0.86558000  0.41620600  1
  O  O11  1  0.32042700  0.13442000  0.08379400  1
  O  O12  1  0.77829400  0.26325500  0.07902000  1
  O  O13  1  0.27829400  0.73674500  0.42098000  1
  O  O14  1  0.17957300  0.13442000  0.58379400  1
  O  O15  1  0.67957300  0.86558000  0.91620600  1
  O  O16  1  0.02249400  0.28315000  0.80601300  1
  O  O17  1  0.52249400  0.71685000  0.69398700  1
  O  O18  1  0.97750600  0.71685000  0.19398700  1
  O  O19  1  0.47750600  0.28315000  0.30601300  1
