# generated using pymatgen
data_Rb3NpO9
_symmetry_space_group_name_H-M   'P 1'
_cell_length_a   8.12202281
_cell_length_b   8.12202281
_cell_length_c   7.63866682
_cell_angle_alpha   83.04178026
_cell_angle_beta   83.04178026
_cell_angle_gamma   85.83896087
_symmetry_Int_Tables_number   1
_chemical_formula_structural   Rb3NpO9
_chemical_formula_sum   'Rb6 Np2 O18'
_cell_volume   495.64900881
_cell_formula_units_Z   2
loop_
 _symmetry_equiv_pos_site_id
 _symmetry_equiv_pos_as_xyz
  1  'x, y, z'
loop_
 _atom_site_type_symbol
 _atom_site_label
 _atom_site_symmetry_multiplicity
 _atom_site_fract_x
 _atom_site_fract_y
 _atom_site_fract_z
 _atom_site_occupancy
  Rb  Rb0  1  0.57560700  0.77176600  0.06707500  1
  Rb  Rb1  1  0.42439300  0.22823400  0.93292500  1
  Rb  Rb2  1  0.22823400  0.42439300  0.43292500  1
  Rb  Rb3  1  0.77176600  0.57560700  0.56707500  1
  Rb  Rb4  1  0.96551200  0.03448800  0.75000000  1
  Rb  Rb5  1  0.03448800  0.96551200  0.25000000  1
  Np  Np6  1  0.50000000  0.00000000  0.50000000  1
  Np  Np7  1  0.00000000  0.50000000  0.00000000  1
  O  O8  1  0.39782200  0.60217800  0.75000000  1
  O  O9  1  0.60217800  0.39782200  0.25000000  1
  O  O10  1  0.73937100  0.19180200  0.04381500  1
  O  O11  1  0.26062900  0.80819800  0.95618500  1
  O  O12  1  0.80819800  0.26062900  0.45618500  1
  O  O13  1  0.19180200  0.73937100  0.54381500  1
  O  O14  1  0.31592300  0.11619000  0.61534900  1
  O  O15  1  0.68407700  0.88381000  0.38465100  1
  O  O16  1  0.88381000  0.68407700  0.88465100  1
  O  O17  1  0.11619000  0.31592300  0.11534900  1
  O  O18  1  0.64779800  0.27051500  0.42716000  1
  O  O19  1  0.35220200  0.72948500  0.57284000  1
  O  O20  1  0.72948500  0.35220200  0.07284000  1
  O  O21  1  0.27051500  0.64779800  0.92716000  1
  O  O22  1  0.60222800  0.97555200  0.71116400  1
  O  O23  1  0.39777200  0.02444800  0.28883600  1
  O  O24  1  0.02444800  0.39777200  0.78883600  1
  O  O25  1  0.97555200  0.60222800  0.21116400  1
