# generated using pymatgen
data_Sc2H10S3O17
_symmetry_space_group_name_H-M   'P 1'
_cell_length_a   6.27662500
_cell_length_b   11.28618517
_cell_length_c   11.68901482
_cell_angle_alpha   100.93859017
_cell_angle_beta   95.47651910
_cell_angle_gamma   89.64867981
_symmetry_Int_Tables_number   1
_chemical_formula_structural   Sc2H10S3O17
_chemical_formula_sum   'Sc4 H20 S6 O34'
_cell_volume   809.22356130
_cell_formula_units_Z   2
loop_
 _symmetry_equiv_pos_site_id
 _symmetry_equiv_pos_as_xyz
  1  'x, y, z'
loop_
 _atom_site_type_symbol
 _atom_site_label
 _atom_site_symmetry_multiplicity
 _atom_site_fract_x
 _atom_site_fract_y
 _atom_site_fract_z
 _atom_site_occupancy
  Sc  Sc0  1  0.35679000  0.12687800  0.22846400  1
  Sc  Sc1  1  0.64321000  0.87312200  0.77153600  1
  Sc  Sc2  1  0.00000000  0.50000000  0.00000000  1
  Sc  Sc3  1  0.00000000  0.50000000  0.50000000  1
  H  H4  1  0.66330000  0.08403500  0.06511700  1
  H  H5  1  0.33670000  0.91596500  0.93488300  1
  H  H6  1  0.66152200  0.96700500  0.11870300  1
  H  H7  1  0.33847800  0.03299500  0.88129700  1
  H  H8  1  0.80803500  0.15483400  0.47610900  1
  H  H9  1  0.19196500  0.84516600  0.52389100  1
  H  H10  1  0.65793500  0.72376100  0.34711400  1
  H  H11  1  0.34206500  0.27623900  0.65288600  1
  H  H12  1  0.21457000  0.92237500  0.22956700  1
  H  H13  1  0.78543000  0.07762500  0.77043300  1
  H  H14  1  0.44503500  0.64251500  0.07357500  1
  H  H15  1  0.55496500  0.35748500  0.92642500  1
  H  H16  1  0.54518300  0.42332700  0.18857400  1
  H  H17  1  0.45481700  0.57667300  0.81142600  1
  H  H18  1  0.42162600  0.70867500  0.09155300  1
  H  H19  1  0.57837400  0.29132500  0.90844700  1
  H  H20  1  0.34236400  0.57738500  0.36993100  1
  H  H21  1  0.65763600  0.42261500  0.63006900  1
  H  H22  1  0.37606800  0.62239000  0.50833200  1
  H  H23  1  0.62393200  0.37761000  0.49166800  1
  S  S24  1  0.29831900  0.49591300  0.75532000  1
  S  S25  1  0.70168100  0.50408700  0.24468000  1
  S  S26  1  0.04527500  0.18595400  0.98322200  1
  S  S27  1  0.95472500  0.81404600  0.01677800  1
  S  S28  1  0.14466400  0.19504400  0.49471500  1
  S  S29  1  0.85533600  0.80495600  0.50528500  1
  O  O30  1  0.15566700  0.46627000  0.83639500  1
  O  O31  1  0.84433300  0.53373000  0.16360500  1
  O  O32  1  0.17188900  0.54541900  0.65980700  1
  O  O33  1  0.82811100  0.45458100  0.34019300  1
  O  O34  1  0.42638600  0.39172700  0.70347200  1
  O  O35  1  0.57361400  0.60827300  0.29652800  1
  O  O36  1  0.52045000  0.72689600  0.68133800  1
  O  O37  1  0.47955000  0.27310400  0.31866200  1
  O  O38  1  0.84869700  0.11049500  0.96101200  1
  O  O39  1  0.15130300  0.88950500  0.03898800  1
  O  O40  1  0.15458300  0.17579000  0.10280300  1
  O  O41  1  0.84541700  0.82421000  0.89719700  1
  O  O42  1  0.28829100  0.47971700  0.09469000  1
  O  O43  1  0.71170900  0.52028300  0.90531000  1
  O  O44  1  0.19387400  0.15220800  0.89322000  1
  O  O45  1  0.80612600  0.84779200  0.10678000  1
  O  O46  1  0.30118400  0.18920000  0.60127900  1
  O  O47  1  0.69881600  0.81080000  0.39872100  1
  O  O48  1  0.93441700  0.15530500  0.53743400  1
  O  O49  1  0.06558300  0.84469500  0.46256600  1
  O  O50  1  0.21523400  0.10754700  0.39827600  1
  O  O51  1  0.78476600  0.89245300  0.60172400  1
  O  O52  1  0.12930500  0.32080400  0.47782000  1
  O  O53  1  0.87069500  0.67919600  0.52218000  1
  O  O54  1  0.57928200  0.04392100  0.11533200  1
  O  O55  1  0.42071800  0.95607900  0.88466800  1
  O  O56  1  0.65418300  0.14918100  0.35116700  1
  O  O57  1  0.34581700  0.85081900  0.64883300  1
  O  O58  1  0.83922500  0.15216000  0.30770600  1
  O  O59  1  0.16077500  0.84784000  0.69229400  1
  O  O60  1  0.01475800  0.68485400  0.00834000  1
  O  O61  1  0.98524200  0.31514600  0.99166000  1
  O  O62  1  0.27714600  0.57762400  0.44405700  1
  O  O63  1  0.72285400  0.42237600  0.55594300  1
