# generated using pymatgen
data_ZnSn2H12(OF)6
_symmetry_space_group_name_H-M   'P 1'
_cell_length_a   6.52880500
_cell_length_b   6.80621281
_cell_length_c   7.55887443
_cell_angle_alpha   78.32319074
_cell_angle_beta   85.06253689
_cell_angle_gamma   87.46116176
_symmetry_Int_Tables_number   1
_chemical_formula_structural   ZnSn2H12(OF)6
_chemical_formula_sum   'Zn1 Sn2 H12 O6 F6'
_cell_volume   327.59316405
_cell_formula_units_Z   1
loop_
 _symmetry_equiv_pos_site_id
 _symmetry_equiv_pos_as_xyz
  1  'x, y, z'
loop_
 _atom_site_type_symbol
 _atom_site_label
 _atom_site_symmetry_multiplicity
 _atom_site_fract_x
 _atom_site_fract_y
 _atom_site_fract_z
 _atom_site_occupancy
  Zn  Zn0  1  0.00000000  0.00000000  0.00000000  1
  Sn  Sn1  1  0.64349000  0.64963500  0.62497100  1
  Sn  Sn2  1  0.35651000  0.35036500  0.37502900  1
  H  H3  1  0.72212500  0.64731000  0.96170800  1
  H  H4  1  0.27787500  0.35269000  0.03829200  1
  H  H5  1  0.71029700  0.04087100  0.25607300  1
  H  H6  1  0.28970300  0.95912900  0.74392700  1
  H  H7  1  0.65818700  0.05167000  0.80768000  1
  H  H8  1  0.34181300  0.94833000  0.19232000  1
  H  H9  1  0.94030200  0.21894800  0.63604400  1
  H  H10  1  0.05969800  0.78105200  0.36395600  1
  H  H11  1  0.07479900  0.86661400  0.70438200  1
  H  H12  1  0.92520100  0.13338600  0.29561800  1
  H  H13  1  0.63633600  0.56166100  0.87834500  1
  H  H14  1  0.36366400  0.43833900  0.12165500  1
  O  O15  1  0.86410400  0.02657200  0.24290800  1
  O  O16  1  0.13589600  0.97342800  0.75709200  1
  O  O17  1  0.81187100  0.28065800  0.68280000  1
  O  O18  1  0.18812900  0.71934200  0.31720000  1
  O  O19  1  0.75052500  0.14551200  0.85332000  1
  O  O20  1  0.24947500  0.85448800  0.14668000  1
  F  F21  1  0.95164400  0.72791500  0.61911000  1
  F  F22  1  0.04835600  0.27208500  0.38089000  1
  F  F23  1  0.53291500  0.93281500  0.71071300  1
  F  F24  1  0.46708500  0.06718500  0.28928700  1
  F  F25  1  0.79870000  0.72612100  0.04428200  1
  F  F26  1  0.20130000  0.27387900  0.95571800  1
