# generated using pymatgen
data_Er2(SeO4)3
_symmetry_space_group_name_H-M   'P 1'
_cell_length_a   7.29141208
_cell_length_b   7.29141208
_cell_length_c   6.40093304
_cell_angle_alpha   74.74253496
_cell_angle_beta   74.74253496
_cell_angle_gamma   60.75223549
_symmetry_Int_Tables_number   1
_chemical_formula_structural   Er2(SeO4)3
_chemical_formula_sum   'Er2 Se3 O12'
_cell_volume   282.76963820
_cell_formula_units_Z   1
loop_
 _symmetry_equiv_pos_site_id
 _symmetry_equiv_pos_as_xyz
  1  'x, y, z'
loop_
 _atom_site_type_symbol
 _atom_site_label
 _atom_site_symmetry_multiplicity
 _atom_site_fract_x
 _atom_site_fract_y
 _atom_site_fract_z
 _atom_site_occupancy
  Er  Er0  1  0.27063600  0.13646300  0.15857000  1
  Er  Er1  1  0.86353700  0.72936400  0.84143000  1
  Se  Se2  1  0.48952000  0.21756700  0.51134000  1
  Se  Se3  1  0.78243300  0.51048000  0.48866000  1
  Se  Se4  1  0.34894100  0.65105900  0.00000000  1
  O  O5  1  0.36499400  0.08586000  0.47188600  1
  O  O6  1  0.91414000  0.63500600  0.52811400  1
  O  O7  1  0.61056800  0.00379400  0.00083600  1
  O  O8  1  0.99620600  0.38943200  0.99916400  1
  O  O9  1  0.26261700  0.82193600  0.17696900  1
  O  O10  1  0.17806400  0.73738300  0.82303100  1
  O  O11  1  0.96341700  0.51276400  0.17066200  1
  O  O12  1  0.48723600  0.03658300  0.82933800  1
  O  O13  1  0.37993300  0.40999100  0.13260500  1
  O  O14  1  0.59000900  0.62006700  0.86739500  1
  O  O15  1  0.73964300  0.09189500  0.40577400  1
  O  O16  1  0.90810500  0.26035700  0.59422600  1
