# generated using pymatgen
data_HgH4C12O3F8
_symmetry_space_group_name_H-M   'P 1'
_cell_length_a   7.39429500
_cell_length_b   8.29196870
_cell_length_c   11.72783257
_cell_angle_alpha   89.76842636
_cell_angle_beta   99.53525166
_cell_angle_gamma   99.99777403
_symmetry_Int_Tables_number   1
_chemical_formula_structural   HgH4C12O3F8
_chemical_formula_sum   'Hg2 H8 C24 O6 F16'
_cell_volume   698.14208195
_cell_formula_units_Z   2
loop_
 _symmetry_equiv_pos_site_id
 _symmetry_equiv_pos_as_xyz
  1  'x, y, z'
loop_
 _atom_site_type_symbol
 _atom_site_label
 _atom_site_symmetry_multiplicity
 _atom_site_fract_x
 _atom_site_fract_y
 _atom_site_fract_z
 _atom_site_occupancy
  Hg  Hg0  1  0.34026900  0.05545200  0.68253700  1
  Hg  Hg1  1  0.65973100  0.94454800  0.31746300  1
  H  H2  1  0.10989300  0.33791200  0.83168500  1
  H  H3  1  0.89010700  0.66208800  0.16831500  1
  H  H4  1  0.64286400  0.53604600  0.25606100  1
  H  H5  1  0.35713600  0.46395400  0.74393900  1
  H  H6  1  0.04226100  0.33082000  0.69928200  1
  H  H7  1  0.95773900  0.66918000  0.30071800  1
  H  H8  1  0.31443000  0.58130000  0.14920800  1
  H  H9  1  0.68557000  0.41870000  0.85079200  1
  C  C10  1  0.57757200  0.25144300  0.52163100  1
  C  C11  1  0.42242800  0.74855700  0.47836900  1
  C  C12  1  0.29232800  0.33281900  0.36266200  1
  C  C13  1  0.70767200  0.66718100  0.63733800  1
  C  C14  1  0.47572100  0.39332000  0.34651400  1
  C  C15  1  0.52427900  0.60668000  0.65348600  1
  C  C16  1  0.90457600  0.20784800  0.03988400  1
  C  C17  1  0.09542400  0.79215200  0.96011600  1
  C  C18  1  0.87520000  0.11075300  0.13444300  1
  C  C19  1  0.12480000  0.88924700  0.86555700  1
  C  C20  1  0.39665400  0.19061500  0.53791700  1
  C  C21  1  0.60334600  0.80938500  0.46208300  1
  C  C22  1  0.61778800  0.34860300  0.42888700  1
  C  C23  1  0.38221200  0.65139700  0.57111300  1
  C  C24  1  0.70477500  0.08271000  0.17325000  1
  C  C25  1  0.29522500  0.91729000  0.82675000  1
  C  C26  1  0.56337900  0.15443700  0.11167400  1
  C  C27  1  0.43662100  0.84556300  0.88832600  1
  C  C28  1  0.58949600  0.25140200  0.01700400  1
  C  C29  1  0.41050400  0.74859800  0.98299600  1
  C  C30  1  0.23860500  0.71966300  0.02162100  1
  C  C31  1  0.76139500  0.28033700  0.97837900  1
  C  C32  1  0.25643600  0.23326400  0.45505000  1
  C  C33  1  0.74356400  0.76673600  0.54495000  1
  O  O34  1  0.15471100  0.34223800  0.75739000  1
  O  O35  1  0.84528900  0.65776200  0.24261000  1
  O  O36  1  0.50697400  0.49015400  0.25574500  1
  O  O37  1  0.49302600  0.50984600  0.74425500  1
  O  O38  1  0.20493300  0.62895700  0.11444300  1
  O  O39  1  0.79506700  0.37104300  0.88555700  1
  F  F40  1  0.27459300  0.78103700  0.39975700  1
  F  F41  1  0.72540700  0.21896300  0.60024300  1
  F  F42  1  0.07298000  0.23314500  0.00450900  1
  F  F43  1  0.92702000  0.76685500  0.99549100  1
  F  F44  1  0.39130300  0.12870900  0.14281200  1
  F  F45  1  0.60869700  0.87129100  0.85718800  1
  F  F46  1  0.20187900  0.59239400  0.58067400  1
  F  F47  1  0.79812100  0.40760600  0.41932600  1
  F  F48  1  0.07410800  0.18009400  0.46439600  1
  F  F49  1  0.92589200  0.81990600  0.53560400  1
  F  F50  1  0.14909300  0.37646700  0.28825800  1
  F  F51  1  0.85090700  0.62353300  0.71174200  1
  F  F52  1  0.55265500  0.68102200  0.04205100  1
  F  F53  1  0.44734500  0.31897800  0.95794900  1
  F  F54  1  0.01973700  0.04251000  0.18886600  1
  F  F55  1  0.98026300  0.95749000  0.81113400  1
