# generated using pymatgen
data_YbH7C4O11
_symmetry_space_group_name_H-M   'P 1'
_cell_length_a   8.97516400
_cell_length_b   8.97516400
_cell_length_c   12.91863900
_cell_angle_alpha   90.00000000
_cell_angle_beta   90.00000000
_cell_angle_gamma   90.00000000
_symmetry_Int_Tables_number   1
_chemical_formula_structural   YbH7C4O11
_chemical_formula_sum   'Yb4 H28 C16 O44'
_cell_volume   1040.64247584
_cell_formula_units_Z   4
loop_
 _symmetry_equiv_pos_site_id
 _symmetry_equiv_pos_as_xyz
  1  'x, y, z'
loop_
 _atom_site_type_symbol
 _atom_site_label
 _atom_site_symmetry_multiplicity
 _atom_site_fract_x
 _atom_site_fract_y
 _atom_site_fract_z
 _atom_site_occupancy
  Yb  Yb0  1  0.00000000  0.50000000  0.96860400  1
  Yb  Yb1  1  0.00000000  0.50000000  0.46860400  1
  Yb  Yb2  1  0.50000000  0.00000000  0.53139600  1
  Yb  Yb3  1  0.50000000  0.00000000  0.03139600  1
  H  H4  1  0.00000000  0.00000000  0.88496300  1
  H  H5  1  0.50000000  0.50000000  0.38496300  1
  H  H6  1  0.50000000  0.50000000  0.61503700  1
  H  H7  1  0.00000000  0.00000000  0.11503700  1
  H  H8  1  0.02673300  0.24356600  0.64323300  1
  H  H9  1  0.97326700  0.75643400  0.64323300  1
  H  H10  1  0.74356600  0.47326700  0.14323300  1
  H  H11  1  0.25643400  0.52673300  0.14323300  1
  H  H12  1  0.47326700  0.25643400  0.85676700  1
  H  H13  1  0.52673300  0.74356600  0.85676700  1
  H  H14  1  0.75643400  0.02673300  0.35676700  1
  H  H15  1  0.24356600  0.97326700  0.35676700  1
  H  H16  1  0.03022000  0.11235000  0.75285600  1
  H  H17  1  0.96978000  0.88765000  0.75285600  1
  H  H18  1  0.61235000  0.46978000  0.25285600  1
  H  H19  1  0.38765000  0.53022000  0.25285600  1
  H  H20  1  0.46978000  0.38765000  0.74714400  1
  H  H21  1  0.53022000  0.61235000  0.74714400  1
  H  H22  1  0.88765000  0.03022000  0.24714400  1
  H  H23  1  0.11235000  0.96978000  0.24714400  1
  H  H24  1  0.90728600  0.22827700  0.78369300  1
  H  H25  1  0.09271400  0.77172300  0.78369300  1
  H  H26  1  0.72827700  0.59271400  0.28369300  1
  H  H27  1  0.27172300  0.40728600  0.28369300  1
  H  H28  1  0.59271400  0.27172300  0.71630700  1
  H  H29  1  0.40728600  0.72827700  0.71630700  1
  H  H30  1  0.77172300  0.90728600  0.21630700  1
  H  H31  1  0.22827700  0.09271400  0.21630700  1
  C  C32  1  0.28565100  0.27778800  0.94401300  1
  C  C33  1  0.71434900  0.72221200  0.94401300  1
  C  C34  1  0.77778800  0.21434900  0.44401300  1
  C  C35  1  0.22221200  0.78565100  0.44401300  1
  C  C36  1  0.21434900  0.22221200  0.55598700  1
  C  C37  1  0.78565100  0.77778800  0.55598700  1
  C  C38  1  0.72221200  0.28565100  0.05598700  1
  C  C39  1  0.27778800  0.71434900  0.05598700  1
  C  C40  1  0.21597700  0.22974600  0.04931000  1
  C  C41  1  0.78402300  0.77025400  0.04931000  1
  C  C42  1  0.72974600  0.28402300  0.54931000  1
  C  C43  1  0.27025400  0.71597700  0.54931000  1
  C  C44  1  0.28402300  0.27025400  0.45069000  1
  C  C45  1  0.71597700  0.72974600  0.45069000  1
  C  C46  1  0.77025400  0.21597700  0.95069000  1
  C  C47  1  0.22974600  0.78402300  0.95069000  1
  O  O48  1  0.95185700  0.17340900  0.72204400  1
  O  O49  1  0.04814300  0.82659100  0.72204400  1
  O  O50  1  0.67340900  0.54814300  0.22204400  1
  O  O51  1  0.32659100  0.45185700  0.22204400  1
  O  O52  1  0.54814300  0.32659100  0.77795600  1
  O  O53  1  0.45185700  0.67340900  0.77795600  1
  O  O54  1  0.82659100  0.95185700  0.27795600  1
  O  O55  1  0.17340900  0.04814300  0.27795600  1
  O  O56  1  0.00000000  0.50000000  0.77617800  1
  O  O57  1  0.00000000  0.50000000  0.27617800  1
  O  O58  1  0.50000000  0.00000000  0.72382200  1
  O  O59  1  0.50000000  0.00000000  0.22382200  1
  O  O60  1  0.22248100  0.36942800  0.88804600  1
  O  O61  1  0.77751900  0.63057200  0.88804600  1
  O  O62  1  0.86942800  0.27751900  0.38804600  1
  O  O63  1  0.13057200  0.72248100  0.38804600  1
  O  O64  1  0.27751900  0.13057200  0.61195400  1
  O  O65  1  0.72248100  0.86942800  0.61195400  1
  O  O66  1  0.63057200  0.22248100  0.11195400  1
  O  O67  1  0.36942800  0.77751900  0.11195400  1
  O  O68  1  0.41509100  0.21452100  0.92539700  1
  O  O69  1  0.58490900  0.78547900  0.92539700  1
  O  O70  1  0.71452100  0.08490900  0.42539700  1
  O  O71  1  0.28547900  0.91509100  0.42539700  1
  O  O72  1  0.08490900  0.28547900  0.57460300  1
  O  O73  1  0.91509100  0.71452100  0.57460300  1
  O  O74  1  0.78547900  0.41509100  0.07460300  1
  O  O75  1  0.21452100  0.58490900  0.07460300  1
  O  O76  1  0.28940700  0.13334800  0.10098100  1
  O  O77  1  0.71059300  0.86665200  0.10098100  1
  O  O78  1  0.63334800  0.21059300  0.60098100  1
  O  O79  1  0.36665200  0.78940700  0.60098100  1
  O  O80  1  0.21059300  0.36665200  0.39901900  1
  O  O81  1  0.78940700  0.63334800  0.39901900  1
  O  O82  1  0.86665200  0.28940700  0.89901900  1
  O  O83  1  0.13334800  0.71059300  0.89901900  1
  O  O84  1  0.09579100  0.29169700  0.07298400  1
  O  O85  1  0.90420900  0.70830300  0.07298400  1
  O  O86  1  0.79169700  0.40420900  0.57298400  1
  O  O87  1  0.20830300  0.59579100  0.57298400  1
  O  O88  1  0.40420900  0.20830300  0.42701600  1
  O  O89  1  0.59579100  0.79169700  0.42701600  1
  O  O90  1  0.70830300  0.09579100  0.92701600  1
  O  O91  1  0.29169700  0.90420900  0.92701600  1
