# generated using pymatgen
data_Na2Ti3Mn(Si2O11)2
_symmetry_space_group_name_H-M   'P 1'
_cell_length_a   5.69715600
_cell_length_b   7.01076967
_cell_length_c   12.22430443
_cell_angle_alpha   86.61514122
_cell_angle_beta   78.11901430
_cell_angle_gamma   85.33653063
_symmetry_Int_Tables_number   1
_chemical_formula_structural   Na2Ti3Mn(Si2O11)2
_chemical_formula_sum   'Na2 Ti3 Mn1 Si4 O22'
_cell_volume   475.76674837
_cell_formula_units_Z   1
loop_
 _symmetry_equiv_pos_site_id
 _symmetry_equiv_pos_as_xyz
  1  'x, y, z'
loop_
 _atom_site_type_symbol
 _atom_site_label
 _atom_site_symmetry_multiplicity
 _atom_site_fract_x
 _atom_site_fract_y
 _atom_site_fract_z
 _atom_site_occupancy
  Na  Na0  1  0.31228700  0.70871200  0.28638900  1
  Na  Na1  1  0.79233500  0.46494600  0.27571500  1
  Ti  Ti2  1  0.78082000  0.84616600  0.00939600  1
  Ti  Ti3  1  0.32391800  0.92647300  0.52208700  1
  Ti  Ti4  1  0.33187800  0.19044100  0.26265000  1
  Mn  Mn5  1  0.80745700  0.97722200  0.28051900  1
  Si  Si6  1  0.04885300  0.29165200  0.46335900  1
  Si  Si7  1  0.85298900  0.69893000  0.49666000  1
  Si  Si8  1  0.16696800  0.53788800  0.06461100  1
  Si  Si9  1  0.26368500  0.94964400  0.05878200  1
  O  O10  1  0.59971900  0.80401100  0.56102800  1
  O  O11  1  0.17869900  0.99549300  0.19269900  1
  O  O12  1  0.38090300  0.36020000  0.84752000  1
  O  O13  1  0.52159800  0.03144800  0.00663700  1
  O  O14  1  0.60886900  0.13905100  0.70618500  1
  O  O15  1  0.89674300  0.74278900  0.36078800  1
  O  O16  1  0.16103200  0.16163900  0.55915700  1
  O  O17  1  0.58517500  0.38616200  0.79346300  1
  O  O18  1  0.20165400  0.37691300  0.15573000  1
  O  O19  1  0.74536300  0.81662400  0.16888700  1
  O  O20  1  0.86823200  0.83383400  0.83332500  1
  O  O21  1  0.68091100  0.73381500  0.87484900  1
  O  O22  1  0.27943900  0.38286000  0.37290800  1
  O  O23  1  0.64431400  0.19974300  0.21543900  1
  O  O24  1  0.08912400  0.76094600  0.54057900  1
  O  O25  1  0.85152100  0.46284800  0.51515600  1
  O  O26  1  0.05370400  0.98990900  0.98955500  1
  O  O27  1  0.94740800  0.16475200  0.37546000  1
  O  O28  1  0.40732800  0.09296100  0.75225500  1
  O  O29  1  0.42862400  0.97234100  0.37265400  1
  O  O30  1  0.33986100  0.70777800  0.06632600  1
  O  O31  1  0.94559000  0.57081100  0.00723300  1
