# generated using pymatgen
data_Sc2Te3
_symmetry_space_group_name_H-M   'P 1'
_cell_length_a   13.73700760
_cell_length_b   13.09619270
_cell_length_c   7.19923713
_cell_angle_alpha   79.41635894
_cell_angle_beta   69.57546336
_cell_angle_gamma   31.00817770
_symmetry_Int_Tables_number   1
_chemical_formula_structural   Sc2Te3
_chemical_formula_sum   'Sc8 Te12'
_cell_volume   607.13314525
_cell_formula_units_Z   4
loop_
 _symmetry_equiv_pos_site_id
 _symmetry_equiv_pos_as_xyz
  1  'x, y, z'
loop_
 _atom_site_type_symbol
 _atom_site_label
 _atom_site_symmetry_multiplicity
 _atom_site_fract_x
 _atom_site_fract_y
 _atom_site_fract_z
 _atom_site_occupancy
  Sc  Sc0  1  0.33204900  0.33204900  0.16795100  1
  Sc  Sc1  1  0.16795100  0.16795100  0.33204900  1
  Sc  Sc2  1  0.91795100  0.91795100  0.08204900  1
  Sc  Sc3  1  0.08204900  0.08204900  0.91795100  1
  Sc  Sc4  1  0.00042700  0.00042700  0.49957300  1
  Sc  Sc5  1  0.49957300  0.49957300  0.00042700  1
  Sc  Sc6  1  0.24957300  0.24957300  0.75042700  1
  Sc  Sc7  1  0.75042700  0.75042700  0.24957300  1
  Te  Te8  1  0.99758200  0.50241800  0.50241800  1
  Te  Te9  1  0.50241800  0.99758200  0.99758200  1
  Te  Te10  1  0.25241800  0.74758200  0.74758200  1
  Te  Te11  1  0.74758200  0.25241800  0.25241800  1
  Te  Te12  1  0.66664600  0.16736600  0.83424400  1
  Te  Te13  1  0.33174300  0.83424400  0.16736600  1
  Te  Te14  1  0.83424400  0.33174300  0.66664600  1
  Te  Te15  1  0.16736600  0.66664600  0.33174300  1
  Te  Te16  1  0.58335400  0.08263400  0.41575600  1
  Te  Te17  1  0.91825700  0.41575600  0.08263400  1
  Te  Te18  1  0.41575600  0.91825700  0.58335400  1
  Te  Te19  1  0.08263400  0.58335400  0.91825700  1
