# generated using pymatgen
data_Mo3N2O11
_symmetry_space_group_name_H-M   'P 1'
_cell_length_a   8.14333600
_cell_length_b   8.70232300
_cell_length_c   10.26024853
_cell_angle_alpha   76.36848769
_cell_angle_beta   90.00000000
_cell_angle_gamma   90.00000000
_symmetry_Int_Tables_number   1
_chemical_formula_structural   Mo3N2O11
_chemical_formula_sum   'Mo6 N4 O22'
_cell_volume   706.62080119
_cell_formula_units_Z   2
loop_
 _symmetry_equiv_pos_site_id
 _symmetry_equiv_pos_as_xyz
  1  'x, y, z'
loop_
 _atom_site_type_symbol
 _atom_site_label
 _atom_site_symmetry_multiplicity
 _atom_site_fract_x
 _atom_site_fract_y
 _atom_site_fract_z
 _atom_site_occupancy
  Mo  Mo0  1  0.56617500  0.02734300  0.18933700  1
  Mo  Mo1  1  0.06617500  0.97265700  0.81066300  1
  Mo  Mo2  1  0.43382500  0.97265700  0.81066300  1
  Mo  Mo3  1  0.93382500  0.02734300  0.18933700  1
  Mo  Mo4  1  0.25000000  0.70127500  0.16144000  1
  Mo  Mo5  1  0.75000000  0.29872500  0.83856000  1
  N  N6  1  0.58176500  0.10697900  0.89980300  1
  N  N7  1  0.08176500  0.89302100  0.10019700  1
  N  N8  1  0.41823500  0.89302100  0.10019700  1
  N  N9  1  0.91823500  0.10697900  0.89980300  1
  O  O10  1  0.51026900  0.76317700  0.15154900  1
  O  O11  1  0.01026900  0.23682300  0.84845100  1
  O  O12  1  0.48973100  0.23682300  0.84845100  1
  O  O13  1  0.98973100  0.76317700  0.15154900  1
  O  O14  1  0.25000000  0.62902000  0.33187200  1
  O  O15  1  0.75000000  0.37098000  0.66812800  1
  O  O16  1  0.25000000  0.55037500  0.07972400  1
  O  O17  1  0.75000000  0.44962500  0.92027600  1
  O  O18  1  0.51474600  0.22369800  0.14707300  1
  O  O19  1  0.01474600  0.77630200  0.85292700  1
  O  O20  1  0.48525400  0.77630200  0.85292700  1
  O  O21  1  0.98525400  0.22369800  0.14707300  1
  O  O22  1  0.54561700  0.96328600  0.35908000  1
  O  O23  1  0.04561700  0.03671400  0.64092000  1
  O  O24  1  0.45438300  0.03671400  0.64092000  1
  O  O25  1  0.95438300  0.96328600  0.35908000  1
  O  O26  1  0.38529700  0.30967700  0.43244500  1
  O  O27  1  0.88529700  0.69032300  0.56755500  1
  O  O28  1  0.61470300  0.69032300  0.56755500  1
  O  O29  1  0.11470300  0.30967700  0.43244500  1
  O  O30  1  0.25000000  0.28004900  0.37871000  1
  O  O31  1  0.75000000  0.71995100  0.62129000  1
