# generated using pymatgen
data_Al2H18SO15
_symmetry_space_group_name_H-M   'P 1'
_cell_length_a   15.80647700
_cell_length_b   7.54098300
_cell_length_c   11.78292121
_cell_angle_alpha   69.40363848
_cell_angle_beta   90.00000000
_cell_angle_gamma   90.00000000
_symmetry_Int_Tables_number   1
_chemical_formula_structural   Al2H18SO15
_chemical_formula_sum   'Al8 H72 S4 O60'
_cell_volume   1314.70966665
_cell_formula_units_Z   4
loop_
 _symmetry_equiv_pos_site_id
 _symmetry_equiv_pos_as_xyz
  1  'x, y, z'
loop_
 _atom_site_type_symbol
 _atom_site_label
 _atom_site_symmetry_multiplicity
 _atom_site_fract_x
 _atom_site_fract_y
 _atom_site_fract_z
 _atom_site_occupancy
  Al  Al0  1  0.95306200  0.34316800  0.97620700  1
  Al  Al1  1  0.45306200  0.65683200  0.52379300  1
  Al  Al2  1  0.04693800  0.65683200  0.02379300  1
  Al  Al3  1  0.54693800  0.34316800  0.47620700  1
  Al  Al4  1  0.96586300  0.92748200  0.12783600  1
  Al  Al5  1  0.46586300  0.07251800  0.37216400  1
  Al  Al6  1  0.03413700  0.07251800  0.87216400  1
  Al  Al7  1  0.53413700  0.92748200  0.62783600  1
  H  H8  1  0.09837100  0.13963600  0.05613500  1
  H  H9  1  0.59837100  0.86036400  0.44386500  1
  H  H10  1  0.90162900  0.86036400  0.94386500  1
  H  H11  1  0.40162900  0.13963600  0.55613500  1
  H  H12  1  0.93622500  0.34974700  0.76263100  1
  H  H13  1  0.43622500  0.65025300  0.73736900  1
  H  H14  1  0.06377500  0.65025300  0.23736900  1
  H  H15  1  0.56377500  0.34974700  0.26263100  1
  H  H16  1  0.84081800  0.13659700  0.12338100  1
  H  H17  1  0.34081800  0.86340300  0.37661900  1
  H  H18  1  0.15918200  0.86340300  0.87661900  1
  H  H19  1  0.65918200  0.13659700  0.62338100  1
  H  H20  1  0.04270900  0.60417400  0.81865100  1
  H  H21  1  0.54270900  0.39582600  0.68134900  1
  H  H22  1  0.95729100  0.39582600  0.18134900  1
  H  H23  1  0.45729100  0.60417400  0.31865100  1
  H  H24  1  0.83187500  0.61014400  0.90448300  1
  H  H25  1  0.33187500  0.38985600  0.59551700  1
  H  H26  1  0.16812500  0.38985600  0.09551700  1
  H  H27  1  0.66812500  0.61014400  0.40448300  1
  H  H28  1  0.79715100  0.40478700  0.90728000  1
  H  H29  1  0.29715100  0.59521300  0.59272000  1
  H  H30  1  0.20284900  0.59521300  0.09272000  1
  H  H31  1  0.70284900  0.40478700  0.40728000  1
  H  H32  1  0.81748700  0.75098400  0.17358900  1
  H  H33  1  0.31748700  0.24901600  0.32641100  1
  H  H34  1  0.18251300  0.24901600  0.82641100  1
  H  H35  1  0.68251300  0.75098400  0.67358900  1
  H  H36  1  0.88091200  0.66034700  0.28934400  1
  H  H37  1  0.38091200  0.33965300  0.21065600  1
  H  H38  1  0.11908800  0.33965300  0.71065600  1
  H  H39  1  0.61908800  0.66034700  0.78934400  1
  H  H40  1  0.96690800  0.06299900  0.30537700  1
  H  H41  1  0.46690800  0.93700100  0.19462300  1
  H  H42  1  0.03309200  0.93700100  0.69462300  1
  H  H43  1  0.53309200  0.06299900  0.80537700  1
  H  H44  1  0.03839700  0.90183300  0.33946800  1
  H  H45  1  0.53839700  0.09816700  0.16053200  1
  H  H46  1  0.96160300  0.09816700  0.66053200  1
  H  H47  1  0.46160300  0.90183300  0.83946800  1
  H  H48  1  0.76266100  0.20657800  0.26495600  1
  H  H49  1  0.26266100  0.79342200  0.23504400  1
  H  H50  1  0.23733900  0.79342200  0.73504400  1
  H  H51  1  0.73733900  0.20657800  0.76495600  1
  H  H52  1  0.70272100  0.17793300  0.16053500  1
  H  H53  1  0.20272100  0.82206700  0.33946500  1
  H  H54  1  0.29727900  0.82206700  0.83946500  1
  H  H55  1  0.79727900  0.17793300  0.66053500  1
  H  H56  1  0.67333900  0.66184800  0.12472200  1
  H  H57  1  0.17333900  0.33815200  0.37527800  1
  H  H58  1  0.32666100  0.33815200  0.87527800  1
  H  H59  1  0.82666100  0.66184800  0.62472200  1
  H  H60  1  0.69240600  0.87468700  0.10656000  1
  H  H61  1  0.19240600  0.12531300  0.39344000  1
  H  H62  1  0.30759400  0.12531300  0.89344000  1
  H  H63  1  0.80759400  0.87468700  0.60656000  1
  H  H64  1  0.78294500  0.92911400  0.82738500  1
  H  H65  1  0.28294500  0.07088600  0.67261500  1
  H  H66  1  0.21705500  0.07088600  0.17261500  1
  H  H67  1  0.71705500  0.92911400  0.32738500  1
  H  H68  1  0.76700000  0.80458300  0.96830100  1
  H  H69  1  0.26700000  0.19541700  0.53169900  1
  H  H70  1  0.23300000  0.19541700  0.03169900  1
  H  H71  1  0.73300000  0.80458300  0.46830100  1
  H  H72  1  0.91227100  0.52070300  0.55318700  1
  H  H73  1  0.41227100  0.47929700  0.94681300  1
  H  H74  1  0.08772900  0.47929700  0.44681300  1
  H  H75  1  0.58772900  0.52070300  0.05318700  1
  H  H76  1  0.96266200  0.62258000  0.63093500  1
  H  H77  1  0.46266200  0.37742000  0.86906500  1
  H  H78  1  0.03733800  0.37742000  0.36906500  1
  H  H79  1  0.53733800  0.62258000  0.13093500  1
  S  S80  1  0.87522600  0.29664900  0.42865600  1
  S  S81  1  0.37522600  0.70335100  0.07134400  1
  S  S82  1  0.12477400  0.70335100  0.57134400  1
  S  S83  1  0.62477400  0.29664900  0.92865600  1
  O  O84  1  0.78996500  0.28644400  0.37834700  1
  O  O85  1  0.28996500  0.71355600  0.12165300  1
  O  O86  1  0.21003500  0.71355600  0.62165300  1
  O  O87  1  0.71003500  0.28644400  0.87834700  1
  O  O88  1  0.89156000  0.49479200  0.42386400  1
  O  O89  1  0.39156000  0.50520800  0.07613600  1
  O  O90  1  0.10844000  0.50520800  0.57613600  1
  O  O91  1  0.60844000  0.49479200  0.92386400  1
  O  O92  1  0.94227900  0.24691900  0.35475200  1
  O  O93  1  0.44227900  0.75308100  0.14524800  1
  O  O94  1  0.05772100  0.75308100  0.64524800  1
  O  O95  1  0.55772100  0.24691900  0.85475200  1
  O  O96  1  0.87975800  0.16525200  0.55756700  1
  O  O97  1  0.37975800  0.83474800  0.94243300  1
  O  O98  1  0.12024200  0.83474800  0.44243300  1
  O  O99  1  0.62024200  0.16525200  0.05756700  1
  O  O100  1  0.04110400  0.12815600  0.02318100  1
  O  O101  1  0.54110400  0.87184400  0.47681900  1
  O  O102  1  0.95889600  0.87184400  0.97681900  1
  O  O103  1  0.45889600  0.12815600  0.52318100  1
  O  O104  1  0.95304300  0.25841700  0.84259600  1
  O  O105  1  0.45304300  0.74158300  0.65740400  1
  O  O106  1  0.04695700  0.74158300  0.15740400  1
  O  O107  1  0.54695700  0.25841700  0.34259600  1
  O  O108  1  0.89370400  0.13174900  0.07981300  1
  O  O109  1  0.39370400  0.86825100  0.42018700  1
  O  O110  1  0.10629600  0.86825100  0.92018700  1
  O  O111  1  0.60629600  0.13174900  0.57981300  1
  O  O112  1  0.02345700  0.55396100  0.90258100  1
  O  O113  1  0.52345700  0.44603900  0.59741900  1
  O  O114  1  0.97654300  0.44603900  0.09741900  1
  O  O115  1  0.47654300  0.55396100  0.40258100  1
  O  O116  1  0.84747600  0.47423400  0.92029200  1
  O  O117  1  0.34747600  0.52576600  0.57970800  1
  O  O118  1  0.15252400  0.52576600  0.07970800  1
  O  O119  1  0.65252400  0.47423400  0.42029200  1
  O  O120  1  0.87499000  0.75879700  0.20632700  1
  O  O121  1  0.37499000  0.24120300  0.29367300  1
  O  O122  1  0.12501000  0.24120300  0.79367300  1
  O  O123  1  0.62501000  0.75879700  0.70632700  1
  O  O124  1  0.99342900  0.96401000  0.27937100  1
  O  O125  1  0.49342900  0.03599000  0.22062900  1
  O  O126  1  0.00657100  0.03599000  0.72062900  1
  O  O127  1  0.50657100  0.96401000  0.77937100  1
  O  O128  1  0.75180800  0.12762400  0.21421700  1
  O  O129  1  0.25180800  0.87237600  0.28578300  1
  O  O130  1  0.24819200  0.87237600  0.78578300  1
  O  O131  1  0.74819200  0.12762400  0.71421700  1
  O  O132  1  0.72083400  0.75884700  0.10829900  1
  O  O133  1  0.22083400  0.24115300  0.39170100  1
  O  O134  1  0.27916600  0.24115300  0.89170100  1
  O  O135  1  0.77916600  0.75884700  0.60829900  1
  O  O136  1  0.80527000  0.82078000  0.89805100  1
  O  O137  1  0.30527000  0.17922000  0.60194900  1
  O  O138  1  0.19473000  0.17922000  0.10194900  1
  O  O139  1  0.69473000  0.82078000  0.39805100  1
  O  O140  1  0.91283900  0.54255000  0.63253500  1
  O  O141  1  0.41283900  0.45745000  0.86746500  1
  O  O142  1  0.08716100  0.45745000  0.36746500  1
  O  O143  1  0.58716100  0.54255000  0.13253500  1
