# generated using pymatgen
data_Lu2H16S3O20
_symmetry_space_group_name_H-M   'P 1'
_cell_length_a   8.09293882
_cell_length_b   8.09293882
_cell_length_c   18.45950049
_cell_angle_alpha   74.03487671
_cell_angle_beta   74.03487671
_cell_angle_gamma   48.28558463
_symmetry_Int_Tables_number   1
_chemical_formula_structural   Lu2H16S3O20
_chemical_formula_sum   'Lu4 H32 S6 O40'
_cell_volume   860.52294245
_cell_formula_units_Z   2
loop_
 _symmetry_equiv_pos_site_id
 _symmetry_equiv_pos_as_xyz
  1  'x, y, z'
loop_
 _atom_site_type_symbol
 _atom_site_label
 _atom_site_symmetry_multiplicity
 _atom_site_fract_x
 _atom_site_fract_y
 _atom_site_fract_z
 _atom_site_occupancy
  Lu  Lu0  1  0.16442000  0.17874500  0.62061600  1
  Lu  Lu1  1  0.82125500  0.83558000  0.87938400  1
  Lu  Lu2  1  0.83558000  0.82125500  0.37938400  1
  Lu  Lu3  1  0.17874500  0.16442000  0.12061600  1
  H  H4  1  0.47274000  0.26441900  0.52360300  1
  H  H5  1  0.73558100  0.52726000  0.97639700  1
  H  H6  1  0.52726000  0.73558100  0.47639700  1
  H  H7  1  0.26441900  0.47274000  0.02360300  1
  H  H8  1  0.22987200  0.47612700  0.50849700  1
  H  H9  1  0.52387300  0.77012800  0.99150300  1
  H  H10  1  0.77012800  0.52387300  0.49150300  1
  H  H11  1  0.47612700  0.22987200  0.00849700  1
  H  H12  1  0.24739800  0.21968000  0.75818900  1
  H  H13  1  0.78032000  0.75260200  0.74181100  1
  H  H14  1  0.75260200  0.78032000  0.24181100  1
  H  H15  1  0.21968000  0.24739800  0.25818900  1
  H  H16  1  0.36994200  0.28323700  0.68682600  1
  H  H17  1  0.71676300  0.63005800  0.81317400  1
  H  H18  1  0.63005800  0.71676300  0.31317400  1
  H  H19  1  0.28323700  0.36994200  0.18682600  1
  H  H20  1  0.08710000  0.71451000  0.76544900  1
  H  H21  1  0.28549000  0.91290000  0.73455100  1
  H  H22  1  0.91290000  0.28549000  0.23455100  1
  H  H23  1  0.71451000  0.08710000  0.26544900  1
  H  H24  1  0.82534200  0.06110500  0.55679400  1
  H  H25  1  0.93889500  0.17465800  0.94320600  1
  H  H26  1  0.17465800  0.93889500  0.44320600  1
  H  H27  1  0.06110500  0.82534200  0.05679400  1
  H  H28  1  0.04793000  0.91189700  0.64248300  1
  H  H29  1  0.08810300  0.95207000  0.85751700  1
  H  H30  1  0.95207000  0.08810300  0.35751700  1
  H  H31  1  0.91189700  0.04793000  0.14248300  1
  H  H32  1  0.31177400  0.71077900  0.66099100  1
  H  H33  1  0.28922100  0.68822600  0.83900900  1
  H  H34  1  0.68822600  0.28922100  0.33900900  1
  H  H35  1  0.71077900  0.31177400  0.16099100  1
  S  S36  1  0.22266400  0.24056300  0.41991600  1
  S  S37  1  0.75943700  0.77733600  0.08008400  1
  S  S38  1  0.77733600  0.75943700  0.58008400  1
  S  S39  1  0.24056300  0.22266400  0.91991600  1
  S  S40  1  0.65616700  0.34383300  0.75000000  1
  S  S41  1  0.34383300  0.65616700  0.25000000  1
  O  O42  1  0.15139000  0.16080700  0.49565100  1
  O  O43  1  0.83919300  0.84861000  0.00434900  1
  O  O44  1  0.84861000  0.83919300  0.50434900  1
  O  O45  1  0.16080700  0.15139000  0.99565100  1
  O  O46  1  0.46802100  0.10072600  0.40834500  1
  O  O47  1  0.89927400  0.53197900  0.09165500  1
  O  O48  1  0.53197900  0.89927400  0.59165500  1
  O  O49  1  0.10072600  0.46802100  0.90834500  1
  O  O50  1  0.12342800  0.47464800  0.42074100  1
  O  O51  1  0.52535200  0.87657200  0.07925900  1
  O  O52  1  0.87657200  0.52535200  0.57925900  1
  O  O53  1  0.47464800  0.12342800  0.92074100  1
  O  O54  1  0.13857100  0.23594500  0.35896500  1
  O  O55  1  0.76405500  0.86142900  0.14103500  1
  O  O56  1  0.86142900  0.76405500  0.64103500  1
  O  O57  1  0.23594500  0.13857100  0.85896500  1
  O  O58  1  0.87387300  0.29170000  0.71301200  1
  O  O59  1  0.70830000  0.12612700  0.78698800  1
  O  O60  1  0.12612700  0.70830000  0.28698800  1
  O  O61  1  0.29170000  0.87387300  0.21301200  1
  O  O62  1  0.50098800  0.44738800  0.69355400  1
  O  O63  1  0.55261200  0.49901200  0.80644600  1
  O  O64  1  0.49901200  0.55261200  0.30644600  1
  O  O65  1  0.44738800  0.50098800  0.19355400  1
  O  O66  1  0.31920200  0.35762800  0.54814000  1
  O  O67  1  0.64237200  0.68079800  0.95186000  1
  O  O68  1  0.68079800  0.64237200  0.45186000  1
  O  O69  1  0.35762800  0.31920200  0.04814000  1
  O  O70  1  0.26748700  0.24989200  0.70199300  1
  O  O71  1  0.75010800  0.73251300  0.79800700  1
  O  O72  1  0.73251300  0.75010800  0.29800700  1
  O  O73  1  0.24989200  0.26748700  0.20199300  1
  O  O74  1  0.22497600  0.89975300  0.39122700  1
  O  O75  1  0.10024700  0.77502400  0.10877300  1
  O  O76  1  0.77502400  0.10024700  0.60877300  1
  O  O77  1  0.89975300  0.22497600  0.89122700  1
  O  O78  1  0.19640300  0.87027300  0.63883700  1
  O  O79  1  0.12972700  0.80359700  0.86116300  1
  O  O80  1  0.80359700  0.12972700  0.36116300  1
  O  O81  1  0.87027300  0.19640300  0.13883700  1
