# generated using pymatgen
data_K8TeP8(H5O16)2
_symmetry_space_group_name_H-M   'P 1'
_cell_length_a   7.61752200
_cell_length_b   10.83141132
_cell_length_c   11.56734699
_cell_angle_alpha   66.93870948
_cell_angle_beta   79.73819977
_cell_angle_gamma   71.23016804
_symmetry_Int_Tables_number   1
_chemical_formula_structural   K8TeP8(H5O16)2
_chemical_formula_sum   'K8 Te1 P8 H10 O32'
_cell_volume   829.94589547
_cell_formula_units_Z   1
loop_
 _symmetry_equiv_pos_site_id
 _symmetry_equiv_pos_as_xyz
  1  'x, y, z'
loop_
 _atom_site_type_symbol
 _atom_site_label
 _atom_site_symmetry_multiplicity
 _atom_site_fract_x
 _atom_site_fract_y
 _atom_site_fract_z
 _atom_site_occupancy
  K  K0  1  0.25788500  0.10816500  0.55952000  1
  K  K1  1  0.74211500  0.89183500  0.44048000  1
  K  K2  1  0.07883300  0.61778000  0.02366000  1
  K  K3  1  0.92116700  0.38222000  0.97634000  1
  K  K4  1  0.83889000  0.41285200  0.64213500  1
  K  K5  1  0.16111000  0.58714800  0.35786500  1
  K  K6  1  0.37149100  0.08484300  0.15113900  1
  K  K7  1  0.62850900  0.91515700  0.84886100  1
  Te  Te8  1  0.00000000  0.00000000  0.00000000  1
  P  P9  1  0.43509000  0.71726800  0.71961000  1
  P  P10  1  0.56491000  0.28273200  0.28039000  1
  P  P11  1  0.43091000  0.41947800  0.86280500  1
  P  P12  1  0.56909000  0.58052200  0.13719500  1
  P  P13  1  0.36995900  0.31861500  0.67183900  1
  P  P14  1  0.63004100  0.68138500  0.32816100  1
  P  P15  1  0.70968700  0.19460600  0.53330000  1
  P  P16  1  0.29031300  0.80539400  0.46670000  1
  H  H17  1  0.17598500  0.15717000  0.83678200  1
  H  H18  1  0.82401500  0.84283000  0.16321800  1
  H  H19  1  0.30111700  0.82642600  0.06336500  1
  H  H20  1  0.69888300  0.17357400  0.93663500  1
  H  H21  1  0.14374800  0.88850900  0.83847700  1
  H  H22  1  0.85625200  0.11149100  0.16152300  1
  H  H23  1  0.83586800  0.65705000  0.74426900  1
  H  H24  1  0.16413200  0.34295000  0.25573100  1
  H  H25  1  0.96023800  0.32874900  0.28126300  1
  H  H26  1  0.03976200  0.67125100  0.71873700  1
  O  O27  1  0.96057100  0.83462100  0.13956400  1
  O  O28  1  0.03942900  0.16537900  0.86043600  1
  O  O29  1  0.26632800  0.93142200  0.02227200  1
  O  O30  1  0.73367200  0.06857800  0.97772800  1
  O  O31  1  0.01999000  0.90009900  0.88622300  1
  O  O32  1  0.98001000  0.09990100  0.11377700  1
  O  O33  1  0.63542100  0.68017500  0.67302900  1
  O  O34  1  0.36457900  0.31982500  0.32697100  1
  O  O35  1  0.63975800  0.15760400  0.24107600  1
  O  O36  1  0.36024200  0.84239600  0.75892400  1
  O  O37  1  0.61343300  0.41407300  0.16251100  1
  O  O38  1  0.38656700  0.58592700  0.83748900  1
  O  O39  1  0.29916000  0.72906600  0.61973800  1
  O  O40  1  0.70084000  0.27093400  0.38026200  1
  O  O41  1  0.29486200  0.36679800  0.96619800  1
  O  O42  1  0.70513800  0.63320200  0.03380200  1
  O  O43  1  0.63631500  0.35074200  0.87592500  1
  O  O44  1  0.36368500  0.64925800  0.12407500  1
  O  O45  1  0.62096200  0.56735900  0.27293500  1
  O  O46  1  0.37903800  0.43264100  0.72706500  1
  O  O47  1  0.38369400  0.17859700  0.77584600  1
  O  O48  1  0.61630600  0.82140300  0.22415400  1
  O  O49  1  0.79299600  0.61787100  0.40864500  1
  O  O50  1  0.20700400  0.38212900  0.59135500  1
  O  O51  1  0.43891100  0.68487000  0.41809000  1
  O  O52  1  0.56108900  0.31513000  0.58191000  1
  O  O53  1  0.64171100  0.06706400  0.57623800  1
  O  O54  1  0.35828900  0.93293600  0.42376200  1
  O  O55  1  0.10367600  0.81024000  0.43954000  1
  O  O56  1  0.89632400  0.18976000  0.56046000  1
  O  O57  1  0.04902900  0.36386900  0.21423600  1
  O  O58  1  0.95097100  0.63613100  0.78576400  1
