# generated using pymatgen
data_SiH14C4S2(N4F3)2
_symmetry_space_group_name_H-M   'P 1'
_cell_length_a   6.61682400
_cell_length_b   7.50209353
_cell_length_c   8.02633560
_cell_angle_alpha   83.79520917
_cell_angle_beta   83.44462468
_cell_angle_gamma   66.69962045
_symmetry_Int_Tables_number   1
_chemical_formula_structural   SiH14C4S2(N4F3)2
_chemical_formula_sum   'Si1 H14 C4 S2 N8 F6'
_cell_volume   362.67530550
_cell_formula_units_Z   1
loop_
 _symmetry_equiv_pos_site_id
 _symmetry_equiv_pos_as_xyz
  1  'x, y, z'
loop_
 _atom_site_type_symbol
 _atom_site_label
 _atom_site_symmetry_multiplicity
 _atom_site_fract_x
 _atom_site_fract_y
 _atom_site_fract_z
 _atom_site_occupancy
  Si  Si0  1  0.50000000  0.50000000  0.00000000  1
  H  H1  1  0.88930100  0.36203500  0.22490100  1
  H  H2  1  0.11069900  0.63796500  0.77509900  1
  H  H3  1  0.22489200  0.57622900  0.35736400  1
  H  H4  1  0.77510800  0.42377100  0.64263600  1
  H  H5  1  0.65316800  0.04299100  0.62213900  1
  H  H6  1  0.34683200  0.95700900  0.37786100  1
  H  H7  1  0.22700500  0.02628900  0.95434500  1
  H  H8  1  0.77299500  0.97371100  0.04565500  1
  H  H9  1  0.29975000  0.49767000  0.56505900  1
  H  H10  1  0.70025000  0.50233000  0.43494100  1
  H  H11  1  0.42619100  0.85942600  0.17463200  1
  H  H12  1  0.57380900  0.14057400  0.82536800  1
  H  H13  1  0.00193100  0.24841100  0.97541000  1
  H  H14  1  0.99806900  0.75158900  0.02459000  1
  C  C15  1  0.16579400  0.11873200  0.18870600  1
  C  C16  1  0.83420600  0.88126800  0.81129400  1
  C  C17  1  0.00695600  0.73454300  0.53931900  1
  C  C18  1  0.99304400  0.26545700  0.46068100  1
  S  S19  1  0.17808500  0.12017900  0.59299700  1
  S  S20  1  0.82191500  0.87982100  0.40700300  1
  N  N21  1  0.66723600  0.03149500  0.75006900  1
  N  N22  1  0.33276400  0.96850500  0.24993100  1
  N  N23  1  0.19731300  0.59591600  0.48338600  1
  N  N24  1  0.80268700  0.40408400  0.51661400  1
  N  N25  1  0.01744400  0.25937500  0.28722400  1
  N  N26  1  0.98255600  0.74062500  0.71277600  1
  N  N27  1  0.13478100  0.13968000  0.02588500  1
  N  N28  1  0.86521900  0.86032000  0.97411500  1
  F  F29  1  0.24932200  0.54549600  0.11393600  1
  F  F30  1  0.75067800  0.45450400  0.88606400  1
  F  F31  1  0.58630300  0.25864100  0.06613200  1
  F  F32  1  0.41369700  0.74135900  0.93386800  1
  F  F33  1  0.60599000  0.54405700  0.17244600  1
  F  F34  1  0.39401000  0.45594300  0.82755400  1
