# generated using pymatgen
data_V2H15(NO4)3
_symmetry_space_group_name_H-M   'P 1'
_cell_length_a   10.65949000
_cell_length_b   8.14240200
_cell_length_c   17.62585003
_cell_angle_alpha   85.39833749
_cell_angle_beta   90.00000000
_cell_angle_gamma   90.00000000
_symmetry_Int_Tables_number   1
_chemical_formula_structural   V2H15(NO4)3
_chemical_formula_sum   'V8 H60 N12 O48'
_cell_volume   1524.88414899
_cell_formula_units_Z   4
loop_
 _symmetry_equiv_pos_site_id
 _symmetry_equiv_pos_as_xyz
  1  'x, y, z'
loop_
 _atom_site_type_symbol
 _atom_site_label
 _atom_site_symmetry_multiplicity
 _atom_site_fract_x
 _atom_site_fract_y
 _atom_site_fract_z
 _atom_site_occupancy
  V  V0  1  0.19110200  0.77450700  0.93490900  1
  V  V1  1  0.69110200  0.22549300  0.56509100  1
  V  V2  1  0.80889800  0.22549300  0.06509100  1
  V  V3  1  0.30889800  0.77450700  0.43490900  1
  V  V4  1  0.40139400  0.72112500  0.80689700  1
  V  V5  1  0.90139400  0.27887500  0.69310300  1
  V  V6  1  0.59860600  0.27887500  0.19310300  1
  V  V7  1  0.09860600  0.72112500  0.30689700  1
  H  H8  1  0.33575200  0.64561500  0.68295600  1
  H  H9  1  0.83575200  0.35438500  0.81704400  1
  H  H10  1  0.66424800  0.35438500  0.31704400  1
  H  H11  1  0.16424800  0.64561500  0.18295600  1
  H  H12  1  0.25520800  0.29330300  0.61535400  1
  H  H13  1  0.75520800  0.70669700  0.88464600  1
  H  H14  1  0.74479200  0.70669700  0.38464600  1
  H  H15  1  0.24479200  0.29330300  0.11535400  1
  H  H16  1  0.41566600  0.24610800  0.60281000  1
  H  H17  1  0.91566600  0.75389200  0.89719000  1
  H  H18  1  0.58433400  0.75389200  0.39719000  1
  H  H19  1  0.08433400  0.24610800  0.10281000  1
  H  H20  1  0.08211900  0.04418800  0.83060500  1
  H  H21  1  0.58211900  0.95581200  0.66939500  1
  H  H22  1  0.91788100  0.95581200  0.16939500  1
  H  H23  1  0.41788100  0.04418800  0.33060500  1
  H  H24  1  0.64452200  0.77587800  0.72965800  1
  H  H25  1  0.14452200  0.22412200  0.77034200  1
  H  H26  1  0.35547800  0.22412200  0.27034200  1
  H  H27  1  0.85547800  0.77587800  0.22965800  1
  H  H28  1  0.34773100  0.42818500  0.55740500  1
  H  H29  1  0.84773100  0.57181500  0.94259500  1
  H  H30  1  0.65226900  0.57181500  0.44259500  1
  H  H31  1  0.15226900  0.42818500  0.05740500  1
  H  H32  1  0.60473400  0.93039000  0.49869000  1
  H  H33  1  0.10473400  0.06961000  0.00131000  1
  H  H34  1  0.39526600  0.06961000  0.50131000  1
  H  H35  1  0.89526600  0.93039000  0.99869000  1
  H  H36  1  0.79517900  0.54587000  0.64544400  1
  H  H37  1  0.29517900  0.45413000  0.85455600  1
  H  H38  1  0.20482100  0.45413000  0.35455600  1
  H  H39  1  0.70482100  0.54587000  0.14544400  1
  H  H40  1  0.09675800  0.17546700  0.65455300  1
  H  H41  1  0.59675800  0.82453300  0.84544700  1
  H  H42  1  0.90324200  0.82453300  0.34544700  1
  H  H43  1  0.40324200  0.17546700  0.15455300  1
  H  H44  1  0.09984300  0.79536000  0.60585600  1
  H  H45  1  0.59984300  0.20464000  0.89414400  1
  H  H46  1  0.90015700  0.20464000  0.39414400  1
  H  H47  1  0.40015700  0.79536000  0.10585600  1
  H  H48  1  0.15529500  0.67765500  0.79765900  1
  H  H49  1  0.65529500  0.32234500  0.70234100  1
  H  H50  1  0.84470500  0.32234500  0.20234100  1
  H  H51  1  0.34470500  0.67765500  0.29765900  1
  H  H52  1  0.88872600  0.62823400  0.69763500  1
  H  H53  1  0.38872600  0.37176600  0.80236500  1
  H  H54  1  0.11127400  0.37176600  0.30236500  1
  H  H55  1  0.61127400  0.62823400  0.19763500  1
  H  H56  1  0.41543300  0.28426000  0.93855500  1
  H  H57  1  0.91543300  0.71574000  0.56144500  1
  H  H58  1  0.58456700  0.71574000  0.06144500  1
  H  H59  1  0.08456700  0.28426000  0.43855500  1
  H  H60  1  0.38223000  0.11554500  0.98509300  1
  H  H61  1  0.88223000  0.88445500  0.51490700  1
  H  H62  1  0.61777000  0.88445500  0.01490700  1
  H  H63  1  0.11777000  0.11554500  0.48509300  1
  H  H64  1  0.55331200  0.24210300  0.04615000  1
  H  H65  1  0.05331200  0.75789700  0.45385000  1
  H  H66  1  0.44668800  0.75789700  0.95385000  1
  H  H67  1  0.94668800  0.24210300  0.54615000  1
  N  N68  1  0.34111000  0.32538900  0.59463900  1
  N  N69  1  0.84111000  0.67461100  0.90536100  1
  N  N70  1  0.65889000  0.67461100  0.40536100  1
  N  N71  1  0.15889000  0.32538900  0.09463900  1
  N  N72  1  0.65459100  0.87184800  0.68687600  1
  N  N73  1  0.15459100  0.12815200  0.81312400  1
  N  N74  1  0.34540900  0.12815200  0.31312400  1
  N  N75  1  0.84540900  0.87184800  0.18687600  1
  N  N76  1  0.14800800  0.75044000  0.65517000  1
  N  N77  1  0.64800800  0.24956000  0.84483000  1
  N  N78  1  0.85199200  0.24956000  0.34483000  1
  N  N79  1  0.35199200  0.75044000  0.15517000  1
  O  O80  1  0.06302100  0.87408100  0.89579000  1
  O  O81  1  0.56302100  0.12591900  0.60421000  1
  O  O82  1  0.93697900  0.12591900  0.10421000  1
  O  O83  1  0.43697900  0.87408100  0.39579000  1
  O  O84  1  0.21907600  0.65853400  0.83711600  1
  O  O85  1  0.71907600  0.34146600  0.66288400  1
  O  O86  1  0.78092400  0.34146600  0.16288400  1
  O  O87  1  0.28092400  0.65853400  0.33711600  1
  O  O88  1  0.15597000  0.00440400  0.03950500  1
  O  O89  1  0.65597000  0.99559600  0.46049500  1
  O  O90  1  0.84403000  0.99559600  0.96049500  1
  O  O91  1  0.34403000  0.00440400  0.53950500  1
  O  O92  1  0.25799100  0.94516500  0.99475100  1
  O  O93  1  0.75799100  0.05483500  0.50524900  1
  O  O94  1  0.74200900  0.05483500  0.00524900  1
  O  O95  1  0.24200900  0.94516500  0.49475100  1
  O  O96  1  0.38784100  0.59741200  0.72501700  1
  O  O97  1  0.88784100  0.40258800  0.77498300  1
  O  O98  1  0.61215900  0.40258800  0.27498300  1
  O  O99  1  0.11215900  0.59741200  0.22501700  1
  O  O100  1  0.38156000  0.41030800  0.85336900  1
  O  O101  1  0.88156000  0.58969200  0.64663100  1
  O  O102  1  0.61844000  0.58969200  0.14663100  1
  O  O103  1  0.11844000  0.41030800  0.35336900  1
  O  O104  1  0.38303300  0.90482800  0.76637900  1
  O  O105  1  0.88303300  0.09517200  0.73362100  1
  O  O106  1  0.61696700  0.09517200  0.23362100  1
  O  O107  1  0.11696700  0.90482800  0.26637900  1
  O  O108  1  0.25940400  0.09616700  0.84148400  1
  O  O109  1  0.75940400  0.90383300  0.65851600  1
  O  O110  1  0.74059600  0.90383300  0.15851600  1
  O  O111  1  0.24059600  0.09616700  0.34148400  1
  O  O112  1  0.14112700  0.62777300  0.99705700  1
  O  O113  1  0.64112700  0.37222700  0.50294300  1
  O  O114  1  0.85887300  0.37222700  0.00294300  1
  O  O115  1  0.35887300  0.62777300  0.49705700  1
  O  O116  1  0.57548300  0.71947900  0.82534400  1
  O  O117  1  0.07548300  0.28052100  0.67465600  1
  O  O118  1  0.42451700  0.28052100  0.17465600  1
  O  O119  1  0.92451700  0.71947900  0.32534400  1
  O  O120  1  0.44384500  0.20635800  0.98118200  1
  O  O121  1  0.94384500  0.79364200  0.51881800  1
  O  O122  1  0.55615500  0.79364200  0.01881800  1
  O  O123  1  0.05615500  0.20635800  0.48118200  1
  O  O124  1  0.37698000  0.74405200  0.91642200  1
  O  O125  1  0.87698000  0.25594800  0.58357800  1
  O  O126  1  0.62302000  0.25594800  0.08357800  1
  O  O127  1  0.12302000  0.74405200  0.41642200  1
