# generated using pymatgen
data_H13C2Cl2O8F
_symmetry_space_group_name_H-M   'P 1'
_cell_length_a   9.47912600
_cell_length_b   9.65097362
_cell_length_c   9.70363617
_cell_angle_alpha   61.65097460
_cell_angle_beta   64.10241962
_cell_angle_gamma   63.58301370
_symmetry_Int_Tables_number   1
_chemical_formula_structural   H13C2Cl2O8F
_chemical_formula_sum   'H26 C4 Cl4 O16 F2'
_cell_volume   670.42550725
_cell_formula_units_Z   2
loop_
 _symmetry_equiv_pos_site_id
 _symmetry_equiv_pos_as_xyz
  1  'x, y, z'
loop_
 _atom_site_type_symbol
 _atom_site_label
 _atom_site_symmetry_multiplicity
 _atom_site_fract_x
 _atom_site_fract_y
 _atom_site_fract_z
 _atom_site_occupancy
  H  H0  1  0.46535600  0.49654900  0.32505700  1
  H  H1  1  0.53464400  0.50345100  0.67494300  1
  H  H2  1  0.54033600  0.32163700  0.31280900  1
  H  H3  1  0.45966400  0.67836300  0.68719100  1
  H  H4  1  0.72402800  0.35391200  0.36168600  1
  H  H5  1  0.27597200  0.64608800  0.63831400  1
  H  H6  1  0.51101700  0.86015400  0.20548600  1
  H  H7  1  0.48898300  0.13984600  0.79451400  1
  H  H8  1  0.13601100  0.78052600  0.32421700  1
  H  H9  1  0.86398900  0.21947400  0.67578300  1
  H  H10  1  0.96457000  0.84102200  0.98946200  1
  H  H11  1  0.03543000  0.15897800  0.01053800  1
  H  H12  1  0.77758700  0.90971100  0.11525000  1
  H  H13  1  0.22241300  0.09028900  0.88475000  1
  H  H14  1  0.92080100  0.25829900  0.59687100  1
  H  H15  1  0.07919900  0.74170100  0.40312900  1
  H  H16  1  0.87621400  0.48607700  0.32978200  1
  H  H17  1  0.12378600  0.51392300  0.67021800  1
  H  H18  1  0.90621800  0.71721400  0.19931100  1
  H  H19  1  0.09378200  0.28278600  0.80068900  1
  H  H20  1  0.88955700  0.08921200  0.21364600  1
  H  H21  1  0.11044300  0.91078800  0.78635400  1
  H  H22  1  0.95626100  0.07937000  0.24320300  1
  H  H23  1  0.04373900  0.92063000  0.75679700  1
  H  H24  1  0.77231300  0.62234900  0.41244200  1
  H  H25  1  0.22768700  0.37765100  0.58755800  1
  C  C26  1  0.35521200  0.19002000  0.21585100  1
  C  C27  1  0.64478800  0.80998000  0.78414900  1
  C  C28  1  0.54610600  0.11604300  0.18088900  1
  C  C29  1  0.45389400  0.88395700  0.81911100  1
  Cl  Cl30  1  0.27121600  0.11403300  0.43206700  1
  Cl  Cl31  1  0.72878400  0.88596700  0.56793300  1
  Cl  Cl32  1  0.29232800  0.40773400  0.13606600  1
  Cl  Cl33  1  0.70767200  0.59226600  0.86393400  1
  O  O34  1  0.60535000  0.97678100  0.15727700  1
  O  O35  1  0.39465000  0.02321900  0.84272300  1
  O  O36  1  0.62384900  0.18803100  0.18407700  1
  O  O37  1  0.37615100  0.81196900  0.81592300  1
  O  O38  1  0.51565400  0.38080600  0.38418000  1
  O  O39  1  0.48434600  0.61919400  0.61582000  1
  O  O40  1  0.44300800  0.73030700  0.15541300  1
  O  O41  1  0.55699200  0.26969300  0.84458700  1
  O  O42  1  0.87954500  0.58751700  0.33739700  1
  O  O43  1  0.12045500  0.41248300  0.66260300  1
  O  O44  1  0.84528500  0.33724100  0.33276000  1
  O  O45  1  0.15471500  0.66275900  0.66724000  1
  O  O46  1  0.90558800  0.84082900  0.10145700  1
  O  O47  1  0.09441200  0.15917100  0.89854300  1
  O  O48  1  0.45509100  0.76564100  0.26538800  1
  O  O49  1  0.54490900  0.23435900  0.73461200  1
  F  F50  1  0.29821100  0.13447400  0.14869800  1
  F  F51  1  0.70178900  0.86552600  0.85130200  1
