# generated using pymatgen
data_La5Sm3V2Cr6O20
_symmetry_space_group_name_H-M   'P 1'
_cell_length_a   11.12605185
_cell_length_b   11.30543278
_cell_length_c   17.91450954
_cell_angle_alpha   108.38005645
_cell_angle_beta   109.10958294
_cell_angle_gamma   89.96770801
_symmetry_Int_Tables_number   1
_chemical_formula_structural   La5Sm3V2Cr6O20
_chemical_formula_sum   'La20 Sm12 V8 Cr24 O80'
_cell_volume   2007.29314112
_cell_formula_units_Z   4
loop_
 _symmetry_equiv_pos_site_id
 _symmetry_equiv_pos_as_xyz
  1  'x, y, z'
loop_
 _atom_site_type_symbol
 _atom_site_label
 _atom_site_symmetry_multiplicity
 _atom_site_fract_x
 _atom_site_fract_y
 _atom_site_fract_z
 _atom_site_occupancy
  La  La0  1  0.31413289  0.05686293  0.62518962  1
  La  La1  1  0.29968370  0.56038437  0.61882136  1
  La  La2  1  0.81570279  0.06037310  0.62110650  1
  La  La3  1  0.81235823  0.56124522  0.61918751  1
  La  La4  1  0.18757607  0.43690172  0.37888513  1
  La  La5  1  0.19935548  0.43719103  0.87915855  1
  La  La6  1  0.18970827  0.94012403  0.38070337  1
  La  La7  1  0.68830307  0.43470980  0.38078641  1
  La  La8  1  0.68712905  0.94115308  0.38116481  1
  La  La9  1  0.05141236  0.31144938  0.12142882  1
  La  La10  1  0.06882084  0.30547879  0.62146133  1
  La  La11  1  0.06217772  0.81890701  0.62346990  1
  La  La12  1  0.54701713  0.31143054  0.62504483  1
  La  La13  1  0.44288517  0.18875468  0.37928429  1
  La  La14  1  0.44926693  0.18219094  0.87376977  1
  La  La15  1  0.44303459  0.69244693  0.38112569  1
  La  La16  1  0.43173818  0.67444140  0.87479493  1
  La  La17  1  0.92730135  0.19246861  0.37841032  1
  La  La18  1  0.95639748  0.18690610  0.87808495  1
  La  La19  1  0.94299735  0.68943116  0.38019679  1
  Sm  Sm20  1  0.29603099  0.06079720  0.11206148  1
  Sm  Sm21  1  0.29167529  0.56257954  0.11498764  1
  Sm  Sm22  1  0.79077827  0.05842361  0.11680309  1
  Sm  Sm23  1  0.80105378  0.56307991  0.11942652  1
  Sm  Sm24  1  0.19664718  0.94332936  0.88097411  1
  Sm  Sm25  1  0.71317298  0.43668847  0.88564697  1
  Sm  Sm26  1  0.70094011  0.94037445  0.87685489  1
  Sm  Sm27  1  0.04481553  0.80763277  0.11784013  1
  Sm  Sm28  1  0.54835764  0.30592448  0.11543008  1
  Sm  Sm29  1  0.54004317  0.81110124  0.12151873  1
  Sm  Sm30  1  0.55786594  0.81914103  0.62478918  1
  Sm  Sm31  1  0.95184031  0.69882632  0.88555474  1
  V  V32  1  0.11433755  0.63531125  0.75085358  1
  V  V33  1  0.62551813  0.12675318  0.75169417  1
  V  V34  1  0.61026153  0.62228753  0.75213010  1
  V  V35  1  0.37202598  0.39021385  0.24563869  1
  V  V36  1  0.36540933  0.36331101  0.75166801  1
  V  V37  1  0.37554566  0.85694663  0.75243958  1
  V  V38  1  0.86084269  0.38088759  0.75164947  1
  V  V39  1  0.85421183  0.88412121  0.24807141  1
  Cr  Cr40  1  0.00247340  0.00091584  0.00075080  1
  Cr  Cr41  1  0.00136982  0.99765807  0.49778794  1
  Cr  Cr42  1  0.00050757  0.50338083  0.00112879  1
  Cr  Cr43  1  0.99945011  0.50181028  0.49923043  1
  Cr  Cr44  1  0.50625561  0.99033759  0.99719661  1
  Cr  Cr45  1  0.50093722  -0.00039981  0.50148946  1
  Cr  Cr46  1  0.50463078  0.50070905  0.00141711  1
  Cr  Cr47  1  0.50258756  0.50127683  0.50416474  1
  Cr  Cr48  1  0.25805493  0.25066468  0.00099162  1
  Cr  Cr49  1  0.24873776  0.24802256  0.49844602  1
  Cr  Cr50  1  0.25018010  0.75159483  0.00089291  1
  Cr  Cr51  1  0.25305288  0.74809613  0.49902331  1
  Cr  Cr52  1  0.75262701  0.24828901  0.00052445  1
  Cr  Cr53  1  0.75287061  0.25106783  0.50625912  1
  Cr  Cr54  1  0.74715405  0.75003727  0.99866910  1
  Cr  Cr55  1  0.75042749  0.75003522  0.50021549  1
  Cr  Cr56  1  0.12016701  0.12594281  0.24787480  1
  Cr  Cr57  1  0.13584778  0.13703249  0.75071721  1
  Cr  Cr58  1  0.11978488  0.63124671  0.24921981  1
  Cr  Cr59  1  0.60995594  0.12906724  0.24257739  1
  Cr  Cr60  1  0.62164715  0.63037444  0.24724126  1
  Cr  Cr61  1  0.36298545  0.87642097  0.24861289  1
  Cr  Cr62  1  0.86040464  0.37233155  0.24648728  1
  Cr  Cr63  1  0.88097670  0.86884794  0.75012542  1
  O  O64  1  0.10806565  0.11313239  0.47122719  1
  O  O65  1  0.13296515  0.09533619  0.97860283  1
  O  O66  1  0.11626221  0.61228597  0.47704204  1
  O  O67  1  0.12393658  0.60230559  0.97297941  1
  O  O68  1  0.61464769  0.10987102  0.47873879  1
  O  O69  1  0.63649885  0.09281517  0.97688964  1
  O  O70  1  0.61850733  0.61379277  0.47890749  1
  O  O71  1  0.61831902  0.59121303  0.96056814  1
  O  O72  1  0.12340254  0.38268096  0.02742935  1
  O  O73  1  0.13302256  0.38362533  0.52151492  1
  O  O74  1  0.12116522  0.86953393  0.02452794  1
  O  O75  1  0.13784004  0.88232572  0.52322843  1
  O  O76  1  0.62816019  0.37344241  0.02769577  1
  O  O77  1  0.64085143  0.38746022  0.54002260  1
  O  O78  1  0.63052149  0.87432442  0.03930819  1
  O  O79  1  0.63564004  0.88252214  0.52806509  1
  O  O80  1  0.36356005  0.11279637  0.47758570  1
  O  O81  1  0.37566812  0.09976826  0.96032748  1
  O  O82  1  0.36055824  0.60936398  0.47079936  1
  O  O83  1  0.37834718  0.62811423  0.98131758  1
  O  O84  1  0.86442786  0.10869177  0.47683945  1
  O  O85  1  0.87675115  0.12315965  0.97078124  1
  O  O86  1  0.86400738  0.61509801  0.47391875  1
  O  O87  1  0.87656885  0.62591081  0.97310569  1
  O  O88  1  0.38493406  0.41139583  0.03417985  1
  O  O89  1  0.38296543  0.39197242  0.52885131  1
  O  O90  1  0.37410540  0.90099425  0.02465171  1
  O  O91  1  0.39008714  0.88538410  0.52507858  1
  O  O92  1  0.87021013  0.40694965  0.02495328  1
  O  O93  1  0.88432252  0.39431167  0.52229006  1
  O  O94  1  0.87427036  0.90920382  0.02741776  1
  O  O95  1  0.88595675  0.88834427  0.52212028  1
  O  O96  1  0.08901039  0.10560381  0.12412856  1
  O  O97  1  0.07609146  0.09352866  0.62347126  1
  O  O98  1  0.08444963  0.61035778  0.12449894  1
  O  O99  1  0.06871457  0.60694883  0.62278723  1
  O  O100  1  0.57509469  0.10653938  0.11890702  1
  O  O101  1  0.56619365  0.10211806  0.62424116  1
  O  O102  1  0.59565777  0.61528065  0.12380567  1
  O  O103  1  0.59556749  0.62924629  0.64390527  1
  O  O104  1  0.45204137  0.38410097  0.36379730  1
  O  O105  1  0.41729890  0.39531544  0.88057157  1
  O  O106  1  0.43771492  0.89910254  0.37564427  1
  O  O107  1  0.47364307  0.87810628  0.87834136  1
  O  O108  1  0.94065007  0.40006749  0.37393117  1
  O  O109  1  0.92565602  0.39467461  0.87806442  1
  O  O110  1  0.93724846  0.89565035  0.37302671  1
  O  O111  1  0.94880721  0.90031307  0.87569777  1
  O  O112  1  0.34133046  0.26675796  0.12577666  1
  O  O113  1  0.31437737  0.26669715  0.62193149  1
  O  O114  1  0.33008721  0.76898034  0.12460562  1
  O  O115  1  0.32952590  0.76936284  0.62228311  1
  O  O116  1  0.83248115  0.26314128  0.12347779  1
  O  O117  1  0.87018936  0.27460022  0.64327943  1
  O  O118  1  0.85669267  0.76626472  0.13851689  1
  O  O119  1  0.82817933  0.77473131  0.62489210  1
  O  O120  1  0.19852526  0.22753737  0.37429731  1
  O  O121  1  0.17389340  0.22892118  0.87494324  1
  O  O122  1  0.18379382  0.72924002  0.37541040  1
  O  O123  1  0.18912818  0.73749897  0.87884715  1
  O  O124  1  0.68939701  0.22080462  0.36720904  1
  O  O125  1  0.67672196  0.23212863  0.87899802  1
  O  O126  1  0.67908565  0.72795665  0.37491640  1
  O  O127  1  0.72662970  0.73458740  0.85608383  1
  O  O128  1  0.41461411  0.06744916  0.24260056  1
  O  O129  1  0.46157563  0.02390444  0.74838743  1
  O  O130  1  0.42549826  0.56743230  0.24245148  1
  O  O131  1  0.45124381  0.53062206  0.74373319  1
  O  O132  1  0.92126023  0.05712922  0.24630556  1
  O  O133  1  0.95846430  0.04937036  0.74640450  1
  O  O134  1  0.92425072  0.55969401  0.24580240  1
  O  O135  1  0.94247085  0.55668798  0.75692972  1
  O  O136  1  0.19270795  0.44443066  0.25075182  1
  O  O137  1  0.20388747  0.47083859  0.75225191  1
  O  O138  1  0.16768988  0.93381571  0.24673410  1
  O  O139  1  0.20947797  0.95058882  0.75583336  1
  O  O140  1  0.66007895  0.43281420  0.24521862  1
  O  O141  1  0.69439984  0.46201389  0.75837750  1
  O  O142  1  0.67603469  0.94291245  0.24848268  1
  O  O143  1  0.70646171  0.95066314  0.74932968  1
