# generated using pymatgen
data_PO2
_symmetry_space_group_name_H-M   'P 1'
_cell_length_a   3.43221513
_cell_length_b   3.43221513
_cell_length_c   9.84491740
_cell_angle_alpha   80.36868298
_cell_angle_beta   80.36868298
_cell_angle_gamma   45.92104045
_symmetry_Int_Tables_number   1
_chemical_formula_structural   PO2
_chemical_formula_sum   'P1 O2'
_cell_volume   81.92680659
_cell_formula_units_Z   1
loop_
 _symmetry_equiv_pos_site_id
 _symmetry_equiv_pos_as_xyz
  1  'x, y, z'
loop_
 _atom_site_type_symbol
 _atom_site_label
 _atom_site_symmetry_multiplicity
 _atom_site_fract_x
 _atom_site_fract_y
 _atom_site_fract_z
 _atom_site_occupancy
  P  P0  1  0.90195000  0.90195000  0.01031000  1
  O  O1  1  0.41128000  0.41128000  0.90396900  1
  O  O2  1  0.68577000  0.68577000  0.10572100  1
