# generated using pymatgen
data_K(CrS2)2
_symmetry_space_group_name_H-M   'P 1'
_cell_length_a   11.47610400
_cell_length_b   8.09552600
_cell_length_c   12.14085000
_cell_angle_alpha   90.00000000
_cell_angle_beta   90.00000000
_cell_angle_gamma   90.00000000
_symmetry_Int_Tables_number   1
_chemical_formula_structural   K(CrS2)2
_chemical_formula_sum   'K8 Cr16 S32'
_cell_volume   1127.94686283
_cell_formula_units_Z   8
loop_
 _symmetry_equiv_pos_site_id
 _symmetry_equiv_pos_as_xyz
  1  'x, y, z'
loop_
 _atom_site_type_symbol
 _atom_site_label
 _atom_site_symmetry_multiplicity
 _atom_site_fract_x
 _atom_site_fract_y
 _atom_site_fract_z
 _atom_site_occupancy
  K  K0  1  0.06325200  0.37558900  0.66282500  1
  K  K1  1  0.93674800  0.62441100  0.16282500  1
  K  K2  1  0.43674800  0.37558900  0.16282500  1
  K  K3  1  0.56325200  0.62441100  0.66282500  1
  K  K4  1  0.09756300  0.87472200  0.33653800  1
  K  K5  1  0.90243700  0.12527800  0.83653800  1
  K  K6  1  0.40243700  0.87472200  0.83653800  1
  K  K7  1  0.59756300  0.12527800  0.33653800  1
  Cr  Cr8  1  0.11500000  0.85143700  0.69482400  1
  Cr  Cr9  1  0.88500000  0.14856300  0.19482400  1
  Cr  Cr10  1  0.38500000  0.85143700  0.19482400  1
  Cr  Cr11  1  0.61500000  0.14856300  0.69482400  1
  Cr  Cr12  1  0.13937800  0.34548100  0.32723600  1
  Cr  Cr13  1  0.86062200  0.65451900  0.82723600  1
  Cr  Cr14  1  0.36062200  0.34548100  0.82723600  1
  Cr  Cr15  1  0.63937800  0.65451900  0.32723600  1
  Cr  Cr16  1  0.15607800  0.61904300  0.93105600  1
  Cr  Cr17  1  0.84392200  0.38095700  0.43105600  1
  Cr  Cr18  1  0.34392200  0.61904300  0.43105600  1
  Cr  Cr19  1  0.65607800  0.38095700  0.93105600  1
  Cr  Cr20  1  0.15084200  0.11185500  0.01233800  1
  Cr  Cr21  1  0.84915800  0.88814500  0.51233800  1
  Cr  Cr22  1  0.34915800  0.11185500  0.51233800  1
  Cr  Cr23  1  0.65084200  0.88814500  0.01233800  1
  S  S24  1  0.02602600  0.81572400  0.86574900  1
  S  S25  1  0.97397400  0.18427600  0.36574900  1
  S  S26  1  0.47397400  0.81572400  0.36574900  1
  S  S27  1  0.52602600  0.18427600  0.86574900  1
  S  S28  1  0.05792800  0.29438800  0.14940900  1
  S  S29  1  0.94207200  0.70561200  0.64940900  1
  S  S30  1  0.44207200  0.29438800  0.64940900  1
  S  S31  1  0.55792800  0.70561200  0.14940900  1
  S  S32  1  0.99186500  0.47188100  0.91157600  1
  S  S33  1  0.00813500  0.52811900  0.41157600  1
  S  S34  1  0.50813500  0.47188100  0.41157600  1
  S  S35  1  0.49186500  0.52811900  0.91157600  1
  S  S36  1  0.98824800  0.97614300  0.08691300  1
  S  S37  1  0.01175200  0.02385700  0.58691300  1
  S  S38  1  0.51175200  0.97614300  0.58691300  1
  S  S39  1  0.48824800  0.02385700  0.08691300  1
  S  S40  1  0.26404800  0.83509300  0.54376000  1
  S  S41  1  0.73595200  0.16490700  0.04376000  1
  S  S42  1  0.23595200  0.83509300  0.04376000  1
  S  S43  1  0.76404800  0.16490700  0.54376000  1
  S  S44  1  0.24924400  0.37104800  0.49034500  1
  S  S45  1  0.75075600  0.62895200  0.99034500  1
  S  S46  1  0.25075600  0.37104800  0.99034500  1
  S  S47  1  0.74924400  0.62895200  0.49034500  1
  S  S48  1  0.19872600  0.11273100  0.81511800  1
  S  S49  1  0.80127400  0.88726900  0.31511800  1
  S  S50  1  0.30127400  0.11273100  0.31511800  1
  S  S51  1  0.69872600  0.88726900  0.81511800  1
  S  S52  1  0.24437200  0.59746000  0.76931500  1
  S  S53  1  0.75562800  0.40254000  0.26931500  1
  S  S54  1  0.25562800  0.59746000  0.26931500  1
  S  S55  1  0.74437200  0.40254000  0.76931500  1
