# generated using pymatgen
data_TaCr3(AgS4)2
_symmetry_space_group_name_H-M   'P 1'
_cell_length_a   11.86440635
_cell_length_b   3.47292400
_cell_length_c   12.23868779
_cell_angle_alpha   90.00000000
_cell_angle_beta   89.86342653
_cell_angle_gamma   90.00000000
_symmetry_Int_Tables_number   1
_chemical_formula_structural   TaCr3(AgS4)2
_chemical_formula_sum   'Ta2 Cr6 Ag4 S16'
_cell_volume   504.28368106
_cell_formula_units_Z   2
loop_
 _symmetry_equiv_pos_site_id
 _symmetry_equiv_pos_as_xyz
  1  'x, y, z'
loop_
 _atom_site_type_symbol
 _atom_site_label
 _atom_site_symmetry_multiplicity
 _atom_site_fract_x
 _atom_site_fract_y
 _atom_site_fract_z
 _atom_site_occupancy
  Ta  Ta0  1  0.14793000  0.25000000  0.71482700  1
  Ta  Ta1  1  0.85207000  0.75000000  0.28517300  1
  Cr  Cr2  1  0.11309300  0.25000000  0.08187400  1
  Cr  Cr3  1  0.88690700  0.75000000  0.91812600  1
  Cr  Cr4  1  0.39834100  0.75000000  0.57303500  1
  Cr  Cr5  1  0.60165900  0.25000000  0.42696500  1
  Cr  Cr6  1  0.34791600  0.75000000  0.20644800  1
  Cr  Cr7  1  0.65208400  0.25000000  0.79355200  1
  Ag  Ag8  1  0.14575700  0.75000000  0.40579200  1
  Ag  Ag9  1  0.85424300  0.25000000  0.59420800  1
  Ag  Ag10  1  0.37678600  0.25000000  0.92445900  1
  Ag  Ag11  1  0.62321400  0.75000000  0.07554100  1
  S  S12  1  0.04487300  0.75000000  0.61702700  1
  S  S13  1  0.95512700  0.25000000  0.38297300  1
  S  S14  1  0.45426200  0.25000000  0.12685400  1
  S  S15  1  0.54573800  0.75000000  0.87314600  1
  S  S16  1  0.03309000  0.25000000  0.88084000  1
  S  S17  1  0.96691000  0.75000000  0.11916000  1
  S  S18  1  0.46813100  0.75000000  0.38556800  1
  S  S19  1  0.53186900  0.25000000  0.61443200  1
  S  S20  1  0.21228800  0.25000000  0.24986500  1
  S  S21  1  0.78771200  0.75000000  0.75013500  1
  S  S22  1  0.29038000  0.75000000  0.75457600  1
  S  S23  1  0.70962000  0.25000000  0.24542400  1
  S  S24  1  0.23777000  0.75000000  0.04107300  1
  S  S25  1  0.76223000  0.25000000  0.95892700  1
  S  S26  1  0.26569200  0.25000000  0.53554600  1
  S  S27  1  0.73430800  0.75000000  0.46445400  1
