# generated using pymatgen
data_TiCrAgS4
_symmetry_space_group_name_H-M   'P 1'
_cell_length_a   6.14018800
_cell_length_b   7.03619399
_cell_length_c   12.07312437
_cell_angle_alpha   90.30547202
_cell_angle_beta   90.34342675
_cell_angle_gamma   91.15070873
_symmetry_Int_Tables_number   1
_chemical_formula_structural   TiCrAgS4
_chemical_formula_sum   'Ti4 Cr4 Ag4 S16'
_cell_volume   521.47956685
_cell_formula_units_Z   4
loop_
 _symmetry_equiv_pos_site_id
 _symmetry_equiv_pos_as_xyz
  1  'x, y, z'
loop_
 _atom_site_type_symbol
 _atom_site_label
 _atom_site_symmetry_multiplicity
 _atom_site_fract_x
 _atom_site_fract_y
 _atom_site_fract_z
 _atom_site_occupancy
  Ti  Ti0  1  0.50000000  0.00000000  0.00000000  1
  Ti  Ti1  1  0.00000000  0.50000000  0.50000000  1
  Ti  Ti2  1  0.53339000  0.22844800  0.74714200  1
  Ti  Ti3  1  0.46661000  0.77155200  0.25285800  1
  Cr  Cr4  1  0.00000000  0.00000000  0.50000000  1
  Cr  Cr5  1  0.50000000  0.50000000  0.00000000  1
  Cr  Cr6  1  0.02461300  0.73527600  0.75528100  1
  Cr  Cr7  1  0.97538700  0.26472400  0.24471900  1
  Ag  Ag8  1  0.91888300  0.24551700  0.90549500  1
  Ag  Ag9  1  0.08111700  0.75448300  0.09450500  1
  Ag  Ag10  1  0.42658800  0.73597800  0.58738900  1
  Ag  Ag11  1  0.57341200  0.26402200  0.41261100  1
  S  S12  1  0.71893600  0.96843000  0.82564800  1
  S  S13  1  0.28106400  0.03157000  0.17435200  1
  S  S14  1  0.21713900  0.00506700  0.67242000  1
  S  S15  1  0.78286100  0.99493300  0.32758000  1
  S  S16  1  0.78653100  0.52525400  0.32771000  1
  S  S17  1  0.21346900  0.47474600  0.67229000  1
  S  S18  1  0.28784300  0.48786600  0.17492800  1
  S  S19  1  0.71215700  0.51213400  0.82507200  1
  S  S20  1  0.26919900  0.74331500  0.91135700  1
  S  S21  1  0.73080100  0.25668500  0.08864300  1
  S  S22  1  0.77266000  0.23887500  0.59281800  1
  S  S23  1  0.22734000  0.76112500  0.40718200  1
  S  S24  1  0.30757500  0.24824100  0.91389700  1
  S  S25  1  0.69242500  0.75175900  0.08610300  1
  S  S26  1  0.81529800  0.74978500  0.58921800  1
  S  S27  1  0.18470200  0.25021500  0.41078200  1
