# generated using pymatgen
data_TiCrAgS4
_symmetry_space_group_name_H-M   'P 1'
_cell_length_a   3.48723900
_cell_length_b   11.21655300
_cell_length_c   12.85787700
_cell_angle_alpha   90.00000000
_cell_angle_beta   90.00000000
_cell_angle_gamma   90.00000000
_symmetry_Int_Tables_number   1
_chemical_formula_structural   TiCrAgS4
_chemical_formula_sum   'Ti4 Cr4 Ag4 S16'
_cell_volume   502.93330100
_cell_formula_units_Z   4
loop_
 _symmetry_equiv_pos_site_id
 _symmetry_equiv_pos_as_xyz
  1  'x, y, z'
loop_
 _atom_site_type_symbol
 _atom_site_label
 _atom_site_symmetry_multiplicity
 _atom_site_fract_x
 _atom_site_fract_y
 _atom_site_fract_z
 _atom_site_occupancy
  Ti  Ti0  1  0.00000000  0.05109900  0.63071300  1
  Ti  Ti1  1  0.00000000  0.55109900  0.36928700  1
  Ti  Ti2  1  0.00000000  0.09012800  0.15306100  1
  Ti  Ti3  1  0.00000000  0.59012800  0.84693900  1
  Cr  Cr4  1  0.50000000  0.94675600  0.85928300  1
  Cr  Cr5  1  0.50000000  0.44675600  0.14071700  1
  Cr  Cr6  1  0.50000000  0.91688400  0.33934300  1
  Cr  Cr7  1  0.50000000  0.41688400  0.66065700  1
  Ag  Ag8  1  0.50000000  0.75032600  0.07171100  1
  Ag  Ag9  1  0.00000000  0.24276700  0.43551200  1
  Ag  Ag10  1  0.00000000  0.74276700  0.56448800  1
  Ag  Ag11  1  0.50000000  0.25032600  0.92828900  1
  S  S12  1  0.00000000  0.96424700  0.45995600  1
  S  S13  1  0.50000000  0.03357600  0.03381500  1
  S  S14  1  0.50000000  0.53357600  0.96618500  1
  S  S15  1  0.00000000  0.46424700  0.54004400  1
  S  S16  1  0.50000000  0.90821700  0.67929800  1
  S  S17  1  0.00000000  0.08633600  0.81836600  1
  S  S18  1  0.00000000  0.58633600  0.18163400  1
  S  S19  1  0.50000000  0.40821700  0.32070200  1
  S  S20  1  0.00000000  0.88316500  0.21587900  1
  S  S21  1  0.50000000  0.11914100  0.28437500  1
  S  S22  1  0.50000000  0.61914100  0.71562500  1
  S  S23  1  0.00000000  0.38316500  0.78412100  1
  S  S24  1  0.00000000  0.80361800  0.89701500  1
  S  S25  1  0.50000000  0.20374200  0.60292400  1
  S  S26  1  0.50000000  0.70374200  0.39707600  1
  S  S27  1  0.00000000  0.30361800  0.10298500  1
