# generated using pymatgen
data_TiCrAgS4
_symmetry_space_group_name_H-M   'P 1'
_cell_length_a   6.47634200
_cell_length_b   7.66488099
_cell_length_c   12.78363239
_cell_angle_alpha   98.41332985
_cell_angle_beta   95.18606400
_cell_angle_gamma   90.32325510
_symmetry_Int_Tables_number   1
_chemical_formula_structural   TiCrAgS4
_chemical_formula_sum   'Ti4 Cr4 Ag4 S16'
_cell_volume   625.07088556
_cell_formula_units_Z   4
loop_
 _symmetry_equiv_pos_site_id
 _symmetry_equiv_pos_as_xyz
  1  'x, y, z'
loop_
 _atom_site_type_symbol
 _atom_site_label
 _atom_site_symmetry_multiplicity
 _atom_site_fract_x
 _atom_site_fract_y
 _atom_site_fract_z
 _atom_site_occupancy
  Ti  Ti0  1  0.85140000  0.29667200  0.70870500  1
  Ti  Ti1  1  0.14860000  0.70332800  0.29129500  1
  Ti  Ti2  1  0.76327000  0.09860000  0.00056000  1
  Ti  Ti3  1  0.23673000  0.90140000  0.99944000  1
  Cr  Cr4  1  0.63406000  0.44473000  0.28350300  1
  Cr  Cr5  1  0.36594000  0.55527000  0.71649700  1
  Cr  Cr6  1  0.63387200  0.94691300  0.29301500  1
  Cr  Cr7  1  0.36612800  0.05308700  0.70698500  1
  Ag  Ag8  1  0.88684600  0.81030700  0.69201500  1
  Ag  Ag9  1  0.11315400  0.18969300  0.30798500  1
  Ag  Ag10  1  0.74695400  0.63170100  0.99974100  1
  Ag  Ag11  1  0.25304600  0.36829900  0.00025900  1
  S  S12  1  0.86636900  0.32172100  0.88724200  1
  S  S13  1  0.13363100  0.67827900  0.11275800  1
  S  S14  1  0.91247500  0.86175000  0.89609000  1
  S  S15  1  0.08752500  0.13825000  0.10391000  1
  S  S16  1  0.75466200  0.21961800  0.35827500  1
  S  S17  1  0.24533800  0.78038200  0.64172500  1
  S  S18  1  0.80899800  0.70596600  0.34580300  1
  S  S19  1  0.19100200  0.29403400  0.65419700  1
  S  S20  1  0.66946700  0.05078800  0.62837900  1
  S  S21  1  0.33053300  0.94921200  0.37162100  1
  S  S22  1  0.67493900  0.52747000  0.64887400  1
  S  S23  1  0.32506100  0.47253000  0.35112600  1
  S  S24  1  0.57917000  0.93427300  0.11183500  1
  S  S25  1  0.42083000  0.06572700  0.88816500  1
  S  S26  1  0.63091500  0.38489700  0.11014300  1
  S  S27  1  0.36908500  0.61510300  0.88985700  1
