# generated using pymatgen
data_K5Na3TaNb7O20
_symmetry_space_group_name_H-M   'P 1'
_cell_length_a   11.53596845
_cell_length_b   11.60763907
_cell_length_c   17.76488663
_cell_angle_alpha   109.25505398
_cell_angle_beta   108.77643466
_cell_angle_gamma   90.18907486
_symmetry_Int_Tables_number   1
_chemical_formula_structural   K5Na3TaNb7O20
_chemical_formula_sum   'K20 Na12 Ta4 Nb28 O80'
_cell_volume   2110.22794609
_cell_formula_units_Z   4
loop_
 _symmetry_equiv_pos_site_id
 _symmetry_equiv_pos_as_xyz
  1  'x, y, z'
loop_
 _atom_site_type_symbol
 _atom_site_label
 _atom_site_symmetry_multiplicity
 _atom_site_fract_x
 _atom_site_fract_y
 _atom_site_fract_z
 _atom_site_occupancy
  K  K0  1  0.30479900  0.06418600  0.12109600  1
  K  K1  1  0.31195500  0.56310800  0.11499700  1
  K  K2  1  0.79664100  0.06105100  0.10786900  1
  K  K3  1  0.81167000  0.56185300  0.12049900  1
  K  K4  1  0.81307600  0.57022800  0.62157100  1
  K  K5  1  0.20184700  0.93592100  0.38904200  1
  K  K6  1  0.19098900  0.93068400  0.87853400  1
  K  K7  1  0.69176600  0.44213900  0.38381400  1
  K  K8  1  0.68470900  0.42391700  0.87901900  1
  K  K9  1  0.69462000  0.93819000  0.38201600  1
  K  K10  1  0.68956300  0.91905500  0.87535700  1
  K  K11  1  0.04648100  0.29630800  0.11130200  1
  K  K12  1  0.06206300  0.79717000  0.11635200  1
  K  K13  1  0.55521600  0.31175700  0.12008700  1
  K  K14  1  0.56114100  0.80627900  0.11988500  1
  K  K15  1  0.43839500  0.19439700  0.38207300  1
  K  K16  1  0.45300800  0.70319800  0.39025000  1
  K  K17  1  0.44676600  0.70350600  0.88931100  1
  K  K18  1  0.94862600  0.69345800  0.38212700  1
  K  K19  1  0.93616600  0.69405700  0.87698500  1
  Na  Na20  1  0.29763600  0.07671100  0.60462800  1
  Na  Na21  1  0.30223500  0.56920200  0.60210900  1
  Na  Na22  1  0.80139600  0.06727000  0.59955700  1
  Na  Na23  1  0.20374900  0.44082300  0.40444800  1
  Na  Na24  1  0.20044900  0.43127400  0.89641000  1
  Na  Na25  1  0.04992900  0.28118300  0.60509600  1
  Na  Na26  1  0.05841600  0.79280900  0.60790400  1
  Na  Na27  1  0.55394600  0.28840300  0.60370400  1
  Na  Na28  1  0.55541300  0.78889300  0.60826300  1
  Na  Na29  1  0.44230900  0.21064200  0.89627500  1
  Na  Na30  1  0.95677800  0.21560000  0.40634500  1
  Na  Na31  1  0.94831400  0.21173300  0.89890500  1
  Ta  Ta32  1  0.99908900  0.99822900  0.00039800  1
  Ta  Ta33  1  0.99945900  0.49619000  0.99911400  1
  Ta  Ta34  1  0.49917200  0.99964100  0.99885900  1
  Ta  Ta35  1  0.25052800  0.74747500  0.99901000  1
  Nb  Nb36  1  0.00424200  0.00136400  0.50158300  1
  Nb  Nb37  1  0.00762300  0.50268900  0.50411900  1
  Nb  Nb38  1  0.50742100  0.00423300  0.50726700  1
  Nb  Nb39  1  0.49997600  0.49797100  0.99735400  1
  Nb  Nb40  1  0.50652300  0.50174800  0.50312200  1
  Nb  Nb41  1  0.24966200  0.24954500  0.99925500  1
  Nb  Nb42  1  0.25592800  0.25412300  0.50422400  1
  Nb  Nb43  1  0.25863900  0.75288900  0.50476300  1
  Nb  Nb44  1  0.74470600  0.24717500  0.99710600  1
  Nb  Nb45  1  0.75578300  0.25022900  0.50138500  1
  Nb  Nb46  1  0.75070400  0.74620100  0.00053600  1
  Nb  Nb47  1  0.75815400  0.75308400  0.50383400  1
  Nb  Nb48  1  0.09634400  0.09071300  0.25407000  1
  Nb  Nb49  1  0.08528000  0.08680300  0.74653300  1
  Nb  Nb50  1  0.14538200  0.58124900  0.25388300  1
  Nb  Nb51  1  0.13948900  0.56750400  0.74964600  1
  Nb  Nb52  1  0.62668400  0.10760200  0.25092000  1
  Nb  Nb53  1  0.58268500  0.07973400  0.74595100  1
  Nb  Nb54  1  0.61805300  0.61076000  0.25094800  1
  Nb  Nb55  1  0.59050300  0.57100100  0.74437600  1
  Nb  Nb56  1  0.34629200  0.41241800  0.25323900  1
  Nb  Nb57  1  0.34197900  0.42492100  0.74623400  1
  Nb  Nb58  1  0.37081400  0.89125400  0.25358900  1
  Nb  Nb59  1  0.37196800  0.92762900  0.74599000  1
  Nb  Nb60  1  0.87255600  0.39173400  0.25187700  1
  Nb  Nb61  1  0.86561000  0.39147400  0.74720500  1
  Nb  Nb62  1  0.89795500  0.92792400  0.25346400  1
  Nb  Nb63  1  0.87496600  0.93621100  0.74777300  1
  O  O64  1  0.12624100  0.12747800  0.50247200  1
  O  O65  1  0.11765400  0.11738100  0.99586400  1
  O  O66  1  0.13211400  0.62505600  0.50179600  1
  O  O67  1  0.12137200  0.61599200  0.98774400  1
  O  O68  1  0.62983900  0.12768100  0.50299700  1
  O  O69  1  0.61291200  0.11846200  0.98927600  1
  O  O70  1  0.63189800  0.63092200  0.50518600  1
  O  O71  1  0.62818700  0.62461100  0.99971500  1
  O  O72  1  0.12109300  0.36896200  0.99339200  1
  O  O73  1  0.13411300  0.38092000  0.50934600  1
  O  O74  1  0.12151200  0.87027000  0.99531700  1
  O  O75  1  0.13982100  0.88117400  0.51493900  1
  O  O76  1  0.61981000  0.36967200  0.99526900  1
  O  O77  1  0.63255400  0.37982200  0.51036200  1
  O  O78  1  0.62177500  0.87685600  0.99939600  1
  O  O79  1  0.64050400  0.88671900  0.51856800  1
  O  O80  1  0.37860000  0.12781200  0.50365200  1
  O  O81  1  0.37062400  0.12179700  0.99301200  1
  O  O82  1  0.37877200  0.62403700  0.50227100  1
  O  O83  1  0.36736700  0.62412800  0.99278400  1
  O  O84  1  0.87683600  0.12173700  0.49289900  1
  O  O85  1  0.87195300  0.11332800  0.98870600  1
  O  O86  1  0.88364200  0.62705000  0.50273700  1
  O  O87  1  0.87869800  0.61735900  0.99727300  1
  O  O88  1  0.37011700  0.37035500  0.99491500  1
  O  O89  1  0.37982700  0.37866300  0.50815600  1
  O  O90  1  0.37166900  0.87542700  0.99780200  1
  O  O91  1  0.38827200  0.88223000  0.51532900  1
  O  O92  1  0.87559700  0.37135600  0.99757700  1
  O  O93  1  0.88904400  0.37866100  0.51256500  1
  O  O94  1  0.87342900  0.86990500  0.99182000  1
  O  O95  1  0.88622400  0.88102100  0.50924900  1
  O  O96  1  0.05276100  0.05855100  0.12568400  1
  O  O97  1  0.06102400  0.09077100  0.63534700  1
  O  O98  1  0.07523300  0.55685700  0.12677700  1
  O  O99  1  0.09200700  0.59161100  0.64366600  1
  O  O100  1  0.55986800  0.06892900  0.12248300  1
  O  O101  1  0.56822600  0.10231500  0.64210800  1
  O  O102  1  0.56067300  0.56421300  0.12502300  1
  O  O103  1  0.57075100  0.58368400  0.63643800  1
  O  O104  1  0.43697700  0.43427400  0.37336100  1
  O  O105  1  0.42854400  0.43557500  0.86117400  1
  O  O106  1  0.44185100  0.93340800  0.37791800  1
  O  O107  1  0.43404200  0.92066500  0.85782000  1
  O  O108  1  0.94251200  0.42582800  0.37542600  1
  O  O109  1  0.93213000  0.41224000  0.86691200  1
  O  O110  1  0.94877200  0.92548400  0.36960900  1
  O  O111  1  0.93808200  0.92026600  0.85618200  1
  O  O112  1  0.30372200  0.31693500  0.12890600  1
  O  O113  1  0.31632700  0.30407400  0.63619600  1
  O  O114  1  0.30881300  0.80671800  0.12159900  1
  O  O115  1  0.34131000  0.79619800  0.64235600  1
  O  O116  1  0.80783400  0.30465300  0.12333300  1
  O  O117  1  0.83474600  0.28352500  0.63419800  1
  O  O118  1  0.82813300  0.81964400  0.13135300  1
  O  O119  1  0.85250400  0.80735300  0.64552600  1
  O  O120  1  0.18351800  0.18921800  0.37320900  1
  O  O121  1  0.17625900  0.18336000  0.86213100  1
  O  O122  1  0.19697200  0.69005500  0.37306500  1
  O  O123  1  0.19452600  0.69025600  0.85998400  1
  O  O124  1  0.68848200  0.19743100  0.37351000  1
  O  O125  1  0.67453600  0.17997400  0.85960400  1
  O  O126  1  0.69128000  0.69661800  0.37796700  1
  O  O127  1  0.67570900  0.67137200  0.86207200  1
  O  O128  1  0.48460300  0.01295100  0.24867100  1
  O  O129  1  0.40966900  0.09756000  0.74702300  1
  O  O130  1  0.47987700  0.51984600  0.25203300  1
  O  O131  1  0.41719600  0.57400100  0.73579400  1
  O  O132  1  0.93213100  0.10576800  0.26481300  1
  O  O133  1  0.91201200  0.10640600  0.74870200  1
  O  O134  1  0.98199200  0.51551300  0.24812100  1
  O  O135  1  0.97053200  0.52078800  0.74809600  1
  O  O136  1  0.18369700  0.41662200  0.26611400  1
  O  O137  1  0.16857900  0.39502300  0.74878800  1
  O  O138  1  0.22970300  0.98212100  0.25061700  1
  O  O139  1  0.19670900  0.95393400  0.73479600  1
  O  O140  1  0.73958800  0.49352400  0.25138300  1
  O  O141  1  0.70123700  0.43842700  0.73504400  1
  O  O142  1  0.73229000  0.98149200  0.24928900  1
  O  O143  1  0.69775300  0.95040600  0.73393500  1
