# generated using pymatgen
data_TiCrAgS4
_symmetry_space_group_name_H-M   'P 1'
_cell_length_a   7.19306600
_cell_length_b   11.78101000
_cell_length_c   12.67695100
_cell_angle_alpha   90.00000000
_cell_angle_beta   90.00000000
_cell_angle_gamma   90.00000000
_symmetry_Int_Tables_number   1
_chemical_formula_structural   TiCrAgS4
_chemical_formula_sum   'Ti8 Cr8 Ag8 S32'
_cell_volume   1074.26488872
_cell_formula_units_Z   8
loop_
 _symmetry_equiv_pos_site_id
 _symmetry_equiv_pos_as_xyz
  1  'x, y, z'
loop_
 _atom_site_type_symbol
 _atom_site_label
 _atom_site_symmetry_multiplicity
 _atom_site_fract_x
 _atom_site_fract_y
 _atom_site_fract_z
 _atom_site_occupancy
  Ti  Ti0  1  0.81863900  0.11652800  0.69416500  1
  Ti  Ti1  1  0.18136100  0.88347200  0.19416500  1
  Ti  Ti2  1  0.81863900  0.38347200  0.19416500  1
  Ti  Ti3  1  0.18136100  0.61652800  0.69416500  1
  Ti  Ti4  1  0.44093300  0.08167300  0.34415500  1
  Ti  Ti5  1  0.55906700  0.91832700  0.84415500  1
  Ti  Ti6  1  0.44093300  0.41832700  0.84415500  1
  Ti  Ti7  1  0.55906700  0.58167300  0.34415500  1
  Cr  Cr8  1  0.56444300  0.16053500  0.95318700  1
  Cr  Cr9  1  0.43555700  0.83946500  0.45318700  1
  Cr  Cr10  1  0.56444300  0.33946500  0.45318700  1
  Cr  Cr11  1  0.43555700  0.66053500  0.95318700  1
  Cr  Cr12  1  0.06353600  0.15099300  0.96339900  1
  Cr  Cr13  1  0.93646400  0.84900700  0.46339900  1
  Cr  Cr14  1  0.06353600  0.34900700  0.46339900  1
  Cr  Cr15  1  0.93646400  0.65099300  0.96339900  1
  Ag  Ag16  1  0.25252500  0.10369900  0.65581600  1
  Ag  Ag17  1  0.74747500  0.89630100  0.15581600  1
  Ag  Ag18  1  0.25252500  0.39630100  0.15581600  1
  Ag  Ag19  1  0.74747500  0.60369900  0.65581600  1
  Ag  Ag20  1  0.84100600  0.10917400  0.28031400  1
  Ag  Ag21  1  0.15899400  0.89082600  0.78031400  1
  Ag  Ag22  1  0.84100600  0.39082600  0.78031400  1
  Ag  Ag23  1  0.15899400  0.60917400  0.28031400  1
  S  S24  1  0.81072800  0.03697900  0.88757700  1
  S  S25  1  0.18927200  0.96302100  0.38757700  1
  S  S26  1  0.81072800  0.46302100  0.38757700  1
  S  S27  1  0.18927200  0.53697900  0.88757700  1
  S  S28  1  0.45309000  0.01559500  0.17176200  1
  S  S29  1  0.54691000  0.98440500  0.67176200  1
  S  S30  1  0.45309000  0.48440500  0.67176200  1
  S  S31  1  0.54691000  0.51559500  0.17176200  1
  S  S32  1  0.32783200  0.02158800  0.92345300  1
  S  S33  1  0.67216800  0.97841200  0.42345300  1
  S  S34  1  0.32783200  0.47841200  0.42345300  1
  S  S35  1  0.67216800  0.52158800  0.92345300  1
  S  S36  1  0.02213100  0.03298900  0.12012700  1
  S  S37  1  0.97786900  0.96701100  0.62012700  1
  S  S38  1  0.02213100  0.46701100  0.62012700  1
  S  S39  1  0.97786900  0.53298900  0.12012700  1
  S  S40  1  0.80927500  0.23659600  0.53610400  1
  S  S41  1  0.19072500  0.76340400  0.03610400  1
  S  S42  1  0.80927500  0.26340400  0.03610400  1
  S  S43  1  0.19072500  0.73659600  0.53610400  1
  S  S44  1  0.31635700  0.21842400  0.49203800  1
  S  S45  1  0.68364300  0.78157600  0.99203800  1
  S  S46  1  0.31635700  0.28157600  0.99203800  1
  S  S47  1  0.68364300  0.71842400  0.49203800  1
  S  S48  1  0.05883100  0.21961700  0.78720300  1
  S  S49  1  0.94116900  0.78038300  0.28720300  1
  S  S50  1  0.05883100  0.28038300  0.28720300  1
  S  S51  1  0.94116900  0.71961700  0.78720300  1
  S  S52  1  0.56356400  0.24137100  0.78770300  1
  S  S53  1  0.43643600  0.75862900  0.28770300  1
  S  S54  1  0.56356400  0.25862900  0.28770300  1
  S  S55  1  0.43643600  0.74137100  0.78770300  1
