# generated using pymatgen
data_Rb(CrS2)2
_symmetry_space_group_name_H-M   'P 1'
_cell_length_a   6.63089135
_cell_length_b   8.73070373
_cell_length_c   12.42581261
_cell_angle_alpha   80.17941533
_cell_angle_beta   87.40295877
_cell_angle_gamma   89.61620369
_symmetry_Int_Tables_number   1
_chemical_formula_structural   Rb(CrS2)2
_chemical_formula_sum   'Rb4 Cr8 S16'
_cell_volume   708.09005681
_cell_formula_units_Z   4
loop_
 _symmetry_equiv_pos_site_id
 _symmetry_equiv_pos_as_xyz
  1  'x, y, z'
loop_
 _atom_site_type_symbol
 _atom_site_label
 _atom_site_symmetry_multiplicity
 _atom_site_fract_x
 _atom_site_fract_y
 _atom_site_fract_z
 _atom_site_occupancy
  Rb  Rb0  1  0.14951100  0.20614600  0.67148000  1
  Rb  Rb1  1  0.85048900  0.79385400  0.32852000  1
  Rb  Rb2  1  0.25121200  0.37130500  0.01064900  1
  Rb  Rb3  1  0.74878800  0.62869500  0.98935100  1
  Cr  Cr4  1  0.16394300  0.71799900  0.70351400  1
  Cr  Cr5  1  0.83605700  0.28200100  0.29648600  1
  Cr  Cr6  1  0.29035400  0.87728200  0.00164400  1
  Cr  Cr7  1  0.70964600  0.12271800  0.99835600  1
  Cr  Cr8  1  0.35044900  0.55362300  0.30504300  1
  Cr  Cr9  1  0.64955100  0.44637700  0.69495700  1
  Cr  Cr10  1  0.36698700  0.05115400  0.30013200  1
  Cr  Cr11  1  0.63301300  0.94884600  0.69986800  1
  S  S12  1  0.18720300  0.71529700  0.87560500  1
  S  S13  1  0.81279700  0.28470300  0.12439600  1
  S  S14  1  0.04841900  0.07807900  0.92982400  1
  S  S15  1  0.95158100  0.92192100  0.07017600  1
  S  S16  1  0.32470000  0.78829500  0.36316300  1
  S  S17  1  0.67530000  0.21170500  0.63683700  1
  S  S18  1  0.17950200  0.28898100  0.33470100  1
  S  S19  1  0.82049800  0.71101900  0.66529900  1
  S  S20  1  0.34559400  0.90768700  0.61648600  1
  S  S21  1  0.65440600  0.09231300  0.38351400  1
  S  S22  1  0.33652400  0.53031800  0.64984500  1
  S  S23  1  0.66347600  0.46968200  0.35015500  1
  S  S24  1  0.43171100  0.03825300  0.11669500  1
  S  S25  1  0.56828900  0.96174700  0.88330500  1
  S  S26  1  0.32184700  0.65175200  0.13089900  1
  S  S27  1  0.67815300  0.34824800  0.86910100  1
