# generated using pymatgen
data_TiCrAgS4
_symmetry_space_group_name_H-M   'P 1'
_cell_length_a   3.45857700
_cell_length_b   11.80731200
_cell_length_c   14.17585739
_cell_angle_alpha   80.25195379
_cell_angle_beta   90.00000000
_cell_angle_gamma   90.00000000
_symmetry_Int_Tables_number   1
_chemical_formula_structural   TiCrAgS4
_chemical_formula_sum   'Ti4 Cr4 Ag4 S16'
_cell_volume   570.53422349
_cell_formula_units_Z   4
loop_
 _symmetry_equiv_pos_site_id
 _symmetry_equiv_pos_as_xyz
  1  'x, y, z'
loop_
 _atom_site_type_symbol
 _atom_site_label
 _atom_site_symmetry_multiplicity
 _atom_site_fract_x
 _atom_site_fract_y
 _atom_site_fract_z
 _atom_site_occupancy
  Ti  Ti0  1  0.00000000  0.06552000  0.87263800  1
  Ti  Ti1  1  0.50000000  0.38877400  0.24833400  1
  Ti  Ti2  1  0.00000000  0.61202000  0.79076000  1
  Ti  Ti3  1  0.00000000  0.88532200  0.26341900  1
  Cr  Cr4  1  0.50000000  0.97299300  0.07364600  1
  Cr  Cr5  1  0.00000000  0.42746100  0.43331400  1
  Cr  Cr6  1  0.50000000  0.52750000  0.61543900  1
  Cr  Cr7  1  0.50000000  0.15289500  0.65433000  1
  Ag  Ag8  1  0.00000000  0.66514100  0.03904900  1
  Ag  Ag9  1  0.50000000  0.35333800  0.00864900  1
  Ag  Ag10  1  0.50000000  0.08650300  0.42112500  1
  Ag  Ag11  1  0.00000000  0.87171400  0.64442200  1
  S  S12  1  0.00000000  0.44735100  0.12742200  1
  S  S13  1  0.50000000  0.57378300  0.91233100  1
  S  S14  1  0.50000000  0.89212100  0.37700200  1
  S  S15  1  0.00000000  0.07278400  0.56736400  1
  S  S16  1  0.50000000  0.15356700  0.96272800  1
  S  S17  1  0.00000000  0.88951300  0.98996700  1
  S  S18  1  0.00000000  0.59274700  0.50806700  1
  S  S19  1  0.50000000  0.35312900  0.54363600  1
  S  S20  1  0.50000000  0.79124300  0.18097600  1
  S  S21  1  0.00000000  0.21829100  0.74293500  1
  S  S22  1  0.00000000  0.27107500  0.33797300  1
  S  S23  1  0.50000000  0.70707000  0.68168100  1
  S  S24  1  0.00000000  0.05561300  0.16097800  1
  S  S25  1  0.50000000  0.98751100  0.78154500  1
  S  S26  1  0.50000000  0.53206100  0.33169300  1
  S  S27  1  0.00000000  0.45295900  0.72858000  1
