# generated using pymatgen
data_K2H4IO5
_symmetry_space_group_name_H-M   'P 1'
_cell_length_a   6.74270800
_cell_length_b   6.92199158
_cell_length_c   9.06139449
_cell_angle_alpha   88.80157761
_cell_angle_beta   94.20079127
_cell_angle_gamma   113.64391930
_symmetry_Int_Tables_number   1
_chemical_formula_structural   K2H4IO5
_chemical_formula_sum   'K4 H8 I2 O10'
_cell_volume   386.36282203
_cell_formula_units_Z   2
loop_
 _symmetry_equiv_pos_site_id
 _symmetry_equiv_pos_as_xyz
  1  'x, y, z'
loop_
 _atom_site_type_symbol
 _atom_site_label
 _atom_site_symmetry_multiplicity
 _atom_site_fract_x
 _atom_site_fract_y
 _atom_site_fract_z
 _atom_site_occupancy
  K  K0  1  0.79081800  0.61156200  0.57537700  1
  K  K1  1  0.20918200  0.38843800  0.42462300  1
  K  K2  1  0.21127300  0.26107800  0.92541300  1
  K  K3  1  0.78872700  0.73892200  0.07458700  1
  H  H4  1  0.94473300  0.98884900  0.48113000  1
  H  H5  1  0.05526700  0.01115100  0.51887000  1
  H  H6  1  0.89959800  0.35342100  0.13254700  1
  H  H7  1  0.10040200  0.64657900  0.86745300  1
  H  H8  1  0.68834100  0.26771900  0.02313500  1
  H  H9  1  0.31165900  0.73228100  0.97686500  1
  H  H10  1  0.06850100  0.01345000  0.25679300  1
  H  H11  1  0.93149900  0.98655000  0.74320700  1
  I  I12  1  0.39890900  0.91372200  0.30572500  1
  I  I13  1  0.60109100  0.08627800  0.69427500  1
  O  O14  1  0.82557900  0.90135200  0.81104100  1
  O  O15  1  0.17442100  0.09864800  0.18895900  1
  O  O16  1  0.42221500  0.76403200  0.14565800  1
  O  O17  1  0.57778500  0.23596800  0.85434200  1
  O  O18  1  0.87304600  0.26911600  0.64672400  1
  O  O19  1  0.12695400  0.73088400  0.35327600  1
  O  O20  1  0.55607500  0.81430200  0.44355400  1
  O  O21  1  0.44392500  0.18569800  0.55644600  1
  O  O22  1  0.25456400  0.67654300  0.87305400  1
  O  O23  1  0.74543600  0.32345700  0.12694600  1
