# generated using pymatgen
data_TiCrAgS4
_symmetry_space_group_name_H-M   'P 1'
_cell_length_a   3.48192400
_cell_length_b   11.98750600
_cell_length_c   12.10452300
_cell_angle_alpha   90.00000000
_cell_angle_beta   90.00000000
_cell_angle_gamma   90.00000000
_symmetry_Int_Tables_number   1
_chemical_formula_structural   TiCrAgS4
_chemical_formula_sum   'Ti4 Cr4 Ag4 S16'
_cell_volume   505.23776472
_cell_formula_units_Z   4
loop_
 _symmetry_equiv_pos_site_id
 _symmetry_equiv_pos_as_xyz
  1  'x, y, z'
loop_
 _atom_site_type_symbol
 _atom_site_label
 _atom_site_symmetry_multiplicity
 _atom_site_fract_x
 _atom_site_fract_y
 _atom_site_fract_z
 _atom_site_occupancy
  Ti  Ti0  1  0.25000000  0.15680300  0.71213200  1
  Ti  Ti1  1  0.75000000  0.84319700  0.28786800  1
  Ti  Ti2  1  0.75000000  0.34319700  0.21213200  1
  Ti  Ti3  1  0.25000000  0.65680300  0.78786800  1
  Cr  Cr4  1  0.25000000  0.10406900  0.07606700  1
  Cr  Cr5  1  0.75000000  0.89593100  0.92393300  1
  Cr  Cr6  1  0.75000000  0.39593100  0.57606700  1
  Cr  Cr7  1  0.25000000  0.60406900  0.42393300  1
  Ag  Ag8  1  0.75000000  0.12895500  0.40977900  1
  Ag  Ag9  1  0.25000000  0.87104500  0.59022100  1
  Ag  Ag10  1  0.25000000  0.37104500  0.90977900  1
  Ag  Ag11  1  0.75000000  0.62895500  0.09022100  1
  S  S12  1  0.75000000  0.05730000  0.61873600  1
  S  S13  1  0.25000000  0.94270000  0.38126400  1
  S  S14  1  0.25000000  0.44270000  0.11873600  1
  S  S15  1  0.75000000  0.55730000  0.88126400  1
  S  S16  1  0.25000000  0.03578600  0.88266000  1
  S  S17  1  0.75000000  0.96421400  0.11734000  1
  S  S18  1  0.75000000  0.46421400  0.38266000  1
  S  S19  1  0.25000000  0.53578600  0.61734000  1
  S  S20  1  0.25000000  0.20131700  0.25310500  1
  S  S21  1  0.75000000  0.79868300  0.74689500  1
  S  S22  1  0.75000000  0.29868300  0.75310500  1
  S  S23  1  0.25000000  0.70131700  0.24689500  1
  S  S24  1  0.75000000  0.22927600  0.03696000  1
  S  S25  1  0.25000000  0.77072400  0.96304000  1
  S  S26  1  0.25000000  0.27072400  0.53696000  1
  S  S27  1  0.75000000  0.72927600  0.46304000  1
