# generated using pymatgen
data_Fe2Cl6O5
_symmetry_space_group_name_H-M   'P 1'
_cell_length_a   6.70693900
_cell_length_b   13.18956200
_cell_length_c   15.15793300
_cell_angle_alpha   90.00000000
_cell_angle_beta   90.00000000
_cell_angle_gamma   90.00000000
_symmetry_Int_Tables_number   1
_chemical_formula_structural   Fe2Cl6O5
_chemical_formula_sum   'Fe8 Cl24 O20'
_cell_volume   1340.89482050
_cell_formula_units_Z   4
loop_
 _symmetry_equiv_pos_site_id
 _symmetry_equiv_pos_as_xyz
  1  'x, y, z'
loop_
 _atom_site_type_symbol
 _atom_site_label
 _atom_site_symmetry_multiplicity
 _atom_site_fract_x
 _atom_site_fract_y
 _atom_site_fract_z
 _atom_site_occupancy
  Fe  Fe0  1  0.51148600  0.01781000  0.75728000  1
  Fe  Fe1  1  0.48851400  0.98219000  0.25728000  1
  Fe  Fe2  1  0.51148600  0.48219000  0.25728000  1
  Fe  Fe3  1  0.48851400  0.51781000  0.75728000  1
  Fe  Fe4  1  0.93758200  0.72648900  0.47116300  1
  Fe  Fe5  1  0.06241800  0.27351100  0.97116300  1
  Fe  Fe6  1  0.93758200  0.77351100  0.97116300  1
  Fe  Fe7  1  0.06241800  0.22648900  0.47116300  1
  Cl  Cl8  1  0.84017300  0.02773600  0.77945600  1
  Cl  Cl9  1  0.15982700  0.97226400  0.27945600  1
  Cl  Cl10  1  0.84017300  0.47226400  0.27945600  1
  Cl  Cl11  1  0.15982700  0.52773600  0.77945600  1
  Cl  Cl12  1  0.39415900  0.17260300  0.74495400  1
  Cl  Cl13  1  0.60584100  0.82739700  0.24495400  1
  Cl  Cl14  1  0.39415900  0.32739700  0.24495400  1
  Cl  Cl15  1  0.60584100  0.67260300  0.74495400  1
  Cl  Cl16  1  0.37149100  0.94567600  0.87420000  1
  Cl  Cl17  1  0.62850900  0.05432400  0.37420000  1
  Cl  Cl18  1  0.37149100  0.55432400  0.37420000  1
  Cl  Cl19  1  0.62850900  0.44567600  0.87420000  1
  Cl  Cl20  1  0.44382100  0.92232300  0.64234000  1
  Cl  Cl21  1  0.55617900  0.07767700  0.14234000  1
  Cl  Cl22  1  0.44382100  0.57767700  0.14234000  1
  Cl  Cl23  1  0.55617900  0.42232300  0.64234000  1
  Cl  Cl24  1  0.20693800  0.65321700  0.53481700  1
  Cl  Cl25  1  0.79306200  0.34678300  0.03481700  1
  Cl  Cl26  1  0.20693800  0.84678300  0.03481700  1
  Cl  Cl27  1  0.79306200  0.15321700  0.53481700  1
  Cl  Cl28  1  0.08822800  0.87342600  0.47176600  1
  Cl  Cl29  1  0.91177200  0.12657400  0.97176600  1
  Cl  Cl30  1  0.08822800  0.62657400  0.97176600  1
  Cl  Cl31  1  0.91177200  0.37342600  0.47176600  1
  O  O32  1  0.95254000  0.26518700  0.69051400  1
  O  O33  1  0.04746000  0.73481300  0.19051400  1
  O  O34  1  0.95254000  0.23481300  0.19051400  1
  O  O35  1  0.04746000  0.76518700  0.69051400  1
  O  O36  1  0.93861800  0.83206900  0.66352400  1
  O  O37  1  0.06138200  0.16793100  0.16352400  1
  O  O38  1  0.93861800  0.66793100  0.16352400  1
  O  O39  1  0.06138200  0.33206900  0.66352400  1
  O  O40  1  0.78451800  0.66168900  0.54067700  1
  O  O41  1  0.21548200  0.33831100  0.04067700  1
  O  O42  1  0.78451800  0.83831100  0.04067700  1
  O  O43  1  0.21548200  0.16168900  0.54067700  1
  O  O44  1  0.94506000  0.68069900  0.37111800  1
  O  O45  1  0.05494000  0.31930100  0.87111800  1
  O  O46  1  0.94506000  0.81930100  0.87111800  1
  O  O47  1  0.05494000  0.18069900  0.37111800  1
  O  O48  1  0.70038600  0.78814000  0.46109100  1
  O  O49  1  0.29961400  0.21186000  0.96109100  1
  O  O50  1  0.70038600  0.71186000  0.96109100  1
  O  O51  1  0.29961400  0.28814000  0.46109100  1
