# generated using pymatgen
data_TiCrAgS4
_symmetry_space_group_name_H-M   'P 1'
_cell_length_a   5.96870900
_cell_length_b   9.50171000
_cell_length_c   11.52859700
_cell_angle_alpha   90.00000000
_cell_angle_beta   90.00000000
_cell_angle_gamma   90.00000000
_symmetry_Int_Tables_number   1
_chemical_formula_structural   TiCrAgS4
_chemical_formula_sum   'Ti4 Cr4 Ag4 S16'
_cell_volume   653.82065291
_cell_formula_units_Z   4
loop_
 _symmetry_equiv_pos_site_id
 _symmetry_equiv_pos_as_xyz
  1  'x, y, z'
loop_
 _atom_site_type_symbol
 _atom_site_label
 _atom_site_symmetry_multiplicity
 _atom_site_fract_x
 _atom_site_fract_y
 _atom_site_fract_z
 _atom_site_occupancy
  Ti  Ti0  1  0.13158100  0.25000000  0.96537700  1
  Ti  Ti1  1  0.86841800  0.75000000  0.03462300  1
  Ti  Ti2  1  0.36841800  0.75000000  0.46537700  1
  Ti  Ti3  1  0.63158200  0.25000000  0.53462300  1
  Cr  Cr4  1  0.99796100  0.75000000  0.26838100  1
  Cr  Cr5  1  0.00203900  0.25000000  0.73161800  1
  Cr  Cr6  1  0.50203900  0.25000000  0.76838200  1
  Cr  Cr7  1  0.49796100  0.75000000  0.23161900  1
  Ag  Ag8  1  0.18008100  0.25000000  0.36261300  1
  Ag  Ag9  1  0.81991900  0.75000000  0.63738700  1
  Ag  Ag10  1  0.31991900  0.75000000  0.86261300  1
  Ag  Ag11  1  0.68008100  0.25000000  0.13738700  1
  S  S12  1  0.24117600  0.42079000  0.83353300  1
  S  S13  1  0.75882400  0.57921000  0.16646700  1
  S  S14  1  0.25882400  0.57921000  0.33353300  1
  S  S15  1  0.74117600  0.42079000  0.66646700  1
  S  S16  1  0.74117600  0.07921000  0.66646700  1
  S  S17  1  0.25882400  0.92079000  0.33353300  1
  S  S18  1  0.75882400  0.92079000  0.16646700  1
  S  S19  1  0.24117600  0.07921000  0.83353300  1
  S  S20  1  0.75197000  0.25000000  0.35293800  1
  S  S21  1  0.24803000  0.75000000  0.64706200  1
  S  S22  1  0.74803000  0.75000000  0.85293800  1
  S  S23  1  0.25197000  0.25000000  0.14706200  1
  S  S24  1  0.23983900  0.75000000  0.07730200  1
  S  S25  1  0.76016100  0.25000000  0.92269800  1
  S  S26  1  0.26016100  0.25000000  0.57730200  1
  S  S27  1  0.73983900  0.75000000  0.42269800  1
