# generated using pymatgen
data_LaMgS3
_symmetry_space_group_name_H-M   'P 1'
_cell_length_a   7.08325195
_cell_length_b   7.08325195
_cell_length_c   4.99513984
_cell_angle_alpha   82.43688943
_cell_angle_beta   82.43688943
_cell_angle_gamma   106.77166488
_symmetry_Int_Tables_number   1
_chemical_formula_structural   LaMgS3
_chemical_formula_sum   'La2 Mg2 S6'
_cell_volume   234.04191219
_cell_formula_units_Z   2
loop_
 _symmetry_equiv_pos_site_id
 _symmetry_equiv_pos_as_xyz
  1  'x, y, z'
loop_
 _atom_site_type_symbol
 _atom_site_label
 _atom_site_symmetry_multiplicity
 _atom_site_fract_x
 _atom_site_fract_y
 _atom_site_fract_z
 _atom_site_occupancy
  La  La0  1  0.16002900  0.16002900  0.68327300  1
  La  La1  1  0.83997100  0.83997100  0.31672700  1
  Mg  Mg2  1  0.30230000  0.69770000  0.00000000  1
  Mg  Mg3  1  0.69770000  0.30230000  0.00000000  1
  S  S4  1  0.00412700  0.70928000  0.80165600  1
  S  S5  1  0.99587300  0.29072000  0.19834400  1
  S  S6  1  0.29072000  0.99587300  0.19834400  1
  S  S7  1  0.70928000  0.00412700  0.80165600  1
  S  S8  1  0.49253700  0.49253700  0.29384500  1
  S  S9  1  0.50746300  0.50746300  0.70615500  1
