# generated using pymatgen
data_Tb2F15
_symmetry_space_group_name_H-M   'P 1'
_cell_length_a   8.12094671
_cell_length_b   8.12094671
_cell_length_c   8.68092297
_cell_angle_alpha   85.67649168
_cell_angle_beta   85.67649168
_cell_angle_gamma   103.81160923
_symmetry_Int_Tables_number   1
_chemical_formula_structural   Tb2F15
_chemical_formula_sum   'Tb4 F30'
_cell_volume   551.78535594
_cell_formula_units_Z   2
loop_
 _symmetry_equiv_pos_site_id
 _symmetry_equiv_pos_as_xyz
  1  'x, y, z'
loop_
 _atom_site_type_symbol
 _atom_site_label
 _atom_site_symmetry_multiplicity
 _atom_site_fract_x
 _atom_site_fract_y
 _atom_site_fract_z
 _atom_site_occupancy
  Tb  Tb0  1  0.73501800  0.26498200  0.25000000  1
  Tb  Tb1  1  0.26498200  0.73501800  0.75000000  1
  Tb  Tb2  1  0.20670500  0.79329500  0.25000000  1
  Tb  Tb3  1  0.79329500  0.20670500  0.75000000  1
  F  F4  1  0.41738300  0.58261700  0.25000000  1
  F  F5  1  0.74219300  0.98590400  0.94888100  1
  F  F6  1  0.01409600  0.25780700  0.55111900  1
  F  F7  1  0.25780700  0.01409600  0.05111900  1
  F  F8  1  0.98590400  0.74219300  0.44888100  1
  F  F9  1  0.58261700  0.41738300  0.75000000  1
  F  F10  1  0.21181700  0.43964500  0.77536100  1
  F  F11  1  0.26272000  0.72242100  0.00076400  1
  F  F12  1  0.01330000  0.78500500  0.77779200  1
  F  F13  1  0.78500500  0.01330000  0.27779200  1
  F  F14  1  0.72242100  0.26272000  0.50076400  1
  F  F15  1  0.43964500  0.21181700  0.27536100  1
  F  F16  1  0.78818300  0.56035500  0.22463900  1
  F  F17  1  0.73728000  0.27757900  0.99923600  1
  F  F18  1  0.98670000  0.21499500  0.22220800  1
  F  F19  1  0.21499500  0.98670000  0.72220800  1
  F  F20  1  0.27757900  0.73728000  0.49923600  1
  F  F21  1  0.56035500  0.78818300  0.72463900  1
  F  F22  1  0.50959400  0.16369900  0.78115100  1
  F  F23  1  0.23518900  0.03574900  0.38135800  1
  F  F24  1  0.74804000  0.66650700  0.41369100  1
  F  F25  1  0.66650700  0.74804000  0.91369100  1
  F  F26  1  0.03574900  0.23518900  0.88135800  1
  F  F27  1  0.16369900  0.50959400  0.28115100  1
  F  F28  1  0.49040600  0.83630100  0.21884900  1
  F  F29  1  0.76481100  0.96425100  0.61864200  1
  F  F30  1  0.25196000  0.33349300  0.58630900  1
  F  F31  1  0.33349300  0.25196000  0.08630900  1
  F  F32  1  0.96425100  0.76481100  0.11864200  1
  F  F33  1  0.83630100  0.49040600  0.71884900  1
