# generated using pymatgen
data_KVH4O7
_symmetry_space_group_name_H-M   'P 1'
_cell_length_a   6.44474605
_cell_length_b   7.73920433
_cell_length_c   7.63892958
_cell_angle_alpha   77.07403887
_cell_angle_beta   68.73175096
_cell_angle_gamma   84.21670653
_symmetry_Int_Tables_number   1
_chemical_formula_structural   KVH4O7
_chemical_formula_sum   'K2 V2 H8 O14'
_cell_volume   345.98088200
_cell_formula_units_Z   2
loop_
 _symmetry_equiv_pos_site_id
 _symmetry_equiv_pos_as_xyz
  1  'x, y, z'
loop_
 _atom_site_type_symbol
 _atom_site_label
 _atom_site_symmetry_multiplicity
 _atom_site_fract_x
 _atom_site_fract_y
 _atom_site_fract_z
 _atom_site_occupancy
  K  K0  1  0.01661000  0.04703200  0.01085700  1
  K  K1  1  0.16890100  0.35766300  0.43976900  1
  V  V2  1  0.50748300  0.36376500  0.92525100  1
  V  V3  1  0.68831000  0.05339600  0.58886700  1
  H  H4  1  0.57220500  0.72720900  0.65746100  1
  H  H5  1  0.46409500  0.82481800  0.49560800  1
  H  H6  1  0.67117300  0.51950000  0.08300200  1
  H  H7  1  0.51008000  0.68357000  0.03757300  1
  H  H8  1  0.37131400  0.88634900  0.28309700  1
  H  H9  1  0.14993000  0.86602300  0.48722000  1
  H  H10  1  0.23605200  0.55418000  0.73689800  1
  H  H11  1  0.15891300  0.57697200  0.94647700  1
  O  O12  1  0.52455000  0.88262200  0.93816800  1
  O  O13  1  0.56249500  0.96561800  0.06110500  1
  O  O14  1  0.78874400  0.46944500  0.72773600  1
  O  O15  1  0.81751900  0.35210600  0.90014900  1
  O  O16  1  0.52858200  0.26345500  0.68429200  1
  O  O17  1  0.38253600  0.13388600  0.67335300  1
  O  O18  1  0.91677100  0.07900900  0.67910800  1
  O  O19  1  0.92172100  0.90166200  0.64412600  1
  O  O20  1  0.28154800  0.25694400  0.09164000  1
  O  O21  1  0.78904900  0.13905000  0.35802900  1
  O  O22  1  0.59614900  0.82474900  0.54674400  1
  O  O23  1  0.51420500  0.54980100  0.09920600  1
  O  O24  1  0.29775000  0.81237800  0.41424300  1
  O  O25  1  0.29211500  0.57389900  0.83342000  1
