# generated using pymatgen
data_TaCr3(CuS4)2
_symmetry_space_group_name_H-M   'P 1'
_cell_length_a   11.41128058
_cell_length_b   7.02735700
_cell_length_c   11.96548907
_cell_angle_alpha   90.00000000
_cell_angle_beta   89.62141067
_cell_angle_gamma   90.00000000
_symmetry_Int_Tables_number   1
_chemical_formula_structural   TaCr3(CuS4)2
_chemical_formula_sum   'Ta4 Cr12 Cu8 S32'
_cell_volume   959.50529195
_cell_formula_units_Z   4
loop_
 _symmetry_equiv_pos_site_id
 _symmetry_equiv_pos_as_xyz
  1  'x, y, z'
loop_
 _atom_site_type_symbol
 _atom_site_label
 _atom_site_symmetry_multiplicity
 _atom_site_fract_x
 _atom_site_fract_y
 _atom_site_fract_z
 _atom_site_occupancy
  Ta  Ta0  1  0.90640400  0.09046400  0.19144700  1
  Ta  Ta1  1  0.40640400  0.90953600  0.19144700  1
  Ta  Ta2  1  0.88356000  0.61197800  0.82507100  1
  Ta  Ta3  1  0.38356000  0.38802200  0.82507100  1
  Cr  Cr4  1  0.11772100  0.89376100  0.69650200  1
  Cr  Cr5  1  0.61772100  0.10623900  0.69650200  1
  Cr  Cr6  1  0.11635400  0.36488600  0.32876000  1
  Cr  Cr7  1  0.61635400  0.63511400  0.32876000  1
  Cr  Cr8  1  0.17769800  0.62577800  0.93852000  1
  Cr  Cr9  1  0.83312900  0.37956000  0.45267300  1
  Cr  Cr10  1  0.33312900  0.62044000  0.45267300  1
  Cr  Cr11  1  0.67769800  0.37422200  0.93852000  1
  Cr  Cr12  1  0.15088500  0.14906900  0.96903900  1
  Cr  Cr13  1  0.84935200  0.86544400  0.47680700  1
  Cr  Cr14  1  0.34935100  0.13455600  0.47680700  1
  Cr  Cr15  1  0.65088500  0.85093100  0.96903900  1
  Cu  Cu16  1  0.05099900  0.39509700  0.64244200  1
  Cu  Cu17  1  0.88473800  0.61707000  0.19329400  1
  Cu  Cu18  1  0.38473800  0.38293000  0.19329400  1
  Cu  Cu19  1  0.55099800  0.60490300  0.64244200  1
  Cu  Cu20  1  0.11282100  0.87759000  0.34067000  1
  Cu  Cu21  1  0.87283900  0.13384800  0.83231500  1
  Cu  Cu22  1  0.37283900  0.86615200  0.83231500  1
  Cu  Cu23  1  0.61282100  0.12241000  0.34067000  1
  S  S24  1  0.04201300  0.85885700  0.88554000  1
  S  S25  1  0.96793100  0.14022900  0.38993400  1
  S  S26  1  0.46793100  0.85977100  0.38993400  1
  S  S27  1  0.54201300  0.14114300  0.88554000  1
  S  S28  1  0.03983500  0.32959800  0.13829100  1
  S  S29  1  0.96872000  0.68318600  0.63795300  1
  S  S30  1  0.46872000  0.31681400  0.63795300  1
  S  S31  1  0.53983500  0.67040200  0.13829100  1
  S  S32  1  0.04012800  0.39647200  0.87454800  1
  S  S33  1  0.97044100  0.59940800  0.37300600  1
  S  S34  1  0.47044100  0.40059200  0.37300600  1
  S  S35  1  0.54012800  0.60352800  0.87454800  1
  S  S36  1  0.02607500  0.84096200  0.15612000  1
  S  S37  1  0.97523000  0.10964700  0.66174200  1
  S  S38  1  0.47523000  0.89035300  0.66174200  1
  S  S39  1  0.52607500  0.15903800  0.15612000  1
  S  S40  1  0.21325700  0.88014400  0.51905700  1
  S  S41  1  0.78677600  0.11213500  0.02476800  1
  S  S42  1  0.28677600  0.88786500  0.02476800  1
  S  S43  1  0.71325700  0.11985600  0.51905700  1
  S  S44  1  0.20617700  0.37546500  0.51014500  1
  S  S45  1  0.79521000  0.61893900  0.01334800  1
  S  S46  1  0.29521000  0.38106100  0.01334800  1
  S  S47  1  0.70617700  0.62453500  0.51014500  1
  S  S48  1  0.24780300  0.12234400  0.79215800  1
  S  S49  1  0.75699700  0.89020400  0.29722400  1
  S  S50  1  0.25699700  0.10979600  0.29722400  1
  S  S51  1  0.74780300  0.87765600  0.79215800  1
  S  S52  1  0.25518700  0.62550700  0.75801500  1
  S  S53  1  0.75172200  0.39105800  0.27461200  1
  S  S54  1  0.25172200  0.60894200  0.27461200  1
  S  S55  1  0.75518700  0.37449300  0.75801500  1
