# generated using pymatgen
data_MoS3
_symmetry_space_group_name_H-M   'P 1'
_cell_length_a   4.42516900
_cell_length_b   6.10693000
_cell_length_c   8.06268438
_cell_angle_alpha   73.89799943
_cell_angle_beta   90.00000000
_cell_angle_gamma   90.00000000
_symmetry_Int_Tables_number   1
_chemical_formula_structural   MoS3
_chemical_formula_sum   'Mo2 S6'
_cell_volume   209.33972867
_cell_formula_units_Z   2
loop_
 _symmetry_equiv_pos_site_id
 _symmetry_equiv_pos_as_xyz
  1  'x, y, z'
loop_
 _atom_site_type_symbol
 _atom_site_label
 _atom_site_symmetry_multiplicity
 _atom_site_fract_x
 _atom_site_fract_y
 _atom_site_fract_z
 _atom_site_occupancy
  Mo  Mo0  1  0.25000000  0.70687500  0.30708000  1
  Mo  Mo1  1  0.75000000  0.29312500  0.69292000  1
  S  S2  1  0.75000000  0.54371700  0.38116300  1
  S  S3  1  0.25000000  0.45628300  0.61883700  1
  S  S4  1  0.25000000  0.05062800  0.31463700  1
  S  S5  1  0.75000000  0.94937200  0.68536300  1
  S  S6  1  0.25000000  0.70412600  0.04296200  1
  S  S7  1  0.75000000  0.29587400  0.95703800  1
