# generated using pymatgen
data_TaCr3(AgS4)2
_symmetry_space_group_name_H-M   'P 1'
_cell_length_a   7.01117900
_cell_length_b   5.99323900
_cell_length_c   6.51851803
_cell_angle_alpha   86.24108990
_cell_angle_beta   90.00000000
_cell_angle_gamma   90.00000000
_symmetry_Int_Tables_number   1
_chemical_formula_structural   TaCr3(AgS4)2
_chemical_formula_sum   'Ta1 Cr3 Ag2 S8'
_cell_volume   273.31674265
_cell_formula_units_Z   1
loop_
 _symmetry_equiv_pos_site_id
 _symmetry_equiv_pos_as_xyz
  1  'x, y, z'
loop_
 _atom_site_type_symbol
 _atom_site_label
 _atom_site_symmetry_multiplicity
 _atom_site_fract_x
 _atom_site_fract_y
 _atom_site_fract_z
 _atom_site_occupancy
  Ta  Ta0  1  0.50000000  0.00000000  0.50000000  1
  Cr  Cr1  1  0.24806100  0.50000000  0.50000000  1
  Cr  Cr2  1  0.75193900  0.50000000  0.50000000  1
  Cr  Cr3  1  0.00000000  0.00000000  0.50000000  1
  Ag  Ag4  1  0.00000000  0.00000000  0.00000000  1
  Ag  Ag5  1  0.50000000  0.00000000  0.00000000  1
  S  S6  1  0.00000000  0.32216800  0.69902100  1
  S  S7  1  0.50000000  0.32799600  0.71187300  1
  S  S8  1  0.24547900  0.81595800  0.71423800  1
  S  S9  1  0.75452100  0.81595800  0.71423800  1
  S  S10  1  0.24547900  0.18404200  0.28576200  1
  S  S11  1  0.75452100  0.18404200  0.28576200  1
  S  S12  1  0.50000000  0.67200400  0.28812700  1
  S  S13  1  0.00000000  0.67783200  0.30097900  1
