# generated using pymatgen
data_TaCr3(AgS4)2
_symmetry_space_group_name_H-M   'P 1'
_cell_length_a   7.23621600
_cell_length_b   7.33651100
_cell_length_c   10.29541000
_cell_angle_alpha   90.00000000
_cell_angle_beta   90.00000000
_cell_angle_gamma   90.00000000
_symmetry_Int_Tables_number   1
_chemical_formula_structural   TaCr3(AgS4)2
_chemical_formula_sum   'Ta2 Cr6 Ag4 S16'
_cell_volume   546.56867973
_cell_formula_units_Z   2
loop_
 _symmetry_equiv_pos_site_id
 _symmetry_equiv_pos_as_xyz
  1  'x, y, z'
loop_
 _atom_site_type_symbol
 _atom_site_label
 _atom_site_symmetry_multiplicity
 _atom_site_fract_x
 _atom_site_fract_y
 _atom_site_fract_z
 _atom_site_occupancy
  Ta  Ta0  1  0.50000000  0.79106500  0.25000000  1
  Ta  Ta1  1  0.50000000  0.20893500  0.75000000  1
  Cr  Cr2  1  0.73487600  0.00000000  0.50000000  1
  Cr  Cr3  1  0.74112100  0.50000000  0.50000000  1
  Cr  Cr4  1  0.25887900  0.50000000  0.00000000  1
  Cr  Cr5  1  0.00000000  0.75927300  0.25000000  1
  Cr  Cr6  1  0.26512400  0.00000000  0.00000000  1
  Cr  Cr7  1  0.00000000  0.24072700  0.75000000  1
  Ag  Ag8  1  0.77448700  0.71787900  0.88138300  1
  Ag  Ag9  1  0.22551300  0.28212100  0.38138300  1
  Ag  Ag10  1  0.22551300  0.71787900  0.61861700  1
  Ag  Ag11  1  0.77448700  0.28212100  0.11861700  1
  S  S12  1  0.75747500  0.99900800  0.26233800  1
  S  S13  1  0.51363800  0.74863500  0.48644000  1
  S  S14  1  0.74838500  0.54321500  0.26466600  1
  S  S15  1  0.48636200  0.25136500  0.98644000  1
  S  S16  1  0.25161500  0.54321500  0.23533400  1
  S  S17  1  0.04719900  0.75450700  0.01747900  1
  S  S18  1  0.24252500  0.99900800  0.23766200  1
  S  S19  1  0.48636200  0.74863500  0.01356000  1
  S  S20  1  0.25161500  0.45678500  0.76466600  1
  S  S21  1  0.04719900  0.24549300  0.98252100  1
  S  S22  1  0.24252500  0.00099200  0.76233800  1
  S  S23  1  0.95280100  0.75450700  0.48252100  1
  S  S24  1  0.75747500  0.00099200  0.73766200  1
  S  S25  1  0.51363800  0.25136500  0.51356000  1
  S  S26  1  0.74838500  0.45678500  0.73533400  1
  S  S27  1  0.95280100  0.24549300  0.51747900  1
