# generated using pymatgen
data_TaCr3(AgS4)2
_symmetry_space_group_name_H-M   'P 1'
_cell_length_a   6.52908324
_cell_length_b   7.64236976
_cell_length_c   12.34163150
_cell_angle_alpha   81.81258123
_cell_angle_beta   85.66095752
_cell_angle_gamma   90.27919117
_symmetry_Int_Tables_number   1
_chemical_formula_structural   TaCr3(AgS4)2
_chemical_formula_sum   'Ta2 Cr6 Ag4 S16'
_cell_volume   607.71846744
_cell_formula_units_Z   2
loop_
 _symmetry_equiv_pos_site_id
 _symmetry_equiv_pos_as_xyz
  1  'x, y, z'
loop_
 _atom_site_type_symbol
 _atom_site_label
 _atom_site_symmetry_multiplicity
 _atom_site_fract_x
 _atom_site_fract_y
 _atom_site_fract_z
 _atom_site_occupancy
  Ta  Ta0  1  0.85586600  0.29480500  0.30411700  1
  Ta  Ta1  1  0.63691600  0.44962600  0.69738700  1
  Cr  Cr2  1  0.14863300  0.70452400  0.70533000  1
  Cr  Cr3  1  0.24613600  0.88465600  0.99960000  1
  Cr  Cr4  1  0.75385600  0.10809000  0.00037900  1
  Cr  Cr5  1  0.35865700  0.55584800  0.29429400  1
  Cr  Cr6  1  0.36307100  0.04655000  0.29372600  1
  Cr  Cr7  1  0.62009300  0.94502100  0.70550400  1
  Ag  Ag8  1  0.13726500  0.19804600  0.70409300  1
  Ag  Ag9  1  0.87793100  0.80038200  0.29691200  1
  Ag  Ag10  1  0.25070500  0.37735700  0.00016300  1
  Ag  Ag11  1  0.74791200  0.63137700  0.00016700  1
  S  S12  1  0.11616000  0.67618600  0.88434700  1
  S  S13  1  0.87471700  0.32535900  0.11800900  1
  S  S14  1  0.08503200  0.13374200  0.90694000  1
  S  S15  1  0.91515500  0.86732400  0.09341600  1
  S  S16  1  0.22667500  0.78326600  0.36703200  1
  S  S17  1  0.78413500  0.21543900  0.62638200  1
  S  S18  1  0.19094600  0.28458200  0.36359700  1
  S  S19  1  0.82027500  0.71830300  0.63937200  1
  S  S20  1  0.31935100  0.94658400  0.63152100  1
  S  S21  1  0.67525700  0.04283000  0.37507000  1
  S  S22  1  0.31825800  0.48449600  0.62752000  1
  S  S23  1  0.67458300  0.52215100  0.37000500  1
  S  S24  1  0.41881500  0.07562700  0.10745900  1
  S  S25  1  0.58128600  0.92292700  0.89120500  1
  S  S26  1  0.37968700  0.61795200  0.11235900  1
  S  S27  1  0.62262700  0.38695000  0.88409400  1
