# generated using pymatgen
data_HfCrCuS4
_symmetry_space_group_name_H-M   'P 1'
_cell_length_a   11.58205000
_cell_length_b   3.53932200
_cell_length_c   12.92882900
_cell_angle_alpha   90.00000000
_cell_angle_beta   90.00000000
_cell_angle_gamma   90.00000000
_symmetry_Int_Tables_number   1
_chemical_formula_structural   HfCrCuS4
_chemical_formula_sum   'Hf4 Cr4 Cu4 S16'
_cell_volume   529.98637217
_cell_formula_units_Z   4
loop_
 _symmetry_equiv_pos_site_id
 _symmetry_equiv_pos_as_xyz
  1  'x, y, z'
loop_
 _atom_site_type_symbol
 _atom_site_label
 _atom_site_symmetry_multiplicity
 _atom_site_fract_x
 _atom_site_fract_y
 _atom_site_fract_z
 _atom_site_occupancy
  Hf  Hf0  1  0.15271600  0.25000000  0.66666800  1
  Hf  Hf1  1  0.84728400  0.75000000  0.33333200  1
  Hf  Hf2  1  0.34728400  0.75000000  0.16666800  1
  Hf  Hf3  1  0.65271600  0.25000000  0.83333200  1
  Cr  Cr4  1  0.11102900  0.25000000  0.06169600  1
  Cr  Cr5  1  0.88897100  0.75000000  0.93830400  1
  Cr  Cr6  1  0.38897100  0.75000000  0.56169600  1
  Cr  Cr7  1  0.61102900  0.25000000  0.43830400  1
  Cu  Cu8  1  0.09662300  0.75000000  0.48137300  1
  Cu  Cu9  1  0.90337700  0.25000000  0.51862700  1
  Cu  Cu10  1  0.40337700  0.25000000  0.98137300  1
  Cu  Cu11  1  0.59662300  0.75000000  0.01862700  1
  S  S12  1  0.99682000  0.75000000  0.63423600  1
  S  S13  1  0.00318000  0.25000000  0.36576400  1
  S  S14  1  0.50318000  0.25000000  0.13423600  1
  S  S15  1  0.49682000  0.75000000  0.86576400  1
  S  S16  1  0.01897700  0.25000000  0.89357000  1
  S  S17  1  0.98102300  0.75000000  0.10643000  1
  S  S18  1  0.48102300  0.75000000  0.39357000  1
  S  S19  1  0.51897700  0.25000000  0.60643000  1
  S  S20  1  0.21810500  0.25000000  0.23165200  1
  S  S21  1  0.78189500  0.75000000  0.76834800  1
  S  S22  1  0.28189500  0.75000000  0.73165200  1
  S  S23  1  0.71810500  0.25000000  0.26834800  1
  S  S24  1  0.24810900  0.75000000  0.99988200  1
  S  S25  1  0.75189100  0.25000000  0.00011800  1
  S  S26  1  0.25189100  0.25000000  0.49988200  1
  S  S27  1  0.74810900  0.75000000  0.50011800  1
