# generated using pymatgen
data_HfCrAgS4
_symmetry_space_group_name_H-M   'P 1'
_cell_length_a   12.09728445
_cell_length_b   3.60941100
_cell_length_c   12.38195852
_cell_angle_alpha   90.00000000
_cell_angle_beta   90.93902643
_cell_angle_gamma   90.00000000
_symmetry_Int_Tables_number   1
_chemical_formula_structural   HfCrAgS4
_chemical_formula_sum   'Hf4 Cr4 Ag4 S16'
_cell_volume   540.57411485
_cell_formula_units_Z   4
loop_
 _symmetry_equiv_pos_site_id
 _symmetry_equiv_pos_as_xyz
  1  'x, y, z'
loop_
 _atom_site_type_symbol
 _atom_site_label
 _atom_site_symmetry_multiplicity
 _atom_site_fract_x
 _atom_site_fract_y
 _atom_site_fract_z
 _atom_site_occupancy
  Hf  Hf0  1  0.89343000  0.75000000  0.91307500  1
  Hf  Hf1  1  0.16390600  0.25000000  0.69261200  1
  Hf  Hf2  1  0.84454500  0.75000000  0.29407800  1
  Hf  Hf3  1  0.34690500  0.75000000  0.21039200  1
  Cr  Cr4  1  0.10744700  0.25000000  0.07731800  1
  Cr  Cr5  1  0.40096000  0.75000000  0.57770900  1
  Cr  Cr6  1  0.60659300  0.25000000  0.43117400  1
  Cr  Cr7  1  0.65045100  0.25000000  0.79878600  1
  Ag  Ag8  1  0.13609500  0.75000000  0.41618800  1
  Ag  Ag9  1  0.85661600  0.25000000  0.58816400  1
  Ag  Ag10  1  0.38147800  0.25000000  0.91110900  1
  Ag  Ag11  1  0.62566700  0.75000000  0.08435900  1
  S  S12  1  0.03808600  0.75000000  0.62417900  1
  S  S13  1  0.95579500  0.25000000  0.38379000  1
  S  S14  1  0.45184200  0.25000000  0.11883700  1
  S  S15  1  0.55007400  0.75000000  0.87953900  1
  S  S16  1  0.04234600  0.25000000  0.88164100  1
  S  S17  1  0.96919600  0.75000000  0.11801800  1
  S  S18  1  0.47149600  0.75000000  0.39060300  1
  S  S19  1  0.53137700  0.25000000  0.61799400  1
  S  S20  1  0.20130200  0.25000000  0.25321600  1
  S  S21  1  0.77850200  0.75000000  0.74319400  1
  S  S22  1  0.30093700  0.75000000  0.75199000  1
  S  S23  1  0.70037700  0.25000000  0.24792600  1
  S  S24  1  0.22756300  0.75000000  0.03391800  1
  S  S25  1  0.76156600  0.25000000  0.96610400  1
  S  S26  1  0.27575600  0.25000000  0.52468300  1
  S  S27  1  0.72969100  0.75000000  0.46940300  1
