# generated using pymatgen
data_HfCrAgS4
_symmetry_space_group_name_H-M   'P 1'
_cell_length_a   7.13157900
_cell_length_b   6.17040300
_cell_length_c   6.55323308
_cell_angle_alpha   88.54873852
_cell_angle_beta   90.00000000
_cell_angle_gamma   90.00000000
_symmetry_Int_Tables_number   1
_chemical_formula_structural   HfCrAgS4
_chemical_formula_sum   'Hf2 Cr2 Ag2 S8'
_cell_volume   288.28066212
_cell_formula_units_Z   2
loop_
 _symmetry_equiv_pos_site_id
 _symmetry_equiv_pos_as_xyz
  1  'x, y, z'
loop_
 _atom_site_type_symbol
 _atom_site_label
 _atom_site_symmetry_multiplicity
 _atom_site_fract_x
 _atom_site_fract_y
 _atom_site_fract_z
 _atom_site_occupancy
  Hf  Hf0  1  0.23933400  0.00000000  0.50000000  1
  Hf  Hf1  1  0.51213100  0.50000000  0.50000000  1
  Cr  Cr2  1  0.75055400  0.00000000  0.50000000  1
  Cr  Cr3  1  0.00022500  0.50000000  0.50000000  1
  Ag  Ag4  1  0.99595100  0.50000000  0.00000000  1
  Ag  Ag5  1  0.50362300  0.50000000  0.00000000  1
  S  S6  1  0.98712700  0.82023900  0.70917600  1
  S  S7  1  0.50711100  0.83616200  0.71900300  1
  S  S8  1  0.24250000  0.33430800  0.72216500  1
  S  S9  1  0.76236200  0.31840900  0.71351600  1
  S  S10  1  0.24250000  0.66569200  0.27783500  1
  S  S11  1  0.76236200  0.68159100  0.28648400  1
  S  S12  1  0.50711100  0.16383800  0.28099700  1
  S  S13  1  0.98712700  0.17976100  0.29082400  1
