# generated using pymatgen
data_NbCr3(AgS4)2
_symmetry_space_group_name_H-M   'P 1'
_cell_length_a   6.47371456
_cell_length_b   7.64234178
_cell_length_c   12.52183742
_cell_angle_alpha   82.24869694
_cell_angle_beta   85.82397060
_cell_angle_gamma   89.94461318
_symmetry_Int_Tables_number   1
_chemical_formula_structural   NbCr3(AgS4)2
_chemical_formula_sum   'Nb2 Cr6 Ag4 S16'
_cell_volume   612.19474034
_cell_formula_units_Z   2
loop_
 _symmetry_equiv_pos_site_id
 _symmetry_equiv_pos_as_xyz
  1  'x, y, z'
loop_
 _atom_site_type_symbol
 _atom_site_label
 _atom_site_symmetry_multiplicity
 _atom_site_fract_x
 _atom_site_fract_y
 _atom_site_fract_z
 _atom_site_occupancy
  Nb  Nb0  1  0.14750300  0.70592700  0.69963200  1
  Nb  Nb1  1  0.76421600  0.11300900  0.00010000  1
  Cr  Cr2  1  0.84698000  0.29872900  0.29864900  1
  Cr  Cr3  1  0.24730300  0.88411600  0.00565200  1
  Cr  Cr4  1  0.36218400  0.54998300  0.29207900  1
  Cr  Cr5  1  0.64568400  0.44646100  0.70208900  1
  Cr  Cr6  1  0.37121400  0.05346800  0.29808200  1
  Cr  Cr7  1  0.63341700  0.95073300  0.70532700  1
  Ag  Ag8  1  0.11669200  0.20159900  0.69992000  1
  Ag  Ag9  1  0.87122600  0.79547300  0.30546100  1
  Ag  Ag10  1  0.25497400  0.37540200  0.00304600  1
  Ag  Ag11  1  0.74305700  0.62128300  0.00314700  1
  S  S12  1  0.12279900  0.67475400  0.88593000  1
  S  S13  1  0.86862700  0.32847500  0.12159000  1
  S  S14  1  0.09971200  0.13310000  0.90295800  1
  S  S15  1  0.91731900  0.86029400  0.10164200  1
  S  S16  1  0.23731600  0.78618600  0.36128800  1
  S  S17  1  0.76627900  0.21381800  0.63015300  1
  S  S18  1  0.18395700  0.28916300  0.35204200  1
  S  S19  1  0.80934400  0.71655400  0.63813600  1
  S  S20  1  0.32296300  0.95987800  0.62519400  1
  S  S21  1  0.67749900  0.05295400  0.37122000  1
  S  S22  1  0.32693000  0.47470100  0.63268300  1
  S  S23  1  0.67008100  0.51584500  0.36404700  1
  S  S24  1  0.41162200  0.07442500  0.11424300  1
  S  S25  1  0.57345700  0.92389300  0.89113900  1
  S  S26  1  0.37404200  0.61753000  0.11320600  1
  S  S27  1  0.63360200  0.38224900  0.88134200  1
