# generated using pymatgen
data_HfCrAgS4
_symmetry_space_group_name_H-M   'P 1'
_cell_length_a   6.61193000
_cell_length_b   7.74782249
_cell_length_c   12.82190960
_cell_angle_alpha   98.28140300
_cell_angle_beta   94.56902137
_cell_angle_gamma   90.14697001
_symmetry_Int_Tables_number   1
_chemical_formula_structural   HfCrAgS4
_chemical_formula_sum   'Hf4 Cr4 Ag4 S16'
_cell_volume   647.86116178
_cell_formula_units_Z   4
loop_
 _symmetry_equiv_pos_site_id
 _symmetry_equiv_pos_as_xyz
  1  'x, y, z'
loop_
 _atom_site_type_symbol
 _atom_site_label
 _atom_site_symmetry_multiplicity
 _atom_site_fract_x
 _atom_site_fract_y
 _atom_site_fract_z
 _atom_site_occupancy
  Hf  Hf0  1  0.85568500  0.29641700  0.69621400  1
  Hf  Hf1  1  0.14431500  0.70358300  0.30378600  1
  Hf  Hf2  1  0.75849700  0.11888200  0.00116700  1
  Hf  Hf3  1  0.24150300  0.88111800  0.99883300  1
  Cr  Cr4  1  0.63875800  0.44442800  0.29640500  1
  Cr  Cr5  1  0.36124200  0.55557200  0.70359500  1
  Cr  Cr6  1  0.63666400  0.95344600  0.29921400  1
  Cr  Cr7  1  0.36333600  0.04655400  0.70078600  1
  Ag  Ag8  1  0.87854100  0.80104200  0.69537900  1
  Ag  Ag9  1  0.12145900  0.19895800  0.30462100  1
  Ag  Ag10  1  0.73500600  0.62624600  0.99960900  1
  Ag  Ag11  1  0.26499400  0.37375400  0.00039100  1
  S  S12  1  0.87729900  0.33528600  0.88406600  1
  S  S13  1  0.12270100  0.66471400  0.11593400  1
  S  S14  1  0.90575600  0.85916700  0.89559900  1
  S  S15  1  0.09424400  0.14083300  0.10440100  1
  S  S16  1  0.77145500  0.21822400  0.36359500  1
  S  S17  1  0.22854500  0.78177600  0.63640500  1
  S  S18  1  0.79723600  0.71259000  0.36125300  1
  S  S19  1  0.20276400  0.28741000  0.63874700  1
  S  S20  1  0.66745900  0.03748300  0.62404500  1
  S  S21  1  0.33254100  0.96251700  0.37595500  1
  S  S22  1  0.66651700  0.52971400  0.63202000  1
  S  S23  1  0.33348300  0.47028600  0.36798000  1
  S  S24  1  0.58474700  0.92411800  0.11531500  1
  S  S25  1  0.41525300  0.07588200  0.88468500  1
  S  S26  1  0.62488300  0.39115500  0.12133800  1
  S  S27  1  0.37511700  0.60884500  0.87866200  1
