# generated using pymatgen
data_HfCrAgS4
_symmetry_space_group_name_H-M   'P 1'
_cell_length_a   6.63226900
_cell_length_b   7.75770414
_cell_length_c   12.70939956
_cell_angle_alpha   98.12088520
_cell_angle_beta   95.05523820
_cell_angle_gamma   89.96890636
_symmetry_Int_Tables_number   1
_chemical_formula_structural   HfCrAgS4
_chemical_formula_sum   'Hf4 Cr4 Ag4 S16'
_cell_volume   644.79124663
_cell_formula_units_Z   4
loop_
 _symmetry_equiv_pos_site_id
 _symmetry_equiv_pos_as_xyz
  1  'x, y, z'
loop_
 _atom_site_type_symbol
 _atom_site_label
 _atom_site_symmetry_multiplicity
 _atom_site_fract_x
 _atom_site_fract_y
 _atom_site_fract_z
 _atom_site_occupancy
  Hf  Hf0  1  0.85387000  0.29534700  0.69991900  1
  Hf  Hf1  1  0.14636000  0.71327400  0.30309600  1
  Hf  Hf2  1  0.23793500  0.89069600  0.99764300  1
  Hf  Hf3  1  0.63584800  0.43732800  0.29536300  1
  Cr  Cr4  1  0.75564200  0.11316200  0.99814600  1
  Cr  Cr5  1  0.36041400  0.55567800  0.70507300  1
  Cr  Cr6  1  0.62352300  0.95216800  0.29064800  1
  Cr  Cr7  1  0.36621500  0.04592400  0.70440600  1
  Ag  Ag8  1  0.88271000  0.80018000  0.69812400  1
  Ag  Ag9  1  0.12414500  0.19453400  0.29628400  1
  Ag  Ag10  1  0.73682400  0.62688800  0.99419900  1
  Ag  Ag11  1  0.25469900  0.36803800  0.99590800  1
  S  S12  1  0.87645200  0.32590100  0.88750600  1
  S  S13  1  0.13651000  0.66530800  0.11528000  1
  S  S14  1  0.89900300  0.86715800  0.89924500  1
  S  S15  1  0.07897600  0.14335100  0.09757500  1
  S  S16  1  0.79016600  0.20799900  0.37670400  1
  S  S17  1  0.23242500  0.78396200  0.63779400  1
  S  S18  1  0.80224500  0.72160200  0.36316000  1
  S  S19  1  0.20392200  0.28788400  0.64581200  1
  S  S20  1  0.66516700  0.03500400  0.62850200  1
  S  S21  1  0.33369200  0.96742600  0.38018700  1
  S  S22  1  0.66519300  0.53192200  0.63491600  1
  S  S23  1  0.31525800  0.47391600  0.37462800  1
  S  S24  1  0.59818900  0.93005200  0.10851600  1
  S  S25  1  0.42827200  0.07970200  0.88535400  1
  S  S26  1  0.62494700  0.37757300  0.10673500  1
  S  S27  1  0.37139800  0.60802200  0.87927800  1
