# generated using pymatgen
data_NbCr3(CuS4)2
_symmetry_space_group_name_H-M   'P 1'
_cell_length_a   6.02563800
_cell_length_b   6.94672332
_cell_length_c   12.66057555
_cell_angle_alpha   88.88627032
_cell_angle_beta   79.20716995
_cell_angle_gamma   89.73496975
_symmetry_Int_Tables_number   1
_chemical_formula_structural   NbCr3(CuS4)2
_chemical_formula_sum   'Nb2 Cr6 Cu4 S16'
_cell_volume   520.47885062
_cell_formula_units_Z   2
loop_
 _symmetry_equiv_pos_site_id
 _symmetry_equiv_pos_as_xyz
  1  'x, y, z'
loop_
 _atom_site_type_symbol
 _atom_site_label
 _atom_site_symmetry_multiplicity
 _atom_site_fract_x
 _atom_site_fract_y
 _atom_site_fract_z
 _atom_site_occupancy
  Nb  Nb0  1  0.27954900  0.01768400  0.75332100  1
  Nb  Nb1  1  0.19370000  0.22373200  0.24702000  1
  Cr  Cr2  1  0.74413800  0.99719800  0.25314500  1
  Cr  Cr3  1  0.24970000  0.49598400  0.74338000  1
  Cr  Cr4  1  0.75111200  0.49154400  0.24932200  1
  Cr  Cr5  1  0.74463600  0.25085000  0.74851700  1
  Cr  Cr6  1  0.24178500  0.74838000  0.25188900  1
  Cr  Cr7  1  0.74520900  0.75233400  0.75007200  1
  Cu  Cu8  1  0.59716400  0.00016200  0.03544600  1
  Cu  Cu9  1  0.05166700  0.57715000  0.47229900  1
  Cu  Cu10  1  0.32425900  0.99230700  0.53813200  1
  Cu  Cu11  1  0.16048700  0.50111500  0.95978000  1
  S  S12  1  0.47192800  0.25831000  0.62816800  1
  S  S13  1  0.86757300  0.73541200  0.35649900  1
  S  S14  1  0.03981100  0.74218000  0.85547600  1
  S  S15  1  0.61023200  0.24675800  0.14622300  1
  S  S16  1  0.02944400  0.25086900  0.86278100  1
  S  S17  1  0.61726700  0.75005800  0.14935800  1
  S  S18  1  0.46375000  0.74697200  0.63767400  1
  S  S19  1  0.84737300  0.24008300  0.36989000  1
  S  S20  1  0.55508400  0.99940600  0.86814900  1
  S  S21  1  0.11176100  0.98700100  0.12982700  1
  S  S22  1  0.95164100  0.50631200  0.64490800  1
  S  S23  1  0.36532400  0.48966000  0.35206200  1
  S  S24  1  0.95908200  0.00532200  0.64525400  1
  S  S25  1  0.37215800  0.99003300  0.36057000  1
  S  S26  1  0.53405100  0.49624400  0.85282800  1
  S  S27  1  0.12011700  0.50693900  0.13801100  1
