# generated using pymatgen
data_NbCr3(AgS4)2
_symmetry_space_group_name_H-M   'P 1'
_cell_length_a   6.52110593
_cell_length_b   7.69291719
_cell_length_c   12.27653283
_cell_angle_alpha   82.15671294
_cell_angle_beta   85.40000383
_cell_angle_gamma   90.64896488
_symmetry_Int_Tables_number   1
_chemical_formula_structural   NbCr3(AgS4)2
_chemical_formula_sum   'Nb2 Cr6 Ag4 S16'
_cell_volume   607.98722060
_cell_formula_units_Z   2
loop_
 _symmetry_equiv_pos_site_id
 _symmetry_equiv_pos_as_xyz
  1  'x, y, z'
loop_
 _atom_site_type_symbol
 _atom_site_label
 _atom_site_symmetry_multiplicity
 _atom_site_fract_x
 _atom_site_fract_y
 _atom_site_fract_z
 _atom_site_occupancy
  Nb  Nb0  1  0.14848700  0.70661100  0.69556700  1
  Nb  Nb1  1  0.85151300  0.29338900  0.30443300  1
  Cr  Cr2  1  0.24461800  0.88974300  0.00175900  1
  Cr  Cr3  1  0.75538200  0.11025700  0.99824100  1
  Cr  Cr4  1  0.36221000  0.55731100  0.29356600  1
  Cr  Cr5  1  0.63779000  0.44268900  0.70643400  1
  Cr  Cr6  1  0.36297200  0.04846800  0.29491500  1
  Cr  Cr7  1  0.63702800  0.95153200  0.70508500  1
  Ag  Ag8  1  0.11931300  0.20058900  0.70237100  1
  Ag  Ag9  1  0.88068700  0.79941100  0.29762900  1
  Ag  Ag10  1  0.25816900  0.37368800  0.00038800  1
  Ag  Ag11  1  0.74183100  0.62631200  0.99961200  1
  S  S12  1  0.12575700  0.67520200  0.88311000  1
  S  S13  1  0.87424300  0.32479800  0.11689000  1
  S  S14  1  0.08972200  0.13522000  0.90737500  1
  S  S15  1  0.91027800  0.86478000  0.09262500  1
  S  S16  1  0.22932000  0.78313500  0.36662400  1
  S  S17  1  0.77068000  0.21686500  0.63337600  1
  S  S18  1  0.19559900  0.28899400  0.35746200  1
  S  S19  1  0.80440100  0.71100600  0.64253800  1
  S  S20  1  0.32725700  0.96207700  0.62508600  1
  S  S21  1  0.67274300  0.03792300  0.37491400  1
  S  S22  1  0.32758200  0.47499500  0.63122800  1
  S  S23  1  0.67241800  0.52500500  0.36877200  1
  S  S24  1  0.41918600  0.07742900  0.10871300  1
  S  S25  1  0.58081400  0.92257100  0.89128700  1
  S  S26  1  0.37015700  0.61919800  0.11236200  1
  S  S27  1  0.62984300  0.38080200  0.88763800  1
