# generated using pymatgen
data_NbCr3(AgS4)2
_symmetry_space_group_name_H-M   'P 1'
_cell_length_a   11.64701769
_cell_length_b   7.25417600
_cell_length_c   12.26616525
_cell_angle_alpha   90.00000000
_cell_angle_beta   89.64305116
_cell_angle_gamma   90.00000000
_symmetry_Int_Tables_number   1
_chemical_formula_structural   NbCr3(AgS4)2
_chemical_formula_sum   'Nb4 Cr12 Ag8 S32'
_cell_volume   1036.34225577
_cell_formula_units_Z   4
loop_
 _symmetry_equiv_pos_site_id
 _symmetry_equiv_pos_as_xyz
  1  'x, y, z'
loop_
 _atom_site_type_symbol
 _atom_site_label
 _atom_site_symmetry_multiplicity
 _atom_site_fract_x
 _atom_site_fract_y
 _atom_site_fract_z
 _atom_site_occupancy
  Nb  Nb0  1  0.89352500  0.09655000  0.18600600  1
  Nb  Nb1  1  0.39352500  0.90345000  0.18600600  1
  Nb  Nb2  1  0.86079300  0.61005000  0.82078200  1
  Nb  Nb3  1  0.36079300  0.38995000  0.82078200  1
  Cr  Cr4  1  0.11040600  0.88556700  0.69152100  1
  Cr  Cr5  1  0.61040600  0.11443300  0.69152100  1
  Cr  Cr6  1  0.12794400  0.36580200  0.33038700  1
  Cr  Cr7  1  0.62794400  0.63419800  0.33038700  1
  Cr  Cr8  1  0.16173400  0.62949700  0.94105000  1
  Cr  Cr9  1  0.84259200  0.37890000  0.44615700  1
  Cr  Cr10  1  0.34259200  0.62110000  0.44615700  1
  Cr  Cr11  1  0.66173400  0.37050300  0.94105000  1
  Cr  Cr12  1  0.12685100  0.14778300  0.98709200  1
  Cr  Cr13  1  0.86336900  0.87926900  0.49357400  1
  Cr  Cr14  1  0.36336900  0.12073100  0.49357400  1
  Cr  Cr15  1  0.62685100  0.85221700  0.98709200  1
  Ag  Ag16  1  0.09130300  0.37324200  0.66426600  1
  Ag  Ag17  1  0.90031700  0.61940600  0.17590500  1
  Ag  Ag18  1  0.40031700  0.38059400  0.17590500  1
  Ag  Ag19  1  0.59130300  0.62675800  0.66426600  1
  Ag  Ag20  1  0.11376100  0.88082400  0.33662200  1
  Ag  Ag21  1  0.88590500  0.12314300  0.82780100  1
  Ag  Ag22  1  0.38590500  0.87685700  0.82780100  1
  Ag  Ag23  1  0.61376100  0.11917600  0.33662200  1
  S  S24  1  0.02920000  0.84906600  0.87371000  1
  S  S25  1  0.97546200  0.15375700  0.38050700  1
  S  S26  1  0.47546200  0.84624300  0.38050700  1
  S  S27  1  0.52920000  0.15093400  0.87371000  1
  S  S28  1  0.04262400  0.32989300  0.14876700  1
  S  S29  1  0.95998000  0.67485700  0.64407900  1
  S  S30  1  0.45998000  0.32514300  0.64407900  1
  S  S31  1  0.54262400  0.67010700  0.14876700  1
  S  S32  1  0.01930400  0.41433000  0.89138000  1
  S  S33  1  0.98511200  0.58362100  0.38334500  1
  S  S34  1  0.48511200  0.41637900  0.38334500  1
  S  S35  1  0.51930400  0.58567000  0.89138000  1
  S  S36  1  0.02935700  0.89116100  0.12554400  1
  S  S37  1  0.97377300  0.07911100  0.62966700  1
  S  S38  1  0.47377300  0.92088900  0.62966700  1
  S  S39  1  0.52935700  0.10883900  0.12554400  1
  S  S40  1  0.22908000  0.87338500  0.52864700  1
  S  S41  1  0.77400700  0.12592300  0.02973600  1
  S  S42  1  0.27400700  0.87407700  0.02973600  1
  S  S43  1  0.72908000  0.12661500  0.52864700  1
  S  S44  1  0.22778000  0.37185200  0.50137600  1
  S  S45  1  0.77315400  0.62378400  0.00536100  1
  S  S46  1  0.27315400  0.37621600  0.00536100  1
  S  S47  1  0.72778000  0.62814800  0.50137600  1
  S  S48  1  0.22209900  0.12678200  0.80307700  1
  S  S49  1  0.78439800  0.87794900  0.30767900  1
  S  S50  1  0.28439800  0.12205100  0.30767900  1
  S  S51  1  0.72209900  0.87321800  0.80307700  1
  S  S52  1  0.23873500  0.63217600  0.76249300  1
  S  S53  1  0.75743400  0.38234900  0.27747000  1
  S  S54  1  0.25743400  0.61765100  0.27747000  1
  S  S55  1  0.73873500  0.36782400  0.76249300  1
