# generated using pymatgen
data_ZrCrCuS4
_symmetry_space_group_name_H-M   'P 1'
_cell_length_a   6.08932100
_cell_length_b   7.11629400
_cell_length_c   12.41591700
_cell_angle_alpha   90.00000000
_cell_angle_beta   90.00000000
_cell_angle_gamma   90.00000000
_symmetry_Int_Tables_number   1
_chemical_formula_structural   ZrCrCuS4
_chemical_formula_sum   'Zr4 Cr4 Cu4 S16'
_cell_volume   538.02387906
_cell_formula_units_Z   4
loop_
 _symmetry_equiv_pos_site_id
 _symmetry_equiv_pos_as_xyz
  1  'x, y, z'
loop_
 _atom_site_type_symbol
 _atom_site_label
 _atom_site_symmetry_multiplicity
 _atom_site_fract_x
 _atom_site_fract_y
 _atom_site_fract_z
 _atom_site_occupancy
  Zr  Zr0  1  0.50000000  0.25000000  0.25000000  1
  Zr  Zr1  1  0.50000000  0.75000000  0.75000000  1
  Zr  Zr2  1  0.50000000  0.75000000  0.25000000  1
  Zr  Zr3  1  0.50000000  0.25000000  0.75000000  1
  Cr  Cr4  1  0.99595600  0.00000000  0.24328400  1
  Cr  Cr5  1  0.99595600  0.00000000  0.75671600  1
  Cr  Cr6  1  0.00404400  0.50000000  0.25671600  1
  Cr  Cr7  1  0.00404400  0.50000000  0.74328400  1
  Cu  Cu8  1  0.36142400  0.00000000  0.00000000  1
  Cu  Cu9  1  0.63857600  0.50000000  0.50000000  1
  Cu  Cu10  1  0.02986800  0.00000000  0.50000000  1
  Cu  Cu11  1  0.97013200  0.50000000  0.00000000  1
  S  S12  1  0.85046800  0.24911200  0.36605200  1
  S  S13  1  0.85046800  0.75088800  0.63394800  1
  S  S14  1  0.14953200  0.74911200  0.13394800  1
  S  S15  1  0.14953200  0.25088800  0.86605200  1
  S  S16  1  0.14953200  0.25088800  0.13394800  1
  S  S17  1  0.14953200  0.74911200  0.86605200  1
  S  S18  1  0.85046800  0.75088800  0.36605200  1
  S  S19  1  0.85046800  0.24911200  0.63394800  1
  S  S20  1  0.66992100  0.00000000  0.12964700  1
  S  S21  1  0.66992100  0.00000000  0.87035300  1
  S  S22  1  0.33007900  0.50000000  0.37035300  1
  S  S23  1  0.33007900  0.50000000  0.62964700  1
  S  S24  1  0.30852900  0.00000000  0.36376600  1
  S  S25  1  0.30852900  0.00000000  0.63623400  1
  S  S26  1  0.69147100  0.50000000  0.13623400  1
  S  S27  1  0.69147100  0.50000000  0.86376600  1
