# generated using pymatgen
data_CaMnBiO5
_symmetry_space_group_name_H-M   'P 1'
_cell_length_a   5.85472756
_cell_length_b   8.29307631
_cell_length_c   11.74578800
_cell_angle_alpha   90.00000000
_cell_angle_beta   90.00000000
_cell_angle_gamma   111.37593045
_symmetry_Int_Tables_number   1
_chemical_formula_structural   CaMnBiO5
_chemical_formula_sum   'Ca4 Mn4 Bi4 O20'
_cell_volume   531.06989402
_cell_formula_units_Z   4
loop_
 _symmetry_equiv_pos_site_id
 _symmetry_equiv_pos_as_xyz
  1  'x, y, z'
loop_
 _atom_site_type_symbol
 _atom_site_label
 _atom_site_symmetry_multiplicity
 _atom_site_fract_x
 _atom_site_fract_y
 _atom_site_fract_z
 _atom_site_occupancy
  Ca  Ca0  1  0.63913100  0.19161100  0.91317600  1
  Ca  Ca1  1  0.36086900  0.80838900  0.08682400  1
  Ca  Ca2  1  0.86086900  0.30838900  0.41317600  1
  Ca  Ca3  1  0.13913100  0.69161100  0.58682400  1
  Mn  Mn4  1  0.79832100  0.97240200  0.64671200  1
  Mn  Mn5  1  0.20167900  0.02759800  0.35328800  1
  Mn  Mn6  1  0.70167900  0.52759800  0.14671200  1
  Mn  Mn7  1  0.29832100  0.47240200  0.85328800  1
  Bi  Bi8  1  0.13204600  0.16383100  0.09707900  1
  Bi  Bi9  1  0.86795400  0.83616900  0.90292100  1
  Bi  Bi10  1  0.63204600  0.66383100  0.40292100  1
  Bi  Bi11  1  0.36795400  0.33616900  0.59707900  1
  O  O12  1  0.56282600  0.33303300  0.07936900  1
  O  O13  1  0.07084900  0.33256500  0.93627300  1
  O  O14  1  0.49293000  0.61767400  0.18558500  1
  O  O15  1  0.74130600  0.51137700  0.52595200  1
  O  O16  1  0.80449800  0.50310700  0.28177500  1
  O  O17  1  0.30449800  0.00310700  0.21822500  1
  O  O18  1  0.57084900  0.83256500  0.56372700  1
  O  O19  1  0.42915100  0.16743500  0.43627300  1
  O  O20  1  0.25869400  0.48862300  0.47404800  1
  O  O21  1  0.93717400  0.16696700  0.57936900  1
  O  O22  1  0.19550200  0.49689300  0.71822500  1
  O  O23  1  0.43717400  0.66696700  0.92063100  1
  O  O24  1  0.06282600  0.83303300  0.42063100  1
  O  O25  1  0.69550200  0.99689300  0.78177500  1
  O  O26  1  0.75869400  0.98862300  0.02595200  1
  O  O27  1  0.24130600  0.01137700  0.97404800  1
  O  O28  1  0.50707000  0.38232600  0.81441500  1
  O  O29  1  0.92915100  0.66743500  0.06372700  1
  O  O30  1  0.00707000  0.88232600  0.68558500  1
  O  O31  1  0.99293000  0.11767400  0.31441500  1
