# generated using pymatgen
data_Li3Fe3(PO4)4
_symmetry_space_group_name_H-M   'P 1'
_cell_length_a   7.67569522
_cell_length_b   8.02296625
_cell_length_c   10.05780345
_cell_angle_alpha   90.48638233
_cell_angle_beta   94.87393640
_cell_angle_gamma   89.72380465
_symmetry_Int_Tables_number   1
_chemical_formula_structural   Li3Fe3(PO4)4
_chemical_formula_sum   'Li6 Fe6 P8 O32'
_cell_volume   617.11097974
_cell_formula_units_Z   2
loop_
 _symmetry_equiv_pos_site_id
 _symmetry_equiv_pos_as_xyz
  1  'x, y, z'
loop_
 _atom_site_type_symbol
 _atom_site_label
 _atom_site_symmetry_multiplicity
 _atom_site_fract_x
 _atom_site_fract_y
 _atom_site_fract_z
 _atom_site_occupancy
  Li  Li0  1  0.11236487  0.35849970  0.79515073  1
  Li  Li1  1  0.90560689  0.63358428  0.20756261  1
  Li  Li2  1  0.59243127  0.13386863  0.54235924  1
  Li  Li3  1  0.40637501  0.86409220  0.45509632  1
  Li  Li4  1  0.39171441  0.85934494  0.95477099  1
  Li  Li5  1  0.09433578  0.36254118  0.29623138  1
  Fe  Fe6  1  0.89884086  0.64062949  0.70301657  1
  Fe  Fe7  1  0.60414815  0.14418391  0.05354856  1
  Fe  Fe8  1  0.49143780  0.50808211  0.00183001  1
  Fe  Fe9  1  0.47863291  0.49149630  0.49759975  1
  Fe  Fe10  1  0.01849908  0.99008179  0.25216950  1
  Fe  Fe11  1  0.01197613  0.01461827  0.74629119  1
  P  P12  1  0.20391235  0.19845914  0.02085444  1
  P  P13  1  0.30132200  0.69558475  0.73102178  1
  P  P14  1  0.29805178  0.68554275  0.23295267  1
  P  P15  1  0.69735484  0.30508456  0.76522095  1
  P  P16  1  0.69724940  0.31335758  0.27295438  1
  P  P17  1  0.79608438  0.80539344  0.98794864  1
  P  P18  1  0.19932369  0.18819579  0.51406175  1
  P  P19  1  0.80619090  0.81569197  0.47714812  1
  O  O20  1  0.24160670  0.87159609  0.77414864  1
  O  O21  1  0.87447568  0.79884145  0.84834811  1
  O  O22  1  0.84780592  0.42966230  0.28090699  1
  O  O23  1  0.90221779  0.80752315  0.34891806  1
  O  O24  1  0.94687165  0.85740451  0.60018572  1
  O  O25  1  0.94506690  0.85774317  0.09122331  1
  O  O26  1  0.06252390  0.14297795  0.90890593  1
  O  O27  1  0.05188923  0.12939157  0.40507898  1
  O  O28  1  0.10946265  0.20119850  0.64705213  1
  O  O29  1  0.14104014  0.57620047  0.72071540  1
  O  O30  1  0.11678203  0.18871964  0.15343139  1
  O  O31  1  0.14659994  0.56805195  0.22082734  1
  O  O32  1  0.39112334  0.69250797  0.09958669  1
  O  O33  1  0.26309919  0.37462166  0.97902333  1
  O  O34  1  0.24946495  0.36632700  0.47107776  1
  O  O35  1  0.24667240  0.86767066  0.27276753  1
  O  O36  1  0.72570243  0.63340303  0.02639871  1
  O  O37  1  0.38546012  0.69125877  0.59661448  1
  O  O38  1  0.43971684  0.63847301  0.84258200  1
  O  O39  1  0.36426794  0.07846608  0.02743734  1
  O  O40  1  0.85048896  0.43125667  0.77966338  1
  O  O41  1  0.44736590  0.63264634  0.34191389  1
  O  O42  1  0.55267610  0.36190327  0.65997966  1
  O  O43  1  0.61546857  0.30471179  0.90473676  1
  O  O44  1  0.55479316  0.34930109  0.14900002  1
  O  O45  1  0.64544639  0.93586898  0.97361147  1
  O  O46  1  0.60094429  0.30486324  0.40003991  1
  O  O47  1  0.65152611  0.93011242  0.46667298  1
  O  O48  1  0.76343358  0.13157370  0.72672454  1
  O  O49  1  0.75764877  0.63529884  0.52797784  1
  O  O50  1  0.74983850  0.13188381  0.21866346  1
  O  O51  1  0.35266143  0.07020912  0.52799568  1
