# generated using pymatgen
data_CaCr2CoO7
_symmetry_space_group_name_H-M   'P 1'
_cell_length_a   6.84246660
_cell_length_b   11.28713949
_cell_length_c   14.64379000
_cell_angle_alpha   90.00000000
_cell_angle_beta   90.00000000
_cell_angle_gamma   99.51034972
_symmetry_Int_Tables_number   1
_chemical_formula_structural   CaCr2CoO7
_chemical_formula_sum   'Ca8 Cr16 Co8 O56'
_cell_volume   1115.42308466
_cell_formula_units_Z   8
loop_
 _symmetry_equiv_pos_site_id
 _symmetry_equiv_pos_as_xyz
  1  'x, y, z'
loop_
 _atom_site_type_symbol
 _atom_site_label
 _atom_site_symmetry_multiplicity
 _atom_site_fract_x
 _atom_site_fract_y
 _atom_site_fract_z
 _atom_site_occupancy
  Ca  Ca0  1  0.07778200  0.72778500  0.50249600  1
  Ca  Ca1  1  0.33022800  0.96219400  0.87987300  1
  Ca  Ca2  1  0.66977200  0.53780600  0.37987300  1
  Ca  Ca3  1  0.66977200  0.03780600  0.12012700  1
  Ca  Ca4  1  0.33022800  0.46219400  0.62012700  1
  Ca  Ca5  1  0.07778200  0.22778500  0.99750400  1
  Ca  Ca6  1  0.92221800  0.27221500  0.49750400  1
  Ca  Ca7  1  0.92221800  0.77221500  0.00249600  1
  Cr  Cr8  1  0.84136700  0.98469700  0.86900700  1
  Cr  Cr9  1  0.42256500  0.68948200  0.01537600  1
  Cr  Cr10  1  0.42256500  0.18948200  0.48462400  1
  Cr  Cr11  1  0.57743500  0.31051800  0.98462400  1
  Cr  Cr12  1  0.50560600  0.78611000  0.70411800  1
  Cr  Cr13  1  0.49439400  0.71389000  0.20411800  1
  Cr  Cr14  1  0.49439400  0.21389000  0.29588200  1
  Cr  Cr15  1  0.50560600  0.28611000  0.79588200  1
  Cr  Cr16  1  0.57743500  0.81051800  0.51537600  1
  Cr  Cr17  1  0.86890300  0.48283200  0.13674300  1
  Cr  Cr18  1  0.13109700  0.01716800  0.63674300  1
  Cr  Cr19  1  0.13109700  0.51716800  0.86325700  1
  Cr  Cr20  1  0.15863300  0.51530300  0.36900700  1
  Cr  Cr21  1  0.84136700  0.48469700  0.63099300  1
  Cr  Cr22  1  0.15863300  0.01530300  0.13099300  1
  Cr  Cr23  1  0.86890300  0.98283200  0.36325700  1
  Co  Co24  1  0.63404800  0.07326800  0.67209100  1
  Co  Co25  1  0.36595200  0.42673200  0.17209100  1
  Co  Co26  1  0.36595200  0.92673200  0.32790900  1
  Co  Co27  1  0.63404800  0.57326800  0.82790900  1
  Co  Co28  1  0.99893300  0.24880800  0.75402500  1
  Co  Co29  1  0.00106700  0.25119200  0.25402500  1
  Co  Co30  1  0.00106700  0.75119200  0.24597500  1
  Co  Co31  1  0.99893300  0.74880800  0.74597500  1
  O  O32  1  0.75895600  0.95634500  0.97746000  1
  O  O33  1  0.24104400  0.54365500  0.47746000  1
  O  O34  1  0.24104400  0.04365500  0.02254000  1
  O  O35  1  0.75895600  0.45634500  0.52254000  1
  O  O36  1  0.99172000  0.87503400  0.85156800  1
  O  O37  1  0.00828000  0.62496600  0.35156700  1
  O  O38  1  0.00828000  0.12496600  0.14843200  1
  O  O39  1  0.99172000  0.37503400  0.64843200  1
  O  O40  1  0.99569200  0.12104300  0.85748800  1
  O  O41  1  0.00430800  0.37895700  0.35748800  1
  O  O42  1  0.00430800  0.87895700  0.14251200  1
  O  O43  1  0.99569200  0.62104300  0.64251200  1
  O  O44  1  0.68529200  0.95566500  0.28843400  1
  O  O45  1  0.31470800  0.54433500  0.78843400  1
  O  O46  1  0.31470800  0.04433500  0.71156600  1
  O  O47  1  0.68529200  0.45566500  0.21156600  1
  O  O48  1  0.96694800  0.12934200  0.36306400  1
  O  O49  1  0.03305200  0.37065800  0.86306400  1
  O  O50  1  0.03305200  0.87065800  0.63693600  1
  O  O51  1  0.96694800  0.62934200  0.13693600  1
  O  O52  1  0.04393800  0.89589600  0.33960300  1
  O  O53  1  0.37891400  0.83017900  0.44162100  1
  O  O54  1  0.95606200  0.60410400  0.83960300  1
  O  O55  1  0.04393800  0.39589600  0.16039700  1
  O  O56  1  0.73158400  0.70960700  0.47916500  1
  O  O57  1  0.26841600  0.79039300  0.97916500  1
  O  O58  1  0.26841600  0.29039300  0.52083500  1
  O  O59  1  0.73158400  0.20960700  0.02083500  1
  O  O60  1  0.77586500  0.95025600  0.46619800  1
  O  O61  1  0.22413500  0.54974400  0.96619800  1
  O  O62  1  0.22413500  0.04974400  0.53380200  1
  O  O63  1  0.77586500  0.45025700  0.03380200  1
  O  O64  1  0.42428700  0.19842800  0.89407800  1
  O  O65  1  0.57571300  0.30157200  0.39407800  1
  O  O66  1  0.57571300  0.80157200  0.10592200  1
  O  O67  1  0.42428700  0.69842800  0.60592200  1
  O  O68  1  0.69365400  0.22037900  0.75102600  1
  O  O69  1  0.30634600  0.27962100  0.25102600  1
  O  O70  1  0.30634600  0.77962100  0.24897400  1
  O  O71  1  0.69365400  0.72037900  0.74897400  1
  O  O72  1  0.63536000  0.46844700  0.70220500  1
  O  O73  1  0.36464000  0.03155300  0.20220500  1
  O  O74  1  0.36464000  0.53155300  0.29779500  1
  O  O75  1  0.63536000  0.96844700  0.79779500  1
  O  O76  1  0.29716500  0.29658400  0.73685200  1
  O  O77  1  0.70283500  0.20341600  0.23685200  1
  O  O78  1  0.70283500  0.70341600  0.26314800  1
  O  O79  1  0.29716500  0.79658400  0.76314800  1
  O  O80  1  0.59583500  0.40486700  0.87651500  1
  O  O81  1  0.40416500  0.09513300  0.37651500  1
  O  O82  1  0.40416500  0.59513300  0.12348500  1
  O  O83  1  0.59583500  0.90486700  0.62348500  1
  O  O84  1  0.37891400  0.33017900  0.05837900  1
  O  O85  1  0.62108600  0.16982100  0.55837900  1
  O  O86  1  0.62108600  0.66982100  0.94162100  1
  O  O87  1  0.95606200  0.10410400  0.66039700  1
