# generated using pymatgen
data_Mn2Zn(CuO4)2
_symmetry_space_group_name_H-M   'P 1'
_cell_length_a   6.40351067
_cell_length_b   8.30493500
_cell_length_c   11.88369379
_cell_angle_alpha   90.00000000
_cell_angle_beta   90.56455627
_cell_angle_gamma   90.00000000
_symmetry_Int_Tables_number   1
_chemical_formula_structural   Mn2Zn(CuO4)2
_chemical_formula_sum   'Mn8 Zn4 Cu8 O32'
_cell_volume   631.95294938
_cell_formula_units_Z   4
loop_
 _symmetry_equiv_pos_site_id
 _symmetry_equiv_pos_as_xyz
  1  'x, y, z'
loop_
 _atom_site_type_symbol
 _atom_site_label
 _atom_site_symmetry_multiplicity
 _atom_site_fract_x
 _atom_site_fract_y
 _atom_site_fract_z
 _atom_site_occupancy
  Mn  Mn0  1  0.09905300  0.46104500  0.84519800  1
  Mn  Mn1  1  0.09905300  0.03895500  0.34519800  1
  Mn  Mn2  1  0.61163900  0.09093900  0.13160300  1
  Mn  Mn3  1  0.90094700  0.96104500  0.65480200  1
  Mn  Mn4  1  0.38836100  0.90906100  0.86839700  1
  Mn  Mn5  1  0.38836100  0.59093900  0.36839700  1
  Mn  Mn6  1  0.61163900  0.40906100  0.63160300  1
  Mn  Mn7  1  0.90094700  0.53895500  0.15480200  1
  Zn  Zn8  1  0.11034400  0.16711000  0.05009800  1
  Zn  Zn9  1  0.88965600  0.83289000  0.94990200  1
  Zn  Zn10  1  0.88965600  0.66711000  0.44990200  1
  Zn  Zn11  1  0.11034400  0.33289000  0.55009800  1
  Cu  Cu12  1  0.76190300  0.17540500  0.86486900  1
  Cu  Cu13  1  0.38768500  0.05333700  0.63170900  1
  Cu  Cu14  1  0.61231500  0.94666300  0.36829100  1
  Cu  Cu15  1  0.23809700  0.82459500  0.13513100  1
  Cu  Cu16  1  0.76190300  0.32459500  0.36486900  1
  Cu  Cu17  1  0.38768500  0.44666300  0.13170900  1
  Cu  Cu18  1  0.23809700  0.67540500  0.63513100  1
  Cu  Cu19  1  0.61231500  0.55333700  0.86829100  1
  O  O20  1  0.03449100  0.23137600  0.39372300  1
  O  O21  1  0.67081200  0.01434500  0.59063200  1
  O  O22  1  0.18884200  0.57909300  0.47051300  1
  O  O23  1  0.81115800  0.07909300  0.02948700  1
  O  O24  1  0.03449100  0.26862400  0.89372300  1
  O  O25  1  0.96550900  0.76862400  0.60627700  1
  O  O26  1  0.08953900  0.10129600  0.61617500  1
  O  O27  1  0.51588500  0.89940800  0.13921500  1
  O  O28  1  0.51588500  0.60059200  0.63921500  1
  O  O29  1  0.32066900  0.86750900  0.72852400  1
  O  O30  1  0.67933100  0.36750900  0.77147600  1
  O  O31  1  0.48411500  0.10059200  0.86078500  1
  O  O32  1  0.91046100  0.89870400  0.38382500  1
  O  O33  1  0.87563000  0.53330100  0.29782700  1
  O  O34  1  0.41486200  0.28077600  0.58494500  1
  O  O35  1  0.41486200  0.21922400  0.08494500  1
  O  O36  1  0.12437000  0.03330100  0.20217300  1
  O  O37  1  0.48411500  0.39940800  0.36078500  1
  O  O38  1  0.12437000  0.46669900  0.70217300  1
  O  O39  1  0.81115800  0.42090700  0.52948700  1
  O  O40  1  0.67081200  0.48565500  0.09063200  1
  O  O41  1  0.67933100  0.13249200  0.27147600  1
  O  O42  1  0.96550900  0.73137600  0.10627700  1
  O  O43  1  0.08953900  0.39870400  0.11617500  1
  O  O44  1  0.18884200  0.92090700  0.97051300  1
  O  O45  1  0.58513800  0.78077600  0.91505500  1
  O  O46  1  0.32918700  0.98565500  0.40936800  1
  O  O47  1  0.32918700  0.51434500  0.90936800  1
  O  O48  1  0.91046100  0.60129600  0.88382500  1
  O  O49  1  0.58513800  0.71922400  0.41505500  1
  O  O50  1  0.32066900  0.63249100  0.22852400  1
  O  O51  1  0.87563000  0.96669900  0.79782700  1
