# generated using pymatgen
data_CaCo2O5
_symmetry_space_group_name_H-M   'P 1'
_cell_length_a   3.72266600
_cell_length_b   5.85876435
_cell_length_c   11.19036600
_cell_angle_alpha   90.00000000
_cell_angle_beta   90.00000000
_cell_angle_gamma   108.52511242
_symmetry_Int_Tables_number   1
_chemical_formula_structural   CaCo2O5
_chemical_formula_sum   'Ca2 Co4 O10'
_cell_volume   231.41805659
_cell_formula_units_Z   2
loop_
 _symmetry_equiv_pos_site_id
 _symmetry_equiv_pos_as_xyz
  1  'x, y, z'
loop_
 _atom_site_type_symbol
 _atom_site_label
 _atom_site_symmetry_multiplicity
 _atom_site_fract_x
 _atom_site_fract_y
 _atom_site_fract_z
 _atom_site_occupancy
  Ca  Ca0  1  0.90148300  0.80292100  0.75000000  1
  Ca  Ca1  1  0.09851800  0.19708000  0.25000000  1
  Co  Co2  1  0.20973200  0.41942700  0.59513200  1
  Co  Co3  1  0.79026900  0.58057400  0.40486700  1
  Co  Co4  1  0.79026900  0.58057400  0.09513300  1
  Co  Co5  1  0.20973200  0.41942700  0.90486800  1
  O  O6  1  0.72088300  0.44179500  0.25000000  1
  O  O7  1  0.27911800  0.55820600  0.75000000  1
  O  O8  1  0.22242900  0.44489700  0.07120300  1
  O  O9  1  0.77757300  0.55510400  0.92879700  1
  O  O10  1  0.77757300  0.55510400  0.57120300  1
  O  O11  1  0.22242900  0.44489700  0.42879600  1
  O  O12  1  0.06201400  0.12409600  0.62033500  1
  O  O13  1  0.93798600  0.87590300  0.37966500  1
  O  O14  1  0.06201400  0.12409600  0.87966500  1
  O  O15  1  0.93798600  0.87590300  0.12033600  1
