# generated using pymatgen
data_Sr2YGaSn2O7
_symmetry_space_group_name_H-M   'P 1'
_cell_length_a   5.88928871
_cell_length_b   6.11291829
_cell_length_c   12.79540927
_cell_angle_alpha   105.10373588
_cell_angle_beta   103.39614010
_cell_angle_gamma   91.85489666
_symmetry_Int_Tables_number   1
_chemical_formula_structural   Sr2YGaSn2O7
_chemical_formula_sum   'Sr4 Y2 Ga2 Sn4 O14'
_cell_volume   430.51682710
_cell_formula_units_Z   2
loop_
 _symmetry_equiv_pos_site_id
 _symmetry_equiv_pos_as_xyz
  1  'x, y, z'
loop_
 _atom_site_type_symbol
 _atom_site_label
 _atom_site_symmetry_multiplicity
 _atom_site_fract_x
 _atom_site_fract_y
 _atom_site_fract_z
 _atom_site_occupancy
  Sr  Sr0  1  0.11265200  0.18022900  0.34621900  1
  Sr  Sr1  1  0.84131300  0.80047700  0.68205900  1
  Sr  Sr2  1  0.61394200  0.61172300  0.35106200  1
  Sr  Sr3  1  0.35320500  0.37285100  0.67716600  1
  Y  Y4  1  0.47394900  0.52366400  0.99765000  1
  Y  Y5  1  0.98010100  0.02323600  0.99638100  1
  Ga  Ga6  1  0.23670600  0.81293100  0.52331400  1
  Ga  Ga7  1  0.74858000  0.20434900  0.51790800  1
  Sn  Sn8  1  0.42288300  0.93936400  0.84745400  1
  Sn  Sn9  1  0.06146000  0.60942700  0.17469200  1
  Sn  Sn10  1  0.91898900  0.43030900  0.85696800  1
  Sn  Sn11  1  0.55038800  0.07813100  0.11623400  1
  O  O12  1  0.77479700  0.35915700  0.07432500  1
  O  O13  1  0.91801200  0.87390100  0.50570000  1
  O  O14  1  0.25762000  0.30319100  0.10588300  1
  O  O15  1  0.80769500  0.37736900  0.68408300  1
  O  O16  1  0.74408600  0.07642600  0.83858800  1
  O  O17  1  0.27960800  0.24253500  0.83983200  1
  O  O18  1  0.40835100  0.06364800  0.50457700  1
  O  O19  1  0.11672000  0.78613300  0.86129500  1
  O  O20  1  0.59110800  0.63979300  0.86205300  1
  O  O21  1  0.32871400  0.78652700  0.67305300  1
  O  O22  1  0.31823000  0.54435800  0.44409600  1
  O  O23  1  0.68675600  0.22013200  0.27924500  1
  O  O24  1  0.84871600  0.84922800  0.10674500  1
  O  O25  1  0.33832900  0.77844500  0.12378200  1
