# generated using pymatgen
data_CaCrBiO5
_symmetry_space_group_name_H-M   'P 1'
_cell_length_a   5.87005305
_cell_length_b   8.33252996
_cell_length_c   11.86567200
_cell_angle_alpha   90.00000000
_cell_angle_beta   90.00000000
_cell_angle_gamma   111.81216031
_symmetry_Int_Tables_number   1
_chemical_formula_structural   CaCrBiO5
_chemical_formula_sum   'Ca4 Cr4 Bi4 O20'
_cell_volume   538.82737221
_cell_formula_units_Z   4
loop_
 _symmetry_equiv_pos_site_id
 _symmetry_equiv_pos_as_xyz
  1  'x, y, z'
loop_
 _atom_site_type_symbol
 _atom_site_label
 _atom_site_symmetry_multiplicity
 _atom_site_fract_x
 _atom_site_fract_y
 _atom_site_fract_z
 _atom_site_occupancy
  Ca  Ca0  1  0.64281000  0.18946600  0.91388300  1
  Ca  Ca1  1  0.35719000  0.81053400  0.08611700  1
  Ca  Ca2  1  0.85719000  0.31053400  0.41388300  1
  Ca  Ca3  1  0.14281000  0.68946600  0.58611700  1
  Cr  Cr4  1  0.80133100  0.97073200  0.64670000  1
  Cr  Cr5  1  0.19866900  0.02926800  0.35330000  1
  Cr  Cr6  1  0.69866900  0.52926800  0.14670000  1
  Cr  Cr7  1  0.30133100  0.47073200  0.85330000  1
  Bi  Bi8  1  0.13591300  0.16669500  0.09319200  1
  Bi  Bi9  1  0.86408700  0.83330500  0.90680800  1
  Bi  Bi10  1  0.63591300  0.66669500  0.40680800  1
  Bi  Bi11  1  0.36408700  0.33330500  0.59319200  1
  O  O12  1  0.56577100  0.33322700  0.07791000  1
  O  O13  1  0.07541000  0.33004800  0.94100200  1
  O  O14  1  0.49633400  0.62435100  0.18168500  1
  O  O15  1  0.74186900  0.51197300  0.52547900  1
  O  O16  1  0.80192100  0.49924600  0.27914000  1
  O  O17  1  0.30192100  0.99924600  0.22086000  1
  O  O18  1  0.57541000  0.83004800  0.55899800  1
  O  O19  1  0.42459000  0.16995200  0.44100200  1
  O  O20  1  0.25813100  0.48802700  0.47452100  1
  O  O21  1  0.93422900  0.16677300  0.57791000  1
  O  O22  1  0.19807900  0.50075400  0.72086000  1
  O  O23  1  0.43422900  0.66677300  0.92209000  1
  O  O24  1  0.06577100  0.83322700  0.42209000  1
  O  O25  1  0.69807900  0.00075400  0.77914000  1
  O  O26  1  0.75813100  0.98802700  0.02547900  1
  O  O27  1  0.24186900  0.01197300  0.97452100  1
  O  O28  1  0.50366600  0.37565000  0.81831500  1
  O  O29  1  0.92459000  0.66995200  0.05899800  1
  O  O30  1  0.00366600  0.87564900  0.68168500  1
  O  O31  1  0.99633400  0.12435100  0.31831500  1
