# generated using pymatgen
data_Na2Cl
_symmetry_space_group_name_H-M   'P 1'
_cell_length_a   7.37041188
_cell_length_b   7.37041188
_cell_length_c   4.02737700
_cell_angle_alpha   90.00000000
_cell_angle_beta   90.00000000
_cell_angle_gamma   128.26249043
_symmetry_Int_Tables_number   1
_chemical_formula_structural   Na2Cl
_chemical_formula_sum   'Na4 Cl2'
_cell_volume   171.78138866
_cell_formula_units_Z   2
loop_
 _symmetry_equiv_pos_site_id
 _symmetry_equiv_pos_as_xyz
  1  'x, y, z'
loop_
 _atom_site_type_symbol
 _atom_site_label
 _atom_site_symmetry_multiplicity
 _atom_site_fract_x
 _atom_site_fract_y
 _atom_site_fract_z
 _atom_site_occupancy
  Na  Na0  1  0.50000000  0.50000000  0.00000000  1
  Na  Na1  1  0.00000000  0.00000000  0.50000000  1
  Na  Na2  1  0.69640600  0.30359400  0.50000000  1
  Na  Na3  1  0.30359400  0.69640600  0.50000000  1
  Cl  Cl4  1  0.15935300  0.84064700  0.00000000  1
  Cl  Cl5  1  0.84064700  0.15935300  0.00000000  1
