# generated using pymatgen
data_V6PbO11
_symmetry_space_group_name_H-M   'P 1'
_cell_length_a   5.93108700
_cell_length_b   5.93964258
_cell_length_c   13.32130497
_cell_angle_alpha   90.05382665
_cell_angle_beta   89.91035949
_cell_angle_gamma   119.61631797
_symmetry_Int_Tables_number   1
_chemical_formula_structural   V6PbO11
_chemical_formula_sum   'V12 Pb2 O22'
_cell_volume   407.97880703
_cell_formula_units_Z   2
loop_
 _symmetry_equiv_pos_site_id
 _symmetry_equiv_pos_as_xyz
  1  'x, y, z'
loop_
 _atom_site_type_symbol
 _atom_site_label
 _atom_site_symmetry_multiplicity
 _atom_site_fract_x
 _atom_site_fract_y
 _atom_site_fract_z
 _atom_site_occupancy
  V  V0  1  0.66830379  0.33268343  0.25323683  1
  V  V1  1  0.33498031  0.66598562  0.74972782  1
  V  V2  1  0.00534636  0.99607619  0.35454825  1
  V  V3  1  0.99651659  0.99411408  0.85532185  1
  V  V4  1  0.00001321  0.00276105  0.64300530  1
  V  V5  1  0.00613834  0.00507026  0.14662344  1
  V  V6  1  0.50332104  0.00115193  0.50179697  1
  V  V7  1  0.50093415  0.00229904  0.00000010  1
  V  V8  1  0.99792338  0.50027053  0.99815011  1
  V  V9  1  0.99822469  0.49622563  0.50220056  1
  V  V10  1  0.50181639  0.49932737  0.50034991  1
  V  V11  1  0.49664951  0.49742083  0.99781540  1
  Pb  Pb12  1  0.66964498  0.33283165  0.75718461  1
  Pb  Pb13  1  0.34840145  0.66695759  0.23197203  1
  O  O14  1  0.33798848  0.67713133  0.90955101  1
  O  O15  1  0.66065528  0.33841456  0.41579810  1
  O  O16  1  0.65850982  0.31966296  0.08446575  1
  O  O17  1  0.33927188  0.66110794  0.58911979  1
  O  O18  1  0.84715079  0.70529806  0.24902546  1
  O  O19  1  0.15961354  0.84744596  0.74745984  1
  O  O20  1  0.70561577  0.85617200  0.74951943  1
  O  O21  1  0.29864015  0.14905779  0.25254889  1
  O  O22  1  0.85403626  0.14189512  0.25478432  1
  O  O23  1  0.16159393  0.31775017  0.75226190  1
  O  O24  1  0.15855175  0.83766485  0.42294693  1
  O  O25  1  0.17479004  0.34116039  0.42154807  1
  O  O26  1  0.65737003  0.82354325  0.42102020  1
  O  O27  1  0.34493050  0.16149624  0.91672213  1
  O  O28  1  0.17477921  0.35249661  0.08216347  1
  O  O29  1  0.82250927  0.17468638  0.58277387  1
  O  O30  1  0.34792738  0.18095277  0.58121410  1
  O  O31  1  0.64294163  0.83256677  0.08010302  1
  O  O32  1  0.81416144  0.64692285  0.58049327  1
  O  O33  1  0.81781011  0.64438634  0.91596004  1
  O  O34  1  0.81732162  0.16743395  0.91928794  1
  O  O35  1  0.17562492  0.82958251  0.07930125  1
