# generated using pymatgen
data_TiCu2
_symmetry_space_group_name_H-M   'P 1'
_cell_length_a   4.58639099
_cell_length_b   4.58639099
_cell_length_c   4.46414400
_cell_angle_alpha   90.00000000
_cell_angle_beta   90.00000000
_cell_angle_gamma   121.06627259
_symmetry_Int_Tables_number   1
_chemical_formula_structural   TiCu2
_chemical_formula_sum   'Ti2 Cu4'
_cell_volume   80.43474909
_cell_formula_units_Z   2
loop_
 _symmetry_equiv_pos_site_id
 _symmetry_equiv_pos_as_xyz
  1  'x, y, z'
loop_
 _atom_site_type_symbol
 _atom_site_label
 _atom_site_symmetry_multiplicity
 _atom_site_fract_x
 _atom_site_fract_y
 _atom_site_fract_z
 _atom_site_occupancy
  Ti  Ti0  1  0.77384900  0.77384900  0.25000000  1
  Ti  Ti1  1  0.22615100  0.22615100  0.75000000  1
  Cu  Cu2  1  0.11311500  0.45735800  0.25000000  1
  Cu  Cu3  1  0.54264200  0.88688500  0.75000000  1
  Cu  Cu4  1  0.88688500  0.54264200  0.75000000  1
  Cu  Cu5  1  0.45735800  0.11311500  0.25000000  1
