# generated using pymatgen
data_TiZnBi(PO4)3
_symmetry_space_group_name_H-M   'P 1'
_cell_length_a   8.44805585
_cell_length_b   8.44805628
_cell_length_c   8.44805664
_cell_angle_alpha   64.04831774
_cell_angle_beta   64.04831926
_cell_angle_gamma   64.04832302
_symmetry_Int_Tables_number   1
_chemical_formula_structural   TiZnBi(PO4)3
_chemical_formula_sum   'Ti2 Zn2 Bi2 P6 O24'
_cell_volume   464.33612495
_cell_formula_units_Z   2
loop_
 _symmetry_equiv_pos_site_id
 _symmetry_equiv_pos_as_xyz
  1  'x, y, z'
loop_
 _atom_site_type_symbol
 _atom_site_label
 _atom_site_symmetry_multiplicity
 _atom_site_fract_x
 _atom_site_fract_y
 _atom_site_fract_z
 _atom_site_occupancy
  Ti  Ti0  1  0.14943800  0.14943800  0.14943800  1
  Ti  Ti1  1  0.64943800  0.64943800  0.64943800  1
  Zn  Zn2  1  0.99354900  0.99354900  0.99354900  1
  Zn  Zn3  1  0.49354900  0.49354900  0.49354900  1
  Bi  Bi4  1  0.33211300  0.33211300  0.33211300  1
  Bi  Bi5  1  0.83211300  0.83211300  0.83211300  1
  P  P6  1  0.06499400  0.42934400  0.75957400  1
  P  P7  1  0.42934400  0.75957400  0.06499400  1
  P  P8  1  0.75957400  0.06499400  0.42934400  1
  P  P9  1  0.25957400  0.92934400  0.56499400  1
  P  P10  1  0.56499400  0.25957400  0.92934400  1
  P  P11  1  0.92934400  0.56499400  0.25957400  1
  O  O12  1  0.05701900  0.56407900  0.34159900  1
  O  O13  1  0.34159900  0.05701900  0.56407900  1
  O  O14  1  0.07141000  0.23540000  0.90808200  1
  O  O15  1  0.56407900  0.34159900  0.05701900  1
  O  O16  1  0.06407900  0.55701900  0.84159900  1
  O  O17  1  0.24170500  0.41864500  0.58982900  1
  O  O18  1  0.23540000  0.90808200  0.07141000  1
  O  O19  1  0.41864500  0.58982900  0.24170500  1
  O  O20  1  0.21003900  0.00556900  0.37761000  1
  O  O21  1  0.58982900  0.24170500  0.41864500  1
  O  O22  1  0.08982900  0.91864500  0.74170500  1
  O  O23  1  0.37761000  0.21003900  0.00556900  1
  O  O24  1  0.55701900  0.84159900  0.06407900  1
  O  O25  1  0.90808200  0.07141000  0.23540000  1
  O  O26  1  0.40808200  0.73540000  0.57141000  1
  O  O27  1  0.84159900  0.06407900  0.55701900  1
  O  O28  1  0.57141000  0.40808200  0.73540000  1
  O  O29  1  0.74170500  0.08982900  0.91864500  1
  O  O30  1  0.73540000  0.57141000  0.40808200  1
  O  O31  1  0.00556900  0.37761000  0.21003900  1
  O  O32  1  0.50556900  0.71003900  0.87761000  1
  O  O33  1  0.91864500  0.74170500  0.08982900  1
  O  O34  1  0.71003900  0.87761000  0.50556900  1
  O  O35  1  0.87761000  0.50556900  0.71003900  1
