# generated using pymatgen
data_TiZnP3WO12
_symmetry_space_group_name_H-M   'P 1'
_cell_length_a   8.70166934
_cell_length_b   8.70166927
_cell_length_c   8.70166907
_cell_angle_alpha   60.48287251
_cell_angle_beta   60.48287456
_cell_angle_gamma   60.48288471
_symmetry_Int_Tables_number   1
_chemical_formula_structural   TiZnP3WO12
_chemical_formula_sum   'Ti2 Zn2 P6 W2 O24'
_cell_volume   470.98492610
_cell_formula_units_Z   2
loop_
 _symmetry_equiv_pos_site_id
 _symmetry_equiv_pos_as_xyz
  1  'x, y, z'
loop_
 _atom_site_type_symbol
 _atom_site_label
 _atom_site_symmetry_multiplicity
 _atom_site_fract_x
 _atom_site_fract_y
 _atom_site_fract_z
 _atom_site_occupancy
  Ti  Ti0  1  0.14664000  0.14664000  0.14664000  1
  Ti  Ti1  1  0.64664000  0.64664000  0.64664000  1
  Zn  Zn2  1  0.00194100  0.00194100  0.00194100  1
  Zn  Zn3  1  0.50194100  0.50194100  0.50194100  1
  P  P4  1  0.04148000  0.44847100  0.75920100  1
  P  P5  1  0.44847100  0.75920100  0.04148000  1
  P  P6  1  0.75920100  0.04148000  0.44847100  1
  P  P7  1  0.25920100  0.94847100  0.54148000  1
  P  P8  1  0.54148000  0.25920100  0.94847100  1
  P  P9  1  0.94847100  0.54148000  0.25920100  1
  W  W10  1  0.35789400  0.35789400  0.35789400  1
  W  W11  1  0.85789400  0.85789400  0.85789400  1
  O  O12  1  0.09399100  0.50235600  0.33094400  1
  O  O13  1  0.33094400  0.09399100  0.50235600  1
  O  O14  1  0.05151700  0.25397200  0.91800000  1
  O  O15  1  0.50235600  0.33094400  0.09399100  1
  O  O16  1  0.00235600  0.59399100  0.83094400  1
  O  O17  1  0.23548000  0.43298000  0.60286000  1
  O  O18  1  0.25397200  0.91800000  0.05151700  1
  O  O19  1  0.43298000  0.60286000  0.23548000  1
  O  O20  1  0.19334900  0.00157800  0.37734400  1
  O  O21  1  0.60286000  0.23548000  0.43298000  1
  O  O22  1  0.10286000  0.93298000  0.73548000  1
  O  O23  1  0.37734400  0.19334900  0.00157800  1
  O  O24  1  0.59399100  0.83094400  0.00235600  1
  O  O25  1  0.91800000  0.05151700  0.25397200  1
  O  O26  1  0.41800000  0.75397200  0.55151700  1
  O  O27  1  0.83094400  0.00235600  0.59399100  1
  O  O28  1  0.55151700  0.41800000  0.75397200  1
  O  O29  1  0.73548000  0.10286000  0.93298000  1
  O  O30  1  0.75397200  0.55151700  0.41800000  1
  O  O31  1  0.00157800  0.37734400  0.19334900  1
  O  O32  1  0.50157800  0.69334900  0.87734400  1
  O  O33  1  0.93298000  0.73548000  0.10286000  1
  O  O34  1  0.69334900  0.87734400  0.50157800  1
  O  O35  1  0.87734400  0.50157800  0.69334900  1
