# generated using pymatgen
data_V4ZnO9
_symmetry_space_group_name_H-M   'P 1'
_cell_length_a   4.99039300
_cell_length_b   8.33691300
_cell_length_c   8.33691300
_cell_angle_alpha   90.00000000
_cell_angle_beta   90.00000000
_cell_angle_gamma   90.00000000
_symmetry_Int_Tables_number   1
_chemical_formula_structural   V4ZnO9
_chemical_formula_sum   'V8 Zn2 O18'
_cell_volume   346.85286578
_cell_formula_units_Z   2
loop_
 _symmetry_equiv_pos_site_id
 _symmetry_equiv_pos_as_xyz
  1  'x, y, z'
loop_
 _atom_site_type_symbol
 _atom_site_label
 _atom_site_symmetry_multiplicity
 _atom_site_fract_x
 _atom_site_fract_y
 _atom_site_fract_z
 _atom_site_occupancy
  V  V0  1  0.63013700  0.53173000  0.33963300  1
  V  V1  1  0.36986400  0.83963200  0.46827100  1
  V  V2  1  0.63013700  0.33963200  0.96827100  1
  V  V3  1  0.36986400  0.03172900  0.83963200  1
  V  V4  1  0.63013700  0.96827100  0.16036700  1
  V  V5  1  0.63013700  0.16036800  0.53173000  1
  V  V6  1  0.36986400  0.46827100  0.66036700  1
  V  V7  1  0.36986400  0.66036700  0.03172900  1
  Zn  Zn8  1  0.14100400  0.25000000  0.25000000  1
  Zn  Zn9  1  0.85899700  0.75000000  0.74999900  1
  O  O10  1  0.49999900  0.75000000  0.25000000  1
  O  O11  1  0.49999900  0.25000100  0.75000000  1
  O  O12  1  0.05090500  0.68572500  0.97981700  1
  O  O13  1  0.05090500  0.52018400  0.68572400  1
  O  O14  1  0.05090500  0.97981700  0.81427600  1
  O  O15  1  0.05090500  0.81427600  0.52018300  1
  O  O16  1  0.94909600  0.31427600  0.02018300  1
  O  O17  1  0.94909600  0.47981600  0.31427600  1
  O  O18  1  0.94909600  0.02018300  0.18572400  1
  O  O19  1  0.94909600  0.18572400  0.47981600  1
  O  O20  1  0.45017800  0.04543500  0.35658400  1
  O  O21  1  0.45017800  0.14341500  0.04543600  1
  O  O22  1  0.45017800  0.35658400  0.45456500  1
  O  O23  1  0.45017800  0.45456500  0.14341600  1
  O  O24  1  0.54982100  0.54543500  0.85658400  1
  O  O25  1  0.54982100  0.85658400  0.95456500  1
  O  O26  1  0.54982100  0.64341600  0.54543500  1
  O  O27  1  0.54982100  0.95456400  0.64341600  1
