# generated using pymatgen
data_Ba2Mo3O7
_symmetry_space_group_name_H-M   'P 1'
_cell_length_a   4.06469905
_cell_length_b   4.10054508
_cell_length_c   11.86767284
_cell_angle_alpha   89.99200278
_cell_angle_beta   89.91997836
_cell_angle_gamma   89.98307332
_symmetry_Int_Tables_number   1
_chemical_formula_structural   Ba2Mo3O7
_chemical_formula_sum   'Ba2 Mo3 O7'
_cell_volume   197.80401621
_cell_formula_units_Z   1
loop_
 _symmetry_equiv_pos_site_id
 _symmetry_equiv_pos_as_xyz
  1  'x, y, z'
loop_
 _atom_site_type_symbol
 _atom_site_label
 _atom_site_symmetry_multiplicity
 _atom_site_fract_x
 _atom_site_fract_y
 _atom_site_fract_z
 _atom_site_occupancy
  Ba  Ba0  1  0.50614600  0.50364200  0.79935200  1
  Ba  Ba1  1  0.50340400  0.50335400  0.20330900  1
  Mo  Mo2  1  0.00650000  0.00389000  0.63171600  1
  Mo  Mo3  1  0.00290000  0.00303200  0.37091300  1
  Mo  Mo4  1  0.00472100  0.00354000  0.00138800  1
  O  O5  1  0.00461100  0.50352400  0.00137400  1
  O  O6  1  0.50659900  0.00401400  0.64584200  1
  O  O7  1  0.50283800  0.00303600  0.35788400  1
  O  O8  1  0.00663600  0.50384700  0.64325600  1
  O  O9  1  0.00289500  0.50304100  0.35818400  1
  O  O10  1  0.00631700  0.00356900  0.82840800  1
  O  O11  1  0.00322800  0.00337400  0.17435800  1
