# generated using pymatgen
data_MgBi2O5
_symmetry_space_group_name_H-M   'P 1'
_cell_length_a   5.51390558
_cell_length_b   8.35081829
_cell_length_c   11.87970400
_cell_angle_alpha   90.00000000
_cell_angle_beta   90.00000000
_cell_angle_gamma   105.51257255
_symmetry_Int_Tables_number   1
_chemical_formula_structural   MgBi2O5
_chemical_formula_sum   'Mg4 Bi8 O20'
_cell_volume   527.08184227
_cell_formula_units_Z   4
loop_
 _symmetry_equiv_pos_site_id
 _symmetry_equiv_pos_as_xyz
  1  'x, y, z'
loop_
 _atom_site_type_symbol
 _atom_site_label
 _atom_site_symmetry_multiplicity
 _atom_site_fract_x
 _atom_site_fract_y
 _atom_site_fract_z
 _atom_site_occupancy
  Mg  Mg0  1  0.61086200  0.16256700  0.91800700  1
  Mg  Mg1  1  0.38913800  0.83743300  0.08199300  1
  Mg  Mg2  1  0.88913800  0.33743300  0.41800700  1
  Mg  Mg3  1  0.11086200  0.66256700  0.58199300  1
  Bi  Bi4  1  0.79014600  0.95696100  0.62476600  1
  Bi  Bi5  1  0.20985400  0.04303900  0.37523400  1
  Bi  Bi6  1  0.70985400  0.54303900  0.12476600  1
  Bi  Bi7  1  0.29014600  0.45696100  0.87523400  1
  Bi  Bi8  1  0.09437800  0.14954000  0.10277900  1
  Bi  Bi9  1  0.90562200  0.85046000  0.89722100  1
  Bi  Bi10  1  0.59437800  0.64954000  0.39722100  1
  Bi  Bi11  1  0.40562200  0.35046000  0.60277900  1
  O  O12  1  0.49393400  0.33276200  0.04411400  1
  O  O13  1  0.97780700  0.31800200  0.95775200  1
  O  O14  1  0.50129200  0.68581900  0.19298100  1
  O  O15  1  0.76087300  0.51203000  0.52324500  1
  O  O16  1  0.77922000  0.47628400  0.28886400  1
  O  O17  1  0.27922000  0.97628400  0.21113600  1
  O  O18  1  0.47780700  0.81800200  0.54224800  1
  O  O19  1  0.52219300  0.18199800  0.45775200  1
  O  O20  1  0.23912700  0.48797000  0.47675500  1
  O  O21  1  0.00606600  0.16723800  0.54411400  1
  O  O22  1  0.22078000  0.52371600  0.71113600  1
  O  O23  1  0.50606600  0.66723800  0.95588600  1
  O  O24  1  0.99393400  0.83276200  0.45588600  1
  O  O25  1  0.72078000  0.02371600  0.78886400  1
  O  O26  1  0.73912700  0.98797000  0.02324500  1
  O  O27  1  0.26087300  0.01203000  0.97675500  1
  O  O28  1  0.49870800  0.31418100  0.80701900  1
  O  O29  1  0.02219300  0.68199800  0.04224800  1
  O  O30  1  0.99870800  0.81418100  0.69298100  1
  O  O31  1  0.00129200  0.18581900  0.30701900  1
