# generated using pymatgen
data_Al2O3
_symmetry_space_group_name_H-M   'P 1'
_cell_length_a   10.17152018
_cell_length_b   10.35236064
_cell_length_c   10.54910845
_cell_angle_alpha   92.78968515
_cell_angle_beta   94.75694918
_cell_angle_gamma   92.36575142
_symmetry_Int_Tables_number   1
_chemical_formula_structural   Al2O3
_chemical_formula_sum   'Al40 O60'
_cell_volume   1104.52866143
_cell_formula_units_Z   20
loop_
 _symmetry_equiv_pos_site_id
 _symmetry_equiv_pos_as_xyz
  1  'x, y, z'
loop_
 _atom_site_type_symbol
 _atom_site_label
 _atom_site_symmetry_multiplicity
 _atom_site_fract_x
 _atom_site_fract_y
 _atom_site_fract_z
 _atom_site_occupancy
  Al  Al0  1  0.39769100  0.55542200  0.35522300  1
  Al  Al1  1  0.39170800  0.01813000  0.55808500  1
  Al  Al2  1  0.81981600  0.76748300  0.60327900  1
  Al  Al3  1  0.01831500  0.65253000  0.90648500  1
  Al  Al4  1  0.52880000  0.72643400  0.91782200  1
  Al  Al5  1  0.89868900  0.19047100  0.71379600  1
  Al  Al6  1  0.34715800  0.31782000  0.55175700  1
  Al  Al7  1  0.09495900  0.93250700  0.98279500  1
  Al  Al8  1  0.28642000  0.76918700  0.01805700  1
  Al  Al9  1  0.95986600  0.49832100  0.66818300  1
  Al  Al10  1  0.88099300  0.69287800  0.30847300  1
  Al  Al11  1  0.68480300  0.25488100  0.11256200  1
  Al  Al12  1  0.77747200  0.95482700  0.17513900  1
  Al  Al13  1  0.49368800  0.76653000  0.60147700  1
  Al  Al14  1  0.21169100  0.83854000  0.71414200  1
  Al  Al15  1  0.96143900  0.17035500  0.00794200  1
  Al  Al16  1  0.78810100  0.38988300  0.88711800  1
  Al  Al17  1  0.90767600  0.19029800  0.29962300  1
  Al  Al18  1  0.53173300  0.97182400  0.36370600  1
  Al  Al19  1  0.38231100  0.27213800  0.01953700  1
  Al  Al20  1  0.43941100  0.25735700  0.30994300  1
  Al  Al21  1  0.82258500  0.92900000  0.87395600  1
  Al  Al22  1  0.60442300  0.71128400  0.22251500  1
  Al  Al23  1  0.19303300  0.90740000  0.29526200  1
  Al  Al24  1  0.23465000  0.58388200  0.54528200  1
  Al  Al25  1  0.11982300  0.16316500  0.51621500  1
  Al  Al26  1  0.66144200  0.01721100  0.67283000  1
  Al  Al27  1  0.45400700  0.52162600  0.07694700  1
  Al  Al28  1  0.74435700  0.45415800  0.36443100  1
  Al  Al29  1  0.77055900  0.64893200  0.01218200  1
  Al  Al30  1  0.12912300  0.46397100  0.05401500  1
  Al  Al31  1  0.68366300  0.63938300  0.75030000  1
  Al  Al32  1  0.26786200  0.54173900  0.78883800  1
  Al  Al33  1  0.17978700  0.25887500  0.22990300  1
  Al  Al34  1  0.15503100  0.22270100  0.84138100  1
  Al  Al35  1  0.05962800  0.45542200  0.37056300  1
  Al  Al36  1  0.48837600  0.23091600  0.78151400  1
  Al  Al37  1  0.01752600  0.88689200  0.46142400  1
  Al  Al38  1  0.54841800  0.01160900  0.97103200  1
  Al  Al39  1  0.67849300  0.30901900  0.62291100  1
  O  O40  1  0.61282500  0.87937000  0.25212500  1
  O  O41  1  0.46141900  0.14682400  0.93297200  1
  O  O42  1  0.80192200  0.90987100  0.69378600  1
  O  O43  1  0.50986300  0.69076600  0.75404700  1
  O  O44  1  0.06963400  0.31914800  0.95436900  1
  O  O45  1  0.06721200  0.19454700  0.67777100  1
  O  O46  1  0.28585900  0.15573600  0.58179100  1
  O  O47  1  0.65788600  0.28761700  0.79910900  1
  O  O48  1  0.88809700  0.99113300  0.04575100  1
  O  O49  1  0.43202400  0.63870800  0.21467700  1
  O  O50  1  0.50763100  0.09674900  0.67584200  1
  O  O51  1  0.10777600  0.02383400  0.40742500  1
  O  O52  1  0.75759500  0.15235300  0.60824300  1
  O  O53  1  0.76059400  0.41802000  0.52650400  1
  O  O54  1  0.56394900  0.92160700  0.52840100  1
  O  O55  1  0.59985000  0.63464300  0.06183600  1
  O  O56  1  0.80999800  0.76257400  0.16179000  1
  O  O57  1  0.81791400  0.28590000  0.01835700  1
  O  O58  1  0.68725900  0.52619700  0.86919200  1
  O  O59  1  0.33157300  0.20638300  0.16590400  1
  O  O60  1  0.90715600  0.54905300  0.98795000  1
  O  O61  1  0.21241900  0.84821200  0.88323100  1
  O  O62  1  0.15194600  0.64048400  0.03399400  1
  O  O63  1  0.54408700  0.36021700  0.07748500  1
  O  O64  1  0.35781500  0.88247300  0.64548400  1
  O  O65  1  0.23637200  0.67481700  0.69028200  1
  O  O66  1  0.65893700  0.69510100  0.59148000  1
  O  O67  1  0.10053900  0.40745200  0.20597300  1
  O  O68  1  0.28546300  0.44735600  0.63967200  1
  O  O69  1  0.37561700  0.61729800  0.93459300  1
  O  O70  1  0.65476300  0.07852800  0.10627400  1
  O  O71  1  0.30443600  0.42521600  0.06271100  1
  O  O72  1  0.05499600  0.52201700  0.53792800  1
  O  O73  1  0.88198000  0.36395000  0.74474200  1
  O  O74  1  0.71536000  0.76571200  0.90039700  1
  O  O75  1  0.22710500  0.52531400  0.38320400  1
  O  O76  1  0.76699800  0.29906300  0.26886300  1
  O  O77  1  0.39853400  0.65826700  0.49436600  1
  O  O78  1  0.20270800  0.88979200  0.12544000  1
  O  O79  1  0.69593800  0.61227700  0.32033400  1
  O  O80  1  0.06803200  0.78660200  0.33033100  1
  O  O81  1  0.02803200  0.17031700  0.17924200  1
  O  O82  1  0.96955400  0.81664100  0.90673200  1
  O  O83  1  0.50687500  0.33147600  0.61731500  1
  O  O84  1  0.02497800  0.27565400  0.41770900  1
  O  O85  1  0.35250100  0.94474800  0.38039500  1
  O  O86  1  0.84746400  0.03325500  0.31677500  1
  O  O87  1  0.50064200  0.41956700  0.34308900  1
  O  O88  1  0.09078300  0.52994800  0.80731700  1
  O  O89  1  0.07340100  0.88522600  0.62072600  1
  O  O90  1  0.87028500  0.63942600  0.71150300  1
  O  O91  1  0.89666500  0.10304000  0.84853800  1
  O  O92  1  0.91010700  0.52667100  0.32157400  1
  O  O93  1  0.45959100  0.85893600  0.99940000  1
  O  O94  1  0.31986000  0.30042900  0.84142900  1
  O  O95  1  0.13302700  0.09272900  0.94642500  1
  O  O96  1  0.86689300  0.79241500  0.45172500  1
  O  O97  1  0.53573400  0.13939600  0.37148800  1
  O  O98  1  0.28354500  0.27703500  0.38530000  1
  O  O99  1  0.65171100  0.98851600  0.84732500  1
