# generated using pymatgen
data_BaO
_symmetry_space_group_name_H-M   'P 1'
_cell_length_a   13.63872562
_cell_length_b   14.37070766
_cell_length_c   13.15231444
_cell_angle_alpha   86.10241986
_cell_angle_beta   87.47087017
_cell_angle_gamma   88.60841711
_symmetry_Int_Tables_number   1
_chemical_formula_structural   BaO
_chemical_formula_sum   'Ba50 O50'
_cell_volume   2568.77582269
_cell_formula_units_Z   50
loop_
 _symmetry_equiv_pos_site_id
 _symmetry_equiv_pos_as_xyz
  1  'x, y, z'
loop_
 _atom_site_type_symbol
 _atom_site_label
 _atom_site_symmetry_multiplicity
 _atom_site_fract_x
 _atom_site_fract_y
 _atom_site_fract_z
 _atom_site_occupancy
  Ba  Ba0  1  0.46348616  0.40141937  0.58615763  1
  Ba  Ba1  1  0.96263010  0.88686743  0.38672660  1
  Ba  Ba2  1  0.91545954  0.05420515  0.17233511  1
  Ba  Ba3  1  0.15156302  0.06879395  0.01928158  1
  Ba  Ba4  1  0.32796444  0.20211992  0.12404585  1
  Ba  Ba5  1  0.76828863  0.04076175  0.55272520  1
  Ba  Ba6  1  0.80354606  0.62514841  0.59903960  1
  Ba  Ba7  1  0.79700232  0.74577577  0.27017421  1
  Ba  Ba8  1  0.04840178  0.65051631  0.83994113  1
  Ba  Ba9  1  0.09038481  0.02956121  0.59130959  1
  Ba  Ba10  1  0.37858186  0.60545723  0.08527290  1
  Ba  Ba11  1  0.41587202  0.05385490  0.52567358  1
  Ba  Ba12  1  0.30104060  0.84187101  0.74579485  1
  Ba  Ba13  1  0.92131329  0.28492256  0.06294870  1
  Ba  Ba14  1  0.72156709  0.40902580  0.54444044  1
  Ba  Ba15  1  0.47483826  0.32595778  0.26918629  1
  Ba  Ba16  1  0.14471177  0.38926415  0.98157373  1
  Ba  Ba17  1  0.30183656  0.76870935  0.41524007  1
  Ba  Ba18  1  0.09249028  0.31197866  0.26197116  1
  Ba  Ba19  1  0.72435351  0.23353651  0.33816019  1
  Ba  Ba20  1  0.73099284  0.40270626  0.83862899  1
  Ba  Ba21  1  0.74093377  0.94172570  0.00468836  1
  Ba  Ba22  1  0.60085527  0.99067420  0.26048680  1
  Ba  Ba23  1  0.21633039  0.54088408  0.59394415  1
  Ba  Ba24  1  0.83305581  0.63880830  0.03072101  1
  Ba  Ba25  1  0.55750107  0.90812496  0.70203690  1
  Ba  Ba26  1  0.01543520  0.90728484  0.87406412  1
  Ba  Ba27  1  0.00773924  0.58447450  0.37051022  1
  Ba  Ba28  1  0.93741585  0.27720263  0.48801034  1
  Ba  Ba29  1  0.44373304  0.05074009  0.92805346  1
  Ba  Ba30  1  0.40424549  0.86651119  0.14099422  1
  Ba  Ba31  1  0.10496527  0.77718733  0.14964022  1
  Ba  Ba32  1  0.19811741  0.02295413  0.30830845  1
  Ba  Ba33  1  0.43387313  0.33486580  0.88303279  1
  Ba  Ba34  1  0.61432131  0.70167575  0.87206718  1
  Ba  Ba35  1  0.62696412  0.19808940  0.05553871  1
  Ba  Ba36  1  0.81536936  0.83942782  0.72842284  1
  Ba  Ba37  1  0.06374644  0.76249212  0.57432716  1
  Ba  Ba38  1  0.25018250  0.26783803  0.48108900  1
  Ba  Ba39  1  0.29411832  0.58645012  0.83903827  1
  Ba  Ba40  1  0.83126718  0.45746737  0.24848697  1
  Ba  Ba41  1  0.27666213  0.53463578  0.33149424  1
  Ba  Ba42  1  0.92311432  0.15149311  0.80129255  1
  Ba  Ba43  1  0.57253023  0.56785583  0.34244562  1
  Ba  Ba44  1  0.61781440  0.46226957  0.09421823  1
  Ba  Ba45  1  0.48395696  0.63657651  0.63494837  1
  Ba  Ba46  1  0.26442518  0.14312364  0.74167889  1
  Ba  Ba47  1  0.01117072  0.39056038  0.71537302  1
  Ba  Ba48  1  0.57128747  0.81309324  0.46504813  1
  Ba  Ba49  1  0.58889804  0.18180197  0.69495151  1
  O  O50  1  0.77417803  0.78823305  0.93264258  1
  O  O51  1  0.30391580  0.01835390  0.12765932  1
  O  O52  1  0.46863670  0.85762030  0.31360993  1
  O  O53  1  0.38195370  0.58262309  0.47538802  1
  O  O54  1  0.96038051  0.29670136  0.87454461  1
  O  O55  1  0.40801914  0.01967074  0.73201292  1
  O  O56  1  0.93133691  0.70326150  0.71004199  1
  O  O57  1  0.15288202  0.65415299  0.44884459  1
  O  O58  1  0.58267462  0.16589430  0.25076669  1
  O  O59  1  0.40891932  0.22826796  0.59082606  1
  O  O60  1  0.59401471  0.35781987  0.71158009  1
  O  O61  1  0.60124760  0.97536417  0.50595410  1
  O  O62  1  0.05918416  0.95720591  0.20495360  1
  O  O63  1  0.15078480  0.99599114  0.77985935  1
  O  O64  1  0.29369914  0.48196245  0.00133030  1
  O  O65  1  0.54804138  0.18515155  0.88214303  1
  O  O66  1  0.37682938  0.48588703  0.71684256  1
  O  O67  1  0.66522004  0.75007983  0.68334015  1
  O  O68  1  0.42191376  0.81789017  0.57832043  1
  O  O69  1  0.92759799  0.93771742  0.57120129  1
  O  O70  1  0.30286173  0.18835426  0.91921381  1
  O  O71  1  0.74434822  0.33415025  0.06057845  1
  O  O72  1  0.70862241  0.00869666  0.73345956  1
  O  O73  1  0.28462618  0.71092296  0.20319008  1
  O  O74  1  0.18498855  0.70552212  0.70969338  1
  O  O75  1  0.13212744  0.21149414  0.11383987  1
  O  O76  1  0.00331263  0.41943779  0.13476854  1
  O  O77  1  0.44716292  0.50666918  0.22712139  1
  O  O78  1  0.42665054  0.72753792  0.84258408  1
  O  O79  1  0.49400263  0.31737033  0.06970467  1
  O  O80  1  0.88427687  0.44675308  0.42537262  1
  O  O81  1  0.83725466  0.45043759  0.68633227  1
  O  O82  1  0.03485823  0.20239441  0.64410498  1
  O  O83  1  0.09646640  0.78065765  0.96176660  1
  O  O84  1  0.68547402  0.54884449  0.93293880  1
  O  O85  1  0.75930791  0.22082223  0.53394514  1
  O  O86  1  0.23793325  0.09179239  0.48469970  1
  O  O87  1  0.14044271  0.89272705  0.43647801  1
  O  O88  1  0.93262637  0.04526749  0.97427601  1
  O  O89  1  0.56304470  0.96800199  0.06535564  1
  O  O90  1  0.89579635  0.71941410  0.43726372  1
  O  O91  1  0.29058588  0.28024658  0.29337019  1
  O  O92  1  0.62663873  0.57280948  0.52641048  1
  O  O93  1  0.94521182  0.68220118  0.19180077  1
  O  O94  1  0.78191200  0.93331240  0.21194534  1
  O  O95  1  0.91933350  0.21903916  0.30055834  1
  O  O96  1  0.71800498  0.60372106  0.18945900  1
  O  O97  1  0.12335292  0.49009107  0.81182017  1
  O  O98  1  0.64967237  0.39854795  0.33087118  1
  O  O99  1  0.15913981  0.42843749  0.45530244  1
