# generated using pymatgen
data_TiZnAg(PO4)3
_symmetry_space_group_name_H-M   'P 1'
_cell_length_a   8.58546197
_cell_length_b   8.58546469
_cell_length_c   8.58546481
_cell_angle_alpha   61.73343720
_cell_angle_beta   61.73338471
_cell_angle_gamma   61.73337154
_symmetry_Int_Tables_number   1
_chemical_formula_structural   TiZnAg(PO4)3
_chemical_formula_sum   'Ti2 Zn2 Ag2 P6 O24'
_cell_volume   464.86576133
_cell_formula_units_Z   2
loop_
 _symmetry_equiv_pos_site_id
 _symmetry_equiv_pos_as_xyz
  1  'x, y, z'
loop_
 _atom_site_type_symbol
 _atom_site_label
 _atom_site_symmetry_multiplicity
 _atom_site_fract_x
 _atom_site_fract_y
 _atom_site_fract_z
 _atom_site_occupancy
  Ti  Ti0  1  0.14541600  0.14541900  0.14541800  1
  Ti  Ti1  1  0.64540900  0.64540800  0.64540900  1
  Zn  Zn2  1  0.99575100  0.99575100  0.99575100  1
  Zn  Zn3  1  0.49576300  0.49576300  0.49576300  1
  Ag  Ag4  1  0.35083000  0.35082900  0.35083000  1
  Ag  Ag5  1  0.85077500  0.85077400  0.85077400  1
  P  P6  1  0.04769900  0.44506700  0.75620400  1
  P  P7  1  0.44506700  0.75620300  0.04769900  1
  P  P8  1  0.75620200  0.04769900  0.44506600  1
  P  P9  1  0.25623600  0.94514000  0.54766700  1
  P  P10  1  0.54766800  0.25623600  0.94514000  1
  P  P11  1  0.94513900  0.54766800  0.25623700  1
  O  O12  1  0.09115400  0.53138100  0.32015300  1
  O  O13  1  0.32015300  0.09115400  0.53138000  1
  O  O14  1  0.05115500  0.25343800  0.91702300  1
  O  O15  1  0.53138000  0.32015300  0.09115300  1
  O  O16  1  0.03149400  0.59103200  0.82012100  1
  O  O17  1  0.24078800  0.42698200  0.60048900  1
  O  O18  1  0.25343900  0.91702200  0.05115500  1
  O  O19  1  0.42698200  0.60049000  0.24078700  1
  O  O20  1  0.19289600  0.00563500  0.37789200  1
  O  O21  1  0.60048900  0.24078800  0.42698200  1
  O  O22  1  0.10060200  0.92699100  0.74074400  1
  O  O23  1  0.37789200  0.19289600  0.00563600  1
  O  O24  1  0.59103400  0.82012100  0.03149300  1
  O  O25  1  0.91702100  0.05115500  0.25343900  1
  O  O26  1  0.41703200  0.75346000  0.55115100  1
  O  O27  1  0.82012100  0.03149400  0.59103300  1
  O  O28  1  0.55115100  0.41703200  0.75346000  1
  O  O29  1  0.74074400  0.10060300  0.92699100  1
  O  O30  1  0.75346000  0.55115100  0.41703200  1
  O  O31  1  0.00563600  0.37789200  0.19289600  1
  O  O32  1  0.50563000  0.69289500  0.87789400  1
  O  O33  1  0.92699200  0.74074400  0.10060300  1
  O  O34  1  0.69289500  0.87789500  0.50563000  1
  O  O35  1  0.87789500  0.50563000  0.69289500  1
