# generated using pymatgen
data_Al2O3
_symmetry_space_group_name_H-M   'P 1'
_cell_length_a   10.00150201
_cell_length_b   10.60843706
_cell_length_c   10.62209261
_cell_angle_alpha   92.88793449
_cell_angle_beta   90.63806451
_cell_angle_gamma   92.53973756
_symmetry_Int_Tables_number   1
_chemical_formula_structural   Al2O3
_chemical_formula_sum   'Al40 O60'
_cell_volume   1124.36938703
_cell_formula_units_Z   20
loop_
 _symmetry_equiv_pos_site_id
 _symmetry_equiv_pos_as_xyz
  1  'x, y, z'
loop_
 _atom_site_type_symbol
 _atom_site_label
 _atom_site_symmetry_multiplicity
 _atom_site_fract_x
 _atom_site_fract_y
 _atom_site_fract_z
 _atom_site_occupancy
  Al  Al0  1  0.57745600  0.29587700  0.58737400  1
  Al  Al1  1  0.84133700  0.05748300  0.46791000  1
  Al  Al2  1  0.31786600  0.31010300  0.58297000  1
  Al  Al3  1  0.22619600  0.52082100  0.39220100  1
  Al  Al4  1  0.81894600  0.32846200  0.21819800  1
  Al  Al5  1  0.27459900  0.81669000  0.50173600  1
  Al  Al6  1  0.12258300  0.86927700  0.68937000  1
  Al  Al7  1  0.03767600  0.28120400  0.44379400  1
  Al  Al8  1  0.52512700  0.23544600  0.11055200  1
  Al  Al9  1  0.73282600  0.40201800  0.93279300  1
  Al  Al10  1  0.51256800  0.56468700  0.70704000  1
  Al  Al11  1  0.00900400  0.65894800  0.84095800  1
  Al  Al12  1  0.50530200  0.04338400  0.46858100  1
  Al  Al13  1  0.85481200  0.75675600  0.52641000  1
  Al  Al14  1  0.46143100  0.02633600  0.95166700  1
  Al  Al15  1  0.67901000  0.77274800  0.90778300  1
  Al  Al16  1  0.20962500  0.19562400  0.03981000  1
  Al  Al17  1  0.70583000  0.04952100  0.09189800  1
  Al  Al18  1  0.30434700  0.17569000  0.32249400  1
  Al  Al19  1  0.39989000  0.89609700  0.22578500  1
  Al  Al20  1  0.66968500  0.08094800  0.79677000  1
  Al  Al21  1  0.32588900  0.71801800  0.94212100  1
  Al  Al22  1  0.87421900  0.79147500  0.08520600  1
  Al  Al23  1  0.07339800  0.86856100  0.35688800  1
  Al  Al24  1  0.15533000  0.87288900  0.04508800  1
  Al  Al25  1  0.46988000  0.42979300  0.34226800  1
  Al  Al26  1  0.01605200  0.37484400  0.97173900  1
  Al  Al27  1  0.51387600  0.52479500  0.98007700  1
  Al  Al28  1  0.99803600  0.07931200  0.91844600  1
  Al  Al29  1  0.87711900  0.92915600  0.73144200  1
  Al  Al30  1  0.93667500  0.60112400  0.27410100  1
  Al  Al31  1  0.70769300  0.53414800  0.43651400  1
  Al  Al32  1  0.55198500  0.74628300  0.44711200  1
  Al  Al33  1  0.20164500  0.49127200  0.77889500  1
  Al  Al34  1  0.45914100  0.85837400  0.73411600  1
  Al  Al35  1  0.63375200  0.68310800  0.20439500  1
  Al  Al36  1  0.22841100  0.51173200  0.13204900  1
  Al  Al37  1  0.86273800  0.24716800  0.70924400  1
  Al  Al38  1  0.00078700  0.09926600  0.21536600  1
  Al  Al39  1  0.03299300  0.58508000  0.54660600  1
  O  O40  1  0.02635500  0.85218000  0.15721900  1
  O  O41  1  0.17661300  0.13869000  0.20476000  1
  O  O42  1  0.63346600  0.12384700  0.95647000  1
  O  O43  1  0.19788400  0.21628300  0.45304900  1
  O  O44  1  0.58164100  0.38235200  0.03622800  1
  O  O45  1  0.92114800  0.20621100  0.55162200  1
  O  O46  1  0.42126200  0.85981300  0.90214800  1
  O  O47  1  0.12288800  0.90546400  0.52711100  1
  O  O48  1  0.62706200  0.50604700  0.84696400  1
  O  O49  1  0.04227600  0.97613000  0.78709100  1
  O  O50  1  0.20110100  0.34562300  0.69874600  1
  O  O51  1  0.07016700  0.44685600  0.45203400  1
  O  O52  1  0.94652200  0.24239300  0.29547200  1
  O  O53  1  0.51477600  0.00302900  0.11778100  1
  O  O54  1  0.59579400  0.67223400  0.03496700  1
  O  O55  1  0.73040200  0.91282400  0.81856900  1
  O  O56  1  0.24937200  0.84350600  0.33440400  1
  O  O57  1  0.86020800  0.38627800  0.06246500  1
  O  O58  1  0.81477000  0.67765900  0.18540400  1
  O  O59  1  0.28977000  0.82934000  0.67886500  1
  O  O60  1  0.39880600  0.03815100  0.33518700  1
  O  O61  1  0.87167400  0.36888500  0.82915800  1
  O  O62  1  0.34954300  0.56919700  0.02305500  1
  O  O63  1  0.85801200  0.10712900  0.79670300  1
  O  O64  1  0.95880200  0.77250000  0.69020100  1
  O  O65  1  0.38276700  0.17488700  0.00405300  1
  O  O66  1  0.14720000  0.76264200  0.90719000  1
  O  O67  1  0.08932000  0.51980900  0.92045300  1
  O  O68  1  0.54244100  0.61209100  0.54171700  1
  O  O69  1  0.07462100  0.57517200  0.70511200  1
  O  O70  1  0.51882500  0.78796700  0.28441200  1
  O  O71  1  0.34324700  0.41978000  0.46202100  1
  O  O72  1  0.72097800  0.73183200  0.41791700  1
  O  O73  1  0.16800000  0.35875600  0.08517400  1
  O  O74  1  0.95907700  0.00266200  0.34683300  1
  O  O75  1  0.90074700  0.08079500  0.07211900  1
  O  O76  1  0.07699700  0.22763600  0.91700600  1
  O  O77  1  0.62344200  0.37983500  0.45346500  1
  O  O78  1  0.33617500  0.51847300  0.26466800  1
  O  O79  1  0.97873900  0.72439200  0.40112600  1
  O  O80  1  0.69050800  0.20565600  0.18341200  1
  O  O81  1  0.67304900  0.07152800  0.44111600  1
  O  O82  1  0.09499000  0.57280200  0.22068700  1
  O  O83  1  0.84819800  0.58354900  0.55056900  1
  O  O84  1  0.47109800  0.39611600  0.67214400  1
  O  O85  1  0.44195100  0.18364400  0.54451300  1
  O  O86  1  0.68457100  0.21948300  0.69077700  1
  O  O87  1  0.73465100  0.88216700  0.06281100  1
  O  O88  1  0.59317500  0.54632100  0.29189200  1
  O  O89  1  0.83916500  0.92717600  0.56802100  1
  O  O90  1  0.57380100  0.72878800  0.76338800  1
  O  O91  1  0.86471800  0.71483500  0.92723900  1
  O  O92  1  0.20636600  0.65350500  0.49754700  1
  O  O93  1  0.35177200  0.59463200  0.79595300  1
  O  O94  1  0.43023000  0.27995800  0.25114100  1
  O  O95  1  0.83328900  0.46993200  0.31745700  1
  O  O96  1  0.50089900  0.02455200  0.76663600  1
  O  O97  1  0.15100500  0.02603100  0.99640200  1
  O  O98  1  0.30387400  0.81500900  0.09857600  1
  O  O99  1  0.46790200  0.87666500  0.52633400  1
