# generated using pymatgen
data_WO2
_symmetry_space_group_name_H-M   'P 1'
_cell_length_a   11.50445407
_cell_length_b   11.71865838
_cell_length_c   12.06294904
_cell_angle_alpha   90.24822717
_cell_angle_beta   87.13234626
_cell_angle_gamma   91.74499061
_symmetry_Int_Tables_number   1
_chemical_formula_structural   WO2
_chemical_formula_sum   'W34 O68'
_cell_volume   1623.49162538
_cell_formula_units_Z   34
loop_
 _symmetry_equiv_pos_site_id
 _symmetry_equiv_pos_as_xyz
  1  'x, y, z'
loop_
 _atom_site_type_symbol
 _atom_site_label
 _atom_site_symmetry_multiplicity
 _atom_site_fract_x
 _atom_site_fract_y
 _atom_site_fract_z
 _atom_site_occupancy
  W  W0  1  0.69222204  0.92467992  0.55577682  1
  W  W1  1  0.71604088  0.05838064  0.97214245  1
  W  W2  1  0.23617723  0.73208986  0.47456617  1
  W  W3  1  0.02394947  0.68977003  0.24184006  1
  W  W4  1  0.38330527  0.16212063  0.29864892  1
  W  W5  1  0.86542317  0.96160327  0.71305668  1
  W  W6  1  0.00729776  0.07710014  0.99872335  1
  W  W7  1  0.01508804  0.30600059  0.53040341  1
  W  W8  1  0.78103609  0.80448152  0.06562363  1
  W  W9  1  0.11310776  0.04656166  0.74568110  1
  W  W10  1  0.76170755  0.47552113  0.03271545  1
  W  W11  1  0.11377529  0.96168939  0.29962073  1
  W  W12  1  0.69990298  0.18183022  0.57284277  1
  W  W13  1  0.19042652  0.29550085  0.68368658  1
  W  W14  1  0.33062232  0.56138488  0.94671916  1
  W  W15  1  0.51525491  0.39557433  0.25685604  1
  W  W16  1  0.76342531  0.25021693  0.13514720  1
  W  W17  1  0.65412471  0.27244718  0.88277278  1
  W  W18  1  0.78538419  0.45627089  0.71129747  1
  W  W19  1  0.88758339  0.69409026  0.58771021  1
  W  W20  1  0.07248581  0.51523849  0.70589805  1
  W  W21  1  0.57317070  0.87071767  0.82995549  1
  W  W22  1  0.55738638  0.96691207  0.16296591  1
  W  W23  1  0.64604636  0.49575034  0.50754293  1
  W  W24  1  0.33844207  0.53391845  0.63575973  1
  W  W25  1  0.21402139  0.46809995  0.34978212  1
  W  W26  1  0.33817412  0.00705549  0.59108340  1
  W  W27  1  0.43758591  0.68173631  0.22536998  1
  W  W28  1  0.04885150  0.20612639  0.23949548  1
  W  W29  1  0.25251338  0.76670528  0.81716991  1
  W  W30  1  0.45771347  0.19158175  0.03446743  1
  W  W31  1  0.03963933  0.67317794  0.96808196  1
  W  W32  1  0.43161576  0.30764749  0.48441965  1
  W  W33  1  0.05471433  0.41774565  0.06722101  1
  O  O34  1  0.23317795  0.92302860  0.71895166  1
  O  O35  1  0.74294740  0.43377687  0.87075141  1
  O  O36  1  0.20824173  0.10134871  0.27279183  1
  O  O37  1  0.47100332  0.48297477  0.52503280  1
  O  O38  1  0.93860212  0.39493615  0.65686759  1
  O  O39  1  0.85021520  0.15834326  0.01486950  1
  O  O40  1  0.05481818  0.43246309  0.44689832  1
  O  O41  1  0.04360637  0.70512637  0.55297918  1
  O  O42  1  0.64034683  0.52726536  0.67134910  1
  O  O43  1  0.39470458  0.63101869  0.07035319  1
  O  O44  1  0.88481185  0.20392604  0.23505480  1
  O  O45  1  0.07882714  0.58713869  0.12252710  1
  O  O46  1  0.74005226  0.66055141  0.00823084  1
  O  O47  1  0.11578897  0.37764957  0.79981095  1
  O  O48  1  0.37473800  0.72728501  0.36129439  1
  O  O49  1  0.93103056  0.74610938  0.10674594  1
  O  O50  1  0.62407103  0.48039218  0.11524626  1
  O  O51  1  0.01211423  0.96908732  0.63041257  1
  O  O52  1  0.85370025  0.22362101  0.53877309  1
  O  O53  1  0.55679682  0.10933667  0.90977478  1
  O  O54  1  0.11414695  0.83501010  0.20673147  1
  O  O55  1  0.94242896  0.50713088  0.97465881  1
  O  O56  1  0.63684189  0.27057476  0.22526936  1
  O  O57  1  0.15331332  0.64793407  0.34032160  1
  O  O58  1  0.10900192  0.65042806  0.80849501  1
  O  O59  1  0.40436896  0.06566066  0.12702326  1
  O  O60  1  0.85726854  0.79438135  0.71077762  1
  O  O61  1  0.35078320  0.35012999  0.63565394  1
  O  O62  1  0.38516623  0.12758088  0.47686805  1
  O  O63  1  0.37740517  0.53122699  0.79737729  1
  O  O64  1  0.81335230  0.55332339  0.53233736  1
  O  O65  1  0.44637546  0.83082801  0.16563134  1
  O  O66  1  0.26835967  0.13610078  0.68665388  1
  O  O67  1  0.71813119  0.97397134  0.81890503  1
  O  O68  1  0.35443127  0.86492599  0.53040208  1
  O  O69  1  0.29183248  0.30649249  0.39065990  1
  O  O70  1  0.21114834  0.45241684  0.99404004  1
  O  O71  1  0.58365164  0.66693672  0.24695009  1
  O  O72  1  0.86353049  0.94893418  0.00386557  1
  O  O73  1  0.04131920  0.04991648  0.15665254  1
  O  O74  1  0.28108761  0.69132292  0.65280915  1
  O  O75  1  0.26483677  0.56006706  0.49248431  1
  O  O76  1  0.40435717  0.28634773  0.17061003  1
  O  O77  1  0.05451786  0.21157195  0.39576014  1
  O  O78  1  0.18335298  0.88911435  0.41135287  1
  O  O79  1  0.90504126  0.65867064  0.33414133  1
  O  O80  1  0.70126396  0.28294467  0.71652469  1
  O  O81  1  0.86537387  0.39445202  0.13363222  1
  O  O82  1  0.14615447  0.06725778  0.91569227  1
  O  O83  1  0.97434429  0.97626316  0.36018913  1
  O  O84  1  0.05412273  0.23527877  0.05838636  1
  O  O85  1  0.06264843  0.18433854  0.64856670  1
  O  O86  1  0.90246344  0.59573978  0.71944624  1
  O  O87  1  0.59320514  0.06713502  0.62790269  1
  O  O88  1  0.13899466  0.82077601  0.92977294  1
  O  O89  1  0.49857953  0.32670164  0.95281571  1
  O  O90  1  0.63106011  0.46910082  0.35019165  1
  O  O91  1  0.95166084  0.06563326  0.82820162  1
  O  O92  1  0.72889580  0.04690846  0.46130073  1
  O  O93  1  0.38624404  0.51522605  0.26369892  1
  O  O94  1  0.70713182  0.86861734  0.19040834  1
  O  O95  1  0.11508846  0.36414465  0.22089572  1
  O  O96  1  0.52318906  0.05763312  0.29391258  1
  O  O97  1  0.62616273  0.89369760  0.99575528  1
  O  O98  1  0.60375138  0.83945805  0.66953892  1
  O  O99  1  0.41709259  0.83046836  0.84514923  1
  O  O100  1  0.79325936  0.79103908  0.50887448  1
  O  O101  1  0.60734420  0.30754256  0.51415118  1
