# generated using pymatgen
data_ZnS
_symmetry_space_group_name_H-M   'P 1'
_cell_length_a   12.34515076
_cell_length_b   15.34169717
_cell_length_c   13.41094744
_cell_angle_alpha   83.62301169
_cell_angle_beta   87.00931494
_cell_angle_gamma   82.88458676
_symmetry_Int_Tables_number   1
_chemical_formula_structural   ZnS
_chemical_formula_sum   'Zn50 S50'
_cell_volume   2502.91673912
_cell_formula_units_Z   50
loop_
 _symmetry_equiv_pos_site_id
 _symmetry_equiv_pos_as_xyz
  1  'x, y, z'
loop_
 _atom_site_type_symbol
 _atom_site_label
 _atom_site_symmetry_multiplicity
 _atom_site_fract_x
 _atom_site_fract_y
 _atom_site_fract_z
 _atom_site_occupancy
  Zn  Zn0  1  0.44687949  0.90280256  0.83674984  1
  Zn  Zn1  1  0.44888276  0.25234893  0.10103630  1
  Zn  Zn2  1  0.66919876  0.04660563  0.93701667  1
  Zn  Zn3  1  0.66853529  0.32569276  0.93520086  1
  Zn  Zn4  1  0.05939490  0.32977285  0.30081770  1
  Zn  Zn5  1  0.75955908  0.26126320  0.56902984  1
  Zn  Zn6  1  0.63169870  0.84054361  0.60199400  1
  Zn  Zn7  1  0.90292815  0.96861977  0.10137387  1
  Zn  Zn8  1  0.31567605  0.10030337  0.59846876  1
  Zn  Zn9  1  0.59424492  0.78313200  0.88304819  1
  Zn  Zn10  1  0.61649299  0.45815977  0.54923099  1
  Zn  Zn11  1  0.65524585  0.07216348  0.19080027  1
  Zn  Zn12  1  0.60835552  0.57734379  0.02206263  1
  Zn  Zn13  1  0.97623475  0.02793086  0.90422600  1
  Zn  Zn14  1  0.23506255  0.62723814  0.93433843  1
  Zn  Zn15  1  0.59912345  0.40556662  0.28950584  1
  Zn  Zn16  1  0.11850494  0.97570200  0.41945931  1
  Zn  Zn17  1  0.10216097  0.69487502  0.21100963  1
  Zn  Zn18  1  0.93625856  0.05858083  0.37888182  1
  Zn  Zn19  1  0.19075554  0.00773584  0.70692908  1
  Zn  Zn20  1  0.89500623  0.40508903  0.89806240  1
  Zn  Zn21  1  0.74977106  0.23206452  0.75693067  1
  Zn  Zn22  1  0.79884558  0.36640197  0.32133519  1
  Zn  Zn23  1  0.62865540  0.05969405  0.47434759  1
  Zn  Zn24  1  0.28586807  0.11180044  0.93777310  1
  Zn  Zn25  1  0.24142105  0.76295045  0.64063747  1
  Zn  Zn26  1  0.91653351  0.76933391  0.72590368  1
  Zn  Zn27  1  0.53419744  0.74610353  0.14672152  1
  Zn  Zn28  1  0.84223698  0.97926924  0.61766555  1
  Zn  Zn29  1  0.49580819  0.25503402  0.80268589  1
  Zn  Zn30  1  0.30339137  0.82124304  0.30640162  1
  Zn  Zn31  1  0.97475902  0.43709211  0.52074384  1
  Zn  Zn32  1  0.08376048  0.64107087  0.50681632  1
  Zn  Zn33  1  0.31495130  0.26133163  0.33405333  1
  Zn  Zn34  1  0.19423431  0.22810446  0.16133939  1
  Zn  Zn35  1  0.44681314  0.90471217  0.43009866  1
  Zn  Zn36  1  0.66804490  0.24964864  0.32401715  1
  Zn  Zn37  1  0.53802360  0.53102905  0.79712303  1
  Zn  Zn38  1  0.17858678  0.19173141  0.69982109  1
  Zn  Zn39  1  0.35654495  0.50854087  0.56023366  1
  Zn  Zn40  1  0.48583953  0.58540883  0.28126388  1
  Zn  Zn41  1  0.41319400  0.74118249  0.81952183  1
  Zn  Zn42  1  0.23890031  0.38957959  0.56273500  1
  Zn  Zn43  1  0.97857171  0.55416735  0.33438606  1
  Zn  Zn44  1  0.93235122  0.22606452  0.66892710  1
  Zn  Zn45  1  0.16553256  0.86048804  0.94760958  1
  Zn  Zn46  1  0.99587242  0.63202187  0.02824057  1
  Zn  Zn47  1  0.78393170  0.62787157  0.82848054  1
  Zn  Zn48  1  0.16818710  0.30625515  0.90749599  1
  Zn  Zn49  1  0.99475819  0.84265676  0.57837045  1
  S  S50  1  0.62541365  0.12965061  0.79557618  1
  S  S51  1  0.07917888  0.97071283  0.03927470  1
  S  S52  1  0.40772040  0.27242574  0.47555059  1
  S  S53  1  0.83752118  0.26764132  0.90637493  1
  S  S54  1  0.06506867  0.32684643  0.64824280  1
  S  S55  1  0.13327978  0.18979888  0.01864608  1
  S  S56  1  0.30624852  0.33735093  0.17452514  1
  S  S57  1  0.66815640  0.71500014  0.02948112  1
  S  S58  1  0.82651425  0.02864210  0.23456663  1
  S  S59  1  0.71496719  0.50046571  0.88648102  1
  S  S60  1  0.51419356  0.56704675  0.63426725  1
  S  S61  1  0.45033838  0.76411463  0.64094345  1
  S  S62  1  0.54379821  0.18435590  0.24745917  1
  S  S63  1  0.43923320  0.60535782  0.91786017  1
  S  S64  1  0.22075052  0.62366745  0.60899254  1
  S  S65  1  0.76194511  0.15590228  0.44890724  1
  S  S66  1  0.40473201  0.90946771  0.62443932  1
  S  S67  1  0.31582227  0.64306443  0.20731463  1
  S  S68  1  0.22178172  0.76027965  0.81856412  1
  S  S69  1  0.71658635  0.76284164  0.73930862  1
  S  S70  1  0.13183904  0.50405246  0.98956541  1
  S  S71  1  0.60447767  0.33024862  0.67107335  1
  S  S72  1  0.03201119  0.09873644  0.75655626  1
  S  S73  1  0.15622546  0.19117987  0.33070202  1
  S  S74  1  0.34545742  0.77163169  0.14778847  1
  S  S75  1  0.27918037  0.97841020  0.86477714  1
  S  S76  1  0.49104494  0.47604806  0.41684996  1
  S  S77  1  0.92233911  0.59344012  0.49651744  1
  S  S78  1  0.49203368  0.33611958  0.94588752  1
  S  S79  1  0.79805178  0.39994089  0.48815030  1
  S  S80  1  0.07359253  0.44521623  0.86962458  1
  S  S81  1  0.94731198  0.66032014  0.86036857  1
  S  S82  1  0.58147335  0.70685857  0.31101762  1
  S  S83  1  0.92122184  0.36721819  0.19669351  1
  S  S84  1  0.13834006  0.74716661  0.36094288  1
  S  S85  1  0.10966045  0.43774357  0.38848097  1
  S  S86  1  0.55082636  0.01682580  0.07284755  1
  S  S87  1  0.82516150  0.95465005  0.94952503  1
  S  S88  1  0.30533560  0.23357864  0.80647226  1
  S  S89  1  0.44865407  0.74803499  0.40588312  1
  S  S90  1  0.53972415  0.49303291  0.15210605  1
  S  S91  1  0.53001429  0.96754153  0.68341108  1
  S  S92  1  0.29545227  0.96552963  0.34011984  1
  S  S93  1  0.40538344  0.10545765  0.07067926  1
  S  S94  1  0.63297683  0.91527475  0.44229036  1
  S  S95  1  0.13337985  0.72622197  0.04089401  1
  S  S96  1  0.15899996  0.90943745  0.59372103  1
  S  S97  1  0.01675884  0.85150470  0.39627875  1
  S  S98  1  0.47332696  0.14681797  0.53877124  1
  S  S99  1  0.93387340  0.64447116  0.19589855  1
