# generated using pymatgen
data_P2O5
_symmetry_space_group_name_H-M   'P 1'
_cell_length_a   11.80170075
_cell_length_b   12.48671254
_cell_length_c   12.67316607
_cell_angle_alpha   91.24588312
_cell_angle_beta   89.72778527
_cell_angle_gamma   89.38682853
_symmetry_Int_Tables_number   1
_chemical_formula_structural   P2O5
_chemical_formula_sum   'P30 O75'
_cell_volume   1867.00245154
_cell_formula_units_Z   15
loop_
 _symmetry_equiv_pos_site_id
 _symmetry_equiv_pos_as_xyz
  1  'x, y, z'
loop_
 _atom_site_type_symbol
 _atom_site_label
 _atom_site_symmetry_multiplicity
 _atom_site_fract_x
 _atom_site_fract_y
 _atom_site_fract_z
 _atom_site_occupancy
  P  P0  1  0.87168175  0.05023380  0.83321416  1
  P  P1  1  0.53636127  0.58637049  0.19297598  1
  P  P2  1  0.85778955  0.77493488  0.18940229  1
  P  P3  1  0.60694774  0.27160566  0.33703653  1
  P  P4  1  0.05334523  0.50566303  0.61889475  1
  P  P5  1  0.34746949  0.00187401  0.37776966  1
  P  P6  1  0.59998444  0.71386787  0.53401699  1
  P  P7  1  0.79260324  0.38373870  0.42704661  1
  P  P8  1  0.15091188  0.60330381  0.03517953  1
  P  P9  1  0.99950637  0.94423343  0.12444090  1
  P  P10  1  0.24856571  0.55522160  0.46050334  1
  P  P11  1  0.30727658  0.16378246  0.81855077  1
  P  P12  1  0.07882662  0.15099154  0.73650181  1
  P  P13  1  0.13147320  0.91142935  0.73465901  1
  P  P14  1  0.99815096  0.83548469  0.44535043  1
  P  P15  1  0.44569695  0.97059904  0.80096018  1
  P  P16  1  0.24826609  0.79435934  0.45437074  1
  P  P17  1  0.82814996  0.81114182  0.62522429  1
  P  P18  1  0.75420650  0.05076842  0.62387088  1
  P  P19  1  0.93943187  0.52748850  0.14451793  1
  P  P20  1  0.74806531  0.52082594  0.55328654  1
  P  P21  1  0.93475230  0.10266588  0.04313911  1
  P  P22  1  0.39436361  0.78249193  0.66055784  1
  P  P23  1  0.30054199  0.15063636  0.05401189  1
  P  P24  1  0.53766846  0.07763573  0.11258787  1
  P  P25  1  0.01681321  0.09801222  0.44087057  1
  P  P26  1  0.15053332  0.49838509  0.82638991  1
  P  P27  1  0.57913896  0.44719447  0.88346235  1
  P  P28  1  0.64507985  0.40262385  0.05497113  1
  P  P29  1  0.50556303  0.84744538  0.98855575  1
  O  O30  1  0.31839677  0.03657383  0.48877845  1
  O  O31  1  0.81875582  0.55604498  0.64201492  1
  O  O32  1  0.05458514  0.89201820  0.82470928  1
  O  O33  1  0.89094650  0.31303567  0.42322672  1
  O  O34  1  0.42319737  0.56902609  0.23583186  1
  O  O35  1  0.26343395  0.03823527  0.04940685  1
  O  O36  1  0.64618604  0.18390871  0.40242752  1
  O  O37  1  0.07044064  0.23572267  0.65996307  1
  O  O38  1  0.23885976  0.24064134  0.10496265  1
  O  O39  1  0.26668115  0.63548136  0.05521277  1
  O  O40  1  0.71987612  0.32119352  0.09878797  1
  O  O41  1  0.10216924  0.03353542  0.68731802  1
  O  O42  1  0.07076544  0.58668295  0.12960209  1
  O  O43  1  0.09265228  0.58765789  0.92835688  1
  O  O44  1  0.99043386  0.77755730  0.34188737  1
  O  O45  1  0.81022096  0.51444704  0.43701286  1
  O  O46  1  0.59083130  0.47840383  0.14469375  1
  O  O47  1  0.43786812  0.90027582  0.69250764  1
  O  O48  1  0.96621549  0.13860267  0.81010251  1
  O  O49  1  0.23152615  0.47835472  0.37180103  1
  O  O50  1  0.16968905  0.16070010  0.82926498  1
  O  O51  1  0.63465055  0.03158998  0.60261943  1
  O  O52  1  0.77484322  0.83709965  0.25029947  1
  O  O53  1  0.63542851  0.10983568  0.17517926  1
  O  O54  1  0.08267569  0.40020659  0.83745876  1
  O  O55  1  0.11258847  0.55957866  0.52540318  1
  O  O56  1  0.82741306  0.93549678  0.62121567  1
  O  O57  1  0.09202746  0.91770213  0.19408110  1
  O  O58  1  0.91895040  0.77926220  0.53174668  1
  O  O59  1  0.33290455  0.55797088  0.54654467  1
  O  O60  1  0.69571613  0.37174592  0.33920474  1
  O  O61  1  0.33315981  0.80642109  0.54907149  1
  O  O62  1  0.51179747  0.72344052  0.63110247  1
  O  O63  1  0.24232437  0.67909770  0.40969915  1
  O  O64  1  0.50576357  0.30117257  0.27827250  1
  O  O65  1  0.43536499  0.15335768  0.10744113  1
  O  O66  1  0.02402354  0.00182382  0.01355396  1
  O  O67  1  0.71701921  0.39555740  0.53962384  1
  O  O68  1  0.61647167  0.67488880  0.19302063  1
  O  O69  1  0.97797212  0.95624826  0.45592504  1
  O  O70  1  0.35347657  0.23299951  0.73882990  1
  O  O71  1  0.53652176  0.98192827  0.03934053  1
  O  O72  1  0.54156047  0.36367160  0.97997358  1
  O  O73  1  0.02999172  0.11111350  0.32732259  1
  O  O74  1  0.63352837  0.58757262  0.53892671  1
  O  O75  1  0.90026828  0.03685050  0.14806588  1
  O  O76  1  0.32266772  0.73095731  0.73751945  1
  O  O77  1  0.86043361  0.40695720  0.82864354  1
  O  O78  1  0.76528638  0.06737847  0.76648997  1
  O  O79  1  0.70966981  0.77456301  0.57380787  1
  O  O80  1  0.32540508  0.03407776  0.79844335  1
  O  O81  1  0.49780129  0.53553217  0.86550071  1
  O  O82  1  0.79913688  0.33738900  0.79553901  1
  O  O83  1  0.46885128  0.97797558  0.34367274  1
  O  O84  1  0.83617818  0.07980997  0.95429726  1
  O  O85  1  0.90048459  0.49176527  0.04048874  1
  O  O86  1  0.86813484  0.65739770  0.16631040  1
  O  O87  1  0.61709986  0.81015120  0.94895663  1
  O  O88  1  0.92441705  0.83560713  0.09826654  1
  O  O89  1  0.97230426  0.21266162  0.04906116  1
  O  O90  1  0.27353010  0.51125638  0.83189057  1
  O  O91  1  0.62402331  0.38737876  0.78595846  1
  O  O92  1  0.83541634  0.13041554  0.58503062  1
  O  O93  1  0.93810165  0.48183006  0.24955106  1
  O  O94  1  0.12454354  0.81975591  0.50163163  1
  O  O95  1  0.43302801  0.80210333  0.07027862  1
  O  O96  1  0.68617903  0.48207622  0.96245343  1
  O  O97  1  0.42369371  0.88728213  0.89125741  1
  O  O98  1  0.54300629  0.04027971  0.81324825  1
  O  O99  1  0.28156221  0.87035171  0.36853469  1
  O  O100  1  0.85612475  0.76495374  0.72653627  1
  O  O101  1  0.28599870  0.06183697  0.29074561  1
  O  O102  1  0.34509438  0.18691841  0.93533097  1
  O  O103  1  0.10252520  0.56615998  0.72168661  1
  O  O104  1  0.55596641  0.74596277  0.43242111  1
