# generated using pymatgen
data_HfO2
_symmetry_space_group_name_H-M   'P 1'
_cell_length_a   10.55164968
_cell_length_b   11.36529556
_cell_length_c   11.21030415
_cell_angle_alpha   92.22726916
_cell_angle_beta   89.00026455
_cell_angle_gamma   89.63048801
_symmetry_Int_Tables_number   1
_chemical_formula_structural   HfO2
_chemical_formula_sum   'Hf34 O68'
_cell_volume   1343.11471972
_cell_formula_units_Z   34
loop_
 _symmetry_equiv_pos_site_id
 _symmetry_equiv_pos_as_xyz
  1  'x, y, z'
loop_
 _atom_site_type_symbol
 _atom_site_label
 _atom_site_symmetry_multiplicity
 _atom_site_fract_x
 _atom_site_fract_y
 _atom_site_fract_z
 _atom_site_occupancy
  Hf  Hf0  1  0.66980127  0.52106919  0.83823310  1
  Hf  Hf1  1  0.34163796  0.51718947  0.13954494  1
  Hf  Hf2  1  0.64389322  0.82526311  0.46221045  1
  Hf  Hf3  1  0.14675661  0.48983844  0.40191117  1
  Hf  Hf4  1  0.52979361  0.03202280  0.04704339  1
  Hf  Hf5  1  0.61138114  0.58331252  0.58009402  1
  Hf  Hf6  1  0.64646446  0.88385585  0.76704126  1
  Hf  Hf7  1  0.34338998  0.75702076  0.95508872  1
  Hf  Hf8  1  0.96318171  0.27907711  0.92584523  1
  Hf  Hf9  1  0.97581092  0.47614173  0.70611217  1
  Hf  Hf10  1  0.78405399  0.90979952  0.23571747  1
  Hf  Hf11  1  0.12327111  0.84833838  0.45336641  1
  Hf  Hf12  1  0.86664083  0.54050509  0.13925180  1
  Hf  Hf13  1  0.38087606  0.29873226  0.57328929  1
  Hf  Hf14  1  0.05486498  0.16281194  0.44350373  1
  Hf  Hf15  1  0.33953549  0.24706139  0.21036087  1
  Hf  Hf16  1  0.17438096  0.06635489  0.00242627  1
  Hf  Hf17  1  0.72454207  0.33290122  0.51947386  1
  Hf  Hf18  1  0.10617671  0.79078251  0.15492472  1
  Hf  Hf19  1  0.38273546  0.73415824  0.35529339  1
  Hf  Hf20  1  0.60052381  0.71523416  0.10476599  1
  Hf  Hf21  1  0.68503214  0.23404186  0.83213581  1
  Hf  Hf22  1  0.60859566  0.49448328  0.29992470  1
  Hf  Hf23  1  0.37370653  0.84638679  0.64385432  1
  Hf  Hf24  1  0.85500227  0.72159722  0.92752948  1
  Hf  Hf25  1  0.84904287  0.00018952  0.97827897  1
  Hf  Hf26  1  0.55913212  0.12748086  0.37759989  1
  Hf  Hf27  1  0.30389059  0.55677961  0.68951033  1
  Hf  Hf28  1  0.90151206  0.65674323  0.43373651  1
  Hf  Hf29  1  0.78847625  0.08620308  0.58998046  1
  Hf  Hf30  1  0.72670390  0.23445587  0.17072780  1
  Hf  Hf31  1  0.04394851  0.31281173  0.20774344  1
  Hf  Hf32  1  0.39049469  0.27923809  0.86799308  1
  Hf  Hf33  1  0.13828165  0.09980566  0.70491069  1
  O  O34  1  0.23556054  0.66746235  0.07673168  1
  O  O35  1  0.45537597  0.40221108  0.23944598  1
  O  O36  1  0.96340325  0.93667293  0.12311047  1
  O  O37  1  0.33857219  0.09887736  0.08399510  1
  O  O38  1  0.00829007  0.08697025  0.88889424  1
  O  O39  1  0.46164549  0.92244325  0.78555058  1
  O  O40  1  0.46334503  0.62178118  0.99104437  1
  O  O41  1  0.77777887  0.25699758  0.67331351  1
  O  O42  1  0.66396279  0.95936013  0.93632218  1
  O  O43  1  0.00346971  0.52723358  0.53149240  1
  O  O44  1  0.71658318  0.04553224  0.13325686  1
  O  O45  1  0.47903150  0.62536655  0.21454226  1
  O  O46  1  0.26754679  0.59516763  0.30914603  1
  O  O47  1  0.47331784  0.85320231  0.04582163  1
  O  O48  1  0.86816567  0.20837388  0.46750582  1
  O  O49  1  0.31462243  0.72710198  0.77596140  1
  O  O50  1  0.72975613  0.59144733  0.00680191  1
  O  O51  1  0.72489200  0.06616712  0.76220690  1
  O  O52  1  0.54847489  0.76367288  0.62836562  1
  O  O53  1  0.34575269  0.35689596  0.03468567  1
  O  O54  1  0.13152566  0.55558339  0.74922421  1
  O  O55  1  0.06677804  0.33324039  0.39590661  1
  O  O56  1  0.53188896  0.16574928  0.93567455  1
  O  O57  1  0.19646838  0.20003540  0.57217325  1
  O  O58  1  0.80532988  0.37653174  0.86835939  1
  O  O59  1  0.53623025  0.40594930  0.52814359  1
  O  O60  1  0.96437089  0.40218568  0.06284794  1
  O  O61  1  0.69948046  0.00416737  0.38678933  1
  O  O62  1  0.97650864  0.51312670  0.28344649  1
  O  O63  1  0.25148074  0.13303631  0.85520188  1
  O  O64  1  0.52919655  0.15711548  0.19583122  1
  O  O65  1  0.76229166  0.81486780  0.07743318  1
  O  O66  1  0.79798030  0.18807908  0.97948435  1
  O  O67  1  0.71992589  0.40960763  0.16081586  1
  O  O68  1  0.97959783  0.08190854  0.61754361  1
  O  O69  1  0.74391655  0.48858337  0.42891382  1
  O  O70  1  0.20124012  0.88523762  0.01325171  1
  O  O71  1  0.24673300  0.83735646  0.28784729  1
  O  O72  1  0.56069699  0.37426963  0.85925056  1
  O  O73  1  0.16991384  0.17764968  0.26701922  1
  O  O74  1  0.32449658  0.39399438  0.74701882  1
  O  O75  1  0.03864918  0.73877252  0.31647575  1
  O  O76  1  0.50796776  0.56055349  0.72993769  1
  O  O77  1  0.97314651  0.67739728  0.07064290  1
  O  O78  1  0.53909912  0.64129158  0.42440650  1
  O  O79  1  0.39027294  0.21422145  0.39802960  1
  O  O80  1  0.44277126  0.20476076  0.70242249  1
  O  O81  1  0.66362758  0.27356509  0.34192616  1
  O  O82  1  0.71716498  0.92074430  0.59873713  1
  O  O83  1  0.88926792  0.87347917  0.85731683  1
  O  O84  1  0.21116483  0.95109840  0.62581981  1
  O  O85  1  0.68277057  0.72170665  0.83531997  1
  O  O86  1  0.21410384  0.40152947  0.22500679  1
  O  O87  1  0.88975014  0.58513556  0.81921933  1
  O  O88  1  0.28182975  0.72364973  0.52098875  1
  O  O89  1  0.59744566  0.83425993  0.25841056  1
  O  O90  1  0.99866802  0.76449078  0.54190343  1
  O  O91  1  0.81572088  0.80532240  0.36730725  1
  O  O92  1  0.89521876  0.20659081  0.22458940  1
  O  O93  1  0.04156506  0.31917586  0.77069847  1
  O  O94  1  0.10040592  0.22553506  0.05040922  1
  O  O95  1  0.75373841  0.69378434  0.54287820  1
  O  O96  1  0.74539976  0.48119755  0.66354222  1
  O  O97  1  0.27668737  0.45929464  0.53034374  1
  O  O98  1  0.61603516  0.17591343  0.53708788  1
  O  O99  1  0.44977711  0.88514509  0.46563922  1
  O  O100  1  0.72325221  0.62391405  0.23471537  1
  O  O101  1  0.04774443  0.99341046  0.39589512  1
