# generated using pymatgen
data_GaN
_symmetry_space_group_name_H-M   'P 1'
_cell_length_a   10.84855438
_cell_length_b   11.78700036
_cell_length_c   11.53785924
_cell_angle_alpha   92.16414004
_cell_angle_beta   88.79691170
_cell_angle_gamma   90.12722740
_symmetry_Int_Tables_number   1
_chemical_formula_structural   GaN
_chemical_formula_sum   'Ga50 N50'
_cell_volume   1473.98932538
_cell_formula_units_Z   50
loop_
 _symmetry_equiv_pos_site_id
 _symmetry_equiv_pos_as_xyz
  1  'x, y, z'
loop_
 _atom_site_type_symbol
 _atom_site_label
 _atom_site_symmetry_multiplicity
 _atom_site_fract_x
 _atom_site_fract_y
 _atom_site_fract_z
 _atom_site_occupancy
  Ga  Ga0  1  0.06481070  0.58043400  0.72012811  1
  Ga  Ga1  1  0.22688770  0.63764791  0.41324649  1
  Ga  Ga2  1  0.15959269  0.66774780  0.10088078  1
  Ga  Ga3  1  0.93849420  0.72319220  0.55129576  1
  Ga  Ga4  1  0.11094286  0.20177785  0.13421240  1
  Ga  Ga5  1  0.49977447  0.53555238  0.76640474  1
  Ga  Ga6  1  0.46954607  0.81791762  0.78984470  1
  Ga  Ga7  1  0.10097223  0.96796834  0.09064003  1
  Ga  Ga8  1  0.44338262  0.44291713  0.51049827  1
  Ga  Ga9  1  0.86213556  0.01197937  0.18881737  1
  Ga  Ga10  1  0.25966192  0.81809934  0.90278285  1
  Ga  Ga11  1  0.18993618  0.05025595  0.80218876  1
  Ga  Ga12  1  0.70651437  0.40671497  0.92235881  1
  Ga  Ga13  1  0.80142964  0.20541419  0.14825702  1
  Ga  Ga14  1  0.81612338  0.16209866  0.49824557  1
  Ga  Ga15  1  0.44481272  0.04529312  0.79624616  1
  Ga  Ga16  1  0.02572148  0.01954044  0.55805588  1
  Ga  Ga17  1  0.59993862  0.66883503  0.98579503  1
  Ga  Ga18  1  0.65383588  0.64179832  0.41358719  1
  Ga  Ga19  1  0.74772487  0.02600133  0.68025016  1
  Ga  Ga20  1  0.05408567  0.84052034  0.31986092  1
  Ga  Ga21  1  0.46556645  0.73187319  0.19107465  1
  Ga  Ga22  1  0.95236005  0.40703350  0.56322293  1
  Ga  Ga23  1  0.63217980  0.19916267  0.94581214  1
  Ga  Ga24  1  0.24493524  0.32118083  0.41790828  1
  Ga  Ga25  1  0.60330999  0.93322534  0.01159794  1
  Ga  Ga26  1  0.98203177  0.39396559  0.11239044  1
  Ga  Ga27  1  0.98253546  0.57014139  0.31565151  1
  Ga  Ga28  1  0.49230194  0.01357753  0.52270620  1
  Ga  Ga29  1  0.87756186  0.03756125  0.93336175  1
  Ga  Ga30  1  0.94498753  0.56604045  0.97499700  1
  Ga  Ga31  1  0.68215358  0.37177877  0.64866836  1
  Ga  Ga32  1  0.00911475  0.21725065  0.65829765  1
  Ga  Ga33  1  0.18646153  0.41333733  0.61060639  1
  Ga  Ga34  1  0.35798567  0.01550409  0.06726332  1
  Ga  Ga35  1  0.01020510  0.30965231  0.89581774  1
  Ga  Ga36  1  0.66004486  0.77359563  0.60958808  1
  Ga  Ga37  1  0.76764938  0.75296602  0.81999889  1
  Ga  Ga38  1  0.22383701  0.45725134  0.83812588  1
  Ga  Ga39  1  0.76420845  0.56545513  0.16338866  1
  Ga  Ga40  1  0.80535674  0.40305148  0.37081195  1
  Ga  Ga41  1  0.84428934  0.79939258  0.07369250  1
  Ga  Ga42  1  0.93496555  0.89941990  0.71108798  1
  Ga  Ga43  1  0.40478589  0.24032938  0.69629582  1
  Ga  Ga44  1  0.48443578  0.92818772  0.30684417  1
  Ga  Ga45  1  0.36065754  0.64521368  0.99140520  1
  Ga  Ga46  1  0.18535576  0.08605107  0.34183091  1
  Ga  Ga47  1  0.43186063  0.65983242  0.52391435  1
  Ga  Ga48  1  0.75339375  0.57587761  0.67544435  1
  Ga  Ga49  1  0.05125048  0.76409083  0.83700906  1
  N  N50  1  0.29614358  0.16795477  0.45723360  1
  N  N51  1  0.51509787  0.06680783  0.95491189  1
  N  N52  1  0.55277366  0.13597383  0.21915133  1
  N  N53  1  0.08207308  0.97829639  0.40864409  1
  N  N54  1  0.03663961  0.70130638  0.40768924  1
  N  N55  1  0.04893488  0.47308504  0.86909451  1
  N  N56  1  0.78747502  0.55555221  0.32686381  1
  N  N57  1  0.36272581  0.53405706  0.87105702  1
  N  N58  1  0.75757330  0.83323419  0.36138104  1
  N  N59  1  0.19994772  0.78417806  0.22631757  1
  N  N60  1  0.49952282  0.68971759  0.67723166  1
  N  N61  1  0.61071610  0.80706313  0.89580977  1
  N  N62  1  0.99819183  0.30476898  0.34379236  1
  N  N63  1  0.92418070  0.56649961  0.61585891  1
  N  N64  1  0.13456319  0.23406799  0.78548796  1
  N  N65  1  0.11159631  0.25408213  0.30729643  1
  N  N66  1  0.78187324  0.14138733  0.83444904  1
  N  N67  1  0.57224358  0.22159713  0.44385219  1
  N  N68  1  0.00481019  0.41839041  0.39671246  1
  N  N69  1  0.70380985  0.70361077  0.11889865  1
  N  N70  1  0.30776619  0.43673910  0.23126278  1
  N  N71  1  0.26270347  0.43917157  0.14453304  1
  N  N72  1  0.36459589  0.29167409  0.94932809  1
  N  N73  1  0.97169678  0.87563502  0.17547938  1
  N  N74  1  0.22726029  0.81156816  0.59526159  1
  N  N75  1  0.22368757  0.96832160  0.96413944  1
  N  N76  1  0.64089918  0.54722839  0.87044536  1
  N  N77  1  0.47417638  0.90920264  0.13912907  1
  N  N78  1  0.27664789  0.89565399  0.59998396  1
  N  N79  1  0.57445146  0.44953577  0.18151419  1
  N  N80  1  0.53116240  0.29431323  0.39411942  1
  N  N81  1  0.98284082  0.09814536  0.06304560  1
  N  N82  1  0.71003128  0.91479679  0.33680686  1
  N  N83  1  0.90655731  0.31538469  0.25169592  1
  N  N84  1  0.22123657  0.07310138  0.17729038  1
  N  N85  1  0.02463153  0.56397896  0.14617710  1
  N  N86  1  0.28673933  0.72805258  0.27684739  1
  N  N87  1  0.52493249  0.42526148  0.09945699  1
  N  N88  1  0.78623683  0.33830367  0.78170265  1
  N  N89  1  0.82528458  0.45871793  0.04316021  1
  N  N90  1  0.77636528  0.95077348  0.04201285  1
  N  N91  1  0.37105741  0.14212222  0.53808217  1
  N  N92  1  0.48445529  0.19376739  0.17958427  1
  N  N93  1  0.23419994  0.30791807  0.74824781  1
  N  N94  1  0.78797027  0.32926862  0.51421288  1
  N  N95  1  0.50002270  0.38517710  0.66292549  1
  N  N96  1  0.59617731  0.94050209  0.63442387  1
  N  N97  1  0.85761202  0.24054064  0.79870745  1
  N  N98  1  0.29047591  0.24043145  0.99295357  1
  N  N99  1  0.90279559  0.71622478  0.93189757  1
