# generated using pymatgen
data_Cr(FeO2)3
_symmetry_space_group_name_H-M   'P 1'
_cell_length_a   10.38821248
_cell_length_b   10.54494021
_cell_length_c   9.77946901
_cell_angle_alpha   86.46457781
_cell_angle_beta   86.35658916
_cell_angle_gamma   97.69728789
_symmetry_Int_Tables_number   1
_chemical_formula_structural   Cr(FeO2)3
_chemical_formula_sum   'Cr8 Fe24 O48'
_cell_volume   1056.80416207
_cell_formula_units_Z   8
loop_
 _symmetry_equiv_pos_site_id
 _symmetry_equiv_pos_as_xyz
  1  'x, y, z'
loop_
 _atom_site_type_symbol
 _atom_site_label
 _atom_site_symmetry_multiplicity
 _atom_site_fract_x
 _atom_site_fract_y
 _atom_site_fract_z
 _atom_site_occupancy
  Cr  Cr0  1  0.61507300  0.57780000  0.59609300  1
  Cr  Cr1  1  0.40405200  0.82058600  0.13648200  1
  Cr  Cr2  1  0.47492300  0.78339400  0.71399500  1
  Cr  Cr3  1  0.89743800  0.46083100  0.61741200  1
  Cr  Cr4  1  0.83007900  0.22383900  0.48414800  1
  Cr  Cr5  1  0.46547300  0.50003500  0.16051500  1
  Cr  Cr6  1  0.79650600  0.94402600  0.55478600  1
  Cr  Cr7  1  0.98103000  0.49665400  0.94423500  1
  Fe  Fe8  1  0.11303300  0.77595300  0.37657800  1
  Fe  Fe9  1  0.30141000  0.16138200  0.85042400  1
  Fe  Fe10  1  0.56149600  0.09715800  0.02297500  1
  Fe  Fe11  1  0.33537000  0.37290800  0.43554400  1
  Fe  Fe12  1  0.87147100  0.88533400  0.26191100  1
  Fe  Fe13  1  0.59756400  0.23178700  0.68786700  1
  Fe  Fe14  1  0.35893300  0.02521500  0.35327700  1
  Fe  Fe15  1  0.89482000  0.79363000  0.86277300  1
  Fe  Fe16  1  0.67909800  0.80853400  0.05638400  1
  Fe  Fe17  1  0.08687100  0.73580800  0.06660700  1
  Fe  Fe18  1  0.71270300  0.44337300  0.36254200  1
  Fe  Fe19  1  0.02563800  0.07517500  0.68708500  1
  Fe  Fe20  1  0.11090900  0.12640500  0.35321100  1
  Fe  Fe21  1  0.53871800  0.71360600  0.34885900  1
  Fe  Fe22  1  0.39220300  0.48547000  0.79193600  1
  Fe  Fe23  1  0.88143500  0.27718600  0.85610700  1
  Fe  Fe24  1  0.89491800  0.19997700  0.16779500  1
  Fe  Fe25  1  0.03301100  0.02257000  0.00495600  1
  Fe  Fe26  1  0.66090000  0.52122500  0.87795300  1
  Fe  Fe27  1  0.18130400  0.30614900  0.05391200  1
  Fe  Fe28  1  0.20091800  0.87142100  0.72799500  1
  Fe  Fe29  1  0.12605700  0.47250600  0.27199400  1
  Fe  Fe30  1  0.26709200  0.62408400  0.57617900  1
  Fe  Fe31  1  0.63097600  0.14657100  0.29898800  1
  O  O32  1  0.80749500  0.28983400  0.67119000  1
  O  O33  1  0.86348500  0.89637000  0.02059400  1
  O  O34  1  0.29160000  0.42202700  0.16720200  1
  O  O35  1  0.15608600  0.76298600  0.57912500  1
  O  O36  1  0.46946600  0.10559400  0.19841500  1
  O  O37  1  0.56035800  0.41546400  0.71408700  1
  O  O38  1  0.78469800  0.07894400  0.37289800  1
  O  O39  1  0.15041600  0.58849100  0.41013800  1
  O  O40  1  0.20384300  0.12950700  0.02780900  1
  O  O41  1  0.48682100  0.47659900  0.97388000  1
  O  O42  1  0.51325200  0.68057800  0.13056200  1
  O  O43  1  0.27191900  0.33642800  0.87227800  1
  O  O44  1  0.41565500  0.54358300  0.33600400  1
  O  O45  1  0.65113400  0.26528600  0.45050100  1
  O  O46  1  0.66011800  0.04407100  0.63643300  1
  O  O47  1  0.95939600  0.12416000  0.85643300  1
  O  O48  1  0.99201000  0.04543200  0.20068300  1
  O  O49  1  0.29204700  0.19081200  0.39739500  1
  O  O50  1  0.64610200  0.90930300  0.69267800  1
  O  O51  1  0.42238900  0.85575800  0.32603900  1
  O  O52  1  0.00596400  0.43441900  0.75225100  1
  O  O53  1  0.20102500  0.06982200  0.71650700  1
  O  O54  1  0.68826600  0.83284300  0.24877000  1
  O  O55  1  0.54330900  0.91240400  0.00748000  1
  O  O56  1  0.56737400  0.64074900  0.76960700  1
  O  O57  1  0.79723600  0.42068700  0.92709800  1
  O  O58  1  0.31539600  0.65261000  0.77047000  1
  O  O59  1  0.89277500  0.41031400  0.43665500  1
  O  O60  1  0.72389900  0.16253300  0.08577500  1
  O  O61  1  0.58834100  0.42212800  0.20783900  1
  O  O62  1  0.06499000  0.54507100  0.10953500  1
  O  O63  1  0.01182700  0.67412400  0.89022300  1
  O  O64  1  0.99757500  0.15454000  0.51528700  1
  O  O65  1  0.99839800  0.31710400  0.00767800  1
  O  O66  1  0.47505800  0.69482600  0.54366900  1
  O  O67  1  0.79395800  0.57188200  0.65645200  1
  O  O68  1  0.67407300  0.60995100  0.40811000  1
  O  O69  1  0.07185100  0.28751400  0.25375500  1
  O  O70  1  0.31385200  0.45435700  0.60787900  1
  O  O71  1  0.91901200  0.91006300  0.70269600  1
  O  O72  1  0.12180700  0.88971200  0.92579900  1
  O  O73  1  0.74317800  0.68248100  0.94554900  1
  O  O74  1  0.48471300  0.15673300  0.85982000  1
  O  O75  1  0.37539300  0.91684500  0.68497200  1
  O  O76  1  0.17874800  0.96176700  0.36598800  1
  O  O77  1  0.90489100  0.85922400  0.44709000  1
  O  O78  1  0.98499000  0.75719200  0.23259700  1
  O  O79  1  0.22833700  0.77345100  0.17835800  1
