# generated using pymatgen
data_Al2O3
_symmetry_space_group_name_H-M   'P 1'
_cell_length_a   9.97746201
_cell_length_b   10.42601498
_cell_length_c   10.44350949
_cell_angle_alpha   91.71266400
_cell_angle_beta   89.44562018
_cell_angle_gamma   88.21826732
_symmetry_Int_Tables_number   1
_chemical_formula_structural   Al2O3
_chemical_formula_sum   'Al40 O60'
_cell_volume   1085.31636490
_cell_formula_units_Z   20
loop_
 _symmetry_equiv_pos_site_id
 _symmetry_equiv_pos_as_xyz
  1  'x, y, z'
loop_
 _atom_site_type_symbol
 _atom_site_label
 _atom_site_symmetry_multiplicity
 _atom_site_fract_x
 _atom_site_fract_y
 _atom_site_fract_z
 _atom_site_occupancy
  Al  Al0  1  0.77528700  0.41462900  0.66174000  1
  Al  Al1  1  0.67911900  0.65878800  0.62076200  1
  Al  Al2  1  0.97575700  0.65495700  0.76173400  1
  Al  Al3  1  0.70031400  0.43071800  0.00155900  1
  Al  Al4  1  0.79588800  0.78634800  0.39345300  1
  Al  Al5  1  0.10926000  0.42329500  0.67524700  1
  Al  Al6  1  0.36408100  0.42037100  0.32383400  1
  Al  Al7  1  0.90808600  0.18804800  0.00520500  1
  Al  Al8  1  0.39986100  0.62211500  0.08498700  1
  Al  Al9  1  0.68760000  0.91623800  0.78204300  1
  Al  Al10  1  0.39712000  0.71594600  0.34339100  1
  Al  Al11  1  0.43190400  0.03873000  0.78377700  1
  Al  Al12  1  0.66082100  0.22358200  0.21060200  1
  Al  Al13  1  0.96354800  0.92064100  0.61347800  1
  Al  Al14  1  0.51232700  0.67896400  0.82098000  1
  Al  Al15  1  0.30238000  0.88276600  0.97473200  1
  Al  Al16  1  0.18019100  0.10643800  0.58060300  1
  Al  Al17  1  0.20470900  0.18923100  0.98615700  1
  Al  Al18  1  0.23978700  0.83849400  0.71907000  1
  Al  Al19  1  0.54781900  0.91739900  0.50675500  1
  Al  Al20  1  0.59781000  0.23393400  0.47945600  1
  Al  Al21  1  0.12138400  0.70645700  0.17785700  1
  Al  Al22  1  0.92821400  0.53429400  0.48089500  1
  Al  Al23  1  0.09311800  0.97326600  0.32899700  1
  Al  Al24  1  0.40907000  0.98472200  0.23102200  1
  Al  Al25  1  0.95759600  0.20130900  0.75173600  1
  Al  Al26  1  0.87213600  0.95517500  0.16450300  1
  Al  Al27  1  0.74805600  0.48497300  0.31128200  1
  Al  Al28  1  0.63998800  0.25533600  0.80786600  1
  Al  Al29  1  0.37219100  0.57403700  0.58738800  1
  Al  Al30  1  0.78257700  0.05125400  0.39479400  1
  Al  Al31  1  0.60900700  0.99819400  0.05779100  1
  Al  Al32  1  0.68289800  0.71331800  0.13584700  1
  Al  Al33  1  0.33276400  0.31641400  0.75751700  1
  Al  Al34  1  0.20112100  0.19570500  0.25896100  1
  Al  Al35  1  0.97701200  0.88283700  0.90719200  1
  Al  Al36  1  0.40962300  0.33533300  0.04592600  1
  Al  Al37  1  0.04805400  0.40332600  0.21020100  1
  Al  Al38  1  0.94135200  0.54289900  0.98536700  1
  Al  Al39  1  0.12242100  0.72070300  0.49056500  1
  O  O40  1  0.23096400  0.00980300  0.21832100  1
  O  O41  1  0.29733500  0.46738100  0.69018900  1
  O  O42  1  0.84414700  0.59249200  0.66361200  1
  O  O43  1  0.66602100  0.74800700  0.77891800  1
  O  O44  1  0.94294500  0.34344900  0.65440800  1
  O  O45  1  0.80540100  0.18238800  0.83998600  1
  O  O46  1  0.92358500  0.44262700  0.32871600  1
  O  O47  1  0.01650700  0.07888300  0.64376300  1
  O  O48  1  0.46401200  0.30507000  0.39830800  1
  O  O49  1  0.19503600  0.37063400  0.30915100  1
  O  O50  1  0.31181500  0.05492600  0.92113600  1
  O  O51  1  0.09991600  0.89678200  0.47954300  1
  O  O52  1  0.60399500  0.06506900  0.46379100  1
  O  O53  1  0.04395400  0.50947000  0.82286000  1
  O  O54  1  0.05845700  0.77278700  0.66859800  1
  O  O55  1  0.67067400  0.28129900  0.62645300  1
  O  O56  1  0.43027700  0.88364500  0.37574200  1
  O  O57  1  0.32198600  0.21748700  0.12888600  1
  O  O58  1  0.70222700  0.42320700  0.82008400  1
  O  O59  1  0.09204400  0.53552800  0.54741000  1
  O  O60  1  0.54202400  0.09406500  0.19944900  1
  O  O61  1  0.05429000  0.19775800  0.89316700  1
  O  O62  1  0.95818600  0.00649900  0.02220900  1
  O  O63  1  0.86699800  0.91530900  0.77156400  1
  O  O64  1  0.46964000  0.20702900  0.75205100  1
  O  O65  1  0.74485000  0.91183400  0.28915900  1
  O  O66  1  0.64276700  0.76448500  0.49567300  1
  O  O67  1  0.74019800  0.49665500  0.49098500  1
  O  O68  1  0.21461000  0.69937800  0.32653400  1
  O  O69  1  0.44900700  0.90681900  0.07947200  1
  O  O70  1  0.72859200  0.86191200  0.06190800  1
  O  O71  1  0.66285300  0.39607000  0.19152500  1
  O  O72  1  0.73695900  0.22329800  0.36467300  1
  O  O73  1  0.95015300  0.71365600  0.92217300  1
  O  O74  1  0.94418500  0.69760400  0.44034600  1
  O  O75  1  0.06822700  0.24020400  0.13729400  1
  O  O76  1  0.01371700  0.83948500  0.20980000  1
  O  O77  1  0.40955400  0.56047200  0.41944600  1
  O  O78  1  0.28994600  0.33027300  0.92113700  1
  O  O79  1  0.75171500  0.65364500  0.28060000  1
  O  O80  1  0.38469500  0.80401100  0.82760200  1
  O  O81  1  0.75959000  0.58936300  0.03302900  1
  O  O82  1  0.49469800  0.58252600  0.95086200  1
  O  O83  1  0.76317400  0.12798000  0.10193000  1
  O  O84  1  0.29094800  0.99701700  0.66423600  1
  O  O85  1  0.25873500  0.73112900  0.06870400  1
  O  O86  1  0.50586400  0.69122600  0.20212900  1
  O  O87  1  0.82700700  0.93035800  0.51179600  1
  O  O88  1  0.38200900  0.46904100  0.15667300  1
  O  O89  1  0.87895900  0.37423100  0.02107700  1
  O  O90  1  0.15109100  0.87346500  0.87197800  1
  O  O91  1  0.28802700  0.72632400  0.58294800  1
  O  O92  1  0.57342700  0.30369600  0.98146000  1
  O  O93  1  0.55083300  0.94969700  0.67306200  1
  O  O94  1  0.19422000  0.25927200  0.66755800  1
  O  O95  1  0.05500600  0.55283400  0.12348600  1
  O  O96  1  0.59216000  0.02185900  0.89020100  1
  O  O97  1  0.52419900  0.59146900  0.66799900  1
  O  O98  1  0.17652800  0.12911900  0.41524000  1
  O  O99  1  0.93898500  0.05763800  0.30098700  1
