# generated using pymatgen
data_GaN
_symmetry_space_group_name_H-M   'P 1'
_cell_length_a   11.76147884
_cell_length_b   11.53062086
_cell_length_c   11.58578427
_cell_angle_alpha   93.15178437
_cell_angle_beta   92.07933052
_cell_angle_gamma   90.28501385
_symmetry_Int_Tables_number   1
_chemical_formula_structural   GaN
_chemical_formula_sum   'Ga50 N50'
_cell_volume   1567.78315714
_cell_formula_units_Z   50
loop_
 _symmetry_equiv_pos_site_id
 _symmetry_equiv_pos_as_xyz
  1  'x, y, z'
loop_
 _atom_site_type_symbol
 _atom_site_label
 _atom_site_symmetry_multiplicity
 _atom_site_fract_x
 _atom_site_fract_y
 _atom_site_fract_z
 _atom_site_occupancy
  Ga  Ga0  1  0.74626861  0.98745207  0.43173587  1
  Ga  Ga1  1  0.28404616  0.22064116  0.39768436  1
  Ga  Ga2  1  0.97967566  0.22187042  0.68523563  1
  Ga  Ga3  1  0.64654429  0.71636651  0.41199737  1
  Ga  Ga4  1  0.41966294  0.39306986  0.16930199  1
  Ga  Ga5  1  0.82412694  0.67901822  0.66678010  1
  Ga  Ga6  1  0.69662898  0.78116339  0.93794530  1
  Ga  Ga7  1  0.85879320  0.66443699  0.44959855  1
  Ga  Ga8  1  0.65884941  0.36091377  0.33458889  1
  Ga  Ga9  1  0.15822911  0.44879749  0.96254262  1
  Ga  Ga10  1  0.91931973  0.01890974  0.74699697  1
  Ga  Ga11  1  0.20209236  0.90239966  0.12748243  1
  Ga  Ga12  1  0.65989390  0.51998364  0.52399964  1
  Ga  Ga13  1  0.70025726  0.37230159  0.04438211  1
  Ga  Ga14  1  0.09500676  0.51821371  0.37380466  1
  Ga  Ga15  1  0.28123427  0.56979926  0.75703712  1
  Ga  Ga16  1  0.81101855  0.10201604  0.19620017  1
  Ga  Ga17  1  0.63787895  0.56791570  0.16369355  1
  Ga  Ga18  1  0.88188141  0.62748002  0.11318953  1
  Ga  Ga19  1  0.08025008  0.92534542  0.85365554  1
  Ga  Ga20  1  0.07089223  0.02542871  0.34179719  1
  Ga  Ga21  1  0.36042957  0.53824488  0.02963777  1
  Ga  Ga22  1  0.89305233  0.40123141  0.26947464  1
  Ga  Ga23  1  0.44238889  0.76419565  0.18165715  1
  Ga  Ga24  1  0.12207551  0.56910964  0.60600885  1
  Ga  Ga25  1  0.42305526  0.06135204  0.46917585  1
  Ga  Ga26  1  0.32980636  0.11056705  0.18526568  1
  Ga  Ga27  1  0.98859891  0.78859847  0.35093783  1
  Ga  Ga28  1  0.10575516  0.80560327  0.57598941  1
  Ga  Ga29  1  0.75451361  0.20608569  0.80885424  1
  Ga  Ga30  1  0.16645031  0.34548191  0.15978004  1
  Ga  Ga31  1  0.57193732  0.64136655  0.69843671  1
  Ga  Ga32  1  0.39712089  0.76750732  0.87303341  1
  Ga  Ga33  1  0.19760024  0.71051175  0.94113198  1
  Ga  Ga34  1  0.57160291  0.88802492  0.51996811  1
  Ga  Ga35  1  0.29078815  0.96821831  0.89091111  1
  Ga  Ga36  1  0.66950371  0.91688180  0.71677595  1
  Ga  Ga37  1  0.54210191  0.63939287  0.98334517  1
  Ga  Ga38  1  0.32627979  0.80168520  0.62344205  1
  Ga  Ga39  1  0.97539957  0.84606429  0.10152616  1
  Ga  Ga40  1  0.72953334  0.06467905  0.99258277  1
  Ga  Ga41  1  0.70591939  0.84932635  0.17138718  1
  Ga  Ga42  1  0.07163795  0.24338015  0.40686327  1
  Ga  Ga43  1  0.02361303  0.41684926  0.79240525  1
  Ga  Ga44  1  0.47326894  0.90935858  0.04024675  1
  Ga  Ga45  1  0.16578705  0.64675759  0.21334596  1
  Ga  Ga46  1  0.83514769  0.18698212  0.44342825  1
  Ga  Ga47  1  0.27789684  0.88034536  0.37322660  1
  Ga  Ga48  1  0.93527055  0.44684896  0.55617191  1
  Ga  Ga49  1  0.80308057  0.41269851  0.77130403  1
  N  N50  1  0.39212706  0.52686769  0.36703815  1
  N  N51  1  0.92051041  0.59735096  0.89728258  1
  N  N52  1  0.64036473  0.22274271  0.62954565  1
  N  N53  1  0.95601630  0.27685448  0.52668515  1
  N  N54  1  0.12010819  0.87543407  0.42093812  1
  N  N55  1  0.20086668  0.59660527  0.05674533  1
  N  N56  1  0.05717846  0.35673685  0.28305571  1
  N  N57  1  0.79263960  0.49876766  0.63439205  1
  N  N58  1  0.49039923  0.05592137  0.76987791  1
  N  N59  1  0.67322522  0.45905619  0.87827010  1
  N  N60  1  0.92213869  0.51354277  0.40281148  1
  N  N61  1  0.60633184  0.72113370  0.24560236  1
  N  N62  1  0.45118303  0.20884102  0.97258505  1
  N  N63  1  0.81885677  0.77479994  0.06334462  1
  N  N64  1  0.30396630  0.47163758  0.88173086  1
  N  N65  1  0.47646636  0.29610383  0.94435173  1
  N  N66  1  0.57603876  0.14095172  0.30029335  1
  N  N67  1  0.89582631  0.92228628  0.50169952  1
  N  N68  1  0.31543811  0.27356712  0.22935295  1
  N  N69  1  0.80539464  0.48712420  0.14296115  1
  N  N70  1  0.23380849  0.25428689  0.79539717  1
  N  N71  1  0.24610400  0.19283063  0.86651083  1
  N  N72  1  0.37719245  0.37436204  0.62096153  1
  N  N73  1  0.00650415  0.70925148  0.19643552  1
  N  N74  1  0.15188680  0.11032085  0.60483448  1
  N  N75  1  0.28154096  0.78107725  0.23020547  1
  N  N76  1  0.69935884  0.75749884  0.76645547  1
  N  N77  1  0.39732470  0.88939029  0.50429077  1
  N  N78  1  0.22847820  0.05699452  0.62772059  1
  N  N79  1  0.02806646  0.14230679  0.97405601  1
  N  N80  1  0.94188081  0.91451075  0.59607858  1
  N  N81  1  0.09849135  0.83591509  0.98819520  1
  N  N82  1  0.45196001  0.12636301  0.71809242  1
  N  N83  1  0.79733207  0.26235254  0.29722878  1
  N  N84  1  0.30251376  0.04467278  0.32983894  1
  N  N85  1  0.06261835  0.96938372  0.18466672  1
  N  N86  1  0.60242287  0.53285451  0.85205328  1
  N  N87  1  0.97975931  0.20797995  0.02695580  1
  N  N88  1  0.91849981  0.67537720  0.83831266  1
  N  N89  1  0.76439921  0.03188579  0.81405402  1
  N  N90  1  0.77642295  0.96272489  0.27293678  1
  N  N91  1  0.38888085  0.58027327  0.45041670  1
  N  N92  1  0.67109450  0.23614227  0.53923833  1
  N  N93  1  0.32366399  0.99920808  0.06092873  1
  N  N94  1  0.58707956  0.40315108  0.18601989  1
  N  N95  1  0.41112860  0.68952025  0.71868232  1
  N  N96  1  0.63628663  0.92798022  0.02474138  1
  N  N97  1  0.52797601  0.12001651  0.21499642  1
  N  N98  1  0.47137867  0.38585823  0.63358485  1
  N  N99  1  0.71108236  0.22694260  0.96389782  1
