# generated using pymatgen
data_Ga2O3
_symmetry_space_group_name_H-M   'P 1'
_cell_length_a   10.18917624
_cell_length_b   10.42809836
_cell_length_c   9.86864298
_cell_angle_alpha   90.09385798
_cell_angle_beta   86.97408489
_cell_angle_gamma   86.12951773
_symmetry_Int_Tables_number   1
_chemical_formula_structural   Ga2O3
_chemical_formula_sum   'Ga32 O48'
_cell_volume   1044.71565763
_cell_formula_units_Z   16
loop_
 _symmetry_equiv_pos_site_id
 _symmetry_equiv_pos_as_xyz
  1  'x, y, z'
loop_
 _atom_site_type_symbol
 _atom_site_label
 _atom_site_symmetry_multiplicity
 _atom_site_fract_x
 _atom_site_fract_y
 _atom_site_fract_z
 _atom_site_occupancy
  Ga  Ga0  1  0.13605500  0.77651700  0.09350500  1
  Ga  Ga1  1  0.89497400  0.17329000  0.69265100  1
  Ga  Ga2  1  0.39623400  0.86637500  0.27640300  1
  Ga  Ga3  1  0.22842400  0.24979200  0.97971700  1
  Ga  Ga4  1  0.36057400  0.69520100  0.80032300  1
  Ga  Ga5  1  0.06516100  0.26336300  0.40762400  1
  Ga  Ga6  1  0.80753500  0.47261500  0.78480900  1
  Ga  Ga7  1  0.91172200  0.77261600  0.38708700  1
  Ga  Ga8  1  0.11235800  0.01433200  0.86757300  1
  Ga  Ga9  1  0.52810200  0.20928600  0.01701000  1
  Ga  Ga10  1  0.58332800  0.12505100  0.68604600  1
  Ga  Ga11  1  0.10161600  0.95468600  0.39805600  1
  Ga  Ga12  1  0.87470300  0.48501100  0.25060700  1
  Ga  Ga13  1  0.40602600  0.58848500  0.53141400  1
  Ga  Ga14  1  0.75494300  0.35097100  0.51327200  1
  Ga  Ga15  1  0.05964600  0.64518200  0.66412500  1
  Ga  Ga16  1  0.25545300  0.14362200  0.66627400  1
  Ga  Ga17  1  0.81680100  0.27440000  0.02291500  1
  Ga  Ga18  1  0.32993800  0.55621800  0.04685200  1
  Ga  Ga19  1  0.87529100  0.71491600  0.91938800  1
  Ga  Ga20  1  0.40687600  0.95126700  0.97376900  1
  Ga  Ga21  1  0.41822000  0.37701800  0.76722800  1
  Ga  Ga22  1  0.14547900  0.56240200  0.34843700  1
  Ga  Ga23  1  0.48669200  0.90009200  0.58151000  1
  Ga  Ga24  1  0.04543500  0.49556900  0.97406800  1
  Ga  Ga25  1  0.59712700  0.69446600  0.01949200  1
  Ga  Ga26  1  0.00174800  0.04206200  0.13682100  1
  Ga  Ga27  1  0.36468100  0.33051000  0.44446800  1
  Ga  Ga28  1  0.75202200  0.99052900  0.95536600  1
  Ga  Ga29  1  0.63972100  0.72883700  0.35369200  1
  Ga  Ga30  1  0.56584800  0.43892000  0.24949200  1
  Ga  Ga31  1  0.81347300  0.88861700  0.63929200  1
  O  O32  1  0.23822600  0.69161600  0.94989200  1
  O  O33  1  0.23817200  0.64029700  0.66830100  1
  O  O34  1  0.64447200  0.31511900  0.08260500  1
  O  O35  1  0.73642400  0.48981400  0.62401200  1
  O  O36  1  0.45780100  0.73145000  0.63355000  1
  O  O37  1  0.57311600  0.03494600  0.98090300  1
  O  O38  1  0.45615500  0.40491300  0.58662100  1
  O  O39  1  0.54073100  0.24816400  0.82302000  1
  O  O40  1  0.99372200  0.51525600  0.79213400  1
  O  O41  1  0.03731200  0.91059400  0.99467500  1
  O  O42  1  0.63034200  0.94708300  0.68248900  1
  O  O43  1  0.08244800  0.15503500  0.99868100  1
  O  O44  1  0.84059400  0.02217600  0.78469700  1
  O  O45  1  0.75477200  0.78416200  0.49230700  1
  O  O46  1  0.75060800  0.82426400  0.00079200  1
  O  O47  1  0.74103900  0.38974600  0.32785800  1
  O  O48  1  0.03250700  0.65429700  0.47355500  1
  O  O49  1  0.29231800  0.98928000  0.82891800  1
  O  O50  1  0.22422200  0.23233900  0.49366900  1
  O  O51  1  0.26543100  0.28122500  0.79038600  1
  O  O52  1  0.28529900  0.49810000  0.43334100  1
  O  O53  1  0.29804200  0.90481200  0.12578200  1
  O  O54  1  0.02264100  0.86544200  0.24960000  1
  O  O55  1  0.92460600  0.76337300  0.74004600  1
  O  O56  1  0.99592900  0.65668600  0.04358700  1
  O  O57  1  0.74208500  0.59102200  0.91995300  1
  O  O58  1  0.83273400  0.10025500  0.07915600  1
  O  O59  1  0.91572800  0.40613800  0.07940900  1
  O  O60  1  0.48084400  0.78703800  0.90750100  1
  O  O61  1  0.84383800  0.29673200  0.83500400  1
  O  O62  1  0.36194100  0.16526100  0.06041000  1
  O  O63  1  0.93676900  0.28369200  0.54381900  1
  O  O64  1  0.50168200  0.54519600  0.10692100  1
  O  O65  1  0.21974900  0.64378000  0.20333000  1
  O  O66  1  0.03969800  0.42290000  0.31863600  1
  O  O67  1  0.52791500  0.88678400  0.40086700  1
  O  O68  1  0.42547300  0.08280200  0.60318000  1
  O  O69  1  0.95280500  0.92425600  0.50622900  1
  O  O70  1  0.08048000  0.09448200  0.70235500  1
  O  O71  1  0.41933900  0.52479400  0.86063400  1
  O  O72  1  0.20362600  0.42298600  0.03192500  1
  O  O73  1  0.81856700  0.65571500  0.27409000  1
  O  O74  1  0.72110500  0.19011300  0.58781900  1
  O  O75  1  0.54075400  0.58425000  0.38918000  1
  O  O76  1  0.46720100  0.30409100  0.29455400  1
  O  O77  1  0.26747100  0.89420600  0.42179700  1
  O  O78  1  0.55605200  0.77832100  0.18709400  1
  O  O79  1  0.05688600  0.11319100  0.30260500  1
