# generated using pymatgen
data_V2O5
_symmetry_space_group_name_H-M   'P 1'
_cell_length_a   11.79136430
_cell_length_b   11.81448902
_cell_length_c   12.11226274
_cell_angle_alpha   90.76671569
_cell_angle_beta   93.04664587
_cell_angle_gamma   84.37660524
_symmetry_Int_Tables_number   1
_chemical_formula_structural   V2O5
_chemical_formula_sum   'V30 O75'
_cell_volume   1676.79599247
_cell_formula_units_Z   15
loop_
 _symmetry_equiv_pos_site_id
 _symmetry_equiv_pos_as_xyz
  1  'x, y, z'
loop_
 _atom_site_type_symbol
 _atom_site_label
 _atom_site_symmetry_multiplicity
 _atom_site_fract_x
 _atom_site_fract_y
 _atom_site_fract_z
 _atom_site_occupancy
  V  V0  1  0.71998754  0.70206592  0.94302872  1
  V  V1  1  0.90454064  0.74839074  0.16746338  1
  V  V2  1  0.96198603  0.76233316  0.66546964  1
  V  V3  1  0.46579404  0.70098745  0.06564177  1
  V  V4  1  0.83425897  0.02100544  0.64213425  1
  V  V5  1  0.36678511  0.12545947  0.72033136  1
  V  V6  1  0.39907211  0.57016965  0.81648905  1
  V  V7  1  0.48034237  0.69723047  0.60890388  1
  V  V8  1  0.85053241  0.99780693  0.06214897  1
  V  V9  1  0.35392315  0.93668144  0.22889279  1
  V  V10  1  0.53468092  0.01796437  0.34259928  1
  V  V11  1  0.19987220  0.54636964  0.61174229  1
  V  V12  1  0.76203000  0.59803531  0.53227668  1
  V  V13  1  0.08055968  0.85216081  0.91860056  1
  V  V14  1  0.19814814  0.18436745  0.26804550  1
  V  V15  1  0.03248618  0.97848046  0.26437709  1
  V  V16  1  0.10212721  0.27659615  0.66892266  1
  V  V17  1  0.87998876  0.55410536  0.28502813  1
  V  V18  1  0.98742172  0.56969103  0.96679433  1
  V  V19  1  0.58870954  0.09384828  0.90833291  1
  V  V20  1  0.88542192  0.23900344  0.83982681  1
  V  V21  1  0.55128779  0.97609847  0.62163335  1
  V  V22  1  0.44479351  0.44045182  0.19082835  1
  V  V23  1  0.24079588  0.41298917  0.96583587  1
  V  V24  1  0.90696860  0.37137992  0.47910357  1
  V  V25  1  0.34359287  0.66974682  0.32860717  1
  V  V26  1  0.62126628  0.26937239  0.22800731  1
  V  V27  1  0.35789196  0.97145912  0.96610812  1
  V  V28  1  0.65566152  0.45773153  0.78953105  1
  V  V29  1  0.87023345  0.34037837  0.09651323  1
  O  O30  1  0.08657676  0.64492385  0.63604900  1
  O  O31  1  0.71191159  0.58304645  0.84937383  1
  O  O32  1  0.21479548  0.28357771  0.93507328  1
  O  O33  1  0.22943790  0.92457558  0.61161026  1
  O  O34  1  0.01257962  0.28423861  0.78547223  1
  O  O35  1  0.35600233  0.52062306  0.28695493  1
  O  O36  1  0.11713891  0.49397016  0.01710653  1
  O  O37  1  0.38721595  0.64068334  0.95437188  1
  O  O38  1  0.80718800  0.31024987  0.41228181  1
  O  O39  1  0.32134667  0.23519794  0.24628042  1
  O  O40  1  0.42685233  0.09094662  0.59239096  1
  O  O41  1  0.14985002  0.23522504  0.38430786  1
  O  O42  1  0.68892198  0.82399047  0.88463336  1
  O  O43  1  0.50369867  0.66175996  0.75159863  1
  O  O44  1  0.32352293  0.02276142  0.83289373  1
  O  O45  1  0.20856654  0.89266988  0.96724520  1
  O  O46  1  0.76517198  0.33885355  0.81709077  1
  O  O47  1  0.33891640  0.42160711  0.08266310  1
  O  O48  1  0.20870466  0.90005300  0.51368355  1
  O  O49  1  0.47209508  0.84166686  0.62196094  1
  O  O50  1  0.63914275  0.46340461  0.65547774  1
  O  O51  1  0.28014569  0.48115297  0.84545892  1
  O  O52  1  0.39339571  0.25282314  0.75414663  1
  O  O53  1  0.41186857  0.68437716  0.46168694  1
  O  O54  1  0.58166758  0.23070929  0.90557673  1
  O  O55  1  0.73009221  0.05554154  0.97930299  1
  O  O56  1  0.99275236  0.99212090  0.38892765  1
  O  O57  1  0.70579822  0.96498232  0.66684528  1
  O  O58  1  0.21294896  0.53546726  0.48008708  1
  O  O59  1  0.47566531  0.06049053  0.99076817  1
  O  O60  1  0.99571405  0.30971287  0.18913167  1
  O  O61  1  0.09459219  0.82876708  0.76059921  1
  O  O62  1  0.43628513  0.84355025  0.98327015  1
  O  O63  1  0.05931429  0.71587129  0.96590439  1
  O  O64  1  0.61641170  0.69651147  0.04689414  1
  O  O65  1  0.85555282  0.69609796  0.55078866  1
  O  O66  1  0.81243292  0.70864192  0.26390028  1
  O  O67  1  0.89653722  0.45336326  0.00906249  1
  O  O68  1  0.75220288  0.57160210  0.39524639  1
  O  O69  1  0.18017887  0.01429131  0.26112370  1
  O  O70  1  0.88368388  0.75247633  0.77167500  1
  O  O71  1  0.00503090  0.26458413  0.55602171  1
  O  O72  1  0.98430293  0.59951451  0.20157188  1
  O  O73  1  0.81227228  0.46485961  0.20308522  1
  O  O74  1  0.93104222  0.90816772  0.60049133  1
  O  O75  1  0.38491107  0.76185446  0.20813164  1
  O  O76  1  0.51698672  0.45517294  0.83778548  1
  O  O77  1  0.20490284  0.16350145  0.67512268  1
  O  O78  1  0.52717504  0.04992649  0.77684481  1
  O  O79  1  0.56918839  0.39258462  0.29803950  1
  O  O80  1  0.62126549  0.66426207  0.56783908  1
  O  O81  1  0.16231382  0.40272754  0.65562128  1
  O  O82  1  0.21257453  0.72073340  0.33663599  1
  O  O83  1  0.92143411  0.06356958  0.17755662  1
  O  O84  1  0.84607778  0.46680391  0.58165666  1
  O  O85  1  0.31683428  0.01242608  0.10847028  1
  O  O86  1  0.96584218  0.46630018  0.38804968  1
  O  O87  1  0.97946145  0.54457267  0.83613093  1
  O  O88  1  0.90197126  0.21908843  0.98030467  1
  O  O89  1  0.80975103  0.11110581  0.54227252  1
  O  O90  1  0.01768395  0.83691241  0.21561539  1
  O  O91  1  0.52215410  0.92117524  0.23362885  1
  O  O92  1  0.50443421  0.55053158  0.13720095  1
  O  O93  1  0.86279481  0.11364319  0.77326442  1
  O  O94  1  0.09262795  0.24157860  0.15511093  1
  O  O95  1  0.51557632  0.29254217  0.12760656  1
  O  O96  1  0.38387055  0.02399889  0.35448352  1
  O  O97  1  0.59349282  0.95799040  0.46007952  1
  O  O98  1  0.85878482  0.68387401  0.01984983  1
  O  O99  1  0.74694089  0.26742069  0.15644077  1
  O  O100  1  0.60082439  0.14129082  0.30227972  1
  O  O101  1  0.96325882  0.94267860  0.98546019  1
  O  O102  1  0.80087049  0.88358997  0.12020075  1
  O  O103  1  0.04622934  0.94139493  0.79459163  1
  O  O104  1  0.33618659  0.59989924  0.66552147  1
