# generated using pymatgen
data_Cr3FeO6
_symmetry_space_group_name_H-M   'P 1'
_cell_length_a   10.15768609
_cell_length_b   10.48076029
_cell_length_c   9.57629692
_cell_angle_alpha   81.79885345
_cell_angle_beta   85.57417961
_cell_angle_gamma   89.24717315
_symmetry_Int_Tables_number   1
_chemical_formula_structural   Cr3FeO6
_chemical_formula_sum   'Cr24 Fe8 O48'
_cell_volume   1006.05788021
_cell_formula_units_Z   8
loop_
 _symmetry_equiv_pos_site_id
 _symmetry_equiv_pos_as_xyz
  1  'x, y, z'
loop_
 _atom_site_type_symbol
 _atom_site_label
 _atom_site_symmetry_multiplicity
 _atom_site_fract_x
 _atom_site_fract_y
 _atom_site_fract_z
 _atom_site_occupancy
  Cr  Cr0  1  0.31041900  0.85571800  0.41627300  1
  Cr  Cr1  1  0.07035400  0.87433100  0.29949200  1
  Cr  Cr2  1  0.98438800  0.64958000  0.15013200  1
  Cr  Cr3  1  0.61847700  0.12559000  0.79856900  1
  Cr  Cr4  1  0.50270300  0.33012400  0.97951300  1
  Cr  Cr5  1  0.19505300  0.22870600  0.96696700  1
  Cr  Cr6  1  0.15637400  0.30045600  0.61944500  1
  Cr  Cr7  1  0.67341400  0.85759600  0.98870200  1
  Cr  Cr8  1  0.91837900  0.32551900  0.20827200  1
  Cr  Cr9  1  0.85941000  0.12854500  0.48183300  1
  Cr  Cr10  1  0.90296000  0.28755000  0.93304500  1
  Cr  Cr11  1  0.95592500  0.05173600  0.74892800  1
  Cr  Cr12  1  0.51118100  0.67193900  0.91677700  1
  Cr  Cr13  1  0.41661900  0.27430600  0.64515200  1
  Cr  Cr14  1  0.94277800  0.44494700  0.44807600  1
  Cr  Cr15  1  0.88295600  0.59555000  0.88029000  1
  Cr  Cr16  1  0.20589300  0.41378500  0.13434900  1
  Cr  Cr17  1  0.81864900  0.68581300  0.47017400  1
  Cr  Cr18  1  0.07218200  0.81429500  0.64336700  1
  Cr  Cr19  1  0.66131800  0.87389600  0.34325900  1
  Cr  Cr20  1  0.83236600  0.05294500  0.20278300  1
  Cr  Cr21  1  0.15884300  0.74532800  0.92780200  1
  Cr  Cr22  1  0.31948200  0.59683000  0.64817000  1
  Cr  Cr23  1  0.14199100  0.17751900  0.35810700  1
  Fe  Fe24  1  0.29507500  0.01897800  0.72940500  1
  Fe  Fe25  1  0.67465000  0.58644700  0.15939000  1
  Fe  Fe26  1  0.51387600  0.08138300  0.18243300  1
  Fe  Fe27  1  0.35757900  0.67386000  0.17401200  1
  Fe  Fe28  1  0.42181400  0.34637900  0.33478300  1
  Fe  Fe29  1  0.76625400  0.83916600  0.71401200  1
  Fe  Fe30  1  0.48967800  0.80631100  0.63046400  1
  Fe  Fe31  1  0.68896400  0.35474400  0.58286700  1
  O  O32  1  0.25915700  0.19640000  0.77637400  1
  O  O33  1  0.70779300  0.69354900  0.31306200  1
  O  O34  1  0.04488500  0.33634800  0.03221500  1
  O  O35  1  0.56172700  0.31411700  0.76159100  1
  O  O36  1  0.77027400  0.18280700  0.65614000  1
  O  O37  1  0.04053200  0.16417600  0.56715600  1
  O  O38  1  0.55286100  0.50953200  0.00517600  1
  O  O39  1  0.12543300  0.79873800  0.15004000  1
  O  O40  1  0.91082000  0.95246300  0.59964600  1
  O  O41  1  0.84451800  0.42238400  0.83207500  1
  O  O42  1  0.90756500  0.70581300  0.67822700  1
  O  O43  1  0.72528700  0.69879600  0.89338100  1
  O  O44  1  0.12647300  0.77084600  0.45503200  1
  O  O45  1  0.47589500  0.92542200  0.32555700  1
  O  O46  1  0.53445600  0.35541000  0.48319600  1
  O  O47  1  0.31181500  0.88940900  0.60542300  1
  O  O48  1  0.82260400  0.31962100  0.40374000  1
  O  O49  1  0.10852700  0.92483200  0.79332200  1
  O  O50  1  0.72105200  0.05989900  0.37066400  1
  O  O51  1  0.96512200  0.73336000  0.95842800  1
  O  O52  1  0.14029900  0.58236800  0.06203800  1
  O  O53  1  0.28757300  0.24685600  0.47221200  1
  O  O54  1  0.78507900  0.50899900  0.55119000  1
  O  O55  1  0.06988300  0.37180300  0.31024000  1
  O  O56  1  0.23230800  0.22136900  0.17269900  1
  O  O57  1  0.48249300  0.09738800  0.67692900  1
  O  O58  1  0.34516900  0.73414000  0.96281400  1
  O  O59  1  0.38324900  0.68622900  0.47846400  1
  O  O60  1  0.29580600  0.42961000  0.64188900  1
  O  O61  1  0.51528400  0.13935400  0.97543400  1
  O  O62  1  0.96109400  0.60640600  0.35670800  1
  O  O63  1  0.03593800  0.43004100  0.59393500  1
  O  O64  1  0.50844500  0.27478400  0.18678400  1
  O  O65  1  0.54629600  0.73178500  0.10076800  1
  O  O66  1  0.89172600  0.87909900  0.31211400  1
  O  O67  1  0.96728600  0.14310500  0.29042100  1
  O  O68  1  0.31659300  0.37382100  0.96342600  1
  O  O69  1  0.80180500  0.22983000  0.09496500  1
  O  O70  1  0.33105200  0.49007700  0.24672300  1
  O  O71  1  0.67940000  0.80159000  0.54770000  1
  O  O72  1  0.17516100  0.67293800  0.74527600  1
  O  O73  1  0.69131500  0.95471500  0.14099700  1
  O  O74  1  0.18746300  0.99500300  0.33966300  1
  O  O75  1  0.46602400  0.62256400  0.73809800  1
  O  O76  1  0.85954800  0.51361100  0.11140300  1
  O  O77  1  0.78077900  0.97878500  0.84919300  1
  O  O78  1  0.01289400  0.16070500  0.88427700  1
  O  O79  1  0.56926500  0.85214600  0.81758500  1
