# generated using pymatgen
data_MgO
_symmetry_space_group_name_H-M   'P 1'
_cell_length_a   10.36242297
_cell_length_b   9.00632613
_cell_length_c   10.17451277
_cell_angle_alpha   96.13607717
_cell_angle_beta   88.32727291
_cell_angle_gamma   90.70177381
_symmetry_Int_Tables_number   1
_chemical_formula_structural   MgO
_chemical_formula_sum   'Mg40 O40'
_cell_volume   943.67811452
_cell_formula_units_Z   40
loop_
 _symmetry_equiv_pos_site_id
 _symmetry_equiv_pos_as_xyz
  1  'x, y, z'
loop_
 _atom_site_type_symbol
 _atom_site_label
 _atom_site_symmetry_multiplicity
 _atom_site_fract_x
 _atom_site_fract_y
 _atom_site_fract_z
 _atom_site_occupancy
  Mg  Mg0  1  0.25049000  0.59038900  0.74896100  1
  Mg  Mg1  1  0.99265200  0.58000800  0.92130100  1
  Mg  Mg2  1  0.92582100  0.31926300  0.06729500  1
  Mg  Mg3  1  0.44083700  0.64504200  0.28443600  1
  Mg  Mg4  1  0.58938200  0.63834800  0.06483500  1
  Mg  Mg5  1  0.43415300  0.77813100  0.89439200  1
  Mg  Mg6  1  0.39497800  0.08120100  0.05483600  1
  Mg  Mg7  1  0.69632900  0.62475900  0.81799100  1
  Mg  Mg8  1  0.51991900  0.12020900  0.77504800  1
  Mg  Mg9  1  0.90839700  0.98462500  0.85350800  1
  Mg  Mg10  1  0.11609100  0.25537100  0.84940200  1
  Mg  Mg11  1  0.48372700  0.41966800  0.80007200  1
  Mg  Mg12  1  0.85957400  0.69458900  0.58142300  1
  Mg  Mg13  1  0.47684000  0.29423800  0.30362600  1
  Mg  Mg14  1  0.77474300  0.28779700  0.79024300  1
  Mg  Mg15  1  0.01279900  0.58845600  0.27778200  1
  Mg  Mg16  1  0.73530700  0.97197500  0.61141800  1
  Mg  Mg17  1  0.67105600  0.99741200  0.97593600  1
  Mg  Mg18  1  0.74519300  0.10609600  0.23331500  1
  Mg  Mg19  1  0.21441900  0.97799300  0.31818200  1
  Mg  Mg20  1  0.50722400  0.51419200  0.56418800  1
  Mg  Mg21  1  0.98847400  0.99409200  0.15467900  1
  Mg  Mg22  1  0.44703600  0.80808600  0.62292400  1
  Mg  Mg23  1  0.22636300  0.74341000  0.10203500  1
  Mg  Mg24  1  0.95635000  0.31761500  0.38696900  1
  Mg  Mg25  1  0.84285100  0.75026500  0.09002500  1
  Mg  Mg26  1  0.22503600  0.44803600  0.51197600  1
  Mg  Mg27  1  0.47354700  0.01733600  0.41661900  1
  Mg  Mg28  1  0.28906500  0.16082500  0.58161400  1
  Mg  Mg29  1  0.01832000  0.08999800  0.54912700  1
  Mg  Mg30  1  0.54803300  0.32853000  0.04897500  1
  Mg  Mg31  1  0.73557400  0.48999000  0.31371000  1
  Mg  Mg32  1  0.98234900  0.42599100  0.66356800  1
  Mg  Mg33  1  0.28855300  0.42918000  0.03137700  1
  Mg  Mg34  1  0.22479600  0.74423600  0.43700000  1
  Mg  Mg35  1  0.16831600  0.92600400  0.92007500  1
  Mg  Mg36  1  0.70785100  0.82172800  0.36159300  1
  Mg  Mg37  1  0.11203200  0.85393700  0.66914800  1
  Mg  Mg38  1  0.18437300  0.25839000  0.24166700  1
  Mg  Mg39  1  0.69113800  0.25762700  0.51493900  1
  O  O40  1  0.83103000  0.90355600  0.23695200  1
  O  O41  1  0.40761800  0.27195600  0.91941500  1
  O  O42  1  0.63901000  0.45947300  0.93888600  1
  O  O43  1  0.66454600  0.05114400  0.42314100  1
  O  O44  1  0.61324900  0.30197500  0.69194000  1
  O  O45  1  0.66281700  0.77356400  0.55052400  1
  O  O46  1  0.44207400  0.02922400  0.61171700  1
  O  O47  1  0.13155000  0.75573200  0.27062700  1
  O  O48  1  0.51488300  0.63798400  0.74962100  1
  O  O49  1  0.86688700  0.59125800  0.74436500  1
  O  O50  1  0.18517000  0.55766900  0.92722700  1
  O  O51  1  0.82802200  0.30433500  0.24845800  1
  O  O52  1  0.35517900  0.40923700  0.65309700  1
  O  O53  1  0.13730700  0.28636400  0.05686300  1
  O  O54  1  0.00088000  0.82348300  0.97752900  1
  O  O55  1  0.37492100  0.62607400  0.47912500  1
  O  O56  1  0.12800200  0.27896200  0.62620100  1
  O  O57  1  0.41157700  0.42494900  0.18247100  1
  O  O58  1  0.11963300  0.62287100  0.61109100  1
  O  O59  1  0.40450800  0.67647100  0.05608300  1
  O  O60  1  0.28252600  0.80929700  0.78010800  1
  O  O61  1  0.72683200  0.06773700  0.79708300  1
  O  O62  1  0.37974100  0.85322400  0.32698800  1
  O  O63  1  0.92018200  0.55373400  0.10500200  1
  O  O64  1  0.49371700  0.97936900  0.91046900  1
  O  O65  1  0.33515600  0.17712200  0.37277900  1
  O  O66  1  0.87525300  0.25620700  0.56229000  1
  O  O67  1  0.91895300  0.90694700  0.62750400  1
  O  O68  1  0.56567600  0.15085100  0.14974000  1
  O  O69  1  0.17970000  0.95654000  0.51875500  1
  O  O70  1  0.63418800  0.65022700  0.24787000  1
  O  O71  1  0.05614200  0.11775000  0.31833300  1
  O  O72  1  0.23302300  0.97403500  0.09900300  1
  O  O73  1  0.85162500  0.09254000  0.03655300  1
  O  O74  1  0.59898100  0.39657200  0.42048400  1
  O  O75  1  0.12224000  0.43353200  0.35078000  1
  O  O76  1  0.69678200  0.77765900  0.97287200  1
  O  O77  1  0.94605400  0.35186100  0.85955900  1
  O  O78  1  0.08749400  0.04293100  0.80155200  1
  O  O79  1  0.88052400  0.56728800  0.41820900  1
