# generated using pymatgen
data_Al2O3
_symmetry_space_group_name_H-M   'P 1'
_cell_length_a   10.54834370
_cell_length_b   10.40663627
_cell_length_c   9.90032148
_cell_angle_alpha   86.24352859
_cell_angle_beta   91.09527143
_cell_angle_gamma   90.85099689
_symmetry_Int_Tables_number   1
_chemical_formula_structural   Al2O3
_chemical_formula_sum   'Al40 O60'
_cell_volume   1084.15196738
_cell_formula_units_Z   20
loop_
 _symmetry_equiv_pos_site_id
 _symmetry_equiv_pos_as_xyz
  1  'x, y, z'
loop_
 _atom_site_type_symbol
 _atom_site_label
 _atom_site_symmetry_multiplicity
 _atom_site_fract_x
 _atom_site_fract_y
 _atom_site_fract_z
 _atom_site_occupancy
  Al  Al0  1  0.51102000  0.22956200  0.77627400  1
  Al  Al1  1  0.77029500  0.10385200  0.38539300  1
  Al  Al2  1  0.21844300  0.26063200  0.65416900  1
  Al  Al3  1  0.16617100  0.42840000  0.36415300  1
  Al  Al4  1  0.76928700  0.30479900  0.15633300  1
  Al  Al5  1  0.37630600  0.89467100  0.47645200  1
  Al  Al6  1  0.11446600  0.95809000  0.67137900  1
  Al  Al7  1  0.98809100  0.25893300  0.47568800  1
  Al  Al8  1  0.48781500  0.33814100  0.04675700  1
  Al  Al9  1  0.69930400  0.44417000  0.86506000  1
  Al  Al10  1  0.44570100  0.43654500  0.57572400  1
  Al  Al11  1  0.23230100  0.75448600  0.90243900  1
  Al  Al12  1  0.58500400  0.98372800  0.62857100  1
  Al  Al13  1  0.90700300  0.84302500  0.45226600  1
  Al  Al14  1  0.55804300  0.03804900  0.95242900  1
  Al  Al15  1  0.71098000  0.71666000  0.86753100  1
  Al  Al16  1  0.23602700  0.21841600  0.15234700  1
  Al  Al17  1  0.65110400  0.93415400  0.19554900  1
  Al  Al18  1  0.23976900  0.08743400  0.39285800  1
  Al  Al19  1  0.33100100  0.94189800  0.13551900  1
  Al  Al20  1  0.84457300  0.13559900  0.98688000  1
  Al  Al21  1  0.45096800  0.60686600  0.87986200  1
  Al  Al22  1  0.88904100  0.81746500  0.06175900  1
  Al  Al23  1  0.11667100  0.74082200  0.22155300  1
  Al  Al24  1  0.10696600  0.02613100  0.97241300  1
  Al  Al25  1  0.50138000  0.16950100  0.37878800  1
  Al  Al26  1  0.07233100  0.51497200  0.78667200  1
  Al  Al27  1  0.61278700  0.67471100  0.15835600  1
  Al  Al28  1  0.99401400  0.21419800  0.77493100  1
  Al  Al29  1  0.84592700  0.92581900  0.75627300  1
  Al  Al30  1  0.92859100  0.53781000  0.05124900  1
  Al  Al31  1  0.57380200  0.45756600  0.32204700  1
  Al  Al32  1  0.36251300  0.60831100  0.36224400  1
  Al  Al33  1  0.30934100  0.67476800  0.66124200  1
  Al  Al34  1  0.79930400  0.58502100  0.62517200  1
  Al  Al35  1  0.61446500  0.72612500  0.45531200  1
  Al  Al36  1  0.21988300  0.47709300  0.07065600  1
  Al  Al37  1  0.73314800  0.29160000  0.56966000  1
  Al  Al38  1  0.97120200  0.04469000  0.25144900  1
  Al  Al39  1  0.84183300  0.46110000  0.35310100  1
  O  O40  1  0.98380700  0.95727600  0.08963000  1
  O  O41  1  0.12797000  0.10798100  0.25455800  1
  O  O42  1  0.50820300  0.20109200  0.95554500  1
  O  O43  1  0.16647100  0.24716400  0.47923300  1
  O  O44  1  0.59912400  0.33886300  0.18620900  1
  O  O45  1  0.90091800  0.26472100  0.62769500  1
  O  O46  1  0.57019200  0.69754600  0.97362900  1
  O  O47  1  0.22219300  0.96438100  0.53876700  1
  O  O48  1  0.53807200  0.45585200  0.92531200  1
  O  O49  1  0.87186700  0.07897200  0.81568200  1
  O  O50  1  0.12542300  0.12211100  0.71501100  1
  O  O51  1  0.00515000  0.43010400  0.41907200  1
  O  O52  1  0.94588500  0.10619800  0.42067300  1
  O  O53  1  0.25525700  0.07670300  0.04337500  1
  O  O54  1  0.73930000  0.79623800  0.12719900  1
  O  O55  1  0.71012200  0.02731100  0.02602500  1
  O  O56  1  0.22159600  0.81549500  0.08763500  1
  O  O57  1  0.78359100  0.56549400  0.96601400  1
  O  O58  1  0.98457100  0.68463900  0.12162500  1
  O  O59  1  0.37180200  0.76930600  0.79479100  1
  O  O60  1  0.32011500  0.94188300  0.31076900  1
  O  O61  1  0.92099400  0.53897300  0.72981200  1
  O  O62  1  0.46401800  0.56275900  0.22194100  1
  O  O63  1  0.77215500  0.30220800  0.96765200  1
  O  O64  1  0.95672400  0.90056100  0.62020500  1
  O  O65  1  0.32188600  0.34202800  0.04435800  1
  O  O66  1  0.13703900  0.90240700  0.84902700  1
  O  O67  1  0.07139400  0.49782600  0.97021200  1
  O  O68  1  0.52571500  0.57261900  0.46760400  1
  O  O69  1  0.16105600  0.65889100  0.74608800  1
  O  O70  1  0.57194900  0.78916600  0.28957200  1
  O  O71  1  0.30629800  0.46383100  0.46197700  1
  O  O72  1  0.78559800  0.72395800  0.50430600  1
  O  O73  1  0.15948200  0.36525000  0.20442200  1
  O  O74  1  0.81449400  0.94293700  0.32843900  1
  O  O75  1  0.85838400  0.15861500  0.17098100  1
  O  O76  1  0.11708200  0.35922400  0.74064600  1
  O  O77  1  0.78458000  0.28539700  0.37537100  1
  O  O78  1  0.53851600  0.32749500  0.45322500  1
  O  O79  1  0.03676200  0.81888900  0.34859400  1
  O  O80  1  0.61867500  0.08107300  0.29276400  1
  O  O81  1  0.69608100  0.10928900  0.55226700  1
  O  O82  1  0.20527400  0.59756000  0.26766000  1
  O  O83  1  0.76578100  0.46337000  0.51682100  1
  O  O84  1  0.38182900  0.28949100  0.67650500  1
  O  O85  1  0.44451400  0.05968200  0.51068800  1
  O  O86  1  0.64170900  0.32974900  0.71960100  1
  O  O87  1  0.48934000  0.94149200  0.08357600  1
  O  O88  1  0.70771600  0.55982400  0.27633900  1
  O  O89  1  0.68866700  0.87394900  0.73862400  1
  O  O90  1  0.67622400  0.59801100  0.74229300  1
  O  O91  1  0.86697500  0.80132300  0.88731900  1
  O  O92  1  0.31838700  0.72577300  0.48593400  1
  O  O93  1  0.40713600  0.54301100  0.70840300  1
  O  O94  1  0.35363100  0.19374800  0.29114700  1
  O  O95  1  0.88513600  0.42760500  0.18305700  1
  O  O96  1  0.52833500  0.05890300  0.77361900  1
  O  O97  1  0.02412700  0.18089500  0.95607800  1
  O  O98  1  0.30344900  0.60212000  0.97738900  1
  O  O99  1  0.53264700  0.84294800  0.54170400  1
