# generated using pymatgen
data_V2O5
_symmetry_space_group_name_H-M   'P 1'
_cell_length_a   12.62015668
_cell_length_b   13.13946493
_cell_length_c   11.71800096
_cell_angle_alpha   94.03074470
_cell_angle_beta   92.07140852
_cell_angle_gamma   89.26252674
_symmetry_Int_Tables_number   1
_chemical_formula_structural   V2O5
_chemical_formula_sum   'V30 O75'
_cell_volume   1936.92670722
_cell_formula_units_Z   15
loop_
 _symmetry_equiv_pos_site_id
 _symmetry_equiv_pos_as_xyz
  1  'x, y, z'
loop_
 _atom_site_type_symbol
 _atom_site_label
 _atom_site_symmetry_multiplicity
 _atom_site_fract_x
 _atom_site_fract_y
 _atom_site_fract_z
 _atom_site_occupancy
  V  V0  1  0.85012435  0.79867584  0.95229647  1
  V  V1  1  0.80151159  0.80158379  0.22405012  1
  V  V2  1  0.94131998  0.62644833  0.63470822  1
  V  V3  1  0.55663400  0.69872400  0.12918562  1
  V  V4  1  0.76821117  0.03282386  0.63182308  1
  V  V5  1  0.36175634  0.22378594  0.71993515  1
  V  V6  1  0.39779962  0.60018272  0.91465831  1
  V  V7  1  0.54057311  0.69579677  0.55181126  1
  V  V8  1  0.81395441  0.01690224  0.07110363  1
  V  V9  1  0.31716524  0.77868254  0.24572180  1
  V  V10  1  0.39481904  0.02482316  0.33994227  1
  V  V11  1  0.33230379  0.59122040  0.64921248  1
  V  V12  1  0.77258719  0.62905903  0.39203244  1
  V  V13  1  0.10651565  0.81754370  0.89308517  1
  V  V14  1  0.09965700  0.05118248  0.07960031  1
  V  V15  1  0.92309562  0.82528817  0.51259915  1
  V  V16  1  0.11269280  0.30995718  0.65545660  1
  V  V17  1  0.93134369  0.54132552  0.24286654  1
  V  V18  1  0.13221853  0.55005456  0.83667441  1
  V  V19  1  0.58485916  0.15259279  0.99162824  1
  V  V20  1  0.75143753  0.23842746  0.80879713  1
  V  V21  1  0.50248472  0.01957655  0.59687856  1
  V  V22  1  0.53054489  0.46868635  0.22862671  1
  V  V23  1  0.25172360  0.47946412  0.02219245  1
  V  V24  1  0.95133516  0.40469220  0.44133414  1
  V  V25  1  0.35969003  0.55660016  0.38861703  1
  V  V26  1  0.73716683  0.30574588  0.30927285  1
  V  V27  1  0.33587188  0.06004452  0.93985528  1
  V  V28  1  0.70100607  0.63208122  0.77499188  1
  V  V29  1  0.88582933  0.33546699  0.06439168  1
  O  O30  1  0.21213049  0.60865415  0.70985640  1
  O  O31  1  0.80672777  0.62030510  0.67877586  1
  O  O32  1  0.27635122  0.36544992  0.06125371  1
  O  O33  1  0.44089375  0.91321887  0.68558545  1
  O  O34  1  0.05232655  0.22319988  0.71965030  1
  O  O35  1  0.39349769  0.46062886  0.28167618  1
  O  O36  1  0.11124759  0.50615334  0.97637247  1
  O  O37  1  0.36045309  0.71360584  0.88638044  1
  O  O38  1  0.83937448  0.31650116  0.42131991  1
  O  O39  1  0.23865550  0.08445501  0.04240377  1
  O  O40  1  0.46252950  0.14218716  0.64158499  1
  O  O41  1  0.11222056  0.03276102  0.21341307  1
  O  O42  1  0.79373420  0.92357771  0.95102709  1
  O  O43  1  0.59513808  0.69190145  0.69780022  1
  O  O44  1  0.31536305  0.14713517  0.82637051  1
  O  O45  1  0.14101922  0.69183591  0.91301233  1
  O  O46  1  0.73413769  0.30745451  0.70128155  1
  O  O47  1  0.34970502  0.57029300  0.07003668  1
  O  O48  1  0.36661290  0.95194777  0.61689935  1
  O  O49  1  0.54437205  0.81029456  0.50996679  1
  O  O50  1  0.67087726  0.52059112  0.81235283  1
  O  O51  1  0.28320397  0.49561937  0.87576351  1
  O  O52  1  0.42539584  0.31982260  0.78002458  1
  O  O53  1  0.48307869  0.59143915  0.43630683  1
  O  O54  1  0.54060624  0.24116875  0.07876520  1
  O  O55  1  0.71116278  0.10746517  0.05173386  1
  O  O56  1  0.85035633  0.92186787  0.59910034  1
  O  O57  1  0.63393315  0.99596707  0.65870182  1
  O  O58  1  0.30089685  0.51343869  0.51042577  1
  O  O59  1  0.48202646  0.06259359  0.96249991  1
  O  O60  1  0.99675057  0.25692405  0.07294735  1
  O  O61  1  0.14542641  0.84832375  0.77106276  1
  O  O62  1  0.31349905  0.94561347  0.88663292  1
  O  O63  1  0.00279159  0.59491426  0.76153285  1
  O  O64  1  0.75311779  0.71087250  0.89878356  1
  O  O65  1  0.88160934  0.68359305  0.48189846  1
  O  O66  1  0.81149689  0.65332844  0.24377228  1
  O  O67  1  0.82663952  0.30805036  0.92417728  1
  O  O68  1  0.83496504  0.50227211  0.36613152  1
  O  O69  1  0.02638486  0.87062491  0.45856877  1
  O  O70  1  0.95711772  0.79747591  0.86836638  1
  O  O71  1  0.04240542  0.32644402  0.51682736  1
  O  O72  1  0.03242690  0.61691044  0.25132187  1
  O  O73  1  0.90682460  0.46356519  0.09491126  1
  O  O74  1  0.98941605  0.75362608  0.63013498  1
  O  O75  1  0.44154067  0.76586515  0.16854804  1
  O  O76  1  0.54140442  0.64437592  0.99390830  1
  O  O77  1  0.25197550  0.26856437  0.63864298  1
  O  O78  1  0.76063827  0.09973408  0.52220996  1
  O  O79  1  0.62785185  0.40067549  0.30774526  1
  O  O80  1  0.39507810  0.69781673  0.59848016  1
  O  O81  1  0.11259224  0.42195992  0.74269057  1
  O  O82  1  0.30012060  0.66360823  0.32849107  1
  O  O83  1  0.94085298  0.06056131  0.06508461  1
  O  O84  1  0.66256112  0.64107909  0.48340312  1
  O  O85  1  0.21973535  0.78998998  0.15508915  1
  O  O86  1  0.00683720  0.41707601  0.31382933  1
  O  O87  1  0.97240999  0.51530448  0.54352543  1
  O  O88  1  0.62424335  0.20799416  0.86173926  1
  O  O89  1  0.51095859  0.01160874  0.45244756  1
  O  O90  1  0.82718169  0.83200419  0.36792322  1
  O  O91  1  0.33282840  0.89333561  0.32748802  1
  O  O92  1  0.57596316  0.60048948  0.22619263  1
  O  O93  1  0.80746228  0.11669244  0.75624587  1
  O  O94  1  0.08794311  0.20477690  0.05878056  1
  O  O95  1  0.53236435  0.42996452  0.09623177  1
  O  O96  1  0.43999145  0.05799333  0.21853967  1
  O  O97  1  0.31684572  0.11368776  0.39618906  1
  O  O98  1  0.66539780  0.78084510  0.15405922  1
  O  O99  1  0.79879329  0.30072236  0.17200204  1
  O  O100  1  0.68257061  0.19684847  0.31735787  1
  O  O101  1  0.88940959  0.77994162  0.09169616  1
  O  O102  1  0.79512546  0.95063721  0.18694462  1
  O  O103  1  0.10138994  0.92808727  0.99971302  1
  O  O104  1  0.42297685  0.54538232  0.74311415  1
