# generated using pymatgen
data_GaN
_symmetry_space_group_name_H-M   'P 1'
_cell_length_a   11.58351494
_cell_length_b   11.82547497
_cell_length_c   11.33635251
_cell_angle_alpha   90.72291495
_cell_angle_beta   88.89284851
_cell_angle_gamma   87.48477858
_symmetry_Int_Tables_number   1
_chemical_formula_structural   GaN
_chemical_formula_sum   'Ga50 N50'
_cell_volume   1550.93339174
_cell_formula_units_Z   50
loop_
 _symmetry_equiv_pos_site_id
 _symmetry_equiv_pos_as_xyz
  1  'x, y, z'
loop_
 _atom_site_type_symbol
 _atom_site_label
 _atom_site_symmetry_multiplicity
 _atom_site_fract_x
 _atom_site_fract_y
 _atom_site_fract_z
 _atom_site_occupancy
  Ga  Ga0  1  0.01502172  0.63783495  0.61263636  1
  Ga  Ga1  1  0.22771761  0.59744521  0.39013835  1
  Ga  Ga2  1  0.13955359  0.65377213  0.80259499  1
  Ga  Ga3  1  0.81717496  0.78080472  0.52640394  1
  Ga  Ga4  1  0.22993540  0.24644034  0.24457595  1
  Ga  Ga5  1  0.43923624  0.53359609  0.80341969  1
  Ga  Ga6  1  0.47534823  0.75517944  0.79929864  1
  Ga  Ga7  1  0.12333256  0.06309812  0.10398409  1
  Ga  Ga8  1  0.53126603  0.51365025  0.54259316  1
  Ga  Ga9  1  0.92917569  0.98274521  0.25248435  1
  Ga  Ga10  1  0.21500480  0.89086994  0.87582855  1
  Ga  Ga11  1  0.13744221  0.14919398  0.86021249  1
  Ga  Ga12  1  0.69393198  0.48974714  0.91019370  1
  Ga  Ga13  1  0.80409760  0.25248313  0.91169113  1
  Ga  Ga14  1  0.02180634  0.24012551  0.36376404  1
  Ga  Ga15  1  0.47986666  0.99036368  0.78403960  1
  Ga  Ga16  1  0.76291235  0.19558847  0.44385463  1
  Ga  Ga17  1  0.56300956  0.64707978  0.03773176  1
  Ga  Ga18  1  0.69455195  0.44333115  0.40007481  1
  Ga  Ga19  1  0.87571505  0.02564542  0.51275234  1
  Ga  Ga20  1  0.02887031  0.72351336  0.30686558  1
  Ga  Ga21  1  0.55170466  0.72007692  0.33399400  1
  Ga  Ga22  1  0.90831152  0.30444262  0.61274344  1
  Ga  Ga23  1  0.50196010  0.13738306  0.14259948  1
  Ga  Ga24  1  0.47616418  0.25256500  0.39065569  1
  Ga  Ga25  1  0.57239563  0.87659660  0.08485130  1
  Ga  Ga26  1  0.13094106  0.43703018  0.17639452  1
  Ga  Ga27  1  0.94802796  0.50837135  0.38755838  1
  Ga  Ga28  1  0.34661000  0.78465054  0.41582900  1
  Ga  Ga29  1  0.82168415  0.03690737  0.02350588  1
  Ga  Ga30  1  0.93259083  0.57833307  0.85657816  1
  Ga  Ga31  1  0.65728870  0.33158557  0.69485300  1
  Ga  Ga32  1  0.94650498  0.10517863  0.72499197  1
  Ga  Ga33  1  0.13150609  0.45656709  0.55047199  1
  Ga  Ga34  1  0.39174944  0.03084111  0.97988726  1
  Ga  Ga35  1  0.01859805  0.25315191  0.02786027  1
  Ga  Ga36  1  0.67975775  0.86308071  0.69974375  1
  Ga  Ga37  1  0.73463379  0.78666635  0.90722447  1
  Ga  Ga38  1  0.30033950  0.74760919  0.64499217  1
  Ga  Ga39  1  0.88059292  0.54703234  0.11928101  1
  Ga  Ga40  1  0.88125770  0.31496777  0.21621614  1
  Ga  Ga41  1  0.77780594  0.78899342  0.18109764  1
  Ga  Ga42  1  0.93644742  0.87747071  0.76260819  1
  Ga  Ga43  1  0.42972632  0.27243839  0.61355048  1
  Ga  Ga44  1  0.35682774  0.99682722  0.28364062  1
  Ga  Ga45  1  0.21553192  0.50856571  0.98756828  1
  Ga  Ga46  1  0.15245452  0.04985608  0.34555604  1
  Ga  Ga47  1  0.54772948  0.72218187  0.57015159  1
  Ga  Ga48  1  0.74575395  0.57776212  0.61358385  1
  Ga  Ga49  1  0.00819867  0.80798243  0.04804283  1
  N  N50  1  0.26982892  0.11002254  0.57544544  1
  N  N51  1  0.50246647  0.14576291  0.71767448  1
  N  N52  1  0.64427501  0.11681473  0.23770560  1
  N  N53  1  0.98651909  0.06564580  0.38142271  1
  N  N54  1  0.93720987  0.66932619  0.45680718  1
  N  N55  1  0.09745347  0.79087129  0.90641992  1
  N  N56  1  0.82140474  0.47011221  0.27873721  1
  N  N57  1  0.27764724  0.56186341  0.85062690  1
  N  N58  1  0.80625095  0.89732027  0.30739699  1
  N  N59  1  0.32942203  0.74529988  0.13351122  1
  N  N60  1  0.88021853  0.59050836  0.69923945  1
  N  N61  1  0.55647933  0.77922671  0.94429802  1
  N  N62  1  0.28735564  0.37424883  0.50297205  1
  N  N63  1  0.75642371  0.37098356  0.81964978  1
  N  N64  1  0.22617140  0.30026267  0.73316014  1
  N  N65  1  0.33133559  0.40426306  0.41240669  1
  N  N66  1  0.77398412  0.10273844  0.85295276  1
  N  N67  1  0.51225028  0.96942701  0.46812791  1
  N  N68  1  0.00343214  0.37135600  0.48659197  1
  N  N69  1  0.61735892  0.72825189  0.17793475  1
  N  N70  1  0.39116555  0.45825380  0.16093819  1
  N  N71  1  0.42703439  0.53107461  0.21171666  1
  N  N72  1  0.32424341  0.30706269  0.95696888  1
  N  N73  1  0.92825563  0.70468469  0.15541543  1
  N  N74  1  0.14587050  0.89942830  0.49519423  1
  N  N75  1  0.22236911  0.02950048  0.96401362  1
  N  N76  1  0.53675586  0.52012038  0.94264771  1
  N  N77  1  0.44621406  0.97327113  0.13461264  1
  N  N78  1  0.09751256  0.89580422  0.58395733  1
  N  N79  1  0.59589059  0.32550582  0.15259616  1
  N  N80  1  0.56965144  0.02308030  0.52052892  1
  N  N81  1  0.97707756  0.96981749  0.08800158  1
  N  N82  1  0.78406723  0.90601505  0.42449629  1
  N  N83  1  0.85242297  0.20377045  0.06388343  1
  N  N84  1  0.38459689  0.17523345  0.27057694  1
  N  N85  1  0.09360901  0.54757290  0.30009794  1
  N  N86  1  0.23478670  0.72719191  0.12327451  1
  N  N87  1  0.65621891  0.37413016  0.09250378  1
  N  N88  1  0.60959419  0.16804023  0.74907698  1
  N  N89  1  0.98189819  0.40293610  0.10216106  1
  N  N90  1  0.73870892  0.89661661  0.05039477  1
  N  N91  1  0.24060441  0.06796990  0.65937371  1
  N  N92  1  0.63721201  0.17834373  0.32748573  1
  N  N93  1  0.15272177  0.36356495  0.70787155  1
  N  N94  1  0.74810858  0.32944670  0.54699725  1
  N  N95  1  0.50404504  0.41187812  0.68066998  1
  N  N96  1  0.34207029  0.86540382  0.76860607  1
  N  N97  1  0.66353480  0.08804021  0.81033406  1
  N  N98  1  0.41915869  0.27996679  0.94375618  1
  N  N99  1  0.79886849  0.59378588  0.97308468  1
