# generated using pymatgen
data_FeO
_symmetry_space_group_name_H-M   'P 1'
_cell_length_a   10.70630114
_cell_length_b   10.33301314
_cell_length_c   9.98227324
_cell_angle_alpha   89.59054699
_cell_angle_beta   97.81741045
_cell_angle_gamma   88.93808094
_symmetry_Int_Tables_number   1
_chemical_formula_structural   FeO
_chemical_formula_sum   'Fe40 O40'
_cell_volume   1093.81946312
_cell_formula_units_Z   40
loop_
 _symmetry_equiv_pos_site_id
 _symmetry_equiv_pos_as_xyz
  1  'x, y, z'
loop_
 _atom_site_type_symbol
 _atom_site_label
 _atom_site_symmetry_multiplicity
 _atom_site_fract_x
 _atom_site_fract_y
 _atom_site_fract_z
 _atom_site_occupancy
  Fe  Fe0  1  0.07873525  0.91552389  0.29894524  1
  Fe  Fe1  1  0.10689445  0.50600440  0.63619737  1
  Fe  Fe2  1  0.92913550  0.28564674  0.66509983  1
  Fe  Fe3  1  0.80788688  0.14722122  0.17373311  1
  Fe  Fe4  1  0.16873918  0.77522645  0.56070152  1
  Fe  Fe5  1  0.43794338  0.73991387  0.67213790  1
  Fe  Fe6  1  0.95885290  0.43499999  0.05917078  1
  Fe  Fe7  1  0.83936498  0.58960373  0.46599698  1
  Fe  Fe8  1  0.21464329  0.34480658  0.93297171  1
  Fe  Fe9  1  0.32358966  0.23752307  0.69220753  1
  Fe  Fe10  1  0.31694516  0.43113721  0.38896494  1
  Fe  Fe11  1  0.59618742  0.53237610  0.57304493  1
  Fe  Fe12  1  0.68339898  0.78767281  0.87342294  1
  Fe  Fe13  1  0.75705753  0.88671900  0.26694178  1
  Fe  Fe14  1  0.44864688  0.98262800  0.78187271  1
  Fe  Fe15  1  0.63211692  0.42853805  0.00456794  1
  Fe  Fe16  1  0.85348975  0.68262757  0.12059999  1
  Fe  Fe17  1  0.27698912  0.01050223  0.99831032  1
  Fe  Fe18  1  0.85472019  0.06484605  0.49560235  1
  Fe  Fe19  1  0.32592508  0.73314017  0.37206637  1
  Fe  Fe20  1  0.50750059  0.94483706  0.27532663  1
  Fe  Fe21  1  0.38960583  0.50591932  0.79352684  1
  Fe  Fe22  1  0.84906286  0.02106091  0.82240529  1
  Fe  Fe23  1  0.09682370  0.05141150  0.71862707  1
  Fe  Fe24  1  0.08172973  0.61136650  0.33808764  1
  Fe  Fe25  1  0.61938570  0.00169530  0.02201735  1
  Fe  Fe26  1  0.78098010  0.51940552  0.78783266  1
  Fe  Fe27  1  0.35345830  0.05730059  0.48364536  1
  Fe  Fe28  1  0.18948413  0.64613279  0.07160242  1
  Fe  Fe29  1  0.63106273  0.21656937  0.72355383  1
  Fe  Fe30  1  0.03806738  0.85485883  0.99167067  1
  Fe  Fe31  1  0.62148636  0.30838477  0.32747614  1
  Fe  Fe32  1  0.66025524  0.83202256  0.58044297  1
  Fe  Fe33  1  0.92013100  0.76154862  0.69334504  1
  Fe  Fe34  1  0.43854315  0.73992372  0.04326937  1
  Fe  Fe35  1  0.88813512  0.36590045  0.33539692  1
  Fe  Fe36  1  0.13831338  0.22698847  0.43419184  1
  Fe  Fe37  1  0.05942522  0.15410939  0.07976205  1
  Fe  Fe38  1  0.43063264  0.25437097  0.10556713  1
  Fe  Fe39  1  0.52186480  0.56255199  0.27187116  1
  O  O40  1  0.43526942  0.56612249  0.45617657  1
  O  O41  1  0.48006108  0.11871879  0.65689985  1
  O  O42  1  0.02843019  0.76143279  0.16927240  1
  O  O43  1  0.24463871  0.58436279  0.26381741  1
  O  O44  1  0.23497666  0.19972920  0.05779688  1
  O  O45  1  0.19335673  0.05600976  0.35368157  1
  O  O46  1  0.54358031  0.59020501  0.74752722  1
  O  O47  1  0.70775022  0.82077214  0.08619269  1
  O  O48  1  0.68239512  0.48244251  0.41378826  1
  O  O49  1  0.66665266  0.36802770  0.83058500  1
  O  O50  1  0.78488167  0.21649164  0.36850765  1
  O  O51  1  0.77276876  0.08020567  0.98390197  1
  O  O52  1  0.32796145  0.26163356  0.48905018  1
  O  O53  1  0.13490183  0.43142347  0.43727367  1
  O  O54  1  0.75236401  0.66524322  0.62603251  1
  O  O55  1  0.39414055  0.35739407  0.91924647  1
  O  O56  1  0.11775309  0.48188938  0.99887193  1
  O  O57  1  0.46190760  0.04492547  0.10426879  1
  O  O58  1  0.02444358  0.16841061  0.56106364  1
  O  O59  1  0.94110844  0.94568901  0.65837192  1
  O  O60  1  0.90402509  0.99128595  0.29822088  1
  O  O61  1  0.96401803  0.27816494  0.17742420  1
  O  O62  1  0.79227413  0.16100309  0.67578196  1
  O  O63  1  0.65959817  0.93832148  0.41385410  1
  O  O64  1  0.17359438  0.33654889  0.74313562  1
  O  O65  1  0.53458823  0.56627022  0.07187714  1
  O  O66  1  0.24271708  0.81870584  0.01728127  1
  O  O67  1  0.43992402  0.36286182  0.27276935  1
  O  O68  1  0.46301996  0.76518971  0.24644484  1
  O  O69  1  0.00656981  0.68434161  0.53560879  1
  O  O70  1  0.04674763  0.03553963  0.92363794  1
  O  O71  1  0.92690371  0.47115859  0.68959532  1
  O  O72  1  0.79697231  0.52707861  0.00092214  1
  O  O73  1  0.87427956  0.79252670  0.88143233  1
  O  O74  1  0.27901241  0.05904391  0.79486950  1
  O  O75  1  0.26482696  0.62445304  0.68883801  1
  O  O76  1  0.49392905  0.82389344  0.88040506  1
  O  O77  1  0.89813371  0.55297698  0.28554086  1
  O  O78  1  0.63469586  0.28023226  0.12080345  1
  O  O79  1  0.33445135  0.85735926  0.53347505  1
