# generated using pymatgen
data_GaN
_symmetry_space_group_name_H-M   'P 1'
_cell_length_a   11.22131187
_cell_length_b   11.32402653
_cell_length_c   11.74532956
_cell_angle_alpha   90.09874694
_cell_angle_beta   96.84629382
_cell_angle_gamma   89.07167378
_symmetry_Int_Tables_number   1
_chemical_formula_structural   GaN
_chemical_formula_sum   'Ga50 N50'
_cell_volume   1481.64745070
_cell_formula_units_Z   50
loop_
 _symmetry_equiv_pos_site_id
 _symmetry_equiv_pos_as_xyz
  1  'x, y, z'
loop_
 _atom_site_type_symbol
 _atom_site_label
 _atom_site_symmetry_multiplicity
 _atom_site_fract_x
 _atom_site_fract_y
 _atom_site_fract_z
 _atom_site_occupancy
  Ga  Ga0  1  0.76676577  0.87092076  0.39738333  1
  Ga  Ga1  1  0.55586406  0.21680857  0.30959775  1
  Ga  Ga2  1  0.11297835  0.26753060  0.77299162  1
  Ga  Ga3  1  0.48700165  0.55060250  0.41682169  1
  Ga  Ga4  1  0.44469518  0.36529163  0.16755676  1
  Ga  Ga5  1  0.80953813  0.66284341  0.73241126  1
  Ga  Ga6  1  0.64381282  0.69784134  0.93738339  1
  Ga  Ga7  1  0.84530338  0.58166051  0.27452414  1
  Ga  Ga8  1  0.74763814  0.27487777  0.42882325  1
  Ga  Ga9  1  0.02105957  0.53780878  0.89723073  1
  Ga  Ga10  1  0.77568440  0.88994259  0.89589467  1
  Ga  Ga11  1  0.16305757  0.95059299  0.15604853  1
  Ga  Ga12  1  0.70752676  0.55316389  0.52521631  1
  Ga  Ga13  1  0.74504713  0.41769785  0.05989550  1
  Ga  Ga14  1  0.18908776  0.38057573  0.49198446  1
  Ga  Ga15  1  0.19369532  0.69119555  0.57938808  1
  Ga  Ga16  1  0.88534336  0.08550568  0.25815591  1
  Ga  Ga17  1  0.62833088  0.56478190  0.25295186  1
  Ga  Ga18  1  0.02868517  0.47534203  0.10230131  1
  Ga  Ga19  1  0.98968622  0.08718630  0.03281004  1
  Ga  Ga20  1  0.99728800  0.85832222  0.47423914  1
  Ga  Ga21  1  0.27266529  0.37052252  0.92778405  1
  Ga  Ga22  1  0.97414096  0.35851977  0.31295893  1
  Ga  Ga23  1  0.44541362  0.79993953  0.18514299  1
  Ga  Ga24  1  0.02855573  0.63733558  0.70296990  1
  Ga  Ga25  1  0.42535051  0.02549896  0.32542909  1
  Ga  Ga26  1  0.38780738  0.11384195  0.07359958  1
  Ga  Ga27  1  0.08480801  0.60567577  0.36264677  1
  Ga  Ga28  1  0.19457190  0.82511922  0.75568607  1
  Ga  Ga29  1  0.71881756  0.12658374  0.73029672  1
  Ga  Ga30  1  0.27444072  0.46624609  0.26005829  1
  Ga  Ga31  1  0.59695758  0.83465644  0.65665491  1
  Ga  Ga32  1  0.22541302  0.65819509  0.91997947  1
  Ga  Ga33  1  0.99512217  0.86338184  0.95002092  1
  Ga  Ga34  1  0.56353721  0.79465652  0.43783549  1
  Ga  Ga35  1  0.20064811  0.04134883  0.85267593  1
  Ga  Ga36  1  0.50404599  0.01049867  0.83808296  1
  Ga  Ga37  1  0.49092544  0.56142753  0.98514046  1
  Ga  Ga38  1  0.34062236  0.90204680  0.58800721  1
  Ga  Ga39  1  0.86590181  0.78845302  0.16749183  1
  Ga  Ga40  1  0.77282491  0.13681644  0.99053084  1
  Ga  Ga41  1  0.63937556  0.91622334  0.14371152  1
  Ga  Ga42  1  0.17278959  0.19439877  0.23083893  1
  Ga  Ga43  1  0.91818068  0.32934402  0.88182576  1
  Ga  Ga44  1  0.37187603  0.83612990  0.96787408  1
  Ga  Ga45  1  0.15146786  0.70269926  0.11516214  1
  Ga  Ga46  1  0.00735002  0.18390703  0.51822313  1
  Ga  Ga47  1  0.28080057  0.77099743  0.36142086  1
  Ga  Ga48  1  0.96194075  0.46464496  0.56712059  1
  Ga  Ga49  1  0.77599654  0.34031625  0.69859786  1
  N  N50  1  0.22988043  0.54936079  0.48152690  1
  N  N51  1  0.83751033  0.55817242  0.87518347  1
  N  N52  1  0.73164031  0.01852745  0.50505432  1
  N  N53  1  0.08000084  0.31936806  0.59686221  1
  N  N54  1  0.12376029  0.76214630  0.42386314  1
  N  N55  1  0.01800689  0.81429414  0.11058397  1
  N  N56  1  0.16391212  0.33171840  0.33317520  1
  N  N57  1  0.79549225  0.39543794  0.54677246  1
  N  N58  1  0.43258497  0.17793964  0.51468189  1
  N  N59  1  0.63583921  0.45359013  0.74526944  1
  N  N60  1  0.96089393  0.50574933  0.40295004  1
  N  N61  1  0.51430317  0.68285761  0.30115868  1
  N  N62  1  0.50985255  0.21499843  0.83457198  1
  N  N63  1  0.72346625  0.81831262  0.03950243  1
  N  N64  1  0.33158893  0.52646958  0.93674435  1
  N  N65  1  0.53430435  0.27283639  0.91173822  1
  N  N66  1  0.56575053  0.07879210  0.10809441  1
  N  N67  1  0.93295393  0.06718582  0.65841134  1
  N  N68  1  0.35864028  0.27726129  0.04330720  1
  N  N69  1  0.88735038  0.43880813  0.17746875  1
  N  N70  1  0.33677393  0.35524224  0.63120889  1
  N  N71  1  0.35434593  0.35444857  0.72774973  1
  N  N72  1  0.44581117  0.65073731  0.68641979  1
  N  N73  1  0.13283539  0.56679179  0.21192030  1
  N  N74  1  0.21282539  0.03736106  0.55274319  1
  N  N75  1  0.26903576  0.80813715  0.20044936  1
  N  N76  1  0.69287192  0.76968250  0.79093331  1
  N  N77  1  0.39705094  0.88489531  0.43211796  1
  N  N78  1  0.10825900  0.02842590  0.51877860  1
  N  N79  1  0.03696865  0.25429235  0.01278222  1
  N  N80  1  0.95871977  0.96890318  0.67081405  1
  N  N81  1  0.11796010  0.98581504  0.98241225  1
  N  N82  1  0.50469422  0.17595287  0.58948368  1
  N  N83  1  0.90370267  0.21559602  0.37897440  1
  N  N84  1  0.29352537  0.07270371  0.20271583  1
  N  N85  1  0.04248559  0.07744645  0.20445135  1
  N  N86  1  0.59999699  0.46921370  0.83197390  1
  N  N87  1  0.09986233  0.30346445  0.09258367  1
  N  N88  1  0.76681532  0.56232886  0.95280323  1
  N  N89  1  0.68149884  0.03894664  0.86545061  1
  N  N90  1  0.79715205  0.93318404  0.24933209  1
  N  N91  1  0.31525084  0.58436548  0.40366710  1
  N  N92  1  0.69984337  0.99872254  0.59629923  1
  N  N93  1  0.37398824  0.00879531  0.93420868  1
  N  N94  1  0.58157804  0.47035264  0.11290727  1
  N  N95  1  0.47201908  0.93667103  0.69731652  1
  N  N96  1  0.74714185  0.16066384  0.15323781  1
  N  N97  1  0.63720445  0.14852645  0.17621305  1
  N  N98  1  0.44757136  0.56599133  0.63688586  1
  N  N99  1  0.77690101  0.29948183  0.95141963  1
