# generated using pymatgen
data_Al2O3
_symmetry_space_group_name_H-M   'P 1'
_cell_length_a   10.65453598
_cell_length_b   9.88476401
_cell_length_c   10.51748567
_cell_angle_alpha   86.42377869
_cell_angle_beta   91.41651556
_cell_angle_gamma   89.27236354
_symmetry_Int_Tables_number   1
_chemical_formula_structural   Al2O3
_chemical_formula_sum   'Al40 O60'
_cell_volume   1105.06867119
_cell_formula_units_Z   20
loop_
 _symmetry_equiv_pos_site_id
 _symmetry_equiv_pos_as_xyz
  1  'x, y, z'
loop_
 _atom_site_type_symbol
 _atom_site_label
 _atom_site_symmetry_multiplicity
 _atom_site_fract_x
 _atom_site_fract_y
 _atom_site_fract_z
 _atom_site_occupancy
  Al  Al0  1  0.31335800  0.37389000  0.23064800  1
  Al  Al1  1  0.22438900  0.00777100  0.38739100  1
  Al  Al2  1  0.53983200  0.84445100  0.71480100  1
  Al  Al3  1  0.58379100  0.69944500  0.98936500  1
  Al  Al4  1  0.21711400  0.81612600  0.63010700  1
  Al  Al5  1  0.12074600  0.31745700  0.72029900  1
  Al  Al6  1  0.91873200  0.16943400  0.80415600  1
  Al  Al7  1  0.32656000  0.85724200  0.93090900  1
  Al  Al8  1  0.28090700  0.55234900  0.75969100  1
  Al  Al9  1  0.85244100  0.68313500  0.54494100  1
  Al  Al10  1  0.71149500  0.99208000  0.43571600  1
  Al  Al11  1  0.61687700  0.27620300  0.29630100  1
  Al  Al12  1  0.94616000  0.80590900  0.34498800  1
  Al  Al13  1  0.42643700  0.75650700  0.44792700  1
  Al  Al14  1  0.29421000  0.49953600  0.51019300  1
  Al  Al15  1  0.25533400  0.13093600  0.10100800  1
  Al  Al16  1  0.71513200  0.46608800  0.10047300  1
  Al  Al17  1  0.62299800  0.29792100  0.70016900  1
  Al  Al18  1  0.72957100  0.02043100  0.71738000  1
  Al  Al19  1  0.47259600  0.21280100  0.48029300  1
  Al  Al20  1  0.91011900  0.21795300  0.33577300  1
  Al  Al21  1  0.96688000  0.11816200  0.03679200  1
  Al  Al22  1  0.69454400  0.95371200  0.99640800  1
  Al  Al23  1  0.44661600  0.93236800  0.15633900  1
  Al  Al24  1  0.12852800  0.30838300  0.43469400  1
  Al  Al25  1  0.85899100  0.48535000  0.32231400  1
  Al  Al26  1  0.98768300  0.02833800  0.55549000  1
  Al  Al27  1  0.42035400  0.43683900  0.01263700  1
  Al  Al28  1  0.55474900  0.53609500  0.56603700  1
  Al  Al29  1  0.66273300  0.71666400  0.32541300  1
  Al  Al30  1  0.21849100  0.61994300  0.02458000  1
  Al  Al31  1  0.73207100  0.58766300  0.79884500  1
  Al  Al32  1  0.01618500  0.62115200  0.82092400  1
  Al  Al33  1  0.87706400  0.67791700  0.05584900  1
  Al  Al34  1  0.30232300  0.07735100  0.65628500  1
  Al  Al35  1  0.01796700  0.37449900  0.07886900  1
  Al  Al36  1  0.39309300  0.29612500  0.77444300  1
  Al  Al37  1  0.10338700  0.87193500  0.15878400  1
  Al  Al38  1  0.55125700  0.19959300  0.02774300  1
  Al  Al39  1  0.99819500  0.89305400  0.81977200  1
  O  O40  1  0.81714700  0.06462100  0.97877300  1
  O  O41  1  0.33932200  0.01931600  0.00088300  1
  O  O42  1  0.89090400  0.97990500  0.70575100  1
  O  O43  1  0.50059200  0.72684400  0.60094200  1
  O  O44  1  0.32908300  0.41845600  0.87790300  1
  O  O45  1  0.32030000  0.12993600  0.48467400  1
  O  O46  1  0.25142100  0.20044100  0.76618500  1
  O  O47  1  0.65215400  0.47378700  0.71105900  1
  O  O48  1  0.93428100  0.22276500  0.16825500  1
  O  O49  1  0.60913100  0.70806800  0.82224000  1
  O  O50  1  0.46810000  0.17401400  0.66220300  1
  O  O51  1  0.98169500  0.36965100  0.38549000  1
  O  O52  1  0.14939400  0.98740300  0.61846700  1
  O  O53  1  0.58067100  0.34733500  0.53138500  1
  O  O54  1  0.58088100  0.03187000  0.09490500  1
  O  O55  1  0.76530700  0.86044500  0.33572000  1
  O  O56  1  0.65211200  0.94104000  0.59298800  1
  O  O57  1  0.70517900  0.57566600  0.23857300  1
  O  O58  1  0.10271100  0.77293900  0.75706900  1
  O  O59  1  0.18825200  0.36974500  0.57508500  1
  O  O60  1  0.78539300  0.54667700  0.95706000  1
  O  O61  1  0.36178400  0.90589200  0.74462500  1
  O  O62  1  0.30572000  0.67395600  0.88220200  1
  O  O63  1  0.97686300  0.28225500  0.93282600  1
  O  O64  1  0.10328100  0.88158400  0.32650600  1
  O  O65  1  0.24301100  0.64133900  0.60460400  1
  O  O66  1  0.30111300  0.86399700  0.47853300  1
  O  O67  1  0.08506900  0.13368500  0.40907000  1
  O  O68  1  0.06992000  0.54676500  0.99792200  1
  O  O69  1  0.11397000  0.48792300  0.76908100  1
  O  O70  1  0.40447300  0.26390400  0.08261900  1
  O  O71  1  0.39979900  0.45425900  0.66090700  1
  O  O72  1  0.42983100  0.57732400  0.43450100  1
  O  O73  1  0.17959000  0.29588500  0.14328400  1
  O  O74  1  0.71965600  0.78129700  0.05403800  1
  O  O75  1  0.20623400  0.79192400  0.05870400  1
  O  O76  1  0.55990100  0.52684700  0.02916000  1
  O  O77  1  0.91834600  0.62887900  0.40013100  1
  O  O78  1  0.10476000  0.04359400  0.11197600  1
  O  O79  1  0.32492500  0.52105600  0.12180600  1
  O  O80  1  0.46170800  0.80361800  0.03584100  1
  O  O81  1  0.85382000  0.08629700  0.44747000  1
  O  O82  1  0.93213300  0.75548800  0.90972600  1
  O  O83  1  0.54216300  0.27174700  0.86716500  1
  O  O84  1  0.95822000  0.78006300  0.16986900  1
  O  O85  1  0.51222500  0.81323100  0.30437700  1
  O  O86  1  0.45395600  0.31468500  0.32020900  1
  O  O87  1  0.59480900  0.11674900  0.38861100  1
  O  O88  1  0.89856800  0.49182200  0.15214600  1
  O  O89  1  0.69247700  0.63733300  0.48828800  1
  O  O90  1  0.23252400  0.43003000  0.36055900  1
  O  O91  1  0.87205400  0.62132700  0.70836500  1
  O  O92  1  0.76660300  0.33118100  0.33737300  1
  O  O93  1  0.94206700  0.83963100  0.51655600  1
  O  O94  1  0.65100400  0.29792800  0.12586500  1
  O  O95  1  0.03088600  0.04423200  0.88618700  1
  O  O96  1  0.99823300  0.21938400  0.66400200  1
  O  O97  1  0.75612600  0.19398200  0.73489600  1
  O  O98  1  0.32290900  0.02363300  0.24167700  1
  O  O99  1  0.62658400  0.95749300  0.83465100  1
