# generated using pymatgen
data_Cr7FeO12
_symmetry_space_group_name_H-M   'P 1'
_cell_length_a   9.25651783
_cell_length_b   10.84874449
_cell_length_c   9.69085896
_cell_angle_alpha   94.50500206
_cell_angle_beta   91.15680001
_cell_angle_gamma   96.72879894
_symmetry_Int_Tables_number   1
_chemical_formula_structural   Cr7FeO12
_chemical_formula_sum   'Cr28 Fe4 O48'
_cell_volume   963.05761433
_cell_formula_units_Z   4
loop_
 _symmetry_equiv_pos_site_id
 _symmetry_equiv_pos_as_xyz
  1  'x, y, z'
loop_
 _atom_site_type_symbol
 _atom_site_label
 _atom_site_symmetry_multiplicity
 _atom_site_fract_x
 _atom_site_fract_y
 _atom_site_fract_z
 _atom_site_occupancy
  Cr  Cr0  1  0.15970800  0.84911700  0.28067400  1
  Cr  Cr1  1  0.68280100  0.01710700  0.06119200  1
  Cr  Cr2  1  0.46718000  0.81141600  0.10409500  1
  Cr  Cr3  1  0.38443400  0.29272700  0.75937000  1
  Cr  Cr4  1  0.75530200  0.73426000  0.14365600  1
  Cr  Cr5  1  0.10315400  0.27919600  0.50813300  1
  Cr  Cr6  1  0.42155300  0.56105500  0.11390100  1
  Cr  Cr7  1  0.13811300  0.09562900  0.79597100  1
  Cr  Cr8  1  0.27504200  0.30311800  0.04042100  1
  Cr  Cr9  1  0.58021400  0.98779600  0.49711600  1
  Cr  Cr10  1  0.11153700  0.60661200  0.40118500  1
  Cr  Cr11  1  0.63978300  0.53719500  0.77688900  1
  Cr  Cr12  1  0.24444600  0.49553000  0.62268700  1
  Cr  Cr13  1  0.39957500  0.38866200  0.36627500  1
  Cr  Cr14  1  0.26096800  0.89848100  0.93236800  1
  Cr  Cr15  1  0.78516700  0.18399500  0.29805100  1
  Cr  Cr16  1  0.85686800  0.06197600  0.64600100  1
  Cr  Cr17  1  0.73169900  0.50684900  0.42604500  1
  Cr  Cr18  1  0.48861100  0.71719200  0.44072700  1
  Cr  Cr19  1  0.94173700  0.53146600  0.69853100  1
  Cr  Cr20  1  0.63169900  0.26838100  0.54415500  1
  Cr  Cr21  1  0.11490300  0.61014000  0.02484800  1
  Cr  Cr22  1  0.54218700  0.10936600  0.83320400  1
  Cr  Cr23  1  0.23413500  0.79169100  0.62160000  1
  Cr  Cr24  1  0.99950400  0.31540800  0.87406900  1
  Cr  Cr25  1  0.39195000  0.08691700  0.26173200  1
  Cr  Cr26  1  0.08532900  0.15926100  0.20027500  1
  Cr  Cr27  1  0.97302100  0.93166700  0.06976200  1
  Fe  Fe28  1  0.40056600  0.65984300  0.83177700  1
  Fe  Fe29  1  0.26702200  0.05306400  0.53199300  1
  Fe  Fe30  1  0.93279100  0.81213900  0.80099300  1
  Fe  Fe31  1  0.86493700  0.77503300  0.46117900  1
  O  O32  1  0.64664200  0.01715600  0.68738800  1
  O  O33  1  0.11596600  0.66735000  0.22126300  1
  O  O34  1  0.31642300  0.91380200  0.15661400  1
  O  O35  1  0.93777700  0.13021700  0.82277400  1
  O  O36  1  0.15452200  0.44583900  0.43398000  1
  O  O37  1  0.31958400  0.33257800  0.56510200  1
  O  O38  1  0.81591800  0.89038000  0.95624400  1
  O  O39  1  0.98283400  0.24086700  0.34789700  1
  O  O40  1  0.75222700  0.13182000  0.48486100  1
  O  O41  1  0.82193600  0.65636600  0.77453700  1
  O  O42  1  0.13603900  0.63390100  0.70789100  1
  O  O43  1  0.88781000  0.88525500  0.63405700  1
  O  O44  1  0.08532700  0.78771100  0.45609500  1
  O  O45  1  0.13341800  0.03809800  0.01912600  1
  O  O46  1  0.98006800  0.49267600  0.90276500  1
  O  O47  1  0.41626200  0.48641700  0.77664600  1
  O  O48  1  0.58302000  0.65464700  0.02108500  1
  O  O49  1  0.65416700  0.87382700  0.18196400  1
  O  O50  1  0.48080600  0.43444600  0.18745900  1
  O  O51  1  0.58368000  0.25987400  0.73164400  1
  O  O52  1  0.34241100  0.10313300  0.72856600  1
  O  O53  1  0.49278600  0.95835600  0.96579400  1
  O  O54  1  0.39087400  0.88033300  0.48566000  1
  O  O55  1  0.77701500  0.63738700  0.29488500  1
  O  O56  1  0.43127900  0.23819000  0.94767000  1
  O  O57  1  0.70122700  0.14766700  0.95119300  1
  O  O58  1  0.67045100  0.82517800  0.46069300  1
  O  O59  1  0.42911600  0.69485400  0.25039600  1
  O  O60  1  0.69996600  0.33921400  0.36633500  1
  O  O61  1  0.94887500  0.84878400  0.22711700  1
  O  O62  1  0.90795900  0.59289300  0.50452000  1
  O  O63  1  0.18597600  0.03463000  0.33276500  1
  O  O64  1  0.06177200  0.79131000  0.97061900  1
  O  O65  1  0.31016400  0.69454500  0.01014500  1
  O  O66  1  0.37050600  0.81474200  0.77316700  1
  O  O67  1  0.73465200  0.43846300  0.61880600  1
  O  O68  1  0.07470600  0.11766700  0.59807500  1
  O  O69  1  0.04667700  0.38039500  0.66839400  1
  O  O70  1  0.54667100  0.54719100  0.45941000  1
  O  O71  1  0.47083500  0.13336000  0.46068200  1
  O  O72  1  0.88061800  0.07145300  0.16117800  1
  O  O73  1  0.13650200  0.91015200  0.76226700  1
  O  O74  1  0.29450800  0.23733500  0.23531600  1
  O  O75  1  0.24115400  0.47957100  0.06290000  1
  O  O76  1  0.30420800  0.64590900  0.51047500  1
  O  O77  1  0.06328000  0.28201400  0.06975400  1
  O  O78  1  0.19189800  0.27723000  0.84553600  1
  O  O79  1  0.59553000  0.10386200  0.21505400  1
