# generated using pymatgen
data_Al2O3
_symmetry_space_group_name_H-M   'P 1'
_cell_length_a   10.06535268
_cell_length_b   10.08909970
_cell_length_c   10.89402302
_cell_angle_alpha   87.28621678
_cell_angle_beta   91.04183555
_cell_angle_gamma   86.34672573
_symmetry_Int_Tables_number   1
_chemical_formula_structural   Al2O3
_chemical_formula_sum   'Al40 O60'
_cell_volume   1102.55616027
_cell_formula_units_Z   20
loop_
 _symmetry_equiv_pos_site_id
 _symmetry_equiv_pos_as_xyz
  1  'x, y, z'
loop_
 _atom_site_type_symbol
 _atom_site_label
 _atom_site_symmetry_multiplicity
 _atom_site_fract_x
 _atom_site_fract_y
 _atom_site_fract_z
 _atom_site_occupancy
  Al  Al0  1  0.76294700  0.44935500  0.61606000  1
  Al  Al1  1  0.87204200  0.68010500  0.60420400  1
  Al  Al2  1  0.18159900  0.98523500  0.47909000  1
  Al  Al3  1  0.56838500  0.55094000  0.92256800  1
  Al  Al4  1  0.80427900  0.55592800  0.30794100  1
  Al  Al5  1  0.18873300  0.70786800  0.56157800  1
  Al  Al6  1  0.32950400  0.30285400  0.48102300  1
  Al  Al7  1  0.89888600  0.30322900  0.27425500  1
  Al  Al8  1  0.36556400  0.51777700  0.14464200  1
  Al  Al9  1  0.91028400  0.26791700  0.81078300  1
  Al  Al10  1  0.49098400  0.57900800  0.42405000  1
  Al  Al11  1  0.34957100  0.76671900  0.99059900  1
  Al  Al12  1  0.60933800  0.27038600  0.46285000  1
  Al  Al13  1  0.93748700  0.92918200  0.63882900  1
  Al  Al14  1  0.63102000  0.83869900  0.85278800  1
  Al  Al15  1  0.08769500  0.72820300  0.83071200  1
  Al  Al16  1  0.45451700  0.02882200  0.39129900  1
  Al  Al17  1  0.15873500  0.31487600  0.74667800  1
  Al  Al18  1  0.34665700  0.89036700  0.74407600  1
  Al  Al19  1  0.65914700  0.95079900  0.60372800  1
  Al  Al20  1  0.67097700  0.16219400  0.75781600  1
  Al  Al21  1  0.99959200  0.64771100  0.13470000  1
  Al  Al22  1  0.02096400  0.44566600  0.50185500  1
  Al  Al23  1  0.98194000  0.92388600  0.27166300  1
  Al  Al24  1  0.26339000  0.79829000  0.27203000  1
  Al  Al25  1  0.89488300  0.17193100  0.49754400  1
  Al  Al26  1  0.80306000  0.06465200  0.01951200  1
  Al  Al27  1  0.65046500  0.34729000  0.11840700  1
  Al  Al28  1  0.37546700  0.16465400  0.90473600  1
  Al  Al29  1  0.49207000  0.63225000  0.66266400  1
  Al  Al30  1  0.72846900  0.05926100  0.26382500  1
  Al  Al31  1  0.55941700  0.95732900  0.05957100  1
  Al  Al32  1  0.71391900  0.79220900  0.27485000  1
  Al  Al33  1  0.46558300  0.34217400  0.71719800  1
  Al  Al34  1  0.28096800  0.03088500  0.12865500  1
  Al  Al35  1  0.12959200  0.01592800  0.85148200  1
  Al  Al36  1  0.11895800  0.25607300  0.02922700  1
  Al  Al37  1  0.14713300  0.21592600  0.28553600  1
  Al  Al38  1  0.84933200  0.54073800  0.89705100  1
  Al  Al39  1  0.16598500  0.52388500  0.30806500  1
  O  O40  1  0.10384800  0.04280200  0.31816500  1
  O  O41  1  0.23030400  0.35598500  0.34911100  1
  O  O42  1  0.02054000  0.37231700  0.64992000  1
  O  O43  1  0.77769900  0.82140800  0.65016700  1
  O  O44  1  0.76880000  0.32177700  0.50000800  1
  O  O45  1  0.81629400  0.13758400  0.87393300  1
  O  O46  1  0.00624600  0.29535000  0.41547100  1
  O  O47  1  0.02751600  0.04923000  0.54741000  1
  O  O48  1  0.58404500  0.14159100  0.35893900  1
  O  O49  1  0.14141500  0.55963700  0.46665200  1
  O  O50  1  0.24262900  0.29745900  0.90068300  1
  O  O51  1  0.24215300  0.88833700  0.61898700  1
  O  O52  1  0.79262200  0.07062900  0.60689400  1
  O  O53  1  0.97206500  0.37636300  0.91926800  1
  O  O54  1  0.15955700  0.63117000  0.71853300  1
  O  O55  1  0.51825800  0.23317000  0.84409400  1
  O  O56  1  0.54028500  0.91991000  0.49674900  1
  O  O57  1  0.24919200  0.20470000  0.15556200  1
  O  O58  1  0.75541600  0.32344100  0.73617100  1
  O  O59  1  0.19867700  0.81912600  0.41874800  1
  O  O60  1  0.84103700  0.15309700  0.34147500  1
  O  O61  1  0.06122800  0.17004800  0.78024700  1
  O  O62  1  0.98313300  0.65092500  0.95899100  1
  O  O63  1  0.01035000  0.89999500  0.79431700  1
  O  O64  1  0.55500500  0.23194400  0.61638100  1
  O  O65  1  0.61481500  0.92929400  0.21248200  1
  O  O66  1  0.61635200  0.55433700  0.57239300  1
  O  O67  1  0.84812200  0.55928100  0.72533600  1
  O  O68  1  0.07292200  0.77413400  0.22190900  1
  O  O69  1  0.35781300  0.95820200  0.27833900  1
  O  O70  1  0.70659800  0.93563200  0.97509400  1
  O  O71  1  0.35657200  0.62158300  0.28928000  1
  O  O72  1  0.47425500  0.39470800  0.43491400  1
  O  O73  1  0.00425400  0.77791600  0.57004400  1
  O  O74  1  0.86368500  0.55299800  0.48670800  1
  O  O75  1  0.01454900  0.27090900  0.16367800  1
  O  O76  1  0.82025400  0.68649600  0.18600300  1
  O  O77  1  0.37638000  0.64257800  0.54070700  1
  O  O78  1  0.18633100  0.54016600  0.14105000  1
  O  O79  1  0.63812500  0.64715600  0.34073600  1
  O  O80  1  0.27961700  0.84527500  0.11167400  1
  O  O81  1  0.70338400  0.44297500  0.98544800  1
  O  O82  1  0.41934900  0.60257500  0.00639100  1
  O  O83  1  0.69687800  0.17192800  0.11667500  1
  O  O84  1  0.30649600  0.04799700  0.80568600  1
  O  O85  1  0.23682400  0.81612600  0.87049600  1
  O  O86  1  0.49488100  0.84226500  0.96235000  1
  O  O87  1  0.82321700  0.89555100  0.35200600  1
  O  O88  1  0.48742700  0.39122400  0.14694600  1
  O  O89  1  0.75172500  0.40484400  0.24461100  1
  O  O90  1  0.13889300  0.06967900  0.00548000  1
  O  O91  1  0.49140200  0.77945100  0.74160400  1
  O  O92  1  0.49036600  0.50034600  0.78034500  1
  O  O93  1  0.60905700  0.99431800  0.75402800  1
  O  O94  1  0.30181400  0.33157700  0.64562800  1
  O  O95  1  0.98335000  0.51332200  0.26942500  1
  O  O96  1  0.42634400  0.07594700  0.04127300  1
  O  O97  1  0.69276500  0.66795600  0.88731300  1
  O  O98  1  0.31112900  0.12524500  0.45987100  1
  O  O99  1  0.88933300  0.99980900  0.14766400  1
