# generated using pymatgen
data_ZnO
_symmetry_space_group_name_H-M   'P 1'
_cell_length_a   10.44276246
_cell_length_b   9.97683173
_cell_length_c   10.79180353
_cell_angle_alpha   88.82710401
_cell_angle_beta   84.37237070
_cell_angle_gamma   91.33084590
_symmetry_Int_Tables_number   1
_chemical_formula_structural   ZnO
_chemical_formula_sum   'Zn40 O40'
_cell_volume   1118.33807076
_cell_formula_units_Z   40
loop_
 _symmetry_equiv_pos_site_id
 _symmetry_equiv_pos_as_xyz
  1  'x, y, z'
loop_
 _atom_site_type_symbol
 _atom_site_label
 _atom_site_symmetry_multiplicity
 _atom_site_fract_x
 _atom_site_fract_y
 _atom_site_fract_z
 _atom_site_occupancy
  Zn  Zn0  1  0.46937300  0.86705400  0.32765100  1
  Zn  Zn1  1  0.90687100  0.54226100  0.90709900  1
  Zn  Zn2  1  0.55049300  0.44938900  0.30984100  1
  Zn  Zn3  1  0.50816000  0.13057700  0.48290700  1
  Zn  Zn4  1  0.37813300  0.66622800  0.20631400  1
  Zn  Zn5  1  0.01469500  0.50507100  0.62401600  1
  Zn  Zn6  1  0.89225900  0.75873400  0.60670800  1
  Zn  Zn7  1  0.24341700  0.93920800  0.19884700  1
  Zn  Zn8  1  0.05213600  0.04756600  0.51244400  1
  Zn  Zn9  1  0.81896200  0.60214400  0.40716000  1
  Zn  Zn10  1  0.55359300  0.53205500  0.57547200  1
  Zn  Zn11  1  0.66427700  0.65461400  0.05954100  1
  Zn  Zn12  1  0.09926900  0.43154000  0.33118900  1
  Zn  Zn13  1  0.21118500  0.24507900  0.61969600  1
  Zn  Zn14  1  0.99726200  0.15063900  0.27440200  1
  Zn  Zn15  1  0.12607500  0.72489000  0.38569600  1
  Zn  Zn16  1  0.05085900  0.29783000  0.01697900  1
  Zn  Zn17  1  0.36400800  0.23079000  0.98743500  1
  Zn  Zn18  1  0.47851100  0.65510700  0.83404100  1
  Zn  Zn19  1  0.51324400  0.99154500  0.01107900  1
  Zn  Zn20  1  0.39052700  0.98519500  0.74507300  1
  Zn  Zn21  1  0.11585500  0.08954100  0.84753000  1
  Zn  Zn22  1  0.82989900  0.03809900  0.04392200  1
  Zn  Zn23  1  0.60339400  0.81658700  0.58404900  1
  Zn  Zn24  1  0.29439600  0.47731700  0.50727800  1
  Zn  Zn25  1  0.92529700  0.77536900  0.11300000  1
  Zn  Zn26  1  0.75781300  0.05176100  0.57886300  1
  Zn  Zn27  1  0.76332100  0.80910400  0.83622800  1
  Zn  Zn28  1  0.22756300  0.46581200  0.84073200  1
  Zn  Zn29  1  0.91025400  0.24974700  0.76571900  1
  Zn  Zn30  1  0.89113200  0.90895900  0.34410600  1
  Zn  Zn31  1  0.51242300  0.24801700  0.72688000  1
  Zn  Zn32  1  0.52617300  0.19419100  0.17779900  1
  Zn  Zn33  1  0.28876200  0.20316900  0.31562700  1
  Zn  Zn34  1  0.85085300  0.44502000  0.19659700  1
  Zn  Zn35  1  0.15408800  0.59277100  0.08186500  1
  Zn  Zn36  1  0.73109600  0.49878800  0.74336300  1
  Zn  Zn37  1  0.23392000  0.79979200  0.93961600  1
  Zn  Zn38  1  0.79389500  0.30333100  0.48603600  1
  Zn  Zn39  1  0.65411500  0.29446000  0.96593600  1
  O  O40  1  0.64492300  0.20054100  0.58558700  1
  O  O41  1  0.48120100  0.10806700  0.86548500  1
  O  O42  1  0.43088000  0.85591100  0.12010400  1
  O  O43  1  0.88324300  0.12364200  0.44598100  1
  O  O44  1  0.05367000  0.13919000  0.67371700  1
  O  O45  1  0.79807800  0.37234800  0.87386200  1
  O  O46  1  0.29203500  0.80755000  0.33664800  1
  O  O47  1  0.49827200  0.34282700  0.05377200  1
  O  O48  1  0.71225200  0.64815100  0.56277800  1
  O  O49  1  0.22288800  0.94345900  0.83216800  1
  O  O50  1  0.18857800  0.44758400  0.66610700  1
  O  O51  1  0.55085900  0.60709300  0.20191600  1
  O  O52  1  0.20521800  0.32553600  0.43744500  1
  O  O53  1  0.65443800  0.64612500  0.87559000  1
  O  O54  1  0.65648700  0.11264100  0.06130600  1
  O  O55  1  0.21557600  0.26751200  0.90207800  1
  O  O56  1  0.47000200  0.81052900  0.71843500  1
  O  O57  1  0.53764700  0.44489000  0.73399300  1
  O  O58  1  0.45043600  0.55325100  0.44610600  1
  O  O59  1  0.92060400  0.63520100  0.74314600  1
  O  O60  1  0.00348100  0.85510900  0.48065800  1
  O  O61  1  0.48081500  0.25544900  0.34348600  1
  O  O62  1  0.12045600  0.79440900  0.09785000  1
  O  O63  1  0.14804800  0.06593700  0.34213800  1
  O  O64  1  0.21553600  0.56468200  0.23982400  1
  O  O65  1  0.83674700  0.57919300  0.07549100  1
  O  O66  1  0.86522000  0.37893500  0.63090100  1
  O  O67  1  0.00400500  0.33337800  0.20308800  1
  O  O68  1  0.84436700  0.73910400  0.28381200  1
  O  O69  1  0.92248600  0.00798900  0.18807300  1
  O  O70  1  0.01362600  0.56796300  0.44570600  1
  O  O71  1  0.74202800  0.42455200  0.35298600  1
  O  O72  1  0.07118600  0.48932200  0.96236400  1
  O  O73  1  0.37419000  0.15198400  0.62911600  1
  O  O74  1  0.30952000  0.62106000  0.92140500  1
  O  O75  1  0.57145700  0.94418500  0.44359700  1
  O  O76  1  0.76497600  0.89397700  0.67418500  1
  O  O77  1  0.95496700  0.15691600  0.93094400  1
  O  O78  1  0.79974900  0.84703100  0.99993200  1
  O  O79  1  0.33805600  0.11948700  0.15033400  1
