# generated using pymatgen
data_Y2O3
_symmetry_space_group_name_H-M   'P 1'
_cell_length_a   11.63363125
_cell_length_b   11.60877925
_cell_length_c   12.02759831
_cell_angle_alpha   87.01980928
_cell_angle_beta   85.08583721
_cell_angle_gamma   86.23110183
_symmetry_Int_Tables_number   1
_chemical_formula_structural   Y2O3
_chemical_formula_sum   'Y40 O60'
_cell_volume   1613.12658325
_cell_formula_units_Z   20
loop_
 _symmetry_equiv_pos_site_id
 _symmetry_equiv_pos_as_xyz
  1  'x, y, z'
loop_
 _atom_site_type_symbol
 _atom_site_label
 _atom_site_symmetry_multiplicity
 _atom_site_fract_x
 _atom_site_fract_y
 _atom_site_fract_z
 _atom_site_occupancy
  Y  Y0  1  0.85663783  0.25889704  0.14314175  1
  Y  Y1  1  0.95897583  0.17254504  0.76236072  1
  Y  Y2  1  0.84992090  0.95336695  0.08122997  1
  Y  Y3  1  0.25469016  0.20705947  0.27211304  1
  Y  Y4  1  0.21440334  0.77465940  0.38845074  1
  Y  Y5  1  0.62202712  0.77461364  0.21773536  1
  Y  Y6  1  0.71439004  0.76310446  0.47333183  1
  Y  Y7  1  0.49444091  0.37262528  0.76476206  1
  Y  Y8  1  0.06896841  0.43966787  0.21290314  1
  Y  Y9  1  0.20591800  0.33572148  0.73499050  1
  Y  Y10  1  0.69526045  0.20366534  0.92455746  1
  Y  Y11  1  0.13465300  0.82904053  0.09265883  1
  Y  Y12  1  0.25130749  0.60727628  0.89849468  1
  Y  Y13  1  0.74847168  0.48205234  0.64769723  1
  Y  Y14  1  0.43385278  0.10420282  0.73997951  1
  Y  Y15  1  0.65905756  0.55780400  0.93122453  1
  Y  Y16  1  0.89924645  0.93187848  0.60195356  1
  Y  Y17  1  0.77633298  0.47498975  0.36388045  1
  Y  Y18  1  0.47857449  0.82997909  0.96569558  1
  Y  Y19  1  0.49876351  0.30329194  0.47486719  1
  Y  Y20  1  0.17107296  0.14779686  0.99742648  1
  Y  Y21  1  0.99054524  0.26958199  0.45694197  1
  Y  Y22  1  0.92380275  0.39385313  0.90602493  1
  Y  Y23  1  0.17388705  0.06492850  0.55948580  1
  Y  Y24  1  0.35003157  0.33154153  0.01322300  1
  Y  Y25  1  0.47213754  0.62715923  0.45671217  1
  Y  Y26  1  0.72267674  0.20065137  0.61582594  1
  Y  Y27  1  0.55849150  0.72229854  0.71236387  1
  Y  Y28  1  0.58571777  0.36037905  0.15348698  1
  Y  Y29  1  0.95213803  0.70562072  0.32662505  1
  Y  Y30  1  0.94186191  0.62413372  0.05690479  1
  Y  Y31  1  0.37381241  0.63039524  0.15423546  1
  Y  Y32  1  0.70952292  0.91605046  0.80755487  1
  Y  Y33  1  0.28989801  0.80103475  0.64971060  1
  Y  Y34  1  0.20441473  0.49686285  0.48268787  1
  Y  Y35  1  0.49059988  0.08002523  0.18089509  1
  Y  Y36  1  0.49357645  0.98130952  0.48063374  1
  Y  Y37  1  0.97840361  0.00746224  0.34327600  1
  Y  Y38  1  0.00132400  0.62636500  0.73896130  1
  Y  Y39  1  0.04124908  0.88162271  0.83881250  1
  O  O40  1  0.38428749  0.71686982  0.79781362  1
  O  O41  1  0.80880311  0.80133746  0.18966458  1
  O  O42  1  0.73791300  0.00769982  0.95530398  1
  O  O43  1  0.15259115  0.36022519  0.36734462  1
  O  O44  1  0.42024476  0.28565885  0.18286515  1
  O  O45  1  0.96821225  0.80979787  0.00444131  1
  O  O46  1  0.96512360  0.41145207  0.07352999  1
  O  O47  1  0.30895231  0.76108411  0.03524585  1
  O  O48  1  0.63887758  0.63319363  0.34438610  1
  O  O49  1  0.10954908  0.98146265  0.97396950  1
  O  O50  1  0.60262930  0.36791337  0.59919140  1
  O  O51  1  0.64095748  0.74592572  0.87920267  1
  O  O52  1  0.39099794  0.46065965  0.44156608  1
  O  O53  1  0.58785822  0.19368271  0.77681113  1
  O  O54  1  0.91928129  0.07660700  0.18755836  1
  O  O55  1  0.38688396  0.72231711  0.30784060  1
  O  O56  1  0.82725414  0.35881616  0.52130222  1
  O  O57  1  0.92127439  0.33061665  0.29494701  1
  O  O58  1  0.59037000  0.52788397  0.77927789  1
  O  O59  1  0.08538060  0.85554221  0.26769472  1
  O  O60  1  0.12077197  0.11436641  0.38369764  1
  O  O61  1  0.33635607  0.99924801  0.62549042  1
  O  O62  1  0.11068942  0.48781953  0.65074958  1
  O  O63  1  0.89665050  0.10376388  0.49559669  1
  O  O64  1  0.11932498  0.62080871  0.36906276  1
  O  O65  1  0.89793884  0.56346708  0.23521265  1
  O  O66  1  0.10171692  0.64039660  0.12465915  1
  O  O67  1  0.15017426  0.88513938  0.52345216  1
  O  O68  1  0.53595083  0.34444840  0.95671415  1
  O  O69  1  0.51398884  0.94493150  0.81956938  1
  O  O70  1  0.61044012  0.89026764  0.35920404  1
  O  O71  1  0.53237608  0.91044927  0.11088296  1
  O  O72  1  0.90667749  0.80842246  0.75172409  1
  O  O73  1  0.31529125  0.50794372  0.05172315  1
  O  O74  1  0.27988260  0.66378699  0.53047802  1
  O  O75  1  0.74281457  0.41422220  0.03354995  1
  O  O76  1  0.31536287  0.19351782  0.87523432  1
  O  O77  1  0.31565616  0.44116332  0.83178831  1
  O  O78  1  0.83405755  0.54509630  0.80457718  1
  O  O79  1  0.37347483  0.27889745  0.64352588  1
  O  O80  1  0.80645828  0.30465216  0.76201373  1
  O  O81  1  0.54935915  0.64241738  0.08472766  1
  O  O82  1  0.40722762  0.10079838  0.35663564  1
  O  O83  1  0.63152264  0.36300557  0.32624197  1
  O  O84  1  0.04890997  0.00973002  0.70138919  1
  O  O85  1  0.70185966  0.85436375  0.63056944  1
  O  O86  1  0.62457885  0.61708870  0.57274441  1
  O  O87  1  0.66137037  0.18711901  0.12570681  1
  O  O88  1  0.07766111  0.26660767  0.85917724  1
  O  O89  1  0.17390672  0.29141219  0.12303883  1
  O  O90  1  0.08740609  0.23389028  0.61879579  1
  O  O91  1  0.04841693  0.55605163  0.89873171  1
  O  O92  1  0.46676477  0.79669530  0.55759746  1
  O  O93  1  0.14973905  0.73940551  0.78002036  1
  O  O94  1  0.88108904  0.20334064  0.96435701  1
  O  O95  1  0.57001994  0.12496665  0.54954809  1
  O  O96  1  0.88757908  0.85705319  0.43512676  1
  O  O97  1  0.80987894  0.05991041  0.72017048  1
  O  O98  1  0.31305372  0.09245514  0.12144322  1
  O  O99  1  0.84846515  0.61112987  0.46927938  1
