# generated using pymatgen
data_V2O5
_symmetry_space_group_name_H-M   'P 1'
_cell_length_a   12.83174661
_cell_length_b   11.99280415
_cell_length_c   12.04137481
_cell_angle_alpha   90.28075774
_cell_angle_beta   96.81811828
_cell_angle_gamma   92.26325537
_symmetry_Int_Tables_number   1
_chemical_formula_structural   V2O5
_chemical_formula_sum   'V30 O75'
_cell_volume   1838.40486487
_cell_formula_units_Z   15
loop_
 _symmetry_equiv_pos_site_id
 _symmetry_equiv_pos_as_xyz
  1  'x, y, z'
loop_
 _atom_site_type_symbol
 _atom_site_label
 _atom_site_symmetry_multiplicity
 _atom_site_fract_x
 _atom_site_fract_y
 _atom_site_fract_z
 _atom_site_occupancy
  V  V0  1  0.88089044  0.01065906  0.87467840  1
  V  V1  1  0.90524120  0.74204479  0.78164911  1
  V  V2  1  0.73617658  0.20866017  0.72876562  1
  V  V3  1  0.83281536  -0.00001777  0.33098040  1
  V  V4  1  0.63694984  0.96949494  0.96839617  1
  V  V5  1  0.17058388  0.68312675  0.81740628  1
  V  V6  1  0.48472437  0.59529233  0.16506543  1
  V  V7  1  0.36015455  0.01391622  0.31717017  1
  V  V8  1  0.78118378  0.22893252  0.46121894  1
  V  V9  1  0.30712290  0.64249590  0.24997379  1
  V  V10  1  0.32720584  0.24757050  0.59499727  1
  V  V11  1  0.05779776  0.69320108  0.16991184  1
  V  V12  1  0.26151519  0.95699084  0.79892161  1
  V  V13  1  0.36512656  0.21382739  0.87436565  1
  V  V14  1  0.93481490  0.41186882  0.31316779  1
  V  V15  1  0.05086047  0.04795727  0.22930836  1
  V  V16  1  0.05411904  0.84409426  0.39552758  1
  V  V17  1  0.25573708  0.05596363  0.06833871  1
  V  V18  1  0.56979115  0.55387717  0.77314707  1
  V  V19  1  0.82793174  0.33323107  0.96240362  1
  V  V20  1  0.71946597  0.49350021  0.15860570  1
  V  V21  1  0.29018499  0.85558387  0.55710384  1
  V  V22  1  0.20226156  0.44782100  0.68711917  1
  V  V23  1  0.70531323  0.19022968  0.13377834  1
  V  V24  1  0.48959432  0.02947638  0.69830581  1
  V  V25  1  0.19077976  0.48704524  0.44232256  1
  V  V26  1  0.06043489  0.46019593  0.00819960  1
  V  V27  1  0.64096439  0.68288785  0.95463519  1
  V  V28  1  0.64687852  0.56058395  0.51274096  1
  V  V29  1  0.34111594  0.28951585  0.33778083  1
  O  O30  1  0.23467341  0.38050224  0.34855688  1
  O  O31  1  0.92955190  0.88920358  0.82084503  1
  O  O32  1  0.08543148  0.54421697  0.90344598  1
  O  O33  1  0.44409984  0.69951018  0.25687902  1
  O  O34  1  0.77294638  0.26820162  0.60878371  1
  O  O35  1  0.30901445  0.17920977  0.00380661  1
  O  O36  1  0.82433268  0.50443721  0.26511189  1
  O  O37  1  0.02695803  0.55407569  0.12432480  1
  O  O38  1  0.42492569  0.14470124  0.63266677  1
  O  O39  1  0.97342016  0.07875577  0.95129668  1
  O  O40  1  0.62099996  0.83793931  0.01450200  1
  O  O41  1  0.77375184  0.13772234  0.24712718  1
  O  O42  1  0.16428110  0.55330623  0.56643294  1
  O  O43  1  0.71122898  0.46356139  0.45756855  1
  O  O44  1  0.88083002  0.32376627  0.40722148  1
  O  O45  1  0.46106161  0.47916722  0.74867779  1
  O  O46  1  0.25046023  0.96136070  0.94520639  1
  O  O47  1  0.40275962  0.28919411  0.47670301  1
  O  O48  1  0.79590746  0.44130052  0.04057965  1
  O  O49  1  0.77220315  0.98035370  0.95428657  1
  O  O50  1  0.26303566  0.39637336  0.56467328  1
  O  O51  1  0.82780325  0.10606768  0.76775059  1
  O  O52  1  0.33187884  0.96702237  0.17498602  1
  O  O53  1  0.25785646  0.59945439  0.37997038  1
  O  O54  1  0.42229488  0.34081113  0.25664718  1
  O  O55  1  0.37661118  0.07457047  0.82785626  1
  O  O56  1  0.65090176  0.54256880  0.66087447  1
  O  O57  1  0.73507987  0.91047629  0.30898393  1
  O  O58  1  0.94364979  0.90525510  0.42226324  1
  O  O59  1  0.71986505  0.62098926  0.09800767  1
  O  O60  1  0.67368531  0.32668580  0.15333084  1
  O  O61  1  0.06049104  0.42343790  0.67640867  1
  O  O62  1  0.52639024  0.56057084  0.45091226  1
  O  O63  1  0.24677675  0.56052490  0.77846944  1
  O  O64  1  0.02313118  0.72015364  0.31091007  1
  O  O65  1  0.11525621  0.34817396  0.75092518  1
  O  O66  1  0.35994596  0.93561234  0.68109703  1
  O  O67  1  0.66291454  0.22803465  0.39863783  1
  O  O68  1  0.95398269  0.33911425  0.20411690  1
  O  O69  1  0.85130069  0.65431910  0.89052413  1
  O  O70  1  0.54076460  0.96086796  0.60461740  1
  O  O71  1  0.95708442  0.35121318  0.94284714  1
  O  O72  1  0.61628969  0.08327448  0.06338597  1
  O  O73  1  0.16421475  0.39308462  0.05294851  1
  O  O74  1  0.55708168  0.69674354  0.82256445  1
  O  O75  1  0.48508300  0.03627604  0.34284365  1
  O  O76  1  0.92268886  0.99609799  0.20787730  1
  O  O77  1  0.35353158  0.53927464  0.15398586  1
  O  O78  1  0.82751564  0.72851547  0.66462345  1
  O  O79  1  0.22587703  0.80591795  0.75150466  1
  O  O80  1  0.31908202  0.93403275  0.43905861  1
  O  O81  1  0.80394876  0.21037253  0.03811665  1
  O  O82  1  0.11892984  0.93325408  0.30925191  1
  O  O83  1  0.19993292  0.71631076  0.18208632  1
  O  O84  1  0.13026081  0.06864112  0.11356383  1
  O  O85  1  0.48378020  0.26265850  0.90897840  1
  O  O86  1  0.56398589  0.97954377  0.83965556  1
  O  O87  1  0.05609671  0.47578420  0.37875630  1
  O  O88  1  0.00412138  0.78126340  0.08195238  1
  O  O89  1  0.29958256  0.14598101  0.29483627  1
  O  O90  1  0.35088639  0.74164562  0.55117529  1
  O  O91  1  0.82883489  0.09601538  0.46191211  1
  O  O92  1  0.59386466  0.51260967  0.21427919  1
  O  O93  1  0.05534027  0.15100203  0.31759402  1
  O  O94  1  0.74350010  0.31672966  0.83401823  1
  O  O95  1  0.30821860  0.29111781  0.74755407  1
  O  O96  1  0.16502410  0.02479407  0.73858366  1
  O  O97  1  0.22684902  0.17117242  0.54346166  1
  O  O98  1  0.14639423  0.82739780  0.51526695  1
  O  O99  1  0.64002739  0.52767365  0.90375010  1
  O  O100  1  0.61586867  0.14858166  0.71517790  1
  O  O101  1  0.77171414  0.73254128  0.90628151  1
  O  O102  1  0.03072668  0.69753674  0.75867223  1
  O  O103  1  0.51236855  0.64802757  0.04325304  1
  O  O104  1  0.20135443  0.72307642  0.94515535  1
