# generated using pymatgen
data_Al2O3
_symmetry_space_group_name_H-M   'P 1'
_cell_length_a   10.30426368
_cell_length_b   10.47790620
_cell_length_c   9.93290477
_cell_angle_alpha   91.04740677
_cell_angle_beta   89.18299529
_cell_angle_gamma   88.44020913
_symmetry_Int_Tables_number   1
_chemical_formula_structural   Al2O3
_chemical_formula_sum   'Al40 O60'
_cell_volume   1071.73367661
_cell_formula_units_Z   20
loop_
 _symmetry_equiv_pos_site_id
 _symmetry_equiv_pos_as_xyz
  1  'x, y, z'
loop_
 _atom_site_type_symbol
 _atom_site_label
 _atom_site_symmetry_multiplicity
 _atom_site_fract_x
 _atom_site_fract_y
 _atom_site_fract_z
 _atom_site_occupancy
  Al  Al0  1  0.00146100  0.14671800  0.57672300  1
  Al  Al1  1  0.83242800  0.66088100  0.43900000  1
  Al  Al2  1  0.24873900  0.38373000  0.12968600  1
  Al  Al3  1  0.19858800  0.47164300  0.89291800  1
  Al  Al4  1  0.55766200  0.69378600  0.52259500  1
  Al  Al5  1  0.86257600  0.28721300  0.10806900  1
  Al  Al6  1  0.35662600  0.97809000  0.82474100  1
  Al  Al7  1  0.24510600  0.66940800  0.16527900  1
  Al  Al8  1  0.05046800  0.88616700  0.79942100  1
  Al  Al9  1  0.06514900  0.86808200  0.24087400  1
  Al  Al10  1  0.93418500  0.39202400  0.75830700  1
  Al  Al11  1  0.38562000  0.83224800  0.36924000  1
  Al  Al12  1  0.95241000  0.59114500  0.15411900  1
  Al  Al13  1  0.30264800  0.51440900  0.48484700  1
  Al  Al14  1  0.79310900  0.15291900  0.34566700  1
  Al  Al15  1  0.52667300  0.30100400  0.55800400  1
  Al  Al16  1  0.29862400  0.75205500  0.67912100  1
  Al  Al17  1  0.57823100  0.01311500  0.05364400  1
  Al  Al18  1  0.49139400  0.44784700  0.82190400  1
  Al  Al19  1  0.54481600  0.29860400  0.06196000  1
  Al  Al20  1  0.47737400  0.57296500  0.20652000  1
  Al  Al21  1  0.15185800  0.92925900  0.54312200  1
  Al  Al22  1  0.15155700  0.19261500  0.32886800  1
  Al  Al23  1  0.62940300  0.88698400  0.32394500  1
  Al  Al24  1  0.74204100  0.50690800  0.01063600  1
  Al  Al25  1  0.03357400  0.60567600  0.64783900  1
  Al  Al26  1  0.73531600  0.82224900  0.76361900  1
  Al  Al27  1  0.29670400  0.18908900  0.59848600  1
  Al  Al28  1  0.98605100  0.05666400  0.07333900  1
  Al  Al29  1  0.58913000  0.02417200  0.57758800  1
  Al  Al30  1  0.88030200  0.90816800  0.52007900  1
  Al  Al31  1  0.48741400  0.14723500  0.32667000  1
  Al  Al32  1  0.11730800  0.18482200  0.87531200  1
  Al  Al33  1  0.30712600  0.01037100  0.17165200  1
  Al  Al34  1  0.59881300  0.15361800  0.80770400  1
  Al  Al35  1  0.72494400  0.52172800  0.66642400  1
  Al  Al36  1  0.02228600  0.42886700  0.40584600  1
  Al  Al37  1  0.50282400  0.71286400  0.93509300  1
  Al  Al38  1  0.79922200  0.82733100  0.03173300  1
  Al  Al39  1  0.68423800  0.43161700  0.33713800  1
  O  O40  1  0.97707600  0.20854600  0.99143300  1
  O  O41  1  0.68104000  0.07596100  0.93237400  1
  O  O42  1  0.44878000  0.96754900  0.28188700  1
  O  O43  1  0.91464800  0.72094700  0.58141700  1
  O  O44  1  0.64453600  0.81176900  0.92021600  1
  O  O45  1  0.12708900  0.72627100  0.73060700  1
  O  O46  1  0.70810100  0.33629300  0.04415100  1
  O  O47  1  0.13486300  0.35786900  0.26308700  1
  O  O48  1  0.25284200  0.84553400  0.22664900  1
  O  O49  1  0.73808900  0.93666500  0.63592300  1
  O  O50  1  0.34292100  0.35258000  0.55071400  1
  O  O51  1  0.26320700  0.15541000  0.76754400  1
  O  O52  1  0.66248200  0.68676600  0.67610700  1
  O  O53  1  0.00470500  0.23657000  0.73200500  1
  O  O54  1  0.87908300  0.08266600  0.47562100  1
  O  O55  1  0.09478300  0.00903200  0.92280700  1
  O  O56  1  0.42238100  0.40574300  0.13114600  1
  O  O57  1  0.33726300  0.51223100  0.80957100  1
  O  O58  1  0.03389600  0.88664500  0.41397200  1
  O  O59  1  0.50842200  0.28755100  0.88392000  1
  O  O60  1  0.17981600  0.09707800  0.50073900  1
  O  O61  1  0.06152200  0.49521300  0.79185900  1
  O  O62  1  0.40121500  0.62856700  0.57514400  1
  O  O63  1  0.81467300  0.32266600  0.32069400  1
  O  O64  1  0.13056100  0.52843200  0.51077100  1
  O  O65  1  0.67156200  0.90155700  0.14978900  1
  O  O66  1  0.19586100  0.53721500  0.05977200  1
  O  O67  1  0.00507000  0.97335200  0.64814100  1
  O  O68  1  0.07397600  0.70160000  0.19158300  1
  O  O69  1  0.12108400  0.05357100  0.20306600  1
  O  O70  1  0.89462500  0.47188200  0.59924900  1
  O  O71  1  0.94056200  0.89827600  0.11602800  1
  O  O72  1  0.44440300  0.13609200  0.51211600  1
  O  O73  1  0.32016000  0.56770000  0.30717800  1
  O  O74  1  0.57685600  0.43353500  0.66309100  1
  O  O75  1  0.03750500  0.26941200  0.45742100  1
  O  O76  1  0.81920800  0.66227100  0.06602900  1
  O  O77  1  0.91337200  0.44611000  0.07940100  1
  O  O78  1  0.57952400  0.55516400  0.92763900  1
  O  O79  1  0.23433100  0.92299400  0.71181300  1
  O  O80  1  0.77805200  0.81463600  0.38977200  1
  O  O81  1  0.64238100  0.52281400  0.19800100  1
  O  O82  1  0.88588800  0.83683300  0.85722300  1
  O  O83  1  0.56097300  0.32154600  0.38443300  1
  O  O84  1  0.20324600  0.31333300  0.96786600  1
  O  O85  1  0.49993300  0.02668200  0.74316400  1
  O  O86  1  0.31686500  0.17132400  0.26332800  1
  O  O87  1  0.64840100  0.06199300  0.38519300  1
  O  O88  1  0.86058400  0.12980700  0.18432400  1
  O  O89  1  0.68897100  0.56157500  0.46733900  1
  O  O90  1  0.51724300  0.71482400  0.33136000  1
  O  O91  1  0.92384800  0.55539600  0.33168700  1
  O  O92  1  0.40976400  0.68433100  0.08720200  1
  O  O93  1  0.64320000  0.19216600  0.64000600  1
  O  O94  1  0.39501700  0.99837600  0.00872300  1
  O  O95  1  0.53106100  0.87038300  0.50105900  1
  O  O96  1  0.27164300  0.81358300  0.49773200  1
  O  O97  1  0.79250200  0.46735400  0.82774400  1
  O  O98  1  0.54872700  0.15760400  0.15513100  1
  O  O99  1  0.39893900  0.79114200  0.82024300  1
