# generated using pymatgen
data_Hg
_symmetry_space_group_name_H-M   'P 1'
_cell_length_a   6.48343000
_cell_length_b   6.07404800
_cell_length_c   6.24672577
_cell_angle_alpha   66.50840196
_cell_angle_beta   90.00000000
_cell_angle_gamma   90.00000000
_symmetry_Int_Tables_number   1
_chemical_formula_structural   Hg
_chemical_formula_sum   Hg6
_cell_volume   225.61135736
_cell_formula_units_Z   6
loop_
 _symmetry_equiv_pos_site_id
 _symmetry_equiv_pos_as_xyz
  1  'x, y, z'
loop_
 _atom_site_type_symbol
 _atom_site_label
 _atom_site_symmetry_multiplicity
 _atom_site_fract_x
 _atom_site_fract_y
 _atom_site_fract_z
 _atom_site_occupancy
  Hg  Hg0  1  0.00000000  0.00000000  0.00000000  1
  Hg  Hg1  1  0.50000000  0.00000000  0.50000000  1
  Hg  Hg2  1  0.35727400  0.58311000  0.26013600  1
  Hg  Hg3  1  0.85727400  0.41689000  0.23986400  1
  Hg  Hg4  1  0.64272600  0.41689000  0.73986400  1
  Hg  Hg5  1  0.14272600  0.58311000  0.76013600  1
