# generated using pymatgen
data_ZnS
_symmetry_space_group_name_H-M   'P 1'
_cell_length_a   13.27263050
_cell_length_b   13.26870399
_cell_length_c   13.49331764
_cell_angle_alpha   88.74699063
_cell_angle_beta   92.59292488
_cell_angle_gamma   88.22272351
_symmetry_Int_Tables_number   1
_chemical_formula_structural   ZnS
_chemical_formula_sum   'Zn50 S50'
_cell_volume   2372.09693346
_cell_formula_units_Z   50
loop_
 _symmetry_equiv_pos_site_id
 _symmetry_equiv_pos_as_xyz
  1  'x, y, z'
loop_
 _atom_site_type_symbol
 _atom_site_label
 _atom_site_symmetry_multiplicity
 _atom_site_fract_x
 _atom_site_fract_y
 _atom_site_fract_z
 _atom_site_occupancy
  Zn  Zn0  1  0.51214167  0.85868373  0.33961611  1
  Zn  Zn1  1  0.25931631  0.60732829  0.35226910  1
  Zn  Zn2  1  0.20550375  0.73588344  0.64093218  1
  Zn  Zn3  1  0.03736997  0.17375187  0.41162816  1
  Zn  Zn4  1  0.42945868  0.51868786  0.73307846  1
  Zn  Zn5  1  0.41369971  0.15501849  0.71519892  1
  Zn  Zn6  1  0.62807506  0.05565710  0.32992187  1
  Zn  Zn7  1  0.55587147  0.68385997  0.70033736  1
  Zn  Zn8  1  0.20947062  0.62357799  0.86017439  1
  Zn  Zn9  1  0.55817808  0.47984872  0.49052193  1
  Zn  Zn10  1  0.70872745  0.68316673  0.18807540  1
  Zn  Zn11  1  0.70870793  0.73266174  0.35904299  1
  Zn  Zn12  1  0.38114546  0.76590956  0.12595173  1
  Zn  Zn13  1  0.74728094  0.11969284  0.81374757  1
  Zn  Zn14  1  0.01949781  0.22142896  0.01513886  1
  Zn  Zn15  1  0.95654592  0.88146334  0.47713381  1
  Zn  Zn16  1  0.16278564  0.27730501  0.66586471  1
  Zn  Zn17  1  0.76589922  0.28098561  0.25463624  1
  Zn  Zn18  1  0.83926834  0.33689409  0.98632160  1
  Zn  Zn19  1  0.50722375  0.08633626  0.56187745  1
  Zn  Zn20  1  0.77483407  0.91057267  0.66979251  1
  Zn  Zn21  1  0.30398221  0.55024396  0.54593940  1
  Zn  Zn22  1  0.52176650  0.64777972  0.94429690  1
  Zn  Zn23  1  0.37804359  0.84924693  0.81538449  1
  Zn  Zn24  1  0.87540550  0.32098444  0.74271807  1
  Zn  Zn25  1  0.56674379  0.24695409  0.65111750  1
  Zn  Zn26  1  0.49896895  0.28414989  0.34161494  1
  Zn  Zn27  1  0.85550289  0.14952755  0.04161101  1
  Zn  Zn28  1  0.92190379  0.62199010  0.49632377  1
  Zn  Zn29  1  0.16128910  0.73146733  0.46257792  1
  Zn  Zn30  1  0.26825838  0.12137495  0.48235634  1
  Zn  Zn31  1  0.26862093  0.82176756  0.98717011  1
  Zn  Zn32  1  0.97219537  0.08496794  0.66293452  1
  Zn  Zn33  1  0.24955405  0.28212253  0.20441679  1
  Zn  Zn34  1  0.45410633  0.53864060  0.18520011  1
  Zn  Zn35  1  0.14121588  0.52085725  0.12551738  1
  Zn  Zn36  1  0.41083673  0.20971522  0.02241805  1
  Zn  Zn37  1  0.22796446  0.78864037  0.29048383  1
  Zn  Zn38  1  0.94866945  0.88200346  0.89922233  1
  Zn  Zn39  1  0.80133353  0.54637349  0.74077683  1
  Zn  Zn40  1  0.23950424  0.42129521  0.43501537  1
  Zn  Zn41  1  0.39986220  0.38608293  0.97456240  1
  Zn  Zn42  1  0.17621988  0.00639151  0.10658904  1
  Zn  Zn43  1  0.95578210  0.64888877  0.23376181  1
  Zn  Zn44  1  0.02971474  0.79105452  0.03736572  1
  Zn  Zn45  1  0.91326246  0.60619933  0.94738988  1
  Zn  Zn46  1  0.97244137  0.38436379  0.22754756  1
  Zn  Zn47  1  0.23224401  0.14275660  0.87167872  1
  Zn  Zn48  1  0.78902749  0.34335653  0.49998322  1
  Zn  Zn49  1  0.95344805  0.69564549  0.68899694  1
  S  S50  1  0.84799621  0.70523395  0.81527342  1
  S  S51  1  0.75055537  0.25055912  0.64729111  1
  S  S52  1  0.29406631  0.27075822  0.77886547  1
  S  S53  1  0.98215227  0.73663701  0.38470902  1
  S  S54  1  0.89983880  0.44093847  0.86129844  1
  S  S55  1  0.26044339  0.10713690  0.22115529  1
  S  S56  1  0.36858346  0.02646972  0.85263822  1
  S  S57  1  0.66045763  0.90252863  0.40628439  1
  S  S58  1  0.85206614  0.79583983  0.57607364  1
  S  S59  1  0.87667796  0.99943308  0.77537789  1
  S  S60  1  0.51442295  0.26458049  0.16679318  1
  S  S61  1  0.17353255  0.07051740  0.34292978  1
  S  S62  1  0.21056545  0.79966972  0.81072745  1
  S  S63  1  0.62753365  0.52468298  0.76670191  1
  S  S64  1  0.64596528  0.37061644  0.38954894  1
  S  S65  1  0.11248698  0.07712734  0.96176955  1
  S  S66  1  0.90711140  0.28704362  0.37378648  1
  S  S67  1  0.53598896  0.40795172  0.10851997  1
  S  S68  1  0.08818450  0.62152904  -0.01359069  1
  S  S69  1  0.81396317  0.51241815  0.56560139  1
  S  S70  1  0.16930764  0.27462472  0.49834252  1
  S  S71  1  0.71868119  0.21732237  0.94441636  1
  S  S72  1  0.44915296  0.41054074  0.60121976  1
  S  S73  1  0.02234638  0.22431822  0.74132934  1
  S  S74  1  0.17918945  0.55068786  0.69746982  1
  S  S75  1  0.64990544  0.53227558  0.91976453  1
  S  S76  1  0.83989301  0.04634303  0.17709626  1
  S  S77  1  0.48330915  0.11945495  0.39424500  1
  S  S78  1  0.10789564  0.86449257  0.17396312  1
  S  S79  1  0.70389976  0.12799697  0.20035914  1
  S  S80  1  0.62805110  0.65073798  0.51438905  1
  S  S81  1  0.85865230  0.68480919  0.09706285  1
  S  S82  1  0.34491682  0.03172723  0.60752075  1
  S  S83  1  0.37303502  0.54393176  0.89183365  1
  S  S84  1  0.28801789  0.60712792  0.17357681  1
  S  S85  1  0.36993392  0.88113186  0.25179145  1
  S  S86  1  0.44875806  0.57526711  0.36495199  1
  S  S87  1  0.49688279  0.70444622  0.43367487  1
  S  S88  1  0.06453437  0.52105814  0.28312704  1
  S  S89  1  0.02851977  0.54457080  0.64290423  1
  S  S90  1  0.53614073  0.78458336  0.83610262  1
  S  S91  1  0.60386361  0.03172771  0.79298491  1
  S  S92  1  0.02343092  0.02874395  0.51654438  1
  S  S93  1  0.53926197  0.67967179  0.11390848  1
  S  S94  1  0.41989848  0.03799636  0.00149289  1
  S  S95  1  0.34434826  0.37645570  0.30964356  1
  S  S96  1  0.81794804  0.40168477  0.14413687  1
  S  S97  1  0.61158020  0.96420677  0.65583687  1
  S  S98  1  0.38690785  0.67199865  0.63835852  1
  S  S99  1  0.11103903  0.34255756  0.11386619  1
