# generated using pymatgen
data_VO2
_symmetry_space_group_name_H-M   'P 1'
_cell_length_a   11.02154445
_cell_length_b   11.32536832
_cell_length_c   10.85857506
_cell_angle_alpha   87.84830493
_cell_angle_beta   84.13658904
_cell_angle_gamma   92.96805175
_symmetry_Int_Tables_number   1
_chemical_formula_structural   VO2
_chemical_formula_sum   'V34 O68'
_cell_volume   1345.24841355
_cell_formula_units_Z   34
loop_
 _symmetry_equiv_pos_site_id
 _symmetry_equiv_pos_as_xyz
  1  'x, y, z'
loop_
 _atom_site_type_symbol
 _atom_site_label
 _atom_site_symmetry_multiplicity
 _atom_site_fract_x
 _atom_site_fract_y
 _atom_site_fract_z
 _atom_site_occupancy
  V  V0  1  0.24029039  0.31024357  0.97728977  1
  V  V1  1  0.53251212  0.75614937  0.89291408  1
  V  V2  1  0.37149645  0.47221337  0.11671794  1
  V  V3  1  0.50445543  0.69038263  0.23207706  1
  V  V4  1  0.56515473  0.45897657  0.29247067  1
  V  V5  1  0.77743543  0.24209952  0.11478266  1
  V  V6  1  0.18362388  0.62379447  0.32320048  1
  V  V7  1  0.63998591  0.70199824  0.53893453  1
  V  V8  1  0.02431116  0.52141268  0.65658214  1
  V  V9  1  0.81525460  0.83068794  0.78367091  1
  V  V10  1  0.90859644  0.04903879  0.33647652  1
  V  V11  1  0.10226734  0.24421110  0.21087256  1
  V  V12  1  0.59655918  0.91645790  0.30907000  1
  V  V13  1  0.82111017  0.78110607  0.25251243  1
  V  V14  1  0.90986390  0.78206817  0.53077102  1
  V  V15  1  0.80138871  0.31836194  0.84554285  1
  V  V16  1  0.27613911  0.59746492  0.87826408  1
  V  V17  1  0.14369607  0.92640787  0.33144320  1
  V  V18  1  0.39940424  0.90668303  0.13622722  1
  V  V19  1  0.92401600  0.50865242  0.18928960  1
  V  V20  1  0.10895220  0.80556285  0.06378166  1
  V  V21  1  0.54243688  0.18247947  0.34768593  1
  V  V22  1  0.35624604  0.26307995  0.68928488  1
  V  V23  1  0.50585723  0.44671077  0.84273968  1
  V  V24  1  0.71864072  0.02632498  0.92690922  1
  V  V25  1  0.29955799  0.54081533  0.59770543  1
  V  V26  1  0.39071383  0.80980647  0.65460999  1
  V  V27  1  0.25412912  0.02056880  0.60737925  1
  V  V28  1  0.81497194  0.58662798  0.89377266  1
  V  V29  1  0.93303482  0.08081954  0.66368808  1
  V  V30  1  0.64868038  0.38386811  0.56701832  1
  V  V31  1  0.28101783  0.94898213  0.86034073  1
  V  V32  1  0.96211225  0.31241977  0.45282853  1
  V  V33  1  0.30500919  0.29013389  0.41359411  1
  O  O34  1  0.47442926  0.78011913  0.06424573  1
  O  O35  1  0.52249043  0.32466497  0.70798735  1
  O  O36  1  0.17835728  0.68715895  0.96611046  1
  O  O37  1  0.43639521  0.58324925  0.93943878  1
  O  O38  1  0.78318045  0.94836507  0.29924336  1
  O  O39  1  0.88849312  0.55875177  0.02406683  1
  O  O40  1  0.97711296  0.90280886  0.39695878  1
  O  O41  1  0.91345698  0.13736406  0.47831722  1
  O  O42  1  0.38835288  0.51987539  0.74417753  1
  O  O43  1  0.58651674  0.06006288  0.41933174  1
  O  O44  1  0.67120521  0.44645701  0.86690109  1
  O  O45  1  0.70527432  0.18517352  0.95505409  1
  O  O46  1  0.70004366  0.70724023  0.88995824  1
  O  O47  1  0.14986388  0.26934526  0.39235098  1
  O  O48  1  0.02785866  0.38407460  0.58867254  1
  O  O49  1  0.63675587  0.53481610  0.58922653  1
  O  O50  1  0.80206295  0.73048702  0.42234275  1
  O  O51  1  0.99815513  0.36890399  0.27619345  1
  O  O52  1  0.18908814  0.53564204  0.45945696  1
  O  O53  1  0.42202085  0.34973529  0.96996385  1
  O  O54  1  0.68951058  0.40891777  0.15105199  1
  O  O55  1  0.88973202  0.48165265  0.77416654  1
  O  O56  1  0.07473746  0.07899646  0.26099670  1
  O  O57  1  0.84741677  0.22121943  0.72666835  1
  O  O58  1  0.82561344  0.60205994  0.25536827  1
  O  O59  1  0.13503624  0.92996446  0.93616856  1
  O  O60  1  0.87810948  0.16691299  0.20434432  1
  O  O61  1  0.21850925  0.88608641  0.17071069  1
  O  O62  1  0.22701144  0.47028331  0.99454431  1
  O  O63  1  0.36879625  0.80154856  0.83494626  1
  O  O64  1  0.33037541  0.17907037  0.55188852  1
  O  O65  1  0.17129634  0.55554668  0.72701564  1
  O  O66  1  0.52877942  0.74063393  0.69439774  1
  O  O67  1  0.32058465  0.61591529  0.22874588  1
  O  O68  1  0.94757178  0.81158029  0.14034456  1
  O  O69  1  0.36773936  0.97915660  0.98020670  1
  O  O70  1  0.57158806  0.31983165  0.42979165  1
  O  O71  1  0.74771912  0.96707734  0.05795905  1
  O  O72  1  0.33915583  0.38946595  0.55666603  1
  O  O73  1  0.24882335  0.31749319  0.16091285  1
  O  O74  1  0.51211402  0.00279987  0.17956101  1
  O  O75  1  0.99200437  0.65950369  0.57420562  1
  O  O76  1  0.87822907  0.32569788  0.98002422  1
  O  O77  1  0.85730735  0.99887621  0.82648391  1
  O  O78  1  0.23146167  0.87283684  0.70368831  1
  O  O79  1  0.22291050  0.98792801  0.43973249  1
  O  O80  1  0.76496899  0.74806123  0.64370718  1
  O  O81  1  0.90472813  0.91657785  0.63188525  1
  O  O82  1  0.91774074  0.72937806  0.82924936  1
  O  O83  1  0.66168652  0.77702405  0.21541610  1
  O  O84  1  0.62438962  0.92380208  0.85547051  1
  O  O85  1  0.34451416  0.69293480  0.55624580  1
  O  O86  1  0.79721709  0.35967870  0.50858339  1
  O  O87  1  0.52768346  0.55524622  0.14306340  1
  O  O88  1  0.42426782  0.94306189  0.58195917  1
  O  O89  1  0.10389060  0.22872946  0.03377237  1
  O  O90  1  0.79239793  0.37849289  0.21854210  1
  O  O91  1  0.59563994  0.82665668  0.46563754  1
  O  O92  1  0.40043278  0.40270072  0.29344245  1
  O  O93  1  0.38805008  0.17332628  0.32292397  1
  O  O94  1  0.08635760  0.09114163  0.65785385  1
  O  O95  1  0.55191190  0.60332687  0.37623242  1
  O  O96  1  0.31489464  0.08307106  0.76801927  1
  O  O97  1  0.07384641  0.59850871  0.21701720  1
  O  O98  1  0.62687705  0.19519360  0.20692143  1
  O  O99  1  0.15996936  0.76165602  0.37621275  1
  O  O100  1  0.24466696  0.30144268  0.80192508  1
  O  O101  1  0.43014232  0.81921280  0.29581181  1
