# generated using pymatgen
data_CoO
_symmetry_space_group_name_H-M   'P 1'
_cell_length_a   10.08110670
_cell_length_b   10.01540327
_cell_length_c   10.17928995
_cell_angle_alpha   92.51852484
_cell_angle_beta   90.00127366
_cell_angle_gamma   84.67099091
_symmetry_Int_Tables_number   1
_chemical_formula_structural   CoO
_chemical_formula_sum   'Co40 O40'
_cell_volume   1022.32656236
_cell_formula_units_Z   40
loop_
 _symmetry_equiv_pos_site_id
 _symmetry_equiv_pos_as_xyz
  1  'x, y, z'
loop_
 _atom_site_type_symbol
 _atom_site_label
 _atom_site_symmetry_multiplicity
 _atom_site_fract_x
 _atom_site_fract_y
 _atom_site_fract_z
 _atom_site_occupancy
  Co  Co0  1  0.35077612  0.06203339  0.03059299  1
  Co  Co1  1  0.01763179  0.59747353  0.58803444  1
  Co  Co2  1  0.05065786  0.13884630  0.66322321  1
  Co  Co3  1  0.68918649  0.71142817  0.05822357  1
  Co  Co4  1  0.14465991  0.99913851  0.16995352  1
  Co  Co5  1  0.87600944  0.55464373  0.29142834  1
  Co  Co6  1  0.95599970  0.84666291  0.82513192  1
  Co  Co7  1  0.66060902  0.36714820  0.27570441  1
  Co  Co8  1  0.50490589  0.52314270  0.73053348  1
  Co  Co9  1  0.94253188  0.32794922  0.47130321  1
  Co  Co10  1  0.32671250  0.06033389  0.43274808  1
  Co  Co11  1  0.63612419  0.15659680  0.14860266  1
  Co  Co12  1  0.20548764  0.63540902  0.25431820  1
  Co  Co13  1  0.82302306  0.93195001  0.07011783  1
  Co  Co14  1  0.77408955  0.66037054  0.79265893  1
  Co  Co15  1  0.31442469  0.65165158  0.52870675  1
  Co  Co16  1  0.44328147  0.30454013  0.94836107  1
  Co  Co17  1  0.65936639  0.56611218  0.52454322  1
  Co  Co18  1  0.22863637  0.85313233  0.68024265  1
  Co  Co19  1  0.89474633  0.16042063  0.92906325  1
  Co  Co20  1  0.47767963  0.56687670  0.27372071  1
  Co  Co21  1  0.99834306  0.83317873  0.40724888  1
  Co  Co22  1  0.44859094  0.72056474  0.95622091  1
  Co  Co23  1  0.19315086  0.85274969  0.97418632  1
  Co  Co24  1  0.41818530  0.84522806  0.22521599  1
  Co  Co25  1  0.71401497  0.44726793  0.98869220  1
  Co  Co26  1  0.99747546  0.66306882  0.06530716  1
  Co  Co27  1  0.60021454  0.98038926  0.89986386  1
  Co  Co28  1  0.99088199  0.45115866  0.82817447  1
  Co  Co29  1  0.11077689  0.32120349  0.05555427  1
  Co  Co30  1  0.26587993  0.35747658  0.65264870  1
  Co  Co31  1  0.67753860  0.96506565  0.39966650  1
  Co  Co32  1  0.36348937  0.07429479  0.70356673  1
  Co  Co33  1  0.80776526  0.02036899  0.62623356  1
  Co  Co34  1  0.78246797  0.35400001  0.67941128  1
  Co  Co35  1  0.55341207  0.21914157  0.51807950  1
  Co  Co36  1  0.91684551  0.13111819  0.25858175  1
  Co  Co37  1  0.35686369  0.27374067  0.24106507  1
  Co  Co38  1  0.21916471  0.56643263  0.83987773  1
  Co  Co39  1  0.50791038  0.86900565  0.57401405  1
  O  O40  1  0.84853590  0.30421854  0.30122673  1
  O  O41  1  0.61531086  0.03566151  0.59656727  1
  O  O42  1  0.21360070  0.02252757  0.60146567  1
  O  O43  1  0.21445137  0.54924387  0.63841374  1
  O  O44  1  0.29237896  0.25230153  0.05220125  1
  O  O45  1  0.32343525  0.46412825  0.26578896  1
  O  O46  1  0.29047351  0.74992521  0.83500382  1
  O  O47  1  0.00146266  0.48894041  0.42496491  1
  O  O48  1  0.00080267  0.85560688  0.01688158  1
  O  O49  1  0.67410993  0.55189601  0.33824854  1
  O  O50  1  0.47785688  0.90524141  0.02813100  1
  O  O51  1  0.24007130  0.80180452  0.14795421  1
  O  O52  1  0.09554922  0.77423190  0.55373450  1
  O  O53  1  0.52217940  0.67592219  0.13092009  1
  O  O54  1  0.61467929  0.59492225  0.87756206  1
  O  O55  1  0.50041201  0.68035382  0.60584520  1
  O  O56  1  0.74817478  0.82643614  0.90902984  1
  O  O57  1  0.02973525  0.99779412  0.32894920  1
  O  O58  1  0.29621343  0.08194467  0.24509742  1
  O  O59  1  0.54571455  0.22560928  0.31837776  1
  O  O60  1  0.60479094  0.38762088  0.60609286  1
  O  O61  1  0.08079784  0.32533180  0.69398478  1
  O  O62  1  0.10748280  0.49724422  0.98620107  1
  O  O63  1  0.48953616  0.92788738  0.38975834  1
  O  O64  1  0.82792086  0.57069058  0.09505219  1
  O  O65  1  0.81958635  0.54746848  0.63554175  1
  O  O66  1  0.94215595  0.02897735  0.77566856  1
  O  O67  1  0.00784026  0.69751530  0.26324110  1
  O  O68  1  0.59044996  0.34109840  0.07767033  1
  O  O69  1  0.84059425  0.34240617  0.86592759  1
  O  O70  1  0.35065370  0.70786373  0.36418792  1
  O  O71  1  0.87387019  0.19584376  0.57457126  1
  O  O72  1  0.72991246  0.09150386  0.98847177  1
  O  O73  1  0.37299125  0.42769523  0.81776174  1
  O  O74  1  0.01482922  0.16275401  0.09041683  1
  O  O75  1  0.76120909  0.01815763  0.23716159  1
  O  O76  1  0.98096258  0.65352071  0.80420312  1
  O  O77  1  0.45308337  0.11391380  0.86003818  1
  O  O78  1  0.83045671  0.87604881  0.49086236  1
  O  O79  1  0.36444172  0.21171321  0.55587056  1
