# generated using pymatgen
data_BeO
_symmetry_space_group_name_H-M   'P 1'
_cell_length_a   9.45068061
_cell_length_b   9.48171777
_cell_length_c   9.59736709
_cell_angle_alpha   89.28889606
_cell_angle_beta   89.66927079
_cell_angle_gamma   89.17409147
_symmetry_Int_Tables_number   1
_chemical_formula_structural   BeO
_chemical_formula_sum   'Be50 O50'
_cell_volume   859.83842571
_cell_formula_units_Z   50
loop_
 _symmetry_equiv_pos_site_id
 _symmetry_equiv_pos_as_xyz
  1  'x, y, z'
loop_
 _atom_site_type_symbol
 _atom_site_label
 _atom_site_symmetry_multiplicity
 _atom_site_fract_x
 _atom_site_fract_y
 _atom_site_fract_z
 _atom_site_occupancy
  Be  Be0  1  0.38659600  0.96264700  0.01472100  1
  Be  Be1  1  0.02174400  0.20541700  0.40897800  1
  Be  Be2  1  0.32110100  0.63292700  0.17216500  1
  Be  Be3  1  0.73857000  0.72992700  0.11986200  1
  Be  Be4  1  0.25504500  0.52919300  0.68502100  1
  Be  Be5  1  0.47652200  0.47267900  0.72483000  1
  Be  Be6  1  0.74925600  0.54630800  0.64545900  1
  Be  Be7  1  0.34037000  0.56662600  0.43387900  1
  Be  Be8  1  0.30264000  0.11358000  0.81588800  1
  Be  Be9  1  0.61425900  0.99084400  0.20351100  1
  Be  Be10  1  0.61804100  0.59546700  0.30882800  1
  Be  Be11  1  0.86651800  0.10599900  0.24389400  1
  Be  Be12  1  0.11351400  0.68897400  0.34241500  1
  Be  Be13  1  0.12108000  0.72781400  0.56757700  1
  Be  Be14  1  0.53655100  0.76094300  0.03856600  1
  Be  Be15  1  0.08194600  0.88317600  0.81776300  1
  Be  Be16  1  0.51623800  0.00639300  0.51693300  1
  Be  Be17  1  0.03946700  0.65150200  0.07907700  1
  Be  Be18  1  0.75165200  0.31382900  0.60614700  1
  Be  Be19  1  0.98245600  0.48002800  0.73036600  1
  Be  Be20  1  0.64581000  0.11421200  0.76230200  1
  Be  Be21  1  0.55444100  0.20527000  0.39634000  1
  Be  Be22  1  0.90775900  0.55339600  0.25763000  1
  Be  Be23  1  0.78630000  0.08934300  0.52931300  1
  Be  Be24  1  0.64573200  0.37016800  0.85949200  1
  Be  Be25  1  0.47325700  0.95469700  0.73700000  1
  Be  Be26  1  0.77504800  0.68128700  0.84249900  1
  Be  Be27  1  0.23146900  0.97512800  0.58642000  1
  Be  Be28  1  0.58400600  0.47817700  0.06102400  1
  Be  Be29  1  0.31486900  0.12451900  0.34357800  1
  Be  Be30  1  0.02355400  0.46603700  0.50176300  1
  Be  Be31  1  0.02273400  0.18309400  0.87945600  1
  Be  Be32  1  0.22551800  0.17097200  0.07897800  1
  Be  Be33  1  0.02645200  0.32512500  0.14971800  1
  Be  Be34  1  0.90267800  0.84069300  0.25511000  1
  Be  Be35  1  0.24910100  0.66579600  0.91805000  1
  Be  Be36  1  0.38164100  0.34946200  0.25682400  1
  Be  Be37  1  0.12934300  0.24825700  0.64617900  1
  Be  Be38  1  0.20619400  0.82562300  0.07478200  1
  Be  Be39  1  0.23249400  0.36517100  0.83969600  1
  Be  Be40  1  0.87845400  0.47015300  0.98344800  1
  Be  Be41  1  0.65804200  0.82843300  0.40026800  1
  Be  Be42  1  0.65947600  0.23849800  0.06820700  1
  Be  Be43  1  0.79098300  0.34209600  0.33994900  1
  Be  Be44  1  0.69592000  0.85789300  0.66382100  1
  Be  Be45  1  0.39597300  0.25173100  0.58839600  1
  Be  Be46  1  0.45844200  0.30080100  0.96630900  1
  Be  Be47  1  0.04418900  0.02897900  0.05102300  1
  Be  Be48  1  0.41738600  0.74142300  0.52925900  1
  Be  Be49  1  0.04823500  0.96460300  0.39916400  1
  O  O50  1  0.23318200  0.52791800  0.85300400  1
  O  O51  1  0.89885500  0.69804300  0.15919000  1
  O  O52  1  0.12716700  0.85751100  0.66314200  1
  O  O53  1  0.50375000  0.13252600  0.63510800  1
  O  O54  1  0.73810300  0.70295400  0.68375300  1
  O  O55  1  0.59199400  0.62346000  0.14938600  1
  O  O56  1  0.03195600  0.54342000  0.35995900  1
  O  O57  1  0.05525900  0.20518500  0.04168700  1
  O  O58  1  0.75715800  0.49734400  0.31350800  1
  O  O59  1  0.36720900  0.97301800  0.85672500  1
  O  O60  1  0.87174500  0.44565300  0.59457900  1
  O  O61  1  0.41272300  0.28837000  0.42513100  1
  O  O62  1  0.00155400  0.47760200  0.09133300  1
  O  O63  1  0.70458000  0.25155800  0.44558700  1
  O  O64  1  0.40764200  0.89551200  0.59045000  1
  O  O65  1  0.36353900  0.71561000  0.02597400  1
  O  O66  1  0.30436700  0.23614300  0.93425900  1
  O  O67  1  0.68575200  0.94022200  0.51747800  1
  O  O68  1  0.72478000  0.85454600  0.25582200  1
  O  O69  1  0.63121500  0.94717400  0.77630700  1
  O  O70  1  0.19726000  0.03329400  0.42284800  1
  O  O71  1  0.25042100  0.70536700  0.44891600  1
  O  O72  1  0.78393000  0.16642600  0.67782400  1
  O  O73  1  0.16892100  0.70263100  0.18407800  1
  O  O74  1  0.51031100  0.33209900  0.12938200  1
  O  O75  1  0.26300900  0.23413600  0.22149400  1
  O  O76  1  0.50376900  0.46012200  0.90228200  1
  O  O77  1  0.36132900  0.51714200  0.28161200  1
  O  O78  1  0.11236400  0.76395500  0.94391100  1
  O  O79  1  0.02004500  0.01945600  0.88271200  1
  O  O80  1  0.92268100  0.07330700  0.43357900  1
  O  O81  1  0.59841100  0.20988400  0.90267600  1
  O  O82  1  0.71461000  0.12722100  0.17668900  1
  O  O83  1  0.89018500  0.55670200  0.84861800  1
  O  O84  1  0.51595500  0.92027200  0.09573700  1
  O  O85  1  0.09864600  0.56551400  0.62679400  1
  O  O86  1  0.40009600  0.58965700  0.61358700  1
  O  O87  1  0.64067500  0.42303700  0.69233000  1
  O  O88  1  0.33340900  0.36429100  0.69302700  1
  O  O89  1  0.96459700  0.98201000  0.18514700  1
  O  O90  1  0.49505800  0.05491200  0.35308000  1
  O  O91  1  0.93403500  0.27034400  0.27520700  1
  O  O92  1  0.55649300  0.70290300  0.42195900  1
  O  O93  1  0.22980800  0.99043000  0.08304300  1
  O  O94  1  0.22518600  0.11957200  0.67512200  1
  O  O95  1  0.69559600  0.74371000  0.96337600  1
  O  O96  1  0.06470200  0.31782800  0.78584600  1
  O  O97  1  0.08870100  0.30753900  0.50624900  1
  O  O98  1  0.74032900  0.39105400  0.00807300  1
  O  O99  1  0.00469400  0.80887300  0.39478100  1
