# generated using pymatgen
data_Fe2O3
_symmetry_space_group_name_H-M   'P 1'
_cell_length_a   10.02216921
_cell_length_b   10.81936465
_cell_length_c   9.82123796
_cell_angle_alpha   90.87513817
_cell_angle_beta   93.31263954
_cell_angle_gamma   95.46998238
_symmetry_Int_Tables_number   1
_chemical_formula_structural   Fe2O3
_chemical_formula_sum   'Fe32 O48'
_cell_volume   1058.09898466
_cell_formula_units_Z   16
loop_
 _symmetry_equiv_pos_site_id
 _symmetry_equiv_pos_as_xyz
  1  'x, y, z'
loop_
 _atom_site_type_symbol
 _atom_site_label
 _atom_site_symmetry_multiplicity
 _atom_site_fract_x
 _atom_site_fract_y
 _atom_site_fract_z
 _atom_site_occupancy
  Fe  Fe0  1  0.41446600  0.72472300  0.87551200  1
  Fe  Fe1  1  0.56540800  0.04680100  0.68773500  1
  Fe  Fe2  1  0.69705400  0.83338600  0.81978700  1
  Fe  Fe3  1  0.92037100  0.16285900  0.46447400  1
  Fe  Fe4  1  0.48735500  0.39589200  0.22687200  1
  Fe  Fe5  1  0.42691200  0.45145200  0.51883700  1
  Fe  Fe6  1  0.46467200  0.96208500  0.03706600  1
  Fe  Fe7  1  0.63175500  0.53634300  0.02122300  1
  Fe  Fe8  1  0.08673000  0.70190400  0.48404700  1
  Fe  Fe9  1  0.17767500  0.51341800  0.68697700  1
  Fe  Fe10  1  0.87728200  0.74334700  0.22414900  1
  Fe  Fe11  1  0.32315800  0.25022000  0.71970500  1
  Fe  Fe12  1  0.69196700  0.32846400  0.70410000  1
  Fe  Fe13  1  0.16718400  0.29022000  0.34480200  1
  Fe  Fe14  1  0.26053000  0.48080700  0.98138300  1
  Fe  Fe15  1  0.22755500  0.95336700  0.73497700  1
  Fe  Fe16  1  0.91818500  0.11579500  0.76107700  1
  Fe  Fe17  1  0.68391700  0.59022400  0.70249600  1
  Fe  Fe18  1  0.41655700  0.74599700  0.55916800  1
  Fe  Fe19  1  0.17164500  0.17545800  0.95447100  1
  Fe  Fe20  1  0.60430700  0.67539800  0.32530100  1
  Fe  Fe21  1  0.04551000  0.51936800  0.22122800  1
  Fe  Fe22  1  0.28843300  0.76162100  0.22529000  1
  Fe  Fe23  1  0.60860900  0.11027100  0.32832800  1
  Fe  Fe24  1  0.76245700  0.00760600  0.05110300  1
  Fe  Fe25  1  0.98684000  0.85389500  0.97101800  1
  Fe  Fe26  1  0.81387900  0.30609200  0.16965500  1
  Fe  Fe27  1  0.91087200  0.44878300  0.49939800  1
  Fe  Fe28  1  0.14375900  0.95701500  0.38906800  1
  Fe  Fe29  1  0.31991600  0.12154700  0.20139300  1
  Fe  Fe30  1  0.92968600  0.52770300  0.92459200  1
  Fe  Fe31  1  0.78923700  0.86195100  0.55894400  1
  O  O32  1  0.74402500  0.46156600  0.58244200  1
  O  O33  1  0.89680800  0.90740100  0.13581600  1
  O  O34  1  0.51374800  0.60735100  0.60963200  1
  O  O35  1  0.72344600  0.16555300  0.75043400  1
  O  O36  1  0.00696300  0.37330700  0.34154700  1
  O  O37  1  0.78515600  0.20081900  0.32937500  1
  O  O38  1  0.36938600  0.82773400  0.72627500  1
  O  O39  1  0.38405900  0.08398500  0.71595700  1
  O  O40  1  0.19961400  0.57585100  0.13740700  1
  O  O41  1  0.01436900  0.57462000  0.60954200  1
  O  O42  1  0.48012300  0.21720100  0.26001500  1
  O  O43  1  0.59863000  0.96048600  0.90439100  1
  O  O44  1  0.14171900  0.87925700  0.88493900  1
  O  O45  1  0.92707900  0.28892700  0.59937600  1
  O  O46  1  0.50163300  0.33601600  0.65852000  1
  O  O47  1  0.24676300  0.37137200  0.59858900  1
  O  O48  1  0.13698200  0.11502300  0.75919200  1
  O  O49  1  0.98573100  0.19004000  0.93017000  1
  O  O50  1  0.73813100  0.47522700  0.85410800  1
  O  O51  1  0.61157800  0.99802400  0.17291000  1
  O  O52  1  0.30067000  0.96975000  0.29240800  1
  O  O53  1  0.92592900  0.43531800  0.08736100  1
  O  O54  1  0.88785400  0.02114900  0.58015700  1
  O  O55  1  0.08825900  0.79392500  0.30240600  1
  O  O56  1  0.65822500  0.38945600  0.13236800  1
  O  O57  1  0.81000000  0.73630900  0.69997600  1
  O  O58  1  0.32810900  0.39290200  0.34706500  1
  O  O59  1  0.57501200  0.07804700  0.50281500  1
  O  O60  1  0.93640600  0.68486600  0.02413700  1
  O  O61  1  0.39151600  0.79582800  0.04872800  1
  O  O62  1  0.82162700  0.17454200  0.04708400  1
  O  O63  1  0.28731300  0.31537300  0.89759500  1
  O  O64  1  0.60318800  0.67817800  0.87663500  1
  O  O65  1  0.13984300  0.87466200  0.56115400  1
  O  O66  1  0.85577400  0.95068900  0.87078900  1
  O  O67  1  0.44906200  0.75497400  0.36639600  1
  O  O68  1  0.09664100  0.12674100  0.40640000  1
  O  O69  1  0.08452000  0.47524900  0.85851500  1
  O  O70  1  0.18417200  0.22829400  0.15831700  1
  O  O71  1  0.76853700  0.78389500  0.38768900  1
  O  O72  1  0.32762200  0.07251800  0.01569800  1
  O  O73  1  0.94149800  0.60002400  0.34944600  1
  O  O74  1  0.25281000  0.63012300  0.52863100  1
  O  O75  1  0.61840100  0.87611300  0.64106300  1
  O  O76  1  0.44688000  0.50010900  0.06957900  1
  O  O77  1  0.31786500  0.57462100  0.82402400  1
  O  O78  1  0.69584600  0.66254000  0.15982700  1
  O  O79  1  0.56131300  0.50605100  0.37353600  1
