# generated using pymatgen
data_ZnS
_symmetry_space_group_name_H-M   'P 1'
_cell_length_a   11.88412324
_cell_length_b   13.77204717
_cell_length_c   14.13430780
_cell_angle_alpha   91.79098788
_cell_angle_beta   93.57506762
_cell_angle_gamma   90.74888787
_symmetry_Int_Tables_number   1
_chemical_formula_structural   ZnS
_chemical_formula_sum   'Zn50 S50'
_cell_volume   2307.45254053
_cell_formula_units_Z   50
loop_
 _symmetry_equiv_pos_site_id
 _symmetry_equiv_pos_as_xyz
  1  'x, y, z'
loop_
 _atom_site_type_symbol
 _atom_site_label
 _atom_site_symmetry_multiplicity
 _atom_site_fract_x
 _atom_site_fract_y
 _atom_site_fract_z
 _atom_site_occupancy
  Zn  Zn0  1  0.31162130  0.79979675  0.15347632  1
  Zn  Zn1  1  0.05849785  0.94292386  0.94199769  1
  Zn  Zn2  1  0.54420737  0.00933566  0.81153556  1
  Zn  Zn3  1  0.17317369  0.26097420  0.27615969  1
  Zn  Zn4  1  0.01655289  0.71798666  0.25339735  1
  Zn  Zn5  1  0.38593107  0.41551721  0.42538135  1
  Zn  Zn6  1  0.13762816  0.21432501  0.70277111  1
  Zn  Zn7  1  0.88284737  0.82917789  0.93706292  1
  Zn  Zn8  1  0.90790038  0.56209105  0.78409635  1
  Zn  Zn9  1  0.11094617  0.29487388  0.53156368  1
  Zn  Zn10  1  0.58437067  0.12899750  0.58473773  1
  Zn  Zn11  1  0.97702561  0.96966162  0.57586620  1
  Zn  Zn12  1  0.25866078  0.32648970  0.81099785  1
  Zn  Zn13  1  0.19917304  0.54073126  0.55962561  1
  Zn  Zn14  1  0.89665637  0.50484966  0.48006154  1
  Zn  Zn15  1  0.59947840  0.22188646  0.41099261  1
  Zn  Zn16  1  0.23057270  0.16751906  0.09200148  1
  Zn  Zn17  1  0.86712423  0.08390238  0.68113449  1
  Zn  Zn18  1  0.34455487  0.90639051  0.89238847  1
  Zn  Zn19  1  0.18422096  0.37338032  0.11926790  1
  Zn  Zn20  1  0.12636576  0.71288680  0.86312335  1
  Zn  Zn21  1  0.61556827  0.90698369  0.40590183  1
  Zn  Zn22  1  0.85133822  0.33265219  0.64172783  1
  Zn  Zn23  1  0.76927919  0.02994284  0.36432929  1
  Zn  Zn24  1  0.16327777  0.12239183  0.54867078  1
  Zn  Zn25  1  0.74248662  0.01641959  0.54097725  1
  Zn  Zn26  1  0.75078169  0.84999173  0.20958332  1
  Zn  Zn27  1  0.61896718  0.72002601  0.82876740  1
  Zn  Zn28  1  0.30914895  0.96455892  0.63669039  1
  Zn  Zn29  1  0.51197449  0.08980590  0.18328352  1
  Zn  Zn30  1  0.65873332  0.47650486  0.95541985  1
  Zn  Zn31  1  0.73010947  0.57738377  0.64607133  1
  Zn  Zn32  1  0.38680224  0.21918451  0.98232402  1
  Zn  Zn33  1  0.86368177  0.01053361  0.96220774  1
  Zn  Zn34  1  0.38737727  0.06056036  0.41753503  1
  Zn  Zn35  1  0.17527802  0.20381966  0.91678722  1
  Zn  Zn36  1  0.90492328  0.43272123  0.18513855  1
  Zn  Zn37  1  0.35519632  0.60280170  0.94836529  1
  Zn  Zn38  1  0.11036880  0.51128011  0.71039531  1
  Zn  Zn39  1  0.75306530  0.73197913  0.42746910  1
  Zn  Zn40  1  0.01133548  0.39425005  0.81850313  1
  Zn  Zn41  1  0.61581850  0.45170729  0.39038945  1
  Zn  Zn42  1  0.37607247  0.31197267  0.19591217  1
  Zn  Zn43  1  0.82244488  0.66380572  0.05325996  1
  Zn  Zn44  1  0.98455994  0.12939539  0.20730400  1
  Zn  Zn45  1  0.60237346  0.39566956  0.17345066  1
  Zn  Zn46  1  0.51661505  0.78918662  0.61485963  1
  Zn  Zn47  1  0.51711293  0.86054470  0.04206203  1
  Zn  Zn48  1  0.27942994  0.66802212  0.36822373  1
  Zn  Zn49  1  0.93267744  0.66184199  0.64185980  1
  S  S50  1  0.36859332  0.10960615  0.56946888  1
  S  S51  1  0.35455053  0.83781817  0.52044955  1
  S  S52  1  0.71127645  0.01780284  0.19057959  1
  S  S53  1  0.94821154  0.74827899  0.40729238  1
  S  S54  1  0.25548682  0.60215633  0.81007942  1
  S  S55  1  0.20152564  0.36185161  0.40600598  1
  S  S56  1  0.82313037  0.08942803  0.10642163  1
  S  S57  1  0.42906252  0.70609854  0.06343555  1
  S  S58  1  0.68525583  0.78142490  0.96605396  1
  S  S59  1  0.94493645  0.23378612  0.74683067  1
  S  S60  1  0.77580048  0.44132653  0.83728470  1
  S  S61  1  0.75589881  0.37785262  0.28974316  1
  S  S62  1  0.48100990  0.01059066  0.96152422  1
  S  S63  1  0.19460767  0.53022085  0.18465704  1
  S  S64  1  0.09622651  0.76350893  0.70446804  1
  S  S65  1  0.74117991  0.22826969  0.30341540  1
  S  S66  1  0.55083034  0.35171625  0.50584964  1
  S  S67  1  0.01094530  0.29878951  0.16532499  1
  S  S68  1  0.68351065  0.84527624  0.55599898  1
  S  S69  1  0.06226515  0.01684013  0.43495243  1
  S  S70  1  0.94208506  0.11566613  0.37293680  1
  S  S71  1  0.69061161  0.18753302  0.82751574  1
  S  S72  1  0.19954239  0.78161211  0.27901771  1
  S  S73  1  0.04255745  0.10355587  0.97124805  1
  S  S74  1  0.69664203  0.41175017  0.69956975  1
  S  S75  1  0.41276172  0.89814554  0.39645048  1
  S  S76  1  0.44155627  0.17079013  0.31531369  1
  S  S77  1  0.92276017  0.34738939  0.50037101  1
  S  S78  1  0.56122894  0.64543432  0.69693848  1
  S  S79  1  0.46516739  0.46212141  0.26893991  1
  S  S80  1  0.53123603  0.24255882  0.10275601  1
  S  S81  1  0.94070497  0.83173087  0.67052386  1
  S  S82  1  0.75511963  0.04526020  0.81988681  1
  S  S83  1  0.63662368  0.77130928  0.30026539  1
  S  S84  1  0.35942952  0.58026306  0.48268241  1
  S  S85  1  0.44601646  0.34276195  0.86977727  1
  S  S86  1  0.74613875  0.51525371  0.09994530  1
  S  S87  1  0.14303431  0.37390380  0.94589756  1
  S  S88  1  0.17612478  0.09621266  0.22581567  1
  S  S89  1  0.90379227  0.79853381  0.13803855  1
  S  S90  1  0.02061001  0.63540368  0.49290068  1
  S  S91  1  0.20053605  0.83948550  0.96604934  1
  S  S92  1  0.43062633  0.88205069  0.74844508  1
  S  S93  1  0.44803122  0.92857521  0.18016322  1
  S  S94  1  0.71994447  0.57438921  0.47646403  1
  S  S95  1  0.13616311  0.02694177  0.69090863  1
  S  S96  1  0.02450545  0.56672611  0.17342108  1
  S  S97  1  0.94590415  0.66744059  0.91773527  1
  S  S98  1  0.46898140  0.45889045  0.97112513  1
  S  S99  1  0.53999328  0.16511031  0.74520594  1
