# generated using pymatgen
data_Cr(FeO2)3
_symmetry_space_group_name_H-M   'P 1'
_cell_length_a   10.44217522
_cell_length_b   10.42179450
_cell_length_c   9.38718181
_cell_angle_alpha   93.02192581
_cell_angle_beta   92.77706968
_cell_angle_gamma   89.74074707
_symmetry_Int_Tables_number   1
_chemical_formula_structural   Cr(FeO2)3
_chemical_formula_sum   'Cr8 Fe24 O48'
_cell_volume   1018.95075665
_cell_formula_units_Z   8
loop_
 _symmetry_equiv_pos_site_id
 _symmetry_equiv_pos_as_xyz
  1  'x, y, z'
loop_
 _atom_site_type_symbol
 _atom_site_label
 _atom_site_symmetry_multiplicity
 _atom_site_fract_x
 _atom_site_fract_y
 _atom_site_fract_z
 _atom_site_occupancy
  Cr  Cr0  1  0.58089800  0.34082100  0.69580200  1
  Cr  Cr1  1  0.47641400  0.49355800  0.38772300  1
  Cr  Cr2  1  0.61363800  0.73038600  0.88066200  1
  Cr  Cr3  1  0.96053400  0.69832100  0.45549800  1
  Cr  Cr4  1  0.78774500  0.44276700  0.42362900  1
  Cr  Cr5  1  0.51075000  0.37958000  0.09979700  1
  Cr  Cr6  1  0.92790300  0.02571200  0.55232500  1
  Cr  Cr7  1  0.04863900  0.54218700  0.70267300  1
  Fe  Fe8  1  0.19594400  0.89430400  0.36987400  1
  Fe  Fe9  1  0.20715300  0.34867200  0.07129100  1
  Fe  Fe10  1  0.54813000  0.04679000  0.05120300  1
  Fe  Fe11  1  0.38411000  0.15872100  0.28415100  1
  Fe  Fe12  1  0.80233000  0.99121800  0.06506500  1
  Fe  Fe13  1  0.38971300  0.07346100  0.60855700  1
  Fe  Fe14  1  0.43622300  0.81285700  0.54438700  1
  Fe  Fe15  1  0.65549900  0.01206000  0.72406700  1
  Fe  Fe16  1  0.48738500  0.79424600  0.14238900  1
  Fe  Fe17  1  0.07897800  0.76417300  0.00836100  1
  Fe  Fe18  1  0.70749100  0.61470300  0.22001900  1
  Fe  Fe19  1  0.25972400  0.30865900  0.61643800  1
  Fe  Fe20  1  0.04089000  0.17268800  0.28561300  1
  Fe  Fe21  1  0.70730700  0.67879700  0.59948700  1
  Fe  Fe22  1  0.38542000  0.53884600  0.83809200  1
  Fe  Fe23  1  0.95848700  0.25456800  0.84266200  1
  Fe  Fe24  1  0.81532700  0.27803500  0.15206400  1
  Fe  Fe25  1  0.19280800  0.06149500  0.87129800  1
  Fe  Fe26  1  0.75263500  0.48465000  0.89579700  1
  Fe  Fe27  1  0.07864100  0.44662300  0.35765700  1
  Fe  Fe28  1  0.91901200  0.83105000  0.79240300  1
  Fe  Fe29  1  0.27928400  0.63215600  0.24718500  1
  Fe  Fe30  1  0.23217100  0.75977500  0.71248900  1
  Fe  Fe31  1  0.64027300  0.95469700  0.37552600  1
  O  O32  1  0.95416900  0.40644400  0.74683100  1
  O  O33  1  0.61478700  0.87733500  0.00819400  1
  O  O34  1  0.45787900  0.19938000  0.08787100  1
  O  O35  1  0.94138400  0.85302600  0.58759700  1
  O  O36  1  0.40622500  0.96236300  0.13451800  1
  O  O37  1  0.54988100  0.17222900  0.68696900  1
  O  O38  1  0.92927300  0.31436400  0.35378600  1
  O  O39  1  0.36513100  0.78597600  0.33701700  1
  O  O40  1  0.28056800  0.16777700  0.73952300  1
  O  O41  1  0.71314700  0.08113700  0.91294500  1
  O  O42  1  0.34997100  0.41876500  0.98932600  1
  O  O43  1  0.58871000  0.39314600  0.90020900  1
  O  O44  1  0.31693500  0.53883700  0.41706700  1
  O  O45  1  0.48240500  0.03907400  0.41597800  1
  O  O46  1  0.26651800  0.90491100  0.57450600  1
  O  O47  1  0.75634400  0.03626000  0.53636600  1
  O  O48  1  0.92892100  0.12462200  0.12881100  1
  O  O49  1  0.20395200  0.21994600  0.21634800  1
  O  O50  1  0.73872700  0.82236700  0.76192700  1
  O  O51  1  0.61481500  0.81650900  0.51540700  1
  O  O52  1  0.10968300  0.67219100  0.57318100  1
  O  O53  1  0.20472500  0.58407400  0.81433700  1
  O  O54  1  0.65662000  0.78973000  0.25442700  1
  O  O55  1  0.47220400  0.57163300  0.20784100  1
  O  O56  1  0.65030800  0.57520500  0.74431500  1
  O  O57  1  0.85041100  0.34713800  0.96661900  1
  O  O58  1  0.39955500  0.68897500  0.68195300  1
  O  O59  1  0.69409100  0.34944800  0.56450400  1
  O  O60  1  0.68877800  0.05501600  0.21314900  1
  O  O61  1  0.46195500  0.33955900  0.30041300  1
  O  O62  1  0.14906200  0.49916300  0.17769200  1
  O  O63  1  0.98031400  0.66737200  0.84726000  1
  O  O64  1  0.03624900  0.02163500  0.40001700  1
  O  O65  1  0.11556500  0.23440200  0.94027900  1
  O  O66  1  0.64381900  0.56757500  0.43171800  1
  O  O67  1  0.87459200  0.58346200  0.57640000  1
  O  O68  1  0.41495000  0.41123900  0.67048600  1
  O  O69  1  0.69424600  0.41444300  0.21424000  1
  O  O70  1  0.29725600  0.18641500  0.46774600  1
  O  O71  1  0.97401600  0.09245900  0.72518200  1
  O  O72  1  0.16493600  0.86886500  0.87114300  1
  O  O73  1  0.72536800  0.63200500  0.01698000  1
  O  O74  1  0.48782800  0.94131800  0.71777600  1
  O  O75  1  0.45510700  0.67964000  0.96637100  1
  O  O76  1  0.12453100  0.41611200  0.56054700  1
  O  O77  1  0.88415800  0.58400600  0.30958600  1
  O  O78  1  0.93234500  0.87760700  0.99549900  1
  O  O79  1  0.13927100  0.76703400  0.20135400  1
