# generated using pymatgen
data_Al2O3
_symmetry_space_group_name_H-M   'P 1'
_cell_length_a   10.23321564
_cell_length_b   10.16520458
_cell_length_c   10.49788258
_cell_angle_alpha   90.85493955
_cell_angle_beta   92.22224913
_cell_angle_gamma   87.56566672
_symmetry_Int_Tables_number   1
_chemical_formula_structural   Al2O3
_chemical_formula_sum   'Al40 O60'
_cell_volume   1090.11602861
_cell_formula_units_Z   20
loop_
 _symmetry_equiv_pos_site_id
 _symmetry_equiv_pos_as_xyz
  1  'x, y, z'
loop_
 _atom_site_type_symbol
 _atom_site_label
 _atom_site_symmetry_multiplicity
 _atom_site_fract_x
 _atom_site_fract_y
 _atom_site_fract_z
 _atom_site_occupancy
  Al  Al0  1  0.96028900  0.33958300  0.62646700  1
  Al  Al1  1  0.56451200  0.53620000  0.39695200  1
  Al  Al2  1  0.21145100  0.21871300  0.20821300  1
  Al  Al3  1  0.32197000  0.55299900  0.94440700  1
  Al  Al4  1  0.47592000  0.64049800  0.65658100  1
  Al  Al5  1  0.06938200  0.49059200  0.16752700  1
  Al  Al6  1  0.18589000  0.99946800  0.89853900  1
  Al  Al7  1  0.28092800  0.67336000  0.30590700  1
  Al  Al8  1  0.96451900  0.93299400  0.77221000  1
  Al  Al9  1  0.80850300  0.71547500  0.29887600  1
  Al  Al10  1  0.08777100  0.51534400  0.82043700  1
  Al  Al11  1  0.44613700  0.94665400  0.62472400  1
  Al  Al12  1  0.09674800  0.74487800  0.05048900  1
  Al  Al13  1  0.23073500  0.48949400  0.55376900  1
  Al  Al14  1  0.78612500  0.00958500  0.21604600  1
  Al  Al15  1  0.67589500  0.26805400  0.70937800  1
  Al  Al16  1  0.28578200  0.77834000  0.80816600  1
  Al  Al17  1  0.47567600  0.99110600  0.99634500  1
  Al  Al18  1  0.44199700  0.32625100  0.51843200  1
  Al  Al19  1  0.69473700  0.23803400  0.97526700  1
  Al  Al20  1  0.44558100  0.42926400  0.17647000  1
  Al  Al21  1  0.05247700  0.89701200  0.37601700  1
  Al  Al22  1  0.19518500  0.13854500  0.50080200  1
  Al  Al23  1  0.54013000  0.80990200  0.39725000  1
  Al  Al24  1  0.87023800  0.52299500  0.98548000  1
  Al  Al25  1  0.01858500  0.63687300  0.52009800  1
  Al  Al26  1  0.76369200  0.83069000  0.57225000  1
  Al  Al27  1  0.38709500  0.16478800  0.75273600  1
  Al  Al28  1  0.98687300  0.07130500  0.02757700  1
  Al  Al29  1  0.66595400  0.23450700  0.40227800  1
  Al  Al30  1  0.91013700  0.07536700  0.50309500  1
  Al  Al31  1  0.50644500  0.17121300  0.20658900  1
  Al  Al32  1  0.14202000  0.28385300  0.91432400  1
  Al  Al33  1  0.33738700  0.94879600  0.29875400  1
  Al  Al34  1  0.66792100  0.97052100  0.81623000  1
  Al  Al35  1  0.79081800  0.55811900  0.70190200  1
  Al  Al36  1  0.97152900  0.36147000  0.36902000  1
  Al  Al37  1  0.58101000  0.53992700  0.89822600  1
  Al  Al38  1  0.77071700  0.78688400  0.00168000  1
  Al  Al39  1  0.75645300  0.42444200  0.21407500  1
  O  O40  1  0.04231600  0.44041300  0.00459700  1
  O  O41  1  0.55705800  0.15246800  0.03407500  1
  O  O42  1  0.41166100  0.02082800  0.16325800  1
  O  O43  1  0.71247900  0.82725000  0.40689300  1
  O  O44  1  0.83192200  0.87151800  0.85755500  1
  O  O45  1  0.09055600  0.99529400  0.51002200  1
  O  O46  1  0.62647900  0.36898600  0.86347500  1
  O  O47  1  0.10982900  0.35113200  0.26866100  1
  O  O48  1  0.19359200  0.84380600  0.29776300  1
  O  O49  1  0.62807500  0.89530800  0.65706100  1
  O  O50  1  0.25638300  0.31412800  0.52137000  1
  O  O51  1  0.26267900  0.15658800  0.86728700  1
  O  O52  1  0.63022000  0.60009900  0.73877000  1
  O  O53  1  0.01465200  0.07934500  0.86070900  1
  O  O54  1  0.75386200  0.16358400  0.54192700  1
  O  O55  1  0.08719200  0.92004400  0.04067800  1
  O  O56  1  0.35281100  0.28913000  0.15810700  1
  O  O57  1  0.18356000  0.66876500  0.91573100  1
  O  O58  1  0.91571600  0.01083300  0.33566800  1
  O  O59  1  0.50207100  0.25390100  0.66760500  1
  O  O60  1  0.31509900  0.07877600  0.62083200  1
  O  O61  1  0.05521400  0.33767600  0.76657900  1
  O  O62  1  0.39713400  0.49748600  0.59446300  1
  O  O63  1  0.79962700  0.38410300  0.66916500  1
  O  O64  1  0.18479300  0.61171400  0.43625800  1
  O  O65  1  0.62078200  0.89032100  0.96404600  1
  O  O66  1  0.18350700  0.62078800  0.16063700  1
  O  O67  1  0.01116800  0.22373400  0.50451300  1
  O  O68  1  0.96221600  0.74770300  0.39093900  1
  O  O69  1  0.11575800  0.18412000  0.06345200  1
  O  O70  1  0.12918300  0.58429800  0.66724000  1
  O  O71  1  0.83038500  0.09742500  0.07856200  1
  O  O72  1  0.44377800  0.94404600  0.45113600  1
  O  O73  1  0.40613100  0.52689700  0.31129000  1
  O  O74  1  0.60600300  0.39425200  0.48213100  1
  O  O75  1  0.98811100  0.46385800  0.50675200  1
  O  O76  1  0.93807200  0.68538900  0.04489000  1
  O  O77  1  0.91848000  0.51600500  0.24538800  1
  O  O78  1  0.71183600  0.62013300  0.98407600  1
  O  O79  1  0.13314000  0.87660600  0.77727200  1
  O  O80  1  0.69128200  0.58269500  0.29311700  1
  O  O81  1  0.79546500  0.37489000  0.05250700  1
  O  O82  1  0.88477600  0.94513400  0.61899600  1
  O  O83  1  0.48028100  0.21723700  0.38545000  1
  O  O84  1  0.24518500  0.41976100  0.88079100  1
  O  O85  1  0.48937100  0.02802000  0.80013300  1
  O  O86  1  0.23001900  0.10246900  0.33137500  1
  O  O87  1  0.78294500  0.83630800  0.17177200  1
  O  O88  1  0.81571200  0.30636300  0.33184200  1
  O  O89  1  0.59717800  0.35042100  0.21173800  1
  O  O90  1  0.42216900  0.77649100  0.27518700  1
  O  O91  1  0.85324200  0.67540700  0.59737800  1
  O  O92  1  0.46231200  0.51947400  0.03791300  1
  O  O93  1  0.72752600  0.14003300  0.82418600  1
  O  O94  1  0.33171000  0.89802800  0.93476000  1
  O  O95  1  0.54399900  0.67359500  0.50120000  1
  O  O96  1  0.37535400  0.79465300  0.66547500  1
  O  O97  1  0.91360200  0.55851500  0.82429500  1
  O  O98  1  0.65717000  0.09697000  0.28132600  1
  O  O99  1  0.41540400  0.63006600  0.83114000  1
