# generated using pymatgen
data_CoO2
_symmetry_space_group_name_H-M   'P 1'
_cell_length_a   10.74344722
_cell_length_b   10.29001624
_cell_length_c   10.45380826
_cell_angle_alpha   84.88021603
_cell_angle_beta   93.66105101
_cell_angle_gamma   89.93631826
_symmetry_Int_Tables_number   1
_chemical_formula_structural   CoO2
_chemical_formula_sum   'Co30 O60'
_cell_volume   1148.68433350
_cell_formula_units_Z   30
loop_
 _symmetry_equiv_pos_site_id
 _symmetry_equiv_pos_as_xyz
  1  'x, y, z'
loop_
 _atom_site_type_symbol
 _atom_site_label
 _atom_site_symmetry_multiplicity
 _atom_site_fract_x
 _atom_site_fract_y
 _atom_site_fract_z
 _atom_site_occupancy
  Co  Co0  1  0.74847875  0.37402494  0.95468134  1
  Co  Co1  1  0.54050678  0.07998265  0.48309735  1
  Co  Co2  1  0.17459199  0.50973677  0.20136343  1
  Co  Co3  1  0.23480358  0.75374321  0.00333903  1
  Co  Co4  1  0.61947143  0.37111955  0.49893443  1
  Co  Co5  1  0.27651403  0.25584713  0.39450060  1
  Co  Co6  1  0.75733652  0.57354307  0.74675641  1
  Co  Co7  1  0.92393042  0.00768766  0.56563835  1
  Co  Co8  1  -0.00456702  0.27148430  0.18052068  1
  Co  Co9  1  0.98351038  0.55446161  0.98783515  1
  Co  Co10  1  0.24615338  0.25681327  0.72830560  1
  Co  Co11  1  0.62585880  0.62217051  0.33503643  1
  Co  Co12  1  0.91478727  0.01201350  0.07961720  1
  Co  Co13  1  0.17494606  0.22997306  0.01203341  1
  Co  Co14  1  0.23237979  0.04420203  0.57179125  1
  Co  Co15  1  0.08279071  0.82492591  0.42470912  1
  Co  Co16  1  0.46915844  0.50184720  0.66375847  1
  Co  Co17  1  0.55839826  0.78426136  0.06838984  1
  Co  Co18  1  0.47099002  0.26899996  0.88267585  1
  Co  Co19  1  0.99523953  0.33461059  0.80649587  1
  Co  Co20  1  0.35674075  0.97432732  0.89173913  1
  Co  Co21  1  0.62436239  0.12485936  0.02521423  1
  Co  Co22  1  0.76162265  0.85287639  0.91782291  1
  Co  Co23  1  0.11783403  0.58216275  0.75219963  1
  Co  Co24  1  0.69313424  0.89349481  0.26685277  1
  Co  Co25  1  0.83889677  0.61857155  0.20457190  1
  Co  Co26  1  0.83115391  0.33671506  0.38173915  1
  Co  Co27  1  0.04198605  0.00001237  0.82473223  1
  Co  Co28  1  0.49057563  0.20019133  0.22928437  1
  Co  Co29  1  0.74093949  0.18264926  0.71586188  1
  O  O30  1  0.19843154  0.90825231  0.89801435  1
  O  O31  1  0.39108592  0.84075916  0.02354758  1
  O  O32  1  0.87998722  0.07665266  0.70917167  1
  O  O33  1  0.82452794  0.22715143  0.21464529  1
  O  O34  1  0.78235333  0.30623302  0.54778688  1
  O  O35  1  0.76553967  0.93961238  0.53045326  1
  O  O36  1  0.51895466  0.26412571  0.05484434  1
  O  O37  1  0.08047747  0.98950782  0.65335785  1
  O  O38  1  0.64281114  0.49264213  0.62385069  1
  O  O39  1  0.09156757  0.18154237  0.84225905  1
  O  O40  1  0.73154477  0.25547796  0.11816121  1
  O  O41  1  0.37936593  0.66284981  0.82224983  1
  O  O42  1  0.19221745  0.22437443  0.54691575  1
  O  O43  1  0.54759460  0.77333810  0.25154635  1
  O  O44  1  0.59749419  0.15532743  0.63041977  1
  O  O45  1  0.65037408  0.24863547  0.86902802  1
  O  O46  1  0.36525685  0.11128462  0.46918467  1
  O  O47  1  0.50382716  0.49811283  0.40549260  1
  O  O48  1  0.22351928  0.65510133  0.60608577  1
  O  O49  1  0.12694403  0.39990135  0.71966946  1
  O  O50  1  0.57979295  0.25020249  0.37536257  1
  O  O51  1  0.79211123  0.73341645  0.82145726  1
  O  O52  1  0.75102562  0.01753449  0.98421096  1
  O  O53  1  0.22450605  0.90310889  0.49535546  1
  O  O54  1  0.09855477  0.38581823  0.07997632  1
  O  O55  1  0.10613525  0.65649939  0.92158075  1
  O  O56  1  0.11815618  0.84919767  0.14984974  1
  O  O57  1  0.30486281  0.27439505  0.92088343  1
  O  O58  1  0.21610250  0.41691561  0.34838977  1
  O  O59  1  0.76299049  0.71918005  0.33957864  1
  O  O60  1  0.05238840  0.12926669  0.10241630  1
  O  O61  1  0.98928849  0.71369151  0.36894296  1
  O  O62  1  0.47384584  0.66785395  0.73921809  1
  O  O63  1  0.41838924  0.33704646  0.71434145  1
  O  O64  1  0.00524301  0.60976856  0.15480151  1
  O  O65  1  0.58558788  0.04649393  0.18080920  1
  O  O66  1  0.56805963  0.79904429  0.55133175  1
  O  O67  1  0.85370226  0.94712969  0.22293785  1
  O  O68  1  0.27818791  0.62120216  0.12173786  1
  O  O69  1  0.42420229  0.55227734  0.48937387  1
  O  O70  1  0.48999103  0.88879954  0.52591822  1
  O  O71  1  0.85755951  0.65888699  0.59949087  1
  O  O72  1  0.17720456  0.85395997  0.25694611  1
  O  O73  1  0.84372335  0.48662879  0.05086904  1
  O  O74  1  0.19320829  0.66415665  0.48496800  1
  O  O75  1  0.59131715  0.83770330  0.90765007  1
  O  O76  1  0.72647362  0.74521167  0.09075230  1
  O  O77  1  0.30985319  0.07948746  0.74004846  1
  O  O78  1  0.65576111  0.50031840  0.88194901  1
  O  O79  1  0.31437772  0.55024352  0.81697834  1
  O  O80  1  0.94159346  0.91023688  0.93492629  1
  O  O81  1  0.96214895  0.70763492  0.63328028  1
  O  O82  1  0.32648230  0.23308855  0.23200538  1
  O  O83  1  0.73764909  0.48961229  0.29752664  1
  O  O84  1  0.49267676  0.07590650  0.91147544  1
  O  O85  1  0.69868183  -0.00139053  0.42242843  1
  O  O86  1  0.98675036  0.32918963  0.33901760  1
  O  O87  1  0.87473341  0.27111536  0.90257649  1
  O  O88  1  0.98773164  0.97872187  0.42315036  1
  O  O89  1  0.94114904  0.50562351  0.81718454  1
