# generated using pymatgen
data_Al2O3
_symmetry_space_group_name_H-M   'P 1'
_cell_length_a   10.35972124
_cell_length_b   10.36448392
_cell_length_c   10.48079158
_cell_angle_alpha   93.67248115
_cell_angle_beta   89.97627455
_cell_angle_gamma   88.85181623
_symmetry_Int_Tables_number   1
_chemical_formula_structural   Al2O3
_chemical_formula_sum   'Al40 O60'
_cell_volume   1122.81771752
_cell_formula_units_Z   20
loop_
 _symmetry_equiv_pos_site_id
 _symmetry_equiv_pos_as_xyz
  1  'x, y, z'
loop_
 _atom_site_type_symbol
 _atom_site_label
 _atom_site_symmetry_multiplicity
 _atom_site_fract_x
 _atom_site_fract_y
 _atom_site_fract_z
 _atom_site_occupancy
  Al  Al0  1  0.34711200  0.52216800  0.26095000  1
  Al  Al1  1  0.35993000  0.10075400  0.40442700  1
  Al  Al2  1  0.53816700  0.75942500  0.64212200  1
  Al  Al3  1  0.76696300  0.87220500  0.82863000  1
  Al  Al4  1  0.29928000  0.94658400  0.69649800  1
  Al  Al5  1  0.80145700  0.61875900  0.76398500  1
  Al  Al6  1  0.31936400  0.38064200  0.52738200  1
  Al  Al7  1  0.15920100  0.89057700  0.01295200  1
  Al  Al8  1  0.42363100  0.69405500  0.08295600  1
  Al  Al9  1  0.86963000  0.49499700  0.45884400  1
  Al  Al10  1  0.74220500  0.74598200  0.41182100  1
  Al  Al11  1  0.83610900  0.25876600  0.24731700  1
  Al  Al12  1  0.91701200  0.88152300  0.29242600  1
  Al  Al13  1  0.35116800  0.82317500  0.42128400  1
  Al  Al14  1  0.07108300  0.79995100  0.54135500  1
  Al  Al15  1  0.26755700  0.10677600  0.93252600  1
  Al  Al16  1  0.95717500  0.39749100  0.95883000  1
  Al  Al17  1  0.66645500  0.24768200  0.45263800  1
  Al  Al18  1  0.63191200  0.01098900  0.38775000  1
  Al  Al19  1  0.54987200  0.15366200  0.16386600  1
  Al  Al20  1  0.06291200  0.10456600  0.20083200  1
  Al  Al21  1  0.85851800  0.08811700  0.98795400  1
  Al  Al22  1  0.67574800  0.82689200  0.15813900  1
  Al  Al23  1  0.37358300  0.98623700  0.15760400  1
  Al  Al24  1  0.06386500  0.52510400  0.64442700  1
  Al  Al25  1  0.07872200  0.26919100  0.45610000  1
  Al  Al26  1  0.73372900  0.99775700  0.62577200  1
  Al  Al27  1  0.67740500  0.34089400  0.94758000  1
  Al  Al28  1  0.54110300  0.54538100  0.48880400  1
  Al  Al29  1  0.78349400  0.53444300  0.16354200  1
  Al  Al30  1  0.26242200  0.45105500  0.97686000  1
  Al  Al31  1  0.60113700  0.44008500  0.71143900  1
  Al  Al32  1  0.28200100  0.64524600  0.72348400  1
  Al  Al33  1  0.03972900  0.43889700  0.21427900  1
  Al  Al34  1  0.11773900  0.26805200  0.72473400  1
  Al  Al35  1  0.93678500  0.72356700  0.02083800  1
  Al  Al36  1  0.39929300  0.25418300  0.79224300  1
  Al  Al37  1  0.18647800  0.71717000  0.24204900  1
  Al  Al38  1  0.56631700  0.04636900  0.90964000  1
  Al  Al39  1  0.04387600  0.99300000  0.78462700  1
  O  O40  1  0.92196300  0.78973400  0.44183600  1
  O  O41  1  0.42575200  0.03737100  0.00565000  1
  O  O42  1  0.62374200  0.99129900  0.75590500  1
  O  O43  1  0.51054400  0.57512500  0.66339400  1
  O  O44  1  0.31407600  0.28498200  0.93810100  1
  O  O45  1  0.03715100  0.20087600  0.59369900  1
  O  O46  1  0.29143500  0.30171900  0.67726400  1
  O  O47  1  0.73221100  0.47546900  0.81381500  1
  O  O48  1  0.89686400  0.11857600  0.15086200  1
  O  O49  1  0.31118600  0.83026300  0.07958000  1
  O  O50  1  0.38137100  0.08557700  0.78449700  1
  O  O51  1  0.04764800  0.98066400  0.30113700  1
  O  O52  1  0.87056900  0.96611900  0.72604700  1
  O  O53  1  0.59243700  0.37458200  0.55043700  1
  O  O54  1  0.56323900  0.97334400  0.21044400  1
  O  O55  1  0.69890900  0.67881400  0.24809300  1
  O  O56  1  0.65360300  0.86727900  0.52841900  1
  O  O57  1  0.89040600  0.37005600  0.14033200  1
  O  O58  1  0.88099100  0.74088600  0.86403700  1
  O  O59  1  0.39432500  0.15962900  0.23103100  1
  O  O60  1  0.89522100  0.56136000  0.02409900  1
  O  O61  1  0.21207800  0.93336700  0.86013700  1
  O  O62  1  0.28050400  0.57681900  0.87246800  1
  O  O63  1  0.84444000  0.25417900  0.92146900  1
  O  O64  1  0.35773300  0.96452300  0.53734300  1
  O  O65  1  0.10883000  0.69436700  0.67127400  1
  O  O66  1  0.47338200  0.71286800  0.48040600  1
  O  O67  1  0.17528400  0.54073900  0.25971000  1
  O  O68  1  0.04557200  0.41939200  0.78960000  1
  O  O69  1  0.37869000  0.78953700  0.71420500  1
  O  O70  1  0.67368400  0.20257700  0.27386000  1
  O  O71  1  0.37798800  0.51938900  0.09225100  1
  O  O72  1  0.41529600  0.45562400  0.39785100  1
  O  O73  1  0.11459000  0.15141100  0.83857700  1
  O  O74  1  0.57039800  0.75530600  0.04215200  1
  O  O75  1  0.18293400  0.76835100  0.41125800  1
  O  O76  1  0.66036700  0.44665600  0.08320000  1
  O  O77  1  0.24940100  0.52050700  0.60186400  1
  O  O78  1  0.18976600  0.05683000  0.08996800  1
  O  O79  1  0.36701500  0.69588600  0.26025200  1
  O  O80  1  0.09071500  0.75470500  0.09796800  1
  O  O81  1  0.05042000  0.26275800  0.28562600  1
  O  O82  1  0.85489200  0.82471200  0.13360900  1
  O  O83  1  0.55222800  0.31974100  0.81077000  1
  O  O84  1  0.91275600  0.54442700  0.29851700  1
  O  O85  1  0.32710200  0.94985700  0.31261500  1
  O  O86  1  0.81499700  0.33319200  0.40963900  1
  O  O87  1  0.52119200  0.13448300  0.45072200  1
  O  O88  1  0.10879500  0.41204500  0.04765000  1
  O  O89  1  0.12340600  0.93836500  0.63803200  1
  O  O90  1  0.04234000  0.43640400  0.48968600  1
  O  O91  1  0.68092400  0.74380300  0.74117200  1
  O  O92  1  0.70785900  0.58757000  0.46845600  1
  O  O93  1  0.75151000  0.90515300  0.32204200  1
  O  O94  1  0.60907400  0.19295400  0.00921500  1
  O  O95  1  0.98801200  0.96648200  0.94904800  1
  O  O96  1  0.89149300  0.56621800  0.62668100  1
  O  O97  1  0.74646000  0.10379600  0.50511900  1
  O  O98  1  0.25408100  0.24246000  0.44068900  1
  O  O99  1  0.72471900  0.97516800  0.96843100  1
