# generated using pymatgen
data_SnO
_symmetry_space_group_name_H-M   'P 1'
_cell_length_a   11.74637383
_cell_length_b   12.83885385
_cell_length_c   11.71742890
_cell_angle_alpha   89.04503959
_cell_angle_beta   92.05166865
_cell_angle_gamma   88.32496440
_symmetry_Int_Tables_number   1
_chemical_formula_structural   SnO
_chemical_formula_sum   'Sn40 O40'
_cell_volume   1764.94022930
_cell_formula_units_Z   40
loop_
 _symmetry_equiv_pos_site_id
 _symmetry_equiv_pos_as_xyz
  1  'x, y, z'
loop_
 _atom_site_type_symbol
 _atom_site_label
 _atom_site_symmetry_multiplicity
 _atom_site_fract_x
 _atom_site_fract_y
 _atom_site_fract_z
 _atom_site_occupancy
  Sn  Sn0  1  0.78933889  0.06964823  0.74896669  1
  Sn  Sn1  1  0.77873532  0.53994189  0.22713028  1
  Sn  Sn2  1  0.61558735  0.56162942  0.53404933  1
  Sn  Sn3  1  0.68515411  0.85717399  0.25555174  1
  Sn  Sn4  1  0.92921686  0.00046746  0.49176459  1
  Sn  Sn5  1  0.32013607  0.20190304  0.47270880  1
  Sn  Sn6  1  0.91460213  0.52436320  0.59940769  1
  Sn  Sn7  1  0.24282724  0.87051208  0.13075164  1
  Sn  Sn8  1  0.17119673  0.94648249  0.39695821  1
  Sn  Sn9  1  0.65678647  0.30342497  0.87212874  1
  Sn  Sn10  1  0.65688965  0.03450311  0.98998310  1
  Sn  Sn11  1  0.43639158  0.82652159  0.40792432  1
  Sn  Sn12  1  0.93493220  0.97935702  0.18487170  1
  Sn  Sn13  1  0.05187209  0.23640330  0.69140501  1
  Sn  Sn14  1  0.72650850  0.27102143  0.19146061  1
  Sn  Sn15  1  0.37610775  0.10603398  0.19029745  1
  Sn  Sn16  1  0.52630544  0.06016923  0.67837028  1
  Sn  Sn17  1  0.91874680  0.20933620  0.00496453  1
  Sn  Sn18  1  0.37068621  0.04756141  0.91831179  1
  Sn  Sn19  1  0.04805749  0.96540590  0.88148540  1
  Sn  Sn20  1  0.39888546  0.44358415  0.01170529  1
  Sn  Sn21  1  0.05694212  0.44533279  0.18841089  1
  Sn  Sn22  1  0.33211609  0.43497227  0.26368965  1
  Sn  Sn23  1  0.51035164  0.67362360  0.13429044  1
  Sn  Sn24  1  0.52336691  0.63577534  0.83078293  1
  Sn  Sn25  1  0.94252651  0.76867828  0.69532699  1
  Sn  Sn26  1  0.71968311  0.33243990  0.60510795  1
  Sn  Sn27  1  0.38112660  0.29056541  0.76392375  1
  Sn  Sn28  1  0.21347521  0.66075615  0.58674420  1
  Sn  Sn29  1  0.18118952  0.56727701  0.93261573  1
  Sn  Sn30  1  0.55908818  0.07938010  0.39390937  1
  Sn  Sn31  1  0.95095061  0.66316858  0.00113177  1
  Sn  Sn32  1  0.17542781  0.41888361  0.52166568  1
  Sn  Sn33  1  0.86944440  0.46282260  0.88883445  1
  Sn  Sn34  1  0.02981661  0.21203662  0.38802526  1
  Sn  Sn35  1  0.26440688  0.96644378  0.67389839  1
  Sn  Sn36  1  0.19507187  0.27780122  0.00657757  1
  Sn  Sn37  1  0.94084791  0.73372600  0.41109608  1
  Sn  Sn38  1  0.67295670  0.83162620  0.61943797  1
  Sn  Sn39  1  0.27574349  0.79075809  0.84428876  1
  O  O40  1  0.01071075  0.38337430  0.58717804  1
  O  O41  1  0.97427579  0.15658595  0.55060801  1
  O  O42  1  0.59433263  0.66305374  0.98719727  1
  O  O43  1  0.49262496  0.06712573  0.05520431  1
  O  O44  1  0.80289393  0.46990191  0.72308826  1
  O  O45  1  0.82680833  0.76019930  0.54858403  1
  O  O46  1  0.47341301  0.50387704  0.15406138  1
  O  O47  1  0.35766117  0.59146608  0.94685478  1
  O  O48  1  0.06276661  0.76502970  0.56233195  1
  O  O49  1  0.26289182  0.02909108  0.06541101  1
  O  O50  1  0.29955698  0.19967911  0.89422453  1
  O  O51  1  0.10201331  0.90075834  0.23156411  1
  O  O52  1  0.74151517  0.96117810  0.12716649  1
  O  O53  1  0.51404655  0.17632094  0.79959425  1
  O  O54  1  0.66455652  0.16633978  0.29661280  1
  O  O55  1  0.19895475  0.65155887  0.76632408  1
  O  O56  1  0.31641203  0.90743460  0.50901401  1
  O  O57  1  0.86146990  0.86661083  0.31228639  1
  O  O58  1  0.14676541  0.45281162  0.34369299  1
  O  O59  1  0.73818893  0.41344244  0.98115703  1
  O  O60  1  0.24270867  0.41320036  0.90892572  1
  O  O61  1  0.68546890  0.67651627  0.22299302  1
  O  O62  1  0.59508069  0.14586833  0.54813776  1
  O  O63  1  0.60193059  0.91011479  0.46661973  1
  O  O64  1  0.43785559  0.77500921  0.80051088  1
  O  O65  1  0.94406157  0.58879513  0.16212950  1
  O  O66  1  0.49185781  0.36991532  0.89656764  1
  O  O67  1  0.82081653  0.91412996  0.70684386  1
  O  O68  1  0.32715404  0.92323215  0.28484734  1
  O  O69  1  0.91851583  0.08415167  0.88341931  1
  O  O70  1  0.56941872  0.41902627  0.58486499  1
  O  O71  1  0.34421924  0.31926090  0.11285754  1
  O  O72  1  0.18522016  0.11268305  0.40020994  1
  O  O73  1  0.34477428  0.10638900  0.62788515  1
  O  O74  1  0.77398506  0.49083589  0.49025877  1
  O  O75  1  0.21420702  0.50340720  0.12877108  1
  O  O76  1  0.93554309  0.08074314  0.33009445  1
  O  O77  1  0.70962855  0.19397668  0.01809264  1
  O  O78  1  0.93662054  0.31234230  0.86604672  1
  O  O79  1  0.10812507  0.03347732  0.73655125  1
