# generated using pymatgen
data_SnO
_symmetry_space_group_name_H-M   'P 1'
_cell_length_a   12.06359624
_cell_length_b   12.24474111
_cell_length_c   12.21537064
_cell_angle_alpha   83.43846574
_cell_angle_beta   94.26192711
_cell_angle_gamma   88.40044737
_symmetry_Int_Tables_number   1
_chemical_formula_structural   SnO
_chemical_formula_sum   'Sn40 O40'
_cell_volume   1786.41724133
_cell_formula_units_Z   40
loop_
 _symmetry_equiv_pos_site_id
 _symmetry_equiv_pos_as_xyz
  1  'x, y, z'
loop_
 _atom_site_type_symbol
 _atom_site_label
 _atom_site_symmetry_multiplicity
 _atom_site_fract_x
 _atom_site_fract_y
 _atom_site_fract_z
 _atom_site_occupancy
  Sn  Sn0  1  0.83460374  0.06066546  0.77305221  1
  Sn  Sn1  1  0.71802205  0.49313242  0.14505588  1
  Sn  Sn2  1  0.60086124  0.55416815  0.49640698  1
  Sn  Sn3  1  0.69638067  0.80528680  0.25951814  1
  Sn  Sn4  1  0.93161440  0.98939178  0.47423934  1
  Sn  Sn5  1  0.35163036  0.23613384  0.43645115  1
  Sn  Sn6  1  0.88436837  0.57078103  0.58174755  1
  Sn  Sn7  1  0.24421958  0.80177147  0.14950248  1
  Sn  Sn8  1  0.15922628  0.89877600  0.39394827  1
  Sn  Sn9  1  0.67396120  0.31026175  0.89671693  1
  Sn  Sn10  1  0.65394256  0.03307601  0.99388276  1
  Sn  Sn11  1  0.41769768  0.81669298  0.45591844  1
  Sn  Sn12  1  0.91076718  0.95858055  0.19186816  1
  Sn  Sn13  1  0.00371146  0.23453548  0.67093986  1
  Sn  Sn14  1  0.75064589  0.20489648  0.22084386  1
  Sn  Sn15  1  0.39938569  0.11354378  0.16730438  1
  Sn  Sn16  1  0.53881328  0.07133381  0.68895801  1
  Sn  Sn17  1  0.96022081  0.22575517  0.02162802  1
  Sn  Sn18  1  0.35438491  0.04882933  0.91234521  1
  Sn  Sn19  1  0.06292224  0.96110474  0.93612227  1
  Sn  Sn20  1  0.41931116  0.43160715  0.02029381  1
  Sn  Sn21  1  0.04779038  0.43936565  0.15169381  1
  Sn  Sn22  1  0.27648125  0.47226085  0.31700945  1
  Sn  Sn23  1  0.51044729  0.67959259  0.09225333  1
  Sn  Sn24  1  0.51519577  0.66313170  0.81075322  1
  Sn  Sn25  1  0.93902877  0.81616555  0.67984434  1
  Sn  Sn26  1  0.73598286  0.34518346  0.63438844  1
  Sn  Sn27  1  0.40999079  0.32010650  0.76066821  1
  Sn  Sn28  1  0.15306341  0.61643361  0.58804779  1
  Sn  Sn29  1  0.20132558  0.58505472  0.96843788  1
  Sn  Sn30  1  0.54607255  0.09082146  0.42175314  1
  Sn  Sn31  1  0.96836353  0.72004084  0.06468453  1
  Sn  Sn32  1  0.19886546  0.37886950  0.58330534  1
  Sn  Sn33  1  0.88087842  0.49249733  0.88035957  1
  Sn  Sn34  1  0.03117117  0.25096477  0.39156161  1
  Sn  Sn35  1  0.23563886  0.05469207  0.60406100  1
  Sn  Sn36  1  0.21151658  0.26324475  0.98899562  1
  Sn  Sn37  1  0.98895700  0.66419418  0.33476009  1
  Sn  Sn38  1  0.65966844  0.81797262  0.62525094  1
  Sn  Sn39  1  0.26180474  0.81245065  0.78675781  1
  O  O40  1  0.02529317  0.34927116  0.52715410  1
  O  O41  1  0.98027112  0.12965856  0.53543278  1
  O  O42  1  0.59748297  0.68418326  0.95613475  1
  O  O43  1  0.48817026  0.05121485  0.03924709  1
  O  O44  1  0.81017253  0.48644101  0.71607002  1
  O  O45  1  0.80158458  0.72556304  0.58417995  1
  O  O46  1  0.53335150  0.49448185  0.12561717  1
  O  O47  1  0.37435791  0.59929424  0.97599836  1
  O  O48  1  0.12663842  0.73487702  0.45111813  1
  O  O49  1  0.26252447  0.08298784  0.04911664  1
  O  O50  1  0.30768772  0.21778578  0.86515174  1
  O  O51  1  0.08573762  0.75111520  0.19946280  1
  O  O52  1  0.74046849  0.94070818  0.13650183  1
  O  O53  1  0.53178128  0.19383544  0.79139289  1
  O  O54  1  0.61478100  0.12845321  0.27698172  1
  O  O55  1  0.25925317  0.69253994  0.68208912  1
  O  O56  1  0.29411556  0.92832631  0.50563330  1
  O  O57  1  0.87709042  0.80265628  0.28234685  1
  O  O58  1  0.12010279  0.40273668  0.31450727  1
  O  O59  1  0.74565397  0.44570284  0.97698075  1
  O  O60  1  0.25816385  0.43024415  0.93289755  1
  O  O61  1  0.68363829  0.66178531  0.17521180  1
  O  O62  1  0.63107147  0.13940588  0.55748066  1
  O  O63  1  0.55967834  0.91951104  0.46651633  1
  O  O64  1  0.42688581  0.81163089  0.80089510  1
  O  O65  1  0.94472892  0.58166007  0.16950748  1
  O  O66  1  0.50744035  0.37731823  0.90312259  1
  O  O67  1  0.78969237  0.91027142  0.68581147  1
  O  O68  1  0.29072746  0.85689949  0.30021464  1
  O  O69  1  0.94180152  0.08361146  0.93361228  1
  O  O70  1  0.57705899  0.41618788  0.59676001  1
  O  O71  1  0.35957475  0.28769575  0.09835098  1
  O  O72  1  0.19604695  0.16115946  0.45021642  1
  O  O73  1  0.37890215  0.14842292  0.60320952  1
  O  O74  1  0.76272550  0.49139674  0.49334629  1
  O  O75  1  0.20108511  0.52534787  0.13975482  1
  O  O76  1  0.86558815  0.05134576  0.31915679  1
  O  O77  1  0.69501309  0.19033292  0.04451106  1
  O  O78  1  0.93321234  0.33012712  0.87866631  1
  O  O79  1  0.98179502  0.95232099  0.78139479  1
