# generated using pymatgen
data_CoO2
_symmetry_space_group_name_H-M   'P 1'
_cell_length_a   10.34004715
_cell_length_b   11.11235052
_cell_length_c   10.51729408
_cell_angle_alpha   88.20027499
_cell_angle_beta   97.38571031
_cell_angle_gamma   87.23914609
_symmetry_Int_Tables_number   1
_chemical_formula_structural   CoO2
_chemical_formula_sum   'Co30 O60'
_cell_volume   1196.18059421
_cell_formula_units_Z   30
loop_
 _symmetry_equiv_pos_site_id
 _symmetry_equiv_pos_as_xyz
  1  'x, y, z'
loop_
 _atom_site_type_symbol
 _atom_site_label
 _atom_site_symmetry_multiplicity
 _atom_site_fract_x
 _atom_site_fract_y
 _atom_site_fract_z
 _atom_site_occupancy
  Co  Co0  1  0.03823100  0.89477100  0.59604900  1
  Co  Co1  1  0.43651100  0.17346600  0.27285000  1
  Co  Co2  1  0.96077100  0.57930700  0.42524700  1
  Co  Co3  1  0.67596000  0.10361200  0.21743900  1
  Co  Co4  1  0.61948700  0.64879400  0.15782100  1
  Co  Co5  1  0.47853500  0.10325400  0.94844900  1
  Co  Co6  1  0.73772000  0.90054000  0.71316600  1
  Co  Co7  1  0.02185000  0.09176600  0.19568800  1
  Co  Co8  1  0.75501500  0.50756800  0.86985100  1
  Co  Co9  1  0.22229000  0.45144800  0.60513900  1
  Co  Co10  1  0.99015800  0.32690100  0.77809200  1
  Co  Co11  1  0.97342200  0.75538900  0.84930500  1
  Co  Co12  1  0.79883700  0.18734900  0.93192700  1
  Co  Co13  1  0.13444300  0.50663600  0.91399100  1
  Co  Co14  1  0.13057100  0.30951800  0.12580900  1
  Co  Co15  1  0.25636800  0.02101800  0.10743400  1
  Co  Co16  1  0.61148900  0.01792900  0.49465800  1
  Co  Co17  1  0.54632100  0.76233500  0.42909300  1
  Co  Co18  1  0.43559100  0.38641800  0.09563800  1
  Co  Co19  1  0.80261800  0.43336900  0.56563300  1
  Co  Co20  1  0.45828100  0.19656300  0.63548500  1
  Co  Co21  1  0.66980500  0.72264500  0.92637400  1
  Co  Co22  1  0.37048200  0.40627000  0.83380100  1
  Co  Co23  1  0.27586300  0.70252600  0.75501800  1
  Co  Co24  1  0.25331200  0.90976800  0.35973000  1
  Co  Co25  1  0.94876700  0.69341200  0.12466700  1
  Co  Co26  1  0.99563800  0.29911100  0.42607100  1
  Co  Co27  1  0.80330900  0.83887500  0.33756600  1
  Co  Co28  1  0.71300400  0.38376600  0.24628300  1
  Co  Co29  1  0.32642600  0.94756700  0.78577600  1
  O  O30  1  0.60393500  0.62726400  0.55060600  1
  O  O31  1  0.17385800  0.88209900  0.73236400  1
  O  O32  1  0.77806800  0.63723700  0.08017200  1
  O  O33  1  0.76992500  0.99447900  0.12393500  1
  O  O34  1  0.93660300  0.32218600  0.59660300  1
  O  O35  1  0.83180300  0.14168100  0.32295400  1
  O  O36  1  0.63466600  0.13695300  0.92781500  1
  O  O37  1  0.48558400  0.13671000  0.46539600  1
  O  O38  1  0.59603000  0.58211500  0.88063200  1
  O  O39  1  0.12395600  0.14841000  0.07500500  1
  O  O40  1  0.92728600  0.05146100  0.32152900  1
  O  O41  1  0.32812100  0.04486200  0.28159200  1
  O  O42  1  0.89637000  0.87899900  0.47641400  1
  O  O43  1  0.38084300  0.78576200  0.36782300  1
  O  O44  1  0.43008200  0.07518800  0.76304200  1
  O  O45  1  0.93069800  0.19431100  0.82656800  1
  O  O46  1  0.87692700  0.57699100  0.56342800  1
  O  O47  1  0.56571900  0.48902600  0.17552400  1
  O  O48  1  0.12934200  0.66286500  0.84799100  1
  O  O49  1  0.06628800  0.36620800  0.95783100  1
  O  O50  1  0.32578400  0.48955800  0.97438800  1
  O  O51  1  0.93763400  0.70394200  0.29872200  1
  O  O52  1  0.68505000  0.87643700  0.86510500  1
  O  O53  1  0.09928400  0.44958600  0.46624300  1
  O  O54  1  0.43053600  0.28590400  0.95046500  1
  O  O55  1  0.50563700  0.08318700  0.13110000  1
  O  O56  1  0.55642500  0.76471700  0.03542000  1
  O  O57  1  0.63366200  0.52533700  0.50197800  1
  O  O58  1  0.92094100  0.87299500  0.71931300  1
  O  O59  1  0.60102100  0.25347700  0.25455000  1
  O  O60  1  0.32789600  0.01171300  0.95847200  1
  O  O61  1  0.61285000  0.86577300  0.56063200  1
  O  O62  1  0.41149700  0.79454300  0.77469900  1
  O  O63  1  0.60946200  0.30435100  0.65325300  1
  O  O64  1  0.07780400  0.13930300  0.51861100  1
  O  O65  1  0.76625300  0.35841300  0.98405700  1
  O  O66  1  0.19443600  0.66229600  0.57606500  1
  O  O67  1  0.86644600  0.06046100  0.07501700  1
  O  O68  1  0.81490500  0.36901500  0.11487900  1
  O  O69  1  0.05208600  0.24569300  0.26410400  1
  O  O70  1  0.67578300  0.30849400  0.55567200  1
  O  O71  1  0.35175200  0.51615300  0.36349200  1
  O  O72  1  0.15989400  0.91672200  0.48320600  1
  O  O73  1  0.07341000  0.70492100  0.54543100  1
  O  O74  1  0.09499400  0.47010300  0.17883300  1
  O  O75  1  0.66639200  0.72520900  0.31529100  1
  O  O76  1  0.83322400  0.42074900  0.38550400  1
  O  O77  1  0.00601700  0.08053700  0.58634500  1
  O  O78  1  0.81779500  0.67067300  0.84227400  1
  O  O79  1  0.69273200  0.06134500  0.64111500  1
  O  O80  1  0.10817000  0.43896900  0.74835400  1
  O  O81  1  0.33914600  0.53893800  0.72502000  1
  O  O82  1  0.33533200  0.31913200  0.68261000  1
  O  O83  1  0.08811500  0.55989800  0.08823300  1
  O  O84  1  0.32645500  0.30072300  0.19657100  1
  O  O85  1  0.66011200  0.97266800  0.34354400  1
  O  O86  1  0.36789800  0.44550400  0.45780100  1
  O  O87  1  0.00258300  0.80061300  0.01899600  1
  O  O88  1  0.13034700  0.94617600  0.20102100  1
  O  O89  1  0.81930600  0.42999100  0.74442300  1
