# generated using pymatgen
data_ZnS
_symmetry_space_group_name_H-M   'P 1'
_cell_length_a   12.73237186
_cell_length_b   13.30650135
_cell_length_c   13.94256636
_cell_angle_alpha   95.39571709
_cell_angle_beta   88.73608228
_cell_angle_gamma   88.84367233
_symmetry_Int_Tables_number   1
_chemical_formula_structural   ZnS
_chemical_formula_sum   'Zn50 S50'
_cell_volume   2350.56907645
_cell_formula_units_Z   50
loop_
 _symmetry_equiv_pos_site_id
 _symmetry_equiv_pos_as_xyz
  1  'x, y, z'
loop_
 _atom_site_type_symbol
 _atom_site_label
 _atom_site_symmetry_multiplicity
 _atom_site_fract_x
 _atom_site_fract_y
 _atom_site_fract_z
 _atom_site_occupancy
  Zn  Zn0  1  0.32814054  0.70875171  0.20697817  1
  Zn  Zn1  1  0.38851332  0.40972824  0.48145113  1
  Zn  Zn2  1  0.93436930  0.91228964  0.73337791  1
  Zn  Zn3  1  0.62194322  0.15844435  0.07230507  1
  Zn  Zn4  1  0.28225533  0.01560609  0.42417711  1
  Zn  Zn5  1  0.59898013  0.94917381  0.94836774  1
  Zn  Zn6  1  0.77005344  0.17612374  0.36054819  1
  Zn  Zn7  1  0.07508954  0.17288640  0.31234536  1
  Zn  Zn8  1  0.76792826  0.46495259  0.75336176  1
  Zn  Zn9  1  0.81430791  0.92494835  0.20559472  1
  Zn  Zn10  1  0.49867682  0.23852712  0.86861978  1
  Zn  Zn11  1  0.72013395  0.66737096  0.92702997  1
  Zn  Zn12  1  0.20001256  0.39254167  0.66069478  1
  Zn  Zn13  1  0.84055156  0.97483094  0.97701856  1
  Zn  Zn14  1  0.72110482  0.76526738  0.72944121  1
  Zn  Zn15  1  0.71522984  0.44961785  0.07527507  1
  Zn  Zn16  1  0.48428595  0.56454946  0.01509639  1
  Zn  Zn17  1  0.06692044  0.09810697  0.78239081  1
  Zn  Zn18  1  0.20663548  0.15929709  0.97940281  1
  Zn  Zn19  1  0.99419803  0.66859220  0.83515651  1
  Zn  Zn20  1  0.29039868  0.92850422  0.03202416  1
  Zn  Zn21  1  0.17136496  0.88071999  0.88395217  1
  Zn  Zn22  1  0.62151726  0.29571681  0.57400156  1
  Zn  Zn23  1  0.27156242  0.82392304  0.56594681  1
  Zn  Zn24  1  0.90130856  0.77492603  0.49008069  1
  Zn  Zn25  1  0.10571809  0.84844879  0.05137422  1
  Zn  Zn26  1  0.57364673  0.41689896  0.87304340  1
  Zn  Zn27  1  0.96491957  0.17010191  0.59992530  1
  Zn  Zn28  1  0.76721830  0.17441604  0.79943125  1
  Zn  Zn29  1  0.49354369  0.33602564  0.71982407  1
  Zn  Zn30  1  0.78137378  0.50732511  0.51128600  1
  Zn  Zn31  1  0.33389008  0.14099003  0.73368633  1
  Zn  Zn32  1  0.00912286  0.11802617  0.15189145  1
  Zn  Zn33  1  0.43967579  0.15349285  0.10429308  1
  Zn  Zn34  1  0.32549373  0.64874777  0.73637248  1
  Zn  Zn35  1  0.36646466  0.74014496  0.88869569  1
  Zn  Zn36  1  0.71619851  0.01163498  0.55661854  1
  Zn  Zn37  1  0.26706011  0.59869358  0.41573322  1
  Zn  Zn38  1  0.16556669  0.58653362  0.00004700  1
  Zn  Zn39  1  0.20693407  0.03069102  0.26512870  1
  Zn  Zn40  1  0.91896271  0.62989861  0.13288752  1
  Zn  Zn41  1  0.60476060  0.90419164  0.39110249  1
  Zn  Zn42  1  0.27375968  0.38952034  0.87681234  1
  Zn  Zn43  1  0.14886614  0.77808194  0.32329867  1
  Zn  Zn44  1  0.04362103  0.59913102  0.59419920  1
  Zn  Zn45  1  0.89560800  0.38143335  0.29197514  1
  Zn  Zn46  1  0.98419830  0.37846329  0.80684545  1
  Zn  Zn47  1  0.03578564  0.36867733  0.07164599  1
  Zn  Zn48  1  0.42336556  0.21704826  0.59120058  1
  Zn  Zn49  1  0.46008994  0.69366953  0.44346532  1
  S  S50  1  0.45129465  0.86383859  0.98233861  1
  S  S51  1  0.84741883  0.22247084  0.21325601  1
  S  S52  1  0.92269804  0.60350236  0.47950837  1
  S  S53  1  0.22447770  0.04499846  0.83732505  1
  S  S54  1  0.19433464  0.61344725  0.27209434  1
  S  S55  1  0.90055052  0.05477914  0.83954147  1
  S  S56  1  0.21060414  0.86020893  0.18737860  1
  S  S57  1  0.87062279  0.76663551  0.26152753  1
  S  S58  1  0.53204814  0.97263336  0.53914992  1
  S  S59  1  0.07782373  0.25152398  0.71366238  1
  S  S60  1  0.02393592  0.69325256  0.00631832  1
  S  S61  1  0.73543935  0.84047014  0.88684630  1
  S  S62  1  0.06605902  0.80164164  0.76459370  1
  S  S63  1  0.54543071  0.40691053  0.04089917  1
  S  S64  1  0.82723132  0.62739369  0.78177990  1
  S  S65  1  0.98124448  0.48083149  0.19118501  1
  S  S66  1  0.96085519  0.95541784  0.09820468  1
  S  S67  1  0.72484981  0.29032635  0.13729493  1
  S  S68  1  0.44329766  0.73018872  0.61045162  1
  S  S69  1  0.10812714  0.43487272  0.93594299  1
  S  S70  1  0.58396230  0.73950278  0.33079974  1
  S  S71  1  0.81255147  0.34819146  0.85511946  1
  S  S72  1  0.27412713  0.08865142  0.11624203  1
  S  S73  1  0.97728756  0.84155484  0.35835717  1
  S  S74  1  0.34396788  0.26939340  0.95814076  1
  S  S75  1  0.21385353  -0.00046830  0.59085343  1
  S  S76  1  0.50531111  0.73888965  0.19967733  1
  S  S77  1  0.64027419  0.30255637  0.39892726  1
  S  S78  1  0.43433301  0.52288755  0.38701234  1
  S  S79  1  0.06101638  0.50874161  0.72200276  1
  S  S80  1  0.75164784  0.61430611  0.07735865  1
  S  S81  1  0.62330635  0.11812198  0.89037930  1
  S  S82  1  0.59927870  0.78146821  0.61136539  1
  S  S83  1  0.04781050  0.00299962  0.60292288  1
  S  S84  1  0.90523603  0.25370351  0.47399879  1
  S  S85  1  0.02405537  0.32563848  0.40049464  1
  S  S86  1  0.81443073  0.87110257  0.61245954  1
  S  S87  1  0.70133011  0.99856182  0.09297260  1
  S  S88  1  0.27253454  0.30231441  0.52291186  1
  S  S89  1  0.21545665  0.65330974  0.57629167  1
  S  S90  1  0.56402862  0.59429616  0.86817651  1
  S  S91  1  0.31151443  0.82564591  0.40414250  1
  S  S92  1  0.76503202  0.16631428  0.62815318  1
  S  S93  1  0.32456352  0.64633707  0.03430439  1
  S  S94  1  0.72586443  0.42961325  0.36504048  1
  S  S95  1  0.74995640  0.00325857  0.36635583  1
  S  S96  1  0.45410257  0.08786057  0.46576965  1
  S  S97  1  0.66714249  0.46383236  0.62385439  1
  S  S98  1  0.34491404  0.45699272  0.74712072  1
  S  S99  1  0.03502474  0.20606041  0.01849899  1
