# generated using pymatgen
data_ZnS
_symmetry_space_group_name_H-M   'P 1'
_cell_length_a   12.77784696
_cell_length_b   13.69528134
_cell_length_c   13.89854332
_cell_angle_alpha   88.83378806
_cell_angle_beta   82.41365792
_cell_angle_gamma   84.80112806
_symmetry_Int_Tables_number   1
_chemical_formula_structural   ZnS
_chemical_formula_sum   'Zn50 S50'
_cell_volume   2400.89877000
_cell_formula_units_Z   50
loop_
 _symmetry_equiv_pos_site_id
 _symmetry_equiv_pos_as_xyz
  1  'x, y, z'
loop_
 _atom_site_type_symbol
 _atom_site_label
 _atom_site_symmetry_multiplicity
 _atom_site_fract_x
 _atom_site_fract_y
 _atom_site_fract_z
 _atom_site_occupancy
  Zn  Zn0  1  0.40222439  0.63440743  0.78271279  1
  Zn  Zn1  1  0.41845270  0.27684281  0.77164906  1
  Zn  Zn2  1  0.54923487  0.38510644  0.83628916  1
  Zn  Zn3  1  0.33450865  0.07286339  0.59933363  1
  Zn  Zn4  1  0.90220576  0.81024122  0.23252163  1
  Zn  Zn5  1  0.83752458  0.57850729  0.36380747  1
  Zn  Zn6  1  0.91773030  0.24499281  0.88708128  1
  Zn  Zn7  1  0.64464994  0.69600636  0.81366805  1
  Zn  Zn8  1  0.06869754  0.37455830  0.00456988  1
  Zn  Zn9  1  0.23673386  0.21495432  0.78832031  1
  Zn  Zn10  1  0.52156080  0.28030695  0.38458794  1
  Zn  Zn11  1  0.91460276  0.70834261  0.83350228  1
  Zn  Zn12  1  0.37029369  0.85373137  0.76620336  1
  Zn  Zn13  1  0.21343127  0.07840688  0.32919542  1
  Zn  Zn14  1  0.07936964  0.72133615  0.44328871  1
  Zn  Zn15  1  0.60972097  0.31595117  0.07852198  1
  Zn  Zn16  1  0.37426997  0.36032393  0.55063433  1
  Zn  Zn17  1  0.74568616  0.03838853  0.33265464  1
  Zn  Zn18  1  0.53520887  0.07357439  0.04910060  1
  Zn  Zn19  1  0.07997953  0.99595393  0.75187142  1
  Zn  Zn20  1  0.35101086  0.83952507  0.39995678  1
  Zn  Zn21  1  0.48442362  0.01470782  0.34914253  1
  Zn  Zn22  1  0.97435250  0.20188469  0.72095807  1
  Zn  Zn23  1  0.60652748  0.99622890  0.58925997  1
  Zn  Zn24  1  0.33152468  0.30073937  0.36755646  1
  Zn  Zn25  1  0.38736569  0.93503511  0.97094502  1
  Zn  Zn26  1  0.07300561  0.64350183  0.92390766  1
  Zn  Zn27  1  0.59781180  0.50775397  0.60539247  1
  Zn  Zn28  1  0.75666686  0.26151846  0.64210387  1
  Zn  Zn29  1  0.70692761  0.97436503  0.88819248  1
  Zn  Zn30  1  0.50063694  0.61817296  0.24064702  1
  Zn  Zn31  1  0.06689858  0.45730267  0.70337549  1
  Zn  Zn32  1  0.56372784  0.19295374  0.84883636  1
  Zn  Zn33  1  0.98232939  0.16350327  0.13189757  1
  Zn  Zn34  1  0.36273420  0.94636146  0.15614526  1
  Zn  Zn35  1  0.84002801  0.89118898  0.68143780  1
  Zn  Zn36  1  0.77031313  0.36564072  0.23804950  1
  Zn  Zn37  1  0.85491434  0.50130441  0.72150804  1
  Zn  Zn38  1  0.12513467  0.50748146  0.46966094  1
  Zn  Zn39  1  0.68924834  0.53358132  0.00532364  1
  Zn  Zn40  1  0.32976916  0.63033602  0.38843762  1
  Zn  Zn41  1  0.95379985  0.38682573  0.59150890  1
  Zn  Zn42  1  0.26280495  0.37406781  0.87690381  1
  Zn  Zn43  1  0.75419046  0.79523517  0.43584220  1
  Zn  Zn44  1  0.25860542  0.21873651  0.12444886  1
  Zn  Zn45  1  0.53027290  0.62379974  0.40769325  1
  Zn  Zn46  1  0.02679199  0.32085970  0.35862794  1
  Zn  Zn47  1  0.21978950  0.65918036  0.20993966  1
  Zn  Zn48  1  0.40515844  0.78020380  0.05612927  1
  Zn  Zn49  1  0.09476196  0.78877793  0.80839076  1
  S  S50  1  0.56127616  0.65234160  0.68602550  1
  S  S51  1  0.89865674  0.12088757  0.28343037  1
  S  S52  1  0.47314552  0.87587579  0.26405277  1
  S  S53  1  0.00089819  0.80005081  0.08978564  1
  S  S54  1  0.23262492  0.36728773  0.04988796  1
  S  S55  1  0.18600362  0.24605984  0.30219244  1
  S  S56  1  0.63380543  0.27678537  0.22994278  1
  S  S57  1  0.38800850  0.63270893  0.12104389  1
  S  S58  1  0.40943822  0.12364042  0.16853924  1
  S  S59  1  0.06738142  0.63957067  0.59423829  1
  S  S60  1  0.44683886  0.93809070  0.63168353  1
  S  S61  1  0.67006123  0.12613729  0.69627507  1
  S  S62  1  0.52224725  0.43630239  0.48475584  1
  S  S63  1  0.27069525  0.98716762  0.86306394  1
  S  S64  1  0.26176307  0.73354351  0.73913567  1
  S  S65  1  0.76934187  0.92095629  0.53954820  1
  S  S66  1  0.17049839  0.98551277  0.20610779  1
  S  S67  1  0.86879272  0.26291111  0.33867145  1
  S  S68  1  0.52375534  0.02953228  0.89208674  1
  S  S69  1  0.92966407  0.71892395  0.36974808  1
  S  S70  1  0.91994506  0.29644977  0.04771796  1
  S  S71  1  0.76052015  0.82018367  0.82787527  1
  S  S72  1  0.80232660  0.05784565  0.75413103  1
  S  S73  1  0.82171723  0.51880197  0.20518492  1
  S  S74  1  0.55272285  0.44287784  0.99149842  1
  S  S75  1  0.15490134  0.12899411  0.68261467  1
  S  S76  1  0.59342854  0.10654769  0.42210799  1
  S  S77  1  0.95941400  0.46103004  0.43515632  1
  S  S78  1  0.69919424  0.40847971  0.70922993  1
  S  S79  1  0.69009064  0.63828743  0.46169111  1
  S  S80  1  0.69811047  0.20092982  0.96154964  1
  S  S81  1  0.78931142  0.58112083  0.86899028  1
  S  S82  1  0.73916754  0.88443095  0.28283990  1
  S  S83  1  0.38694178  0.71337794  0.50651190  1
  S  S84  1  0.19962182  0.78545602  0.33069235  1
  S  S85  1  0.14983418  0.09167894  0.09548939  1
  S  S86  1  0.69764794  0.60655828  0.15144378  1
  S  S87  1  0.19010201  0.38791528  0.57387490  1
  S  S88  1  0.92398872  0.22606233  0.56962193  1
  S  S89  1  0.08849471  0.66263537  0.09147192  1
  S  S90  1  0.23640226  0.51940236  0.32688918  1
  S  S91  1  0.11828266  0.94152848  0.90336077  1
  S  S92  1  0.30997235  0.01534104  0.44290049  1
  S  S93  1  0.72294463  0.06425283  0.03325984  1
  S  S94  1  0.90602835  0.65952793  0.65062682  1
  S  S95  1  0.42678333  0.21094680  0.61989976  1
  S  S96  1  0.09827530  0.47638603  0.86460978  1
  S  S97  1  0.02308870  0.87352449  0.67588830  1
  S  S98  1  0.39275270  0.46085531  0.78417641  1
  S  S99  1  0.46982671  0.76100216  0.88937570  1
