# generated using pymatgen
data_SnO2
_symmetry_space_group_name_H-M   'P 1'
_cell_length_a   10.99152488
_cell_length_b   10.70613185
_cell_length_c   10.50752532
_cell_angle_alpha   91.66163128
_cell_angle_beta   89.64943614
_cell_angle_gamma   85.96854256
_symmetry_Int_Tables_number   1
_chemical_formula_structural   SnO2
_chemical_formula_sum   'Sn30 O60'
_cell_volume   1232.87157399
_cell_formula_units_Z   30
loop_
 _symmetry_equiv_pos_site_id
 _symmetry_equiv_pos_as_xyz
  1  'x, y, z'
loop_
 _atom_site_type_symbol
 _atom_site_label
 _atom_site_symmetry_multiplicity
 _atom_site_fract_x
 _atom_site_fract_y
 _atom_site_fract_z
 _atom_site_occupancy
  Sn  Sn0  1  0.83901200  0.13208700  0.16630000  1
  Sn  Sn1  1  0.40461700  0.53059300  0.85826400  1
  Sn  Sn2  1  0.94201000  0.87526400  0.69245900  1
  Sn  Sn3  1  0.50677400  0.79704200  0.76734700  1
  Sn  Sn4  1  0.08582600  0.58775100  0.89041500  1
  Sn  Sn5  1  0.82939000  0.58761300  0.74023800  1
  Sn  Sn6  1  0.41806000  0.26033500  0.69804400  1
  Sn  Sn7  1  0.58387000  0.29304000  0.05375200  1
  Sn  Sn8  1  0.08496000  0.59664200  0.49962000  1
  Sn  Sn9  1  0.43157800  0.02488900  0.28809000  1
  Sn  Sn10  1  0.74768900  0.54249800  0.02361000  1
  Sn  Sn11  1  0.18596200  0.57109300  0.18002400  1
  Sn  Sn12  1  0.33970700  0.81536500  0.02457700  1
  Sn  Sn13  1  0.66288800  0.86962500  0.04567700  1
  Sn  Sn14  1  0.42855100  0.55692500  0.50164900  1
  Sn  Sn15  1  0.24175300  0.28849500  0.96429400  1
  Sn  Sn16  1  0.01281100  0.87225100  0.99797100  1
  Sn  Sn17  1  0.13158100  0.34176300  0.65967700  1
  Sn  Sn18  1  0.89665200  0.70074500  0.23159600  1
  Sn  Sn19  1  0.69627700  0.87677600  0.49015200  1
  Sn  Sn20  1  0.12741500  0.06784900  0.21955900  1
  Sn  Sn21  1  0.30099400  0.32389700  0.35479200  1
  Sn  Sn22  1  0.96111600  0.13998000  0.85826300  1
  Sn  Sn23  1  0.50991000  0.60997200  0.22721100  1
  Sn  Sn24  1  0.23801200  0.03076400  0.75560800  1
  Sn  Sn25  1  0.21739800  0.85521600  0.47198200  1
  Sn  Sn26  1  0.95877900  0.10444600  0.49206900  1
  Sn  Sn27  1  0.60712000  0.23335200  0.41453200  1
  Sn  Sn28  1  0.68792200  0.28935700  0.77075600  1
  Sn  Sn29  1  0.83074600  0.39118500  0.47633400  1
  O  O30  1  0.73021200  0.36411500  0.94932900  1
  O  O31  1  0.25451800  0.65211100  0.89322400  1
  O  O32  1  0.43992100  0.63045800  0.68481100  1
  O  O33  1  0.40262600  0.38067000  0.00446800  1
  O  O34  1  0.69514300  0.25746300  0.21223100  1
  O  O35  1  0.54057600  0.66513200  0.40636900  1
  O  O36  1  0.26278000  0.66333900  0.47512800  1
  O  O37  1  0.93323800  0.20870200  0.03284700  1
  O  O38  1  0.55412400  0.86004900  0.59774500  1
  O  O39  1  0.39201400  0.48789200  0.31385900  1
  O  O40  1  0.34475000  0.15832100  0.84866400  1
  O  O41  1  0.88636200  0.96507700  0.86623100  1
  O  O42  1  0.58528900  0.18704800  0.89130100  1
  O  O43  1  0.06573800  0.78078900  0.56571900  1
  O  O44  1  0.30678500  0.91838100  0.61815300  1
  O  O45  1  0.91328100  0.53286400  0.90299700  1
  O  O46  1  0.35644300  0.89818900  0.85352600  1
  O  O47  1  0.19628200  0.43298400  0.50953800  1
  O  O48  1  0.06919400  0.67410400  0.31536400  1
  O  O49  1  0.04364300  0.52958700  0.69370900  1
  O  O50  1  0.22837600  0.18003400  0.11296300  1
  O  O51  1  0.34113400  0.87820700  0.33428300  1
  O  O52  1  0.04623400  0.03656600  0.66147700  1
  O  O53  1  0.77229300  0.43132900  0.65981600  1
  O  O54  1  0.85080200  0.53170700  0.18072300  1
  O  O55  1  0.68668500  0.61910200  0.85808400  1
  O  O56  1  0.97392100  0.17449000  0.30016200  1
  O  O57  1  0.18605200  0.89851500  0.10402100  1
  O  O58  1  0.91176400  0.54931200  0.45623400  1
  O  O59  1  0.65171900  0.41549800  0.42469700  1
  O  O60  1  0.28161400  0.40301200  0.77589900  1
  O  O61  1  0.79235600  0.20521300  0.45258600  1
  O  O62  1  0.06370200  0.68466700  0.07302800  1
  O  O63  1  0.46643800  0.21932300  0.27534300  1
  O  O64  1  0.25772100  0.18840300  0.62289500  1
  O  O65  1  0.59141800  0.47741700  0.11451100  1
  O  O66  1  0.64112600  0.70447900  0.13466300  1
  O  O67  1  0.63196800  0.88610100  0.86257700  1
  O  O68  1  0.47114200  0.92332100  0.11819500  1
  O  O69  1  0.47611800  0.69180700  0.93562000  1
  O  O70  1  0.11494000  0.02129900  0.89978200  1
  O  O71  1  0.69633500  0.03577000  0.11424000  1
  O  O72  1  0.84343100  0.19345200  0.72685500  1
  O  O73  1  0.97033300  0.97869000  0.15591500  1
  O  O74  1  0.99738400  0.28664800  0.53975200  1
  O  O75  1  0.83981400  0.97244700  0.55428600  1
  O  O76  1  0.15545300  0.45777300  0.01621800  1
  O  O77  1  0.81685800  0.74670400  0.64510000  1
  O  O78  1  0.08766400  0.97712600  0.39418600  1
  O  O79  1  0.52380600  0.40483800  0.76004200  1
  O  O80  1  0.02782100  0.76468600  0.83204400  1
  O  O81  1  0.09010900  0.27233000  0.83257100  1
  O  O82  1  0.16137200  0.41156500  0.26387500  1
  O  O83  1  0.33965900  0.66716300  0.15244700  1
  O  O84  1  0.42272700  0.35411900  0.51323600  1
  O  O85  1  0.78422700  0.81834500  0.33450700  1
  O  O86  1  0.26468500  0.13368000  0.35079500  1
  O  O87  1  0.84658500  0.78830300  0.06224900  1
  O  O88  1  0.58560600  0.19674600  0.61958000  1
  O  O89  1  0.59051900  0.02967100  0.39437300  1
