# generated using pymatgen
data_TaN
_symmetry_space_group_name_H-M   'P 1'
_cell_length_a   10.59739624
_cell_length_b   10.72753960
_cell_length_c   11.28906667
_cell_angle_alpha   91.51588300
_cell_angle_beta   90.17307850
_cell_angle_gamma   84.53434077
_symmetry_Int_Tables_number   1
_chemical_formula_structural   TaN
_chemical_formula_sum   'Ta50 N50'
_cell_volume   1277.10389297
_cell_formula_units_Z   50
loop_
 _symmetry_equiv_pos_site_id
 _symmetry_equiv_pos_as_xyz
  1  'x, y, z'
loop_
 _atom_site_type_symbol
 _atom_site_label
 _atom_site_symmetry_multiplicity
 _atom_site_fract_x
 _atom_site_fract_y
 _atom_site_fract_z
 _atom_site_occupancy
  Ta  Ta0  1  0.69756200  0.74274500  0.12159600  1
  Ta  Ta1  1  0.35231700  0.76354100  0.20294800  1
  Ta  Ta2  1  0.46082800  0.43009800  0.35792400  1
  Ta  Ta3  1  0.93186200  0.84746900  0.04158200  1
  Ta  Ta4  1  0.20360000  0.81355500  0.94714600  1
  Ta  Ta5  1  0.06433700  0.58247600  0.10179100  1
  Ta  Ta6  1  0.33022300  0.95850400  0.47042800  1
  Ta  Ta7  1  0.26991100  0.04969200  0.23472400  1
  Ta  Ta8  1  0.69544600  0.15661200  0.68636500  1
  Ta  Ta9  1  0.77278100  0.98506700  0.26233600  1
  Ta  Ta10  1  0.03064800  0.08592400  0.87853500  1
  Ta  Ta11  1  0.06565600  0.92554600  0.37231700  1
  Ta  Ta12  1  0.86128800  0.63113800  0.62572600  1
  Ta  Ta13  1  0.34205100  0.61907800  0.74813400  1
  Ta  Ta14  1  0.80797100  0.33778000  0.90255600  1
  Ta  Ta15  1  0.25667800  0.25224200  0.38442100  1
  Ta  Ta16  1  0.71112200  0.48832400  0.30527400  1
  Ta  Ta17  1  0.70275500  0.88195900  0.87438600  1
  Ta  Ta18  1  0.40044000  0.17885400  0.62500400  1
  Ta  Ta19  1  0.12255300  0.33909700  0.83914300  1
  Ta  Ta20  1  0.52669800  0.10978400  0.38013000  1
  Ta  Ta21  1  0.25780300  0.29875700  0.08181800  1
  Ta  Ta22  1  0.51526100  0.82573300  0.68812400  1
  Ta  Ta23  1  0.48067500  0.75677500  0.94959900  1
  Ta  Ta24  1  0.23325800  0.88183900  0.68912700  1
  Ta  Ta25  1  0.96646400  0.34286100  0.15284200  1
  Ta  Ta26  1  0.00109100  0.07293200  0.16490700  1
  Ta  Ta27  1  0.20857400  0.56451700  0.32460700  1
  Ta  Ta28  1  0.26996200  0.43492500  0.57977200  1
  Ta  Ta29  1  0.52933800  0.97381800  0.10657300  1
  Ta  Ta30  1  0.97295900  0.44276600  0.43391900  1
  Ta  Ta31  1  0.85162300  0.60404000  0.93963000  1
  Ta  Ta32  1  0.70695900  0.94488100  0.51439800  1
  Ta  Ta33  1  0.56995700  0.82498700  0.33794500  1
  Ta  Ta34  1  0.53945800  0.24656600  0.15237500  1
  Ta  Ta35  1  0.56870600  0.42799200  0.60503900  1
  Ta  Ta36  1  0.56784500  0.16799500  0.89818700  1
  Ta  Ta37  1  0.86958300  0.74028600  0.34582400  1
  Ta  Ta38  1  0.90426100  0.91230300  0.69121300  1
  Ta  Ta39  1  0.63371700  0.57587200  0.79857400  1
  Ta  Ta40  1  0.41218700  0.37830500  0.82345500  1
  Ta  Ta41  1  0.89526800  0.35345400  0.65581100  1
  Ta  Ta42  1  0.78561300  0.09290800  0.01428300  1
  Ta  Ta43  1  0.58040900  0.45702600  0.01486500  1
  Ta  Ta44  1  0.07800600  0.60710300  0.77993700  1
  Ta  Ta45  1  0.39904300  0.67043200  0.50640900  1
  Ta  Ta46  1  0.79896500  0.21429600  0.41827800  1
  Ta  Ta47  1  0.11081400  0.71400200  0.55094500  1
  Ta  Ta48  1  0.07010700  0.10307800  0.58034800  1
  Ta  Ta49  1  0.33179700  0.05602300  0.93788100  1
  N  N50  1  0.82400500  0.77431200  0.52380900  1
  N  N51  1  0.73004600  0.29932100  0.57957600  1
  N  N52  1  0.95264500  0.45306900  0.81856500  1
  N  N53  1  0.09116700  0.94636400  0.04733300  1
  N  N54  1  0.88417900  0.95790500  0.87863400  1
  N  N55  1  0.02503000  0.21148800  0.73569000  1
  N  N56  1  0.06998700  0.71586800  0.37400200  1
  N  N57  1  0.15669700  0.42137000  0.43745600  1
  N  N58  1  0.45541600  0.55894000  0.89745800  1
  N  N59  1  0.17321200  0.08540200  0.41157200  1
  N  N60  1  0.78164000  0.69841400  0.78157500  1
  N  N61  1  0.38832800  0.18199700  0.81199800  1
  N  N62  1  0.85471300  0.45151300  0.04963900  1
  N  N63  1  0.67496900  0.27118900  0.02547500  1
  N  N64  1  0.42953000  0.34507100  0.01329200  1
  N  N65  1  0.62336800  0.49505300  0.45003400  1
  N  N66  1  0.86190200  0.35027100  0.31334500  1
  N  N67  1  0.36532200  0.80173800  0.80782300  1
  N  N68  1  0.23112300  0.46687700  0.77166700  1
  N  N69  1  0.41815900  0.31246600  0.49482800  1
  N  N70  1  0.13330100  0.21190200  0.20112800  1
  N  N71  1  0.69409700  0.67437600  0.29183200  1
  N  N72  1  0.21702500  0.65763000  0.15234100  1
  N  N73  1  0.88721100  0.68013700  0.11854300  1
  N  N74  1  0.19144900  0.96989300  0.84910000  1
  N  N75  1  0.52126400  0.63509000  0.64928900  1
  N  N76  1  0.12117200  0.42398100  0.01360300  1
  N  N77  1  0.52008600  0.97420100  0.91022700  1
  N  N78  1  0.24945000  0.88039900  0.31160800  1
  N  N79  1  0.18028300  0.19167300  0.94723700  1
  N  N80  1  0.56869600  0.09402000  0.55596000  1
  N  N81  1  0.34954300  0.88638300  0.05451700  1
  N  N82  1  0.03114100  0.70601200  0.93231000  1
  N  N83  1  0.03869700  0.49077900  0.24918700  1
  N  N84  1  0.25772400  0.05940200  0.62888000  1
  N  N85  1  0.85295100  0.06500900  0.58638000  1
  N  N86  1  0.69350600  0.93197800  0.70174900  1
  N  N87  1  0.38475400  0.12842800  0.10965400  1
  N  N88  1  0.51996200  0.84164600  0.50699200  1
  N  N89  1  0.56894200  0.45197600  0.19275200  1
  N  N90  1  0.95240600  0.88453300  0.22633200  1
  N  N91  1  0.73333000  0.92245800  0.07710400  1
  N  N92  1  0.31792900  0.37129900  0.24835000  1
  N  N93  1  0.94136200  0.20388600  0.01332600  1
  N  N94  1  0.61670800  0.35257000  0.80616700  1
  N  N95  1  0.61635200  0.25933300  0.32824100  1
  N  N96  1  0.92259400  0.08595700  0.33821000  1
  N  N97  1  0.39890100  0.62256300  0.32661200  1
  N  N98  1  0.65317200  0.63512100  0.97882100  1
  N  N99  1  0.05961200  0.90669400  0.56659800  1
