# generated using pymatgen
data_WO3
_symmetry_space_group_name_H-M   'P 1'
_cell_length_a   12.09075275
_cell_length_b   11.53019631
_cell_length_c   12.57701309
_cell_angle_alpha   83.67375996
_cell_angle_beta   91.09693366
_cell_angle_gamma   87.58129874
_symmetry_Int_Tables_number   1
_chemical_formula_structural   WO3
_chemical_formula_sum   'W25 O75'
_cell_volume   1740.61645338
_cell_formula_units_Z   25
loop_
 _symmetry_equiv_pos_site_id
 _symmetry_equiv_pos_as_xyz
  1  'x, y, z'
loop_
 _atom_site_type_symbol
 _atom_site_label
 _atom_site_symmetry_multiplicity
 _atom_site_fract_x
 _atom_site_fract_y
 _atom_site_fract_z
 _atom_site_occupancy
  W  W0  1  0.00586496  0.94851446  0.93481340  1
  W  W1  1  0.27525670  0.09364560  0.15354176  1
  W  W2  1  0.15254929  0.74938720  0.37262252  1
  W  W3  1  0.87465799  0.34258674  0.25025822  1
  W  W4  1  0.82260758  0.66647102  0.63483505  1
  W  W5  1  0.23934025  0.46874456  0.26956308  1
  W  W6  1  0.63676169  0.15169213  0.83611206  1
  W  W7  1  0.19043427  0.07161491  0.72484661  1
  W  W8  1  0.12842892  0.47436285  0.98207004  1
  W  W9  1  0.57155151  0.85683764  0.55475474  1
  W  W10  1  0.40991574  0.94385682  0.79264347  1
  W  W11  1  0.86782214  0.22882860  0.51991492  1
  W  W12  1  0.08470547  0.51519141  0.69268275  1
  W  W13  1  0.80309621  0.38820536  0.72566349  1
  W  W14  1  0.43262374  0.60412818  0.45273704  1
  W  W15  1  0.58763812  0.09601944  0.13760978  1
  W  W16  1  0.86065506  0.65156882  0.34105370  1
  W  W17  1  0.77315960  0.82280950  0.08380131  1
  W  W18  1  0.41871648  0.51922319  0.87993741  1
  W  W19  1  0.50619435  0.37911788  0.17317190  1
  W  W20  1  0.50889265  0.75784291  0.00956367  1
  W  W21  1  0.03588984  0.20394228  0.11303895  1
  W  W22  1  0.57994962  0.32838733  0.47914438  1
  W  W23  1  0.45519016  0.11789075  0.40537298  1
  W  W24  1  0.99533579  0.93110353  0.53219201  1
  O  O25  1  0.36272345  0.52596826  0.34369504  1
  O  O26  1  0.78926020  0.40214595  0.14393005  1
  O  O27  1  0.35149903  0.09612023  0.28806765  1
  O  O28  1  0.58513669  0.15613998  0.48560455  1
  O  O29  1  0.84745843  0.39722128  0.85584897  1
  O  O30  1  0.51987851  0.08325257  0.77819447  1
  O  O31  1  0.87070045  0.61754323  0.49160440  1
  O  O32  1  0.80694206  0.25245647  0.36914791  1
  O  O33  1  0.55953994  0.49391951  0.43573125  1
  O  O34  1  0.84681929  0.70635241  0.17560565  1
  O  O35  1  0.39726595  0.54198961  0.57629327  1
  O  O36  1  0.18888025  0.35950051  0.35689019  1
  O  O37  1  0.19306619  0.21857096  0.68113765  1
  O  O38  1  0.08253958  0.05813516  0.82895273  1
  O  O39  1  0.11089040  0.82132624  0.49827413  1
  O  O40  1  0.52771567  0.62786525  0.93271098  1
  O  O41  1  0.92919494  0.49595108  0.66399843  1
  O  O42  1  0.56301515  0.50575368  0.20788208  1
  O  O43  1  0.16279208  0.46808213  0.58896896  1
  O  O44  1  0.61548789  0.76226410  0.11647972  1
  O  O45  1  0.67931305  0.94571053  0.51713394  1
  O  O46  1  0.51255692  0.90654842  0.93073082  1
  O  O47  1  0.35331044  0.37750747  0.20183250  1
  O  O48  1  0.12360950  0.44071347  0.83058680  1
  O  O49  1  0.51519151  0.88082319  0.68819734  1
  O  O50  1  0.61861107  0.15901204  0.97872887  1
  O  O51  1  0.04434647  0.59973361  0.96653393  1
  O  O52  1  0.87358952  0.48990894  0.31636683  1
  O  O53  1  0.21636046  0.21949627  0.06347435  1
  O  O54  1  0.03373282  0.34596428  0.01462151  1
  O  O55  1  0.02416874  0.33388513  0.22066629  1
  O  O56  1  0.09548633  0.66684937  0.68465840  1
  O  O57  1  0.97529224  0.98880006  0.39928538  1
  O  O58  1  0.89452136  0.91440936  0.04837489  1
  O  O59  1  0.26808922  0.96535111  0.09513393  1
  O  O60  1  0.38963465  0.73894868  0.08257033  1
  O  O61  1  0.30450343  0.05203142  0.84374496  1
  O  O62  1  0.15876828  0.60574139  0.30624121  1
  O  O63  1  0.93824712  0.88669146  0.83226299  1
  O  O64  1  0.88199210  0.07165176  0.55708759  1
  O  O65  1  0.56739604  0.05762226  0.27893292  1
  O  O66  1  0.35268520  0.17216891  0.48289097  1
  O  O67  1  0.89465189  0.81706534  0.57572767  1
  O  O68  1  0.68358332  0.74108211  0.62147988  1
  O  O69  1  0.49231903  0.32788831  0.58514961  1
  O  O70  1  0.75299874  0.05963562  0.82871745  1
  O  O71  1  0.52260311  0.73262803  0.47270978  1
  O  O72  1  0.86614095  0.68037649  0.76419731  1
  O  O73  1  0.11253004  0.84861197  0.97972257  1
  O  O74  1  0.16542006  0.48054554  0.13218417  1
  O  O75  1  0.47003394  0.39779090  0.82056467  1
  O  O76  1  0.67647427  0.29436400  0.76028160  1
  O  O77  1  0.35454120  0.81227950  0.84698532  1
  O  O78  1  0.28110816  0.50220618  0.95286305  1
  O  O79  1  0.99476430  0.28026931  0.48038899  1
  O  O80  1  0.68755210  0.97051477  0.11529820  1
  O  O81  1  0.12507149  0.10171097  0.21366382  1
  O  O82  1  0.29860707  0.71047625  0.42761345  1
  O  O83  1  0.88685588  0.26648644  0.66803789  1
  O  O84  1  0.09410046  0.00848577  0.61816608  1
  O  O85  1  0.01007164  0.10455851  0.01429533  1
  O  O86  1  0.37016935  0.61323304  0.76880410  1
  O  O87  1  0.72702228  0.52701616  0.66968269  1
  O  O88  1  0.48163964  0.41430213  0.03178458  1
  O  O89  1  0.50485361  0.29138963  0.34081397  1
  O  O90  1  0.98855361  0.73993702  0.34249923  1
  O  O91  1  0.31413649  0.98295433  0.66646984  1
  O  O92  1  0.73058648  0.72327735  0.34429020  1
  O  O93  1  0.75502951  0.77203117  0.95974182  1
  O  O94  1  0.72709924  0.33047142  0.53855447  1
  O  O95  1  0.44063519  0.10253446  0.09860615  1
  O  O96  1  0.61734678  0.25111702  0.15943673  1
  O  O97  1  0.46318176  0.96006102  0.47048692  1
  O  O98  1  0.17992020  0.86193606  0.27658120  1
  O  O99  1  0.89417949  0.19198035  0.17114917  1
