# generated using pymatgen
data_ZnS
_symmetry_space_group_name_H-M   'P 1'
_cell_length_a   13.85608393
_cell_length_b   12.39063854
_cell_length_c   14.19757190
_cell_angle_alpha   86.20415468
_cell_angle_beta   91.94030661
_cell_angle_gamma   93.88442514
_symmetry_Int_Tables_number   1
_chemical_formula_structural   ZnS
_chemical_formula_sum   'Zn50 S50'
_cell_volume   2425.52932751
_cell_formula_units_Z   50
loop_
 _symmetry_equiv_pos_site_id
 _symmetry_equiv_pos_as_xyz
  1  'x, y, z'
loop_
 _atom_site_type_symbol
 _atom_site_label
 _atom_site_symmetry_multiplicity
 _atom_site_fract_x
 _atom_site_fract_y
 _atom_site_fract_z
 _atom_site_occupancy
  Zn  Zn0  1  0.56278415  0.94452440  0.55380255  1
  Zn  Zn1  1  0.38554455  0.54031024  0.93475294  1
  Zn  Zn2  1  0.85248209  0.25548311  0.79588607  1
  Zn  Zn3  1  0.64047324  0.35395371  0.94054083  1
  Zn  Zn4  1  0.01771264  0.09444897  0.42720474  1
  Zn  Zn5  1  0.57784289  0.21010915  0.46393063  1
  Zn  Zn6  1  0.85009009  0.82608396  0.52473658  1
  Zn  Zn7  1  0.62421731  0.86802739  0.11001326  1
  Zn  Zn8  1  0.42460542  0.26554352  0.63452657  1
  Zn  Zn9  1  0.76054095  0.03299464  0.94991507  1
  Zn  Zn10  1  0.66400694  0.41765527  0.63643563  1
  Zn  Zn11  1  0.62954602  0.08700210  0.04143771  1
  Zn  Zn12  1  0.82231741  0.50853302  0.11780683  1
  Zn  Zn13  1  0.95773538  0.97252567  0.74218815  1
  Zn  Zn14  1  0.44124090  0.48892508  0.77920346  1
  Zn  Zn15  1  0.62775420  0.59754423  0.24585141  1
  Zn  Zn16  1  0.04093573  0.86327365  0.55315604  1
  Zn  Zn17  1  0.14190135  0.84431470  0.06536319  1
  Zn  Zn18  1  0.08362779  0.15942738  0.13535915  1
  Zn  Zn19  1  0.35049333  0.83091441  0.46618423  1
  Zn  Zn20  1  0.03243846  0.20449834  0.91119956  1
  Zn  Zn21  1  0.62415042  0.16355005  0.75499661  1
  Zn  Zn22  1  0.70364517  0.41675412  0.40172373  1
  Zn  Zn23  1  0.73277393  0.91177682  0.72627633  1
  Zn  Zn24  1  0.32512980  0.98675813  0.90891929  1
  Zn  Zn25  1  0.14236310  0.66691174  0.90920978  1
  Zn  Zn26  1  0.81262818  0.63462089  0.55144558  1
  Zn  Zn27  1  0.39973202  0.55082626  0.20881222  1
  Zn  Zn28  1  0.79306873  0.07703473  0.43545048  1
  Zn  Zn29  1  0.38991712  0.28136491  0.92661194  1
  Zn  Zn30  1  0.12889142  0.96813666  0.25897540  1
  Zn  Zn31  1  0.01963906  0.57145142  0.54599947  1
  Zn  Zn32  1  0.16862208  0.52189151  0.39493503  1
  Zn  Zn33  1  0.19331615  0.29940317  0.05593889  1
  Zn  Zn34  1  0.07232645  0.50383161  0.12856945  1
  Zn  Zn35  1  0.35475566  0.96623783  0.07496089  1
  Zn  Zn36  1  0.55148460  0.01691816  0.30340080  1
  Zn  Zn37  1  0.89461380  0.54352266  0.88220167  1
  Zn  Zn38  1  0.24924049  0.04286639  0.62103192  1
  Zn  Zn39  1  0.15416965  0.30682580  0.23598354  1
  Zn  Zn40  1  0.48545931  0.53433912  0.45627609  1
  Zn  Zn41  1  0.59493335  0.59385496  0.02548973  1
  Zn  Zn42  1  0.20561980  0.29441132  0.65352751  1
  Zn  Zn43  1  0.94773794  0.53470770  0.30066482  1
  Zn  Zn44  1  0.96775821  0.21187318  0.58636225  1
  Zn  Zn45  1  0.28512856  0.79898813  0.70500411  1
  Zn  Zn46  1  0.85392681  0.85999784  0.25717634  1
  Zn  Zn47  1  0.95394619  0.69724222  0.96584101  1
  Zn  Zn48  1  0.13417782  0.52819239  0.71017199  1
  Zn  Zn49  1  0.94471733  0.78785049  0.69447105  1
  S  S50  1  0.51587700  0.99187186  0.14661948  1
  S  S51  1  0.16072784  0.13111794  0.98363793  1
  S  S52  1  0.54253006  0.37523255  0.39732615  1
  S  S53  1  0.95209132  0.36243464  0.95626508  1
  S  S54  1  0.09032775  0.32895694  0.76578398  1
  S  S55  1  0.90052211  0.09284396  0.85734802  1
  S  S56  1  0.08825408  0.44442426  0.97601157  1
  S  S57  1  0.73069229  0.50193033  0.97871170  1
  S  S58  1  0.73677771  0.95709042  0.56777094  1
  S  S59  1  0.97517075  0.60280648  0.69703690  1
  S  S60  1  0.75607258  0.74388814  0.80170938  1
  S  S61  1  0.42196126  0.69785643  0.64711537  1
  S  S62  1  0.34064002  0.38286567  0.03576985  1
  S  S63  1  0.75322317  0.78684245  0.93692041  1
  S  S64  1  0.04297320  0.64262280  0.39604338  1
  S  S65  1  0.66662807  0.14504469  0.34656095  1
  S  S66  1  0.60211449  0.77199213  0.96971148  1
  S  S67  1  0.35077644  0.66029573  0.06328914  1
  S  S68  1  0.36250655  0.65011840  0.51706293  1
  S  S69  1  0.64752901  0.00078093  0.82382249  1
  S  S70  1  0.77754465  0.50439652  0.27562813  1
  S  S71  1  0.70655390  0.32852115  0.78153000  1
  S  S72  1  0.06034086  0.06825325  0.62022459  1
  S  S73  1  -0.00003206  0.38293641  0.23878528  1
  S  S74  1  0.25710637  0.45875881  0.28221298  1
  S  S75  1  0.21852081  0.86966353  0.55573632  1
  S  S76  1  0.49591372  0.65137372  0.32227201  1
  S  S77  1  0.79066268  0.44721356  0.54048664  1
  S  S78  1  0.53956730  0.20665467  0.93901547  1
  S  S79  1  0.95818044  0.34185709  0.68966421  1
  S  S80  1  0.24358612  0.63371543  0.79381217  1
  S  S81  1  0.06884123  0.83229511  0.91867491  1
  S  S82  1  0.50688521  0.45026130  0.62653822  1
  S  S83  1  0.93997197  0.05442658  0.13727019  1
  S  S84  1  0.89529626  0.94166167  0.39206286  1
  S  S85  1  0.14983741  0.45511765  0.55768775  1
  S  S86  1  0.45416693  0.97324010  0.42751983  1
  S  S87  1  0.72004071  0.77039709  0.20589131  1
  S  S88  1  0.34360073  0.31013652  0.77085404  1
  S  S89  1  0.15293250  0.11182100  0.34370463  1
  S  S90  1  0.53918872  0.48267649  0.14250524  1
  S  S91  1  0.20048010  0.65049190  0.06752973  1
  S  S92  1  0.24732681  0.89109131  0.18502801  1
  S  S93  1  0.33481335  0.96741874  0.75359437  1
  S  S94  1  0.55631436  0.77181003  0.63002920  1
  S  S95  1  0.95296347  0.63489121  0.12609600  1
  S  S96  1  0.28679450  0.20906655  0.54750519  1
  S  S97  1  0.90645076  0.22392549  0.44019046  1
  S  S98  1  0.54218483  0.13820984  0.61243814  1
  S  S99  1  0.99348174  0.90043536  0.16821251  1
