# generated using pymatgen
data_B2O3
_symmetry_space_group_name_H-M   'P 1'
_cell_length_a   11.74408967
_cell_length_b   11.59492784
_cell_length_c   10.69581139
_cell_angle_alpha   86.31372155
_cell_angle_beta   91.93746916
_cell_angle_gamma   92.61716290
_symmetry_Int_Tables_number   1
_chemical_formula_structural   B2O3
_chemical_formula_sum   'B40 O60'
_cell_volume   1451.24280430
_cell_formula_units_Z   20
loop_
 _symmetry_equiv_pos_site_id
 _symmetry_equiv_pos_as_xyz
  1  'x, y, z'
loop_
 _atom_site_type_symbol
 _atom_site_label
 _atom_site_symmetry_multiplicity
 _atom_site_fract_x
 _atom_site_fract_y
 _atom_site_fract_z
 _atom_site_occupancy
  B  B0  1  0.88027415  0.62267759  0.06643550  1
  B  B1  1  0.09816192  0.62036653  0.70289918  1
  B  B2  1  0.81351323  0.22324190  0.15167354  1
  B  B3  1  0.77396375  0.44768162  0.46589670  1
  B  B4  1  0.29438361  0.36757761  0.93077872  1
  B  B5  1  0.01122637  0.95729585  0.56803339  1
  B  B6  1  0.65817483  0.75874332  0.40892915  1
  B  B7  1  0.96440873  0.04156847  0.36363522  1
  B  B8  1  0.99351339  0.46262601  0.13728784  1
  B  B9  1  0.57120006  0.59746126  0.30520511  1
  B  B10  1  0.49755723  0.17136930  0.09272875  1
  B  B11  1  0.92803512  0.82227483  0.99325050  1
  B  B12  1  0.05025828  0.04151088  0.76413111  1
  B  B13  1  0.34944076  0.78126859  0.23368854  1
  B  B14  1  0.84552020  0.88833405  0.45385822  1
  B  B15  1  0.63974023  0.13242064  0.28111413  1
  B  B16  1  0.26613294  0.58122031  0.94111483  1
  B  B17  1  0.63652161  0.67199449  0.71316358  1
  B  B18  1  0.51536771  0.37346595  0.00094625  1
  B  B19  1  0.49336571  0.74997501  0.05243445  1
  B  B20  1  0.90831162  0.59082759  0.82684708  1
  B  B21  1  0.48028903  0.10290735  0.86330168  1
  B  B22  1  0.47901828  0.52175302  0.63204603  1
  B  B23  1  0.58606648  0.35635832  0.55750355  1
  B  B24  1  0.63625860  0.14740830  0.52208467  1
  B  B25  1  0.22740741  0.93276614  0.19224333  1
  B  B26  1  0.99643353  0.28024636  0.03670575  1
  B  B27  1  0.08732721  0.69868103  0.92642906  1
  B  B28  1  0.82579117  0.48368157  0.24311145  1
  B  B29  1  0.32480220  0.65585231  0.68589907  1
  B  B30  1  0.57936383  0.56086368  0.08353145  1
  B  B31  1  0.67042135  0.08427018  0.74972476  1
  B  B32  1  0.85387423  0.00156702  0.85577566  1
  B  B33  1  0.13862025  0.19707029  0.89468573  1
  B  B34  1  0.40646152  0.73154196  0.86124267  1
  B  B35  1  0.33235664  0.12510955  0.69030975  1
  B  B36  1  0.30370492  0.12948417  0.17797909  1
  B  B37  1  0.92568587  0.53487737  0.61128150  1
  B  B38  1  0.46188922  0.71716187  0.40250149  1
  B  B39  1  0.10683492  0.08608626  0.22231858  1
  O  O40  1  0.87650097  0.74538291  0.07533057  1
  O  O41  1  0.88009608  0.48995105  0.50700625  1
  O  O42  1  0.31874310  0.01054125  0.18934953  1
  O  O43  1  0.57423379  0.48052368  0.99571387  1
  O  O44  1  0.49235075  0.41419885  0.59214225  1
  O  O45  1  0.04005231  0.57300427  0.60692027  1
  O  O46  1  0.11818611  0.96935331  0.20486411  1
  O  O47  1  0.13761999  0.10576762  0.81833243  1
  O  O48  1  0.20773288  0.65772489  0.70152412  1
  O  O49  1  0.23176911  0.27001704  0.89767774  1
  O  O50  1  0.85327384  0.59446274  0.93029703  1
  O  O51  1  0.55125546  0.78577848  0.44782372  1
  O  O52  1  0.57269593  0.12849757  0.78758413  1
  O  O53  1  0.28890675  0.16822090  0.59291002  1
  O  O54  1  0.38930704  0.74843871  0.73347226  1
  O  O55  1  0.45390351  0.80784685  0.94084975  1
  O  O56  1  0.07561271  0.96439428  0.67728161  1
  O  O57  1  0.99673725  0.57408706  0.09027138  1
  O  O58  1  0.37720119  0.07922874  0.79535514  1
  O  O59  1  0.74751769  0.19296534  0.23850430  1
  O  O60  1  0.03451871  0.03737123  0.46989824  1
  O  O61  1  0.38720122  0.20449279  0.14198946  1
  O  O62  1  0.56149614  0.52755678  0.20782356  1
  O  O63  1  0.47945354  0.09870316  0.98767189  1
  O  O64  1  0.03525843  0.79581946  0.94747799  1
  O  O65  1  0.93704328  0.05755609  0.78431147  1
  O  O66  1  0.86667815  0.54421882  0.71900681  1
  O  O67  1  0.37029648  0.56505867  0.63233309  1
  O  O68  1  0.57266276  0.24296214  0.53386492  1
  O  O69  1  0.37385077  0.61896525  0.90980925  1
  O  O70  1  0.56315649  0.27994543  0.05815714  1
  O  O71  1  0.56000881  0.10738091  0.19779587  1
  O  O72  1  0.58060161  0.67749992  0.04249828  1
  O  O73  1  0.03365155  0.63398551  0.81676328  1
  O  O74  1  0.74290136  0.03175432  0.83663038  1
  O  O75  1  0.40934506  0.36706655  0.93762113  1
  O  O76  1  0.04686881  0.37722672  0.07744599  1
  O  O77  1  0.79724201  0.56255509  0.14990918  1
  O  O78  1  0.36027947  0.76397164  0.36262721  1
  O  O79  1  0.57321880  0.58358073  0.67821414  1
  O  O80  1  0.75371837  0.44687212  0.33969113  1
  O  O81  1  0.70166125  0.75217855  0.74235148  1
  O  O82  1  0.69264760  0.09159874  0.62215606  1
  O  O83  1  0.04189555  0.20447246  0.96491603  1
  O  O84  1  0.19164302  0.66681208  0.96428751  1
  O  O85  1  0.86443893  0.97492128  0.35931429  1
  O  O86  1  0.66611800  0.66952651  0.33008117  1
  O  O87  1  0.44321996  0.75822932  0.16590101  1
  O  O88  1  0.69212510  0.41290857  0.54907806  1
  O  O89  1  0.47754716  0.60202776  0.38155198  1
  O  O90  1  0.24689021  0.81813741  0.18463806  1
  O  O91  1  0.92660449  0.42491338  0.23744182  1
  O  O92  1  0.23335979  0.46685544  0.94512622  1
  O  O93  1  0.87933545  0.92361885  0.95388529  1
  O  O94  1  0.64499663  0.10452317  0.40654057  1
  O  O95  1  0.87688057  0.25296534  0.05989385  1
  O  O96  1  0.19336199  0.16673378  0.20053511  1
  O  O97  1  0.00028740  0.11396366  0.26281283  1
  O  O98  1  0.75284629  0.81647673  0.44976124  1
  O  O99  1  0.92389119  0.87447959  0.55407350  1
