# generated using pymatgen
data_Al2O3
_symmetry_space_group_name_H-M   'P 1'
_cell_length_a   10.63080766
_cell_length_b   10.54704176
_cell_length_c   10.17271001
_cell_angle_alpha   93.05571701
_cell_angle_beta   88.41563538
_cell_angle_gamma   86.80525731
_symmetry_Int_Tables_number   1
_chemical_formula_structural   Al2O3
_chemical_formula_sum   'Al40 O60'
_cell_volume   1136.67232393
_cell_formula_units_Z   20
loop_
 _symmetry_equiv_pos_site_id
 _symmetry_equiv_pos_as_xyz
  1  'x, y, z'
loop_
 _atom_site_type_symbol
 _atom_site_label
 _atom_site_symmetry_multiplicity
 _atom_site_fract_x
 _atom_site_fract_y
 _atom_site_fract_z
 _atom_site_occupancy
  Al  Al0  1  0.82251000  0.54038100  0.64327500  1
  Al  Al1  1  0.68627500  0.83417100  0.30249600  1
  Al  Al2  1  0.43281800  0.71715600  0.78564700  1
  Al  Al3  1  0.91940400  0.79237200  0.03985400  1
  Al  Al4  1  0.84807900  0.51187900  0.10308700  1
  Al  Al5  1  0.32837000  0.00394300  0.66443400  1
  Al  Al6  1  0.17672800  0.67236400  0.54248800  1
  Al  Al7  1  0.05302300  0.39526900  0.54128500  1
  Al  Al8  1  0.36379200  0.29259200  0.24253700  1
  Al  Al9  1  0.79480500  0.31618700  0.85306500  1
  Al  Al10  1  0.54574600  0.65219700  0.51100900  1
  Al  Al11  1  0.26624700  0.45541300  0.70037900  1
  Al  Al12  1  0.70008500  0.27075300  0.60827600  1
  Al  Al13  1  0.70722000  0.77896000  0.67979200  1
  Al  Al14  1  0.55266500  0.99642500  0.10457800  1
  Al  Al15  1  0.00695600  0.88894200  0.59282100  1
  Al  Al16  1  0.30827400  0.03161400  0.15996700  1
  Al  Al17  1  0.83539300  0.02736400  0.80852800  1
  Al  Al18  1  0.52137400  0.45683700  0.81589400  1
  Al  Al19  1  0.51504200  0.08223100  0.41741000  1
  Al  Al20  1  0.58313100  0.08035500  0.73437000  1
  Al  Al21  1  0.17814200  0.62344300  0.96155600  1
  Al  Al22  1  0.02107100  0.44924600  0.83529600  1
  Al  Al23  1  0.11800500  0.80542900  0.30886500  1
  Al  Al24  1  0.34852600  0.68029000  0.13667000  1
  Al  Al25  1  0.45958200  0.36001300  0.51919600  1
  Al  Al26  1  0.03650100  0.20728600  0.99986700  1
  Al  Al27  1  0.54970500  0.29063300  0.01938100  1
  Al  Al28  1  0.94449800  0.72722500  0.77566200  1
  Al  Al29  1  0.11002400  0.08952400  0.44406900  1
  Al  Al30  1  0.80712400  0.11389400  0.36652200  1
  Al  Al31  1  0.56677700  0.49446100  0.25002100  1
  Al  Al32  1  0.38806500  0.83382400  0.40584400  1
  Al  Al33  1  0.32429000  0.20550200  0.91196900  1
  Al  Al34  1  0.28353400  0.89650400  0.93998600  1
  Al  Al35  1  0.63339800  0.69079000  0.03635200  1
  Al  Al36  1  0.13079600  0.44821100  0.18329100  1
  Al  Al37  1  0.06904100  0.16002100  0.72756700  1
  Al  Al38  1  0.04455600  0.02066400  0.19114500  1
  Al  Al39  1  0.92218200  0.61232700  0.36794000  1
  O  O40  1  0.95587000  0.04392300  0.35644700  1
  O  O41  1  0.10464700  0.34770700  0.04654400  1
  O  O42  1  0.71579700  0.17729800  0.76913300  1
  O  O43  1  0.95785800  0.03723900  0.67705600  1
  O  O44  1  0.45092300  0.24130900  0.38383600  1
  O  O45  1  0.80435500  0.38056400  0.69374200  1
  O  O46  1  0.17585600  0.50981600  0.56962500  1
  O  O47  1  0.40630700  0.97690800  0.50501100  1
  O  O48  1  0.60548200  0.13182800  0.03290300  1
  O  O49  1  0.07966900  0.67313000  0.39583400  1
  O  O50  1  0.33699900  0.18734300  0.09450500  1
  O  O51  1  0.06127800  0.32787400  0.70946200  1
  O  O52  1  0.06467400  0.24857500  0.46248300  1
  O  O53  1  0.72132000  0.47458900  0.19838500  1
  O  O54  1  0.30576800  0.72788000  0.96725800  1
  O  O55  1  0.86882800  0.81015100  0.62136400  1
  O  O56  1  0.45429500  0.01681900  0.25718900  1
  O  O57  1  0.89151700  0.42669400  0.94846800  1
  O  O58  1  0.77829400  0.67530500  0.79076800  1
  O  O59  1  0.09578300  0.76922400  0.67685700  1
  O  O60  1  0.18731000  0.05928000  0.28419700  1
  O  O61  1  0.92125100  0.18479900  0.87083800  1
  O  O62  1  0.50828300  0.63050500  0.15469000  1
  O  O63  1  0.89469900  0.89422600  0.90467500  1
  O  O64  1  0.70587400  0.62662900  0.55389600  1
  O  O65  1  0.41594100  0.94262100  0.02632600  1
  O  O66  1  0.97217000  0.56073600  0.72392000  1
  O  O67  1  0.18197000  0.49169600  0.85299000  1
  O  O68  1  0.29000200  0.80035400  0.25987700  1
  O  O69  1  0.16858100  0.15814300  0.87473000  1
  O  O70  1  0.64288400  0.84987900  0.12559800  1
  O  O71  1  0.33766600  0.32169200  0.62476100  1
  O  O72  1  0.49115000  0.36939800  0.16829500  1
  O  O73  1  0.97525200  0.52544500  0.21337800  1
  O  O74  1  0.75848800  0.25265900  0.44639600  1
  O  O75  1  0.95338700  0.13390000  0.11914800  1
  O  O76  1  0.17816700  0.97807600  0.05314700  1
  O  O77  1  0.33375000  0.71487200  0.50606600  1
  O  O78  1  0.50819000  0.50201800  0.42083400  1
  O  O79  1  0.11399200  0.90559500  0.45701800  1
  O  O80  1  0.55024900  0.77282600  0.38431200  1
  O  O81  1  0.41780500  0.09494500  0.78683000  1
  O  O82  1  0.21758500  0.58120500  0.12278100  1
  O  O83  1  0.57111900  0.38776900  0.64969900  1
  O  O84  1  0.53608800  0.76264100  0.65937100  1
  O  O85  1  0.64685000  0.38667200  0.92366900  1
  O  O86  1  0.39176200  0.55843500  0.73905500  1
  O  O87  1  0.80236200  0.67127200  0.05761300  1
  O  O88  1  0.54508700  0.63938300  0.89695300  1
  O  O89  1  0.81885400  0.73955100  0.33012700  1
  O  O90  1  0.32359300  0.86736100  0.77130100  1
  O  O91  1  0.58271000  0.13523900  0.57259400  1
  O  O92  1  0.92256700  0.49744000  0.48863500  1
  O  O93  1  0.42380600  0.33638700  0.90439600  1
  O  O94  1  0.18649900  0.07966600  0.61548800  1
  O  O95  1  0.01514000  0.84767900  0.17748300  1
  O  O96  1  0.68540000  0.94481900  0.75855600  1
  O  O97  1  0.02936400  0.69299300  0.93983600  1
  O  O98  1  0.23520200  0.38870300  0.29334600  1
  O  O99  1  0.68166600  0.00731400  0.34538400  1
