# generated using pymatgen
data_P2O5
_symmetry_space_group_name_H-M   'P 1'
_cell_length_a   12.41697656
_cell_length_b   12.08613659
_cell_length_c   11.60241426
_cell_angle_alpha   91.21569807
_cell_angle_beta   89.30963027
_cell_angle_gamma   85.24150096
_symmetry_Int_Tables_number   1
_chemical_formula_structural   P2O5
_chemical_formula_sum   'P30 O75'
_cell_volume   1734.65349202
_cell_formula_units_Z   15
loop_
 _symmetry_equiv_pos_site_id
 _symmetry_equiv_pos_as_xyz
  1  'x, y, z'
loop_
 _atom_site_type_symbol
 _atom_site_label
 _atom_site_symmetry_multiplicity
 _atom_site_fract_x
 _atom_site_fract_y
 _atom_site_fract_z
 _atom_site_occupancy
  P  P0  1  0.85215846  0.55358000  0.12081842  1
  P  P1  1  0.19331678  0.14714737  0.10332451  1
  P  P2  1  0.89399777  0.35539482  0.65813758  1
  P  P3  1  0.30926714  0.26416490  0.72898258  1
  P  P4  1  0.99011813  0.57507852  0.57929340  1
  P  P5  1  0.47342349  0.15261104  0.98011316  1
  P  P6  1  0.23970956  0.55492090  0.14031080  1
  P  P7  1  0.68236138  0.82418687  0.82191212  1
  P  P8  1  0.23552377  0.78505460  0.07754869  1
  P  P9  1  0.97906802  0.26009123  0.10654372  1
  P  P10  1  0.92700783  0.72039544  0.80385257  1
  P  P11  1  0.17546939  0.49718863  0.73972826  1
  P  P12  1  0.66818245  0.43525927  0.80083065  1
  P  P13  1  0.46412234  0.52691173  0.47344119  1
  P  P14  1  0.41017615  0.77832770  0.22563575  1
  P  P15  1  0.86719985  0.96931765  0.82279314  1
  P  P16  1  0.37732439  0.84730660  0.85762634  1
  P  P17  1  0.94985394  0.19185866  0.36313852  1
  P  P18  1  0.05818750  0.75471185  0.43722462  1
  P  P19  1  0.44602491  0.41658670  0.05824323  1
  P  P20  1  0.75863356  0.04832922  0.36837351  1
  P  P21  1  0.78895328  0.34582176  0.00217602  1
  P  P22  1  0.87314209  0.64555777  0.35404244  1
  P  P23  1  0.53904530  0.36922847  0.28684880  1
  P  P24  1  0.38901335  0.06232650  0.36159240  1
  P  P25  1  0.63913144  0.07267515  0.57556875  1
  P  P26  1  0.05220654  0.56235265  0.95761182  1
  P  P27  1  0.65547466  0.68068742  0.48615897  1
  P  P28  1  0.14014553  0.12149907  0.64095405  1
  P  P29  1  0.50382466  0.87744294  0.51874849  1
  O  O30  1  0.41010986  0.72609358  0.33747226  1
  O  O31  1  0.67897086  0.53575585  0.73519635  1
  O  O32  1  0.56746070  0.59838268  0.44112713  1
  O  O33  1  0.49845767  0.25221251  0.27877835  1
  O  O34  1  0.94512386  0.84345594  0.79351799  1
  O  O35  1  0.57514794  0.13016554  0.91576202  1
  O  O36  1  0.82244323  0.68837475  0.85041892  1
  O  O37  1  0.58793592  0.35593188  0.81948724  1
  O  O38  1  0.55862470  0.97198742  0.58695347  1
  O  O39  1  0.37707333  0.25249716  0.62445324  1
  O  O40  1  0.20511834  0.56964386  0.26019688  1
  O  O41  1  0.83362058  0.15073504  0.39635774  1
  O  O42  1  0.92083891  0.88673543  0.13363545  1
  O  O43  1  0.60190931  0.80110115  0.90972974  1
  O  O44  1  0.01311928  0.35889668  0.16845120  1
  O  O45  1  0.91216901  0.29772905  0.98741487  1
  O  O46  1  0.11695331  0.18936478  0.54006619  1
  O  O47  1  0.12786396  0.55995858  0.05985608  1
  O  O48  1  0.68076489  0.09453522  0.69480188  1
  O  O49  1  0.34608713  0.14122122  0.44941590  1
  O  O50  1  0.23958898  0.59271633  0.75158959  1
  O  O51  1  0.83780473  0.86615744  0.08470737  1
  O  O52  1  0.98648156  0.29733475  0.71391666  1
  O  O53  1  0.44618818  0.94215941  0.41231605  1
  O  O54  1  0.02784298  0.67441531  0.89016927  1
  O  O55  1  0.90966324  0.46881075  0.59835623  1
  O  O56  1  0.10909604  0.01348225  0.67747567  1
  O  O57  1  0.29166468  0.83157649  0.19191961  1
  O  O58  1  0.49342350  0.79062365  0.13737913  1
  O  O59  1  0.89804449  0.54845088  0.25299206  1
  O  O60  1  0.78044170  0.32842940  0.64927582  1
  O  O61  1  0.40142545  0.96453382  0.85954105  1
  O  O62  1  0.29178057  0.65555821  0.07794376  1
  O  O63  1  0.21576954  0.19025782  0.21864246  1
  O  O64  1  0.25681404  0.06692686  0.02794085  1
  O  O65  1  0.35769195  0.26551167  0.84694174  1
  O  O66  1  0.91053684  0.17719684  0.16615408  1
  O  O67  1  0.58583827  0.16786898  0.51587472  1
  O  O68  1  0.29221992  0.83391554  0.97402932  1
  O  O69  1  0.03692864  0.10164677  0.33327189  1
  O  O70  1  0.08386175  0.49838322  0.64781301  1
  O  O71  1  0.65430620  0.08923476  0.31118792  1
  O  O72  1  0.08552295  0.19295498  0.04160171  1
  O  O73  1  0.44871563  0.28859996  0.04134861  1
  O  O74  1  0.07583278  0.62608547  0.49851203  1
  O  O75  1  0.77367656  0.41910782  0.88789072  1
  O  O76  1  0.75112403  0.68181728  0.35117186  1
  O  O77  1  0.52335276  0.43179985  0.16612620  1
  O  O78  1  0.79600928  0.44268097  0.10482043  1
  O  O79  1  0.75623479  0.91848106  0.86682979  1
  O  O80  1  0.85305409  0.02248693  0.70723964  1
  O  O81  1  0.31405287  0.44733213  0.10642715  1
  O  O82  1  0.00232694  0.83157634  0.52327369  1
  O  O83  1  0.73633538  0.00988574  0.49783629  1
  O  O84  1  0.70627202  0.27242768  0.03176539  1
  O  O85  1  0.45651494  0.45311712  0.35927566  1
  O  O86  1  0.15925746  0.77283762  0.37402891  1
  O  O87  1  0.60151173  0.80452744  0.45102705  1
  O  O88  1  0.46566722  0.49774362  0.97066899  1
  O  O89  1  0.35707637  0.59489061  0.49131112  1
  O  O90  1  0.96214060  0.72483619  0.33373118  1
  O  O91  1  0.81291114  0.95359360  0.30042814  1
  O  O92  1  0.65475181  0.37082281  0.33284497  1
  O  O93  1  0.95604891  0.66504910  0.67978364  1
  O  O94  1  0.48270411  0.46256622  0.58160174  1
  O  O95  1  0.11737851  0.79572009  0.08248597  1
  O  O96  1  0.10101421  0.47797959  0.86387320  1
  O  O97  1  0.94534758  0.52930718  0.01295140  1
  O  O98  1  0.88862558  0.60320223  0.47982461  1
  O  O99  1  0.43793952  0.81130820  0.59018796  1
  O  O100  1  0.22526264  0.37760016  0.72021083  1
  O  O101  1  0.68715684  0.80383581  0.69681288  1
  O  O102  1  0.91915267  0.02292093  0.91982447  1
  O  O103  1  0.79235559  0.66025691  0.10178694  1
  O  O104  1  0.21894676  0.17235049  0.73227312  1
