# generated using pymatgen
data_Si3N4
_symmetry_space_group_name_H-M   'P 1'
_cell_length_a   10.56110328
_cell_length_b   10.10411414
_cell_length_c   10.98113807
_cell_angle_alpha   85.71973034
_cell_angle_beta   89.50014613
_cell_angle_gamma   88.00412909
_symmetry_Int_Tables_number   1
_chemical_formula_structural   Si3N4
_chemical_formula_sum   'Si45 N60'
_cell_volume   1167.80451288
_cell_formula_units_Z   15
loop_
 _symmetry_equiv_pos_site_id
 _symmetry_equiv_pos_as_xyz
  1  'x, y, z'
loop_
 _atom_site_type_symbol
 _atom_site_label
 _atom_site_symmetry_multiplicity
 _atom_site_fract_x
 _atom_site_fract_y
 _atom_site_fract_z
 _atom_site_occupancy
  Si  Si0  1  0.88334200  0.81953000  0.56178800  1
  Si  Si1  1  0.14831500  0.18279000  0.48130600  1
  Si  Si2  1  0.95956400  0.41004300  0.83781800  1
  Si  Si3  1  0.39033700  0.46144700  0.89607500  1
  Si  Si4  1  0.19205600  0.96168400  0.90468900  1
  Si  Si5  1  0.22319900  0.68848300  0.51587300  1
  Si  Si6  1  0.49482700  0.86733600  0.26289600  1
  Si  Si7  1  0.75719300  0.26407400  0.70605900  1
  Si  Si8  1  0.69493900  0.69893900  0.61898000  1
  Si  Si9  1  0.22344400  0.19925800  0.21550000  1
  Si  Si10  1  0.63475600  0.30726200  0.96105500  1
  Si  Si11  1  0.64061200  0.06987200  0.90129300  1
  Si  Si12  1  0.76411900  0.70473400  0.06252700  1
  Si  Si13  1  0.74794400  0.96731700  0.12749800  1
  Si  Si14  1  0.14690400  0.45973800  0.37002100  1
  Si  Si15  1  0.10429600  0.25292800  0.97463400  1
  Si  Si16  1  0.16913400  0.67135200  0.79582800  1
  Si  Si17  1  0.90303400  0.33495600  0.37329000  1
  Si  Si18  1  0.44245300  0.42021100  0.28410100  1
  Si  Si19  1  0.87096200  0.07567500  0.52737200  1
  Si  Si20  1  0.64056900  0.01292100  0.64039400  1
  Si  Si21  1  0.70196100  0.44195400  0.20280600  1
  Si  Si22  1  0.49011900  0.63719400  0.09825600  1
  Si  Si23  1  0.00273600  0.32724200  0.58886100  1
  Si  Si24  1  0.65680700  0.45625400  0.47124800  1
  Si  Si25  1  0.50512100  0.16024000  0.16783100  1
  Si  Si26  1  0.96900600  0.50591200  0.17069200  1
  Si  Si27  1  0.04296400  0.73215300  0.02487900  1
  Si  Si28  1  0.36462800  0.48676700  0.53761300  1
  Si  Si29  1  0.02775200  0.74261400  0.30833800  1
  Si  Si30  1  0.23036800  0.48429700  0.11345500  1
  Si  Si31  1  0.89333200  0.65307700  0.82232300  1
  Si  Si32  1  0.24496800  0.29570500  0.74005000  1
  Si  Si33  1  0.03454100  0.00198800  0.13582700  1
  Si  Si34  1  0.65458900  0.00993400  0.36856500  1
  Si  Si35  1  0.42937600  0.69649600  0.68749900  1
  Si  Si36  1  0.50447400  0.27805500  0.56116800  1
  Si  Si37  1  0.86917900  0.25091800  0.10659300  1
  Si  Si38  1  0.74308500  0.74608600  0.35336400  1
  Si  Si39  1  0.39814800  0.97873300  0.51318500  1
  Si  Si40  1  0.37717300  0.14835900  0.97882600  1
  Si  Si41  1  0.21792800  0.94223200  0.35418900  1
  Si  Si42  1  0.13528900  0.93068500  0.63203600  1
  Si  Si43  1  0.39448700  0.97890000  0.77335400  1
  Si  Si44  1  0.64654700  0.57184000  0.86777300  1
  N  N45  1  0.51461400  0.10039600  0.53402000  1
  N  N46  1  0.34506800  0.28567800  0.87563600  1
  N  N47  1  0.36498000  0.53287800  0.03312600  1
  N  N48  1  0.58497200  0.65388200  0.72884700  1
  N  N49  1  0.16269300  0.75917300  0.64702500  1
  N  N50  1  0.60334200  0.02431500  0.21504400  1
  N  N51  1  0.80084000  0.51816600  0.85557300  1
  N  N52  1  0.75801900  0.80005100  0.19133800  1
  N  N53  1  0.97223200  0.19760600  0.48061400  1
  N  N54  1  0.38205700  0.93962600  0.36227200  1
  N  N55  1  0.28518000  0.48594800  0.26208700  1
  N  N56  1  0.89173500  0.73674400  0.95868800  1
  N  N57  1  0.88045700  0.07527500  0.13923400  1
  N  N58  1  0.43890000  0.77441600  0.16352500  1
  N  N59  1  0.60941000  0.84669000  0.38016800  1
  N  N60  1  0.71484700  0.31714600  0.09776500  1
  N  N61  1  0.97721000  0.94853400  0.58949300  1
  N  N62  1  0.35424800  0.99309800  0.92495100  1
  N  N63  1  0.69384800  0.61906700  0.47913400  1
  N  N64  1  0.21168800  0.52250200  0.49602600  1
  N  N65  1  0.14633200  0.79491500  0.90945000  1
  N  N66  1  0.41658300  0.87446300  0.65126100  1
  N  N67  1  0.03858500  0.57293600  0.81010000  1
  N  N68  1  0.37525500  0.34552500  0.63945100  1
  N  N69  1  0.10716500  0.06883700  0.99651800  1
  N  N70  1  0.18102600  0.31677400  0.09795300  1
  N  N71  1  0.64752000  0.34593400  0.60325000  1
  N  N72  1  0.89448300  0.77921500  0.40670600  1
  N  N73  1  0.71195000  0.94918700  0.98361300  1
  N  N74  1  0.76978500  0.11147400  0.64536500  1
  N  N75  1  0.38849800  0.65468000  0.54640600  1
  N  N76  1  0.99492600  0.43165400  0.46020800  1
  N  N77  1  0.08644900  0.56527200  0.06505700  1
  N  N78  1  0.20120400  0.27239000  0.35702600  1
  N  N79  1  0.21614700  0.00266800  0.74804100  1
  N  N80  1  0.21937100  0.01883200  0.50441700  1
  N  N81  1  0.74421200  0.38713700  0.35673800  1
  N  N82  1  0.78959500  0.06799100  0.39824200  1
  N  N83  1  0.48695000  0.42135700  0.44540400  1
  N  N84  1  0.55162900  0.43844300  0.89098400  1
  N  N85  1  0.11921700  0.33321200  0.83193300  1
  N  N86  1  0.71202400  0.87154500  0.58941500  1
  N  N87  1  0.32767800  0.59892200  0.79133300  1
  N  N88  1  0.62048100  0.66437900  0.99413300  1
  N  N89  1  0.94758600  0.30715000  0.97708100  1
  N  N90  1  0.49977100  0.26749700  0.27020100  1
  N  N91  1  0.89948900  0.34116000  0.70454600  1
  N  N92  1  0.15036800  0.25362900  0.61831600  1
  N  N93  1  0.53975600  0.16929600  0.00373300  1
  N  N94  1  0.81378700  0.55660400  0.14725600  1
  N  N95  1  0.85335400  0.69365300  0.67078300  1
  N  N96  1  0.16044000  0.78827800  0.39078700  1
  N  N97  1  0.13580100  0.04905100  0.25185900  1
  N  N98  1  0.55525300  0.52247900  0.21114900  1
  N  N99  1  0.35064300  0.12798000  0.13602500  1
  N  N100  1  0.55296100  0.02665800  0.77514500  1
  N  N101  1  0.94626600  0.33482500  0.22106500  1
  N  N102  1  0.04278200  0.57876600  0.28794900  1
  N  N103  1  0.03657900  0.82795500  0.15640600  1
  N  N104  1  0.71117000  0.22066900  0.85258400  1
