# generated using pymatgen
data_Fe2O3
_symmetry_space_group_name_H-M   'P 1'
_cell_length_a   10.26627293
_cell_length_b   10.23295030
_cell_length_c   10.38777504
_cell_angle_alpha   90.44555305
_cell_angle_beta   93.12564457
_cell_angle_gamma   87.33796388
_symmetry_Int_Tables_number   1
_chemical_formula_structural   Fe2O3
_chemical_formula_sum   'Fe32 O48'
_cell_volume   1088.46567566
_cell_formula_units_Z   16
loop_
 _symmetry_equiv_pos_site_id
 _symmetry_equiv_pos_as_xyz
  1  'x, y, z'
loop_
 _atom_site_type_symbol
 _atom_site_label
 _atom_site_symmetry_multiplicity
 _atom_site_fract_x
 _atom_site_fract_y
 _atom_site_fract_z
 _atom_site_occupancy
  Fe  Fe0  1  0.53673400  0.75109100  0.08282800  1
  Fe  Fe1  1  0.42375100  0.06258900  0.57206600  1
  Fe  Fe2  1  0.79391200  0.77189200  0.79848400  1
  Fe  Fe3  1  0.90413300  0.06701900  0.43445900  1
  Fe  Fe4  1  0.36476400  0.23150700  0.19229200  1
  Fe  Fe5  1  0.45567100  0.38708800  0.45408700  1
  Fe  Fe6  1  0.47355800  0.05788900  0.93701700  1
  Fe  Fe7  1  0.63898300  0.51077300  0.97093500  1
  Fe  Fe8  1  0.15438900  0.54790500  0.53852800  1
  Fe  Fe9  1  0.38510000  0.52622200  0.81553200  1
  Fe  Fe10  1  0.90531300  0.00286600  0.12026800  1
  Fe  Fe11  1  0.11838500  0.06784300  0.65100800  1
  Fe  Fe12  1  0.63794900  0.26509800  0.73274500  1
  Fe  Fe13  1  0.16739400  0.24291700  0.42081900  1
  Fe  Fe14  1  0.34698300  0.54231800  0.15077000  1
  Fe  Fe15  1  0.34484500  0.85244600  0.84845700  1
  Fe  Fe16  1  0.99286200  0.21581300  0.85042500  1
  Fe  Fe17  1  0.65405900  0.54653000  0.67652500  1
  Fe  Fe18  1  0.41225700  0.71720700  0.57287000  1
  Fe  Fe19  1  0.09202200  0.31999400  0.10008000  1
  Fe  Fe20  1  0.77177100  0.80748700  0.25534400  1
  Fe  Fe21  1  0.99634500  0.58829400  0.24056900  1
  Fe  Fe22  1  0.17439200  0.78730800  0.13592500  1
  Fe  Fe23  1  0.63631200  0.10515700  0.31818400  1
  Fe  Fe24  1  0.75263400  0.21418900  0.00837100  1
  Fe  Fe25  1  0.02611000  0.87071100  0.86558700  1
  Fe  Fe26  1  0.65407900  0.47313900  0.24620700  1
  Fe  Fe27  1  0.85639900  0.36837200  0.49165600  1
  Fe  Fe28  1  0.09808700  0.82864100  0.41005800  1
  Fe  Fe29  1  0.40247700  0.92913800  0.24904700  1
  Fe  Fe30  1  0.03971100  0.51503400  0.78074800  1
  Fe  Fe31  1  0.68616800  0.87038800  0.56270700  1
  O  O32  1  0.72787000  0.38458200  0.62109600  1
  O  O33  1  0.88162700  0.88849000  0.96715200  1
  O  O34  1  0.49006700  0.54192700  0.56305700  1
  O  O35  1  0.81000000  0.25630700  0.83504000  1
  O  O36  1  0.78794300  0.49280300  0.36860300  1
  O  O37  1  0.75760800  0.19695200  0.42591600  1
  O  O38  1  0.40186300  0.70206400  0.75767100  1
  O  O39  1  0.36456400  0.02143400  0.77809500  1
  O  O40  1  0.16452200  0.60362300  0.15519500  1
  O  O41  1  0.99465400  0.47279800  0.60574600  1
  O  O42  1  0.51648700  0.27329700  0.30501700  1
  O  O43  1  0.59621300  0.17331000  0.89302800  1
  O  O44  1  0.19216100  0.84919300  0.95642500  1
  O  O45  1  0.99778900  0.23264800  0.47594400  1
  O  O46  1  0.50373000  0.22985400  0.59472400  1
  O  O47  1  0.24414700  0.10415000  0.52998900  1
  O  O48  1  0.13834900  0.21832700  0.75246100  1
  O  O49  1  0.96745800  0.16572500  0.03514700  1
  O  O50  1  0.55281300  0.43025800  0.80456700  1
  O  O51  1  0.73416700  0.09018200  0.14727000  1
  O  O52  1  0.22013700  0.88786400  0.28813500  1
  O  O53  1  0.97643800  0.41533200  0.19506200  1
  O  O54  1  0.74843900  0.93558100  0.71975800  1
  O  O55  1  0.23598500  0.72422100  0.52408200  1
  O  O56  1  0.68252300  0.63013600  0.13286100  1
  O  O57  1  0.73290200  0.69727300  0.61587000  1
  O  O58  1  0.26221700  0.40201700  0.45721900  1
  O  O59  1  0.46560200  0.04405800  0.38168200  1
  O  O60  1  0.98131500  0.70260000  0.79694800  1
  O  O61  1  0.51096600  0.87076900  0.94203700  1
  O  O62  1  0.68208700  0.37091300  0.08702800  1
  O  O63  1  0.28985200  0.37034700  0.08578100  1
  O  O64  1  0.71543800  0.61698100  0.85232200  1
  O  O65  1  0.03005700  0.94624500  0.53989600  1
  O  O66  1  0.00522300  0.03712500  0.78165800  1
  O  O67  1  0.58576300  0.87222200  0.21704200  1
  O  O68  1  0.98365900  0.00830100  0.28580300  1
  O  O69  1  0.03551900  0.38668700  0.91670100  1
  O  O70  1  0.18968100  0.21219000  0.24401100  1
  O  O71  1  0.75688100  0.93641100  0.40871500  1
  O  O72  1  0.39964100  0.06960900  0.10507200  1
  O  O73  1  0.03860300  0.64528200  0.41171500  1
  O  O74  1  0.21908900  0.51553900  0.73228200  1
  O  O75  1  0.49614400  0.87834600  0.57086800  1
  O  O76  1  0.36897700  0.75094600  0.15428400  1
  O  O77  1  0.45161100  0.57071800  0.99336400  1
  O  O78  1  0.95821000  0.77122600  0.19874600  1
  O  O79  1  0.47321800  0.51657600  0.29358300  1
