# generated using pymatgen
data_Al2O3
_symmetry_space_group_name_H-M   'P 1'
_cell_length_a   10.36267670
_cell_length_b   10.74736460
_cell_length_c   9.99755122
_cell_angle_alpha   91.23899504
_cell_angle_beta   90.16667631
_cell_angle_gamma   90.05798826
_symmetry_Int_Tables_number   1
_chemical_formula_structural   Al2O3
_chemical_formula_sum   'Al40 O60'
_cell_volume   1113.17624589
_cell_formula_units_Z   20
loop_
 _symmetry_equiv_pos_site_id
 _symmetry_equiv_pos_as_xyz
  1  'x, y, z'
loop_
 _atom_site_type_symbol
 _atom_site_label
 _atom_site_symmetry_multiplicity
 _atom_site_fract_x
 _atom_site_fract_y
 _atom_site_fract_z
 _atom_site_occupancy
  Al  Al0  1  0.89580900  0.23268700  0.59807400  1
  Al  Al1  1  0.77500000  0.67129700  0.29594300  1
  Al  Al2  1  0.30039300  0.42947300  0.25288900  1
  Al  Al3  1  0.19305100  0.45513300  0.89968600  1
  Al  Al4  1  0.49948400  0.71696500  0.59240600  1
  Al  Al5  1  0.03938800  0.31285200  0.12756900  1
  Al  Al6  1  0.33558300  0.01206000  0.83180900  1
  Al  Al7  1  0.25220300  0.69836500  0.11489100  1
  Al  Al8  1  0.04470900  0.88618800  0.77738000  1
  Al  Al9  1  0.98564700  0.83169600  0.20518500  1
  Al  Al10  1  0.92624900  0.36129800  0.88762300  1
  Al  Al11  1  0.33214500  0.72663700  0.37968000  1
  Al  Al12  1  0.00731600  0.60640000  0.07487500  1
  Al  Al13  1  0.36540900  0.46713700  0.64207500  1
  Al  Al14  1  0.93360600  0.16317800  0.33336100  1
  Al  Al15  1  0.61103300  0.28029300  0.57165600  1
  Al  Al16  1  0.26105700  0.76052200  0.67804400  1
  Al  Al17  1  0.66901200  0.05477300  0.15289000  1
  Al  Al18  1  0.59776700  0.40893200  0.82871700  1
  Al  Al19  1  0.54756800  0.32034500  0.09468100  1
  Al  Al20  1  0.50047800  0.61571000  0.18156800  1
  Al  Al21  1  0.12882600  0.93749000  0.48602000  1
  Al  Al22  1  0.23035000  0.15281000  0.31850300  1
  Al  Al23  1  0.58887400  0.87395500  0.36122800  1
  Al  Al24  1  0.74404400  0.52179800  0.02138300  1
  Al  Al25  1  0.02201400  0.57987700  0.67892400  1
  Al  Al26  1  0.75745000  0.76840200  0.71307500  1
  Al  Al27  1  0.28996900  0.19496200  0.60076100  1
  Al  Al28  1  0.89250400  0.06152900  0.02282200  1
  Al  Al29  1  0.57820600  0.01529700  0.59388300  1
  Al  Al30  1  0.85552100  0.93642500  0.49634500  1
  Al  Al31  1  0.49180100  0.16809500  0.35052100  1
  Al  Al32  1  0.09480500  0.17419400  0.86478800  1
  Al  Al33  1  0.39326400  0.94446300  0.15727100  1
  Al  Al34  1  0.61422900  0.12633200  0.84669000  1
  Al  Al35  1  0.76444000  0.53249000  0.57068000  1
  Al  Al36  1  0.03500700  0.40031400  0.40616300  1
  Al  Al37  1  0.50954100  0.69223700  0.89640600  1
  Al  Al38  1  0.80684700  0.79474800  0.96389300  1
  Al  Al39  1  0.73543300  0.38345400  0.30881800  1
  O  O40  1  0.94232000  0.22165900  0.00315200  1
  O  O41  1  0.71602800  0.06336600  0.97230200  1
  O  O42  1  0.36434400  0.05722600  0.28331600  1
  O  O43  1  0.86246300  0.63437600  0.66828200  1
  O  O44  1  0.65800300  0.77672300  0.87332000  1
  O  O45  1  0.11187400  0.70893300  0.73579600  1
  O  O46  1  0.69500600  0.39600000  0.13606800  1
  O  O47  1  0.13045600  0.40649300  0.25664500  1
  O  O48  1  0.29812200  0.82533600  0.23411800  1
  O  O49  1  0.72911200  0.91001300  0.62030000  1
  O  O50  1  0.26923300  0.35256000  0.57402300  1
  O  O51  1  0.24779000  0.14935400  0.76963800  1
  O  O52  1  0.64377900  0.64751000  0.62480200  1
  O  O53  1  0.96842200  0.23888000  0.75741000  1
  O  O54  1  0.85429900  0.10293200  0.48175900  1
  O  O55  1  0.03104800  0.02129400  0.90248100  1
  O  O56  1  0.44736700  0.44721400  0.15536100  1
  O  O57  1  0.32847300  0.49445100  0.80951100  1
  O  O58  1  0.01065100  0.92454700  0.35170800  1
  O  O59  1  0.54788600  0.27314400  0.91868200  1
  O  O60  1  0.20720000  0.08647200  0.48472500  1
  O  O61  1  0.04231800  0.46993800  0.80860700  1
  O  O62  1  0.36689300  0.61430600  0.54659200  1
  O  O63  1  0.89736800  0.33207000  0.29760100  1
  O  O64  1  0.02835400  0.52439100  0.51449400  1
  O  O65  1  0.56837700  0.91956500  0.18294600  1
  O  O66  1  0.17728500  0.56088200  0.03664300  1
  O  O67  1  0.00180600  0.92326900  0.60420900  1
  O  O68  1  0.09536900  0.76597300  0.08712900  1
  O  O69  1  0.08267100  0.16542500  0.22846100  1
  O  O70  1  0.77935900  0.36427400  0.58340100  1
  O  O71  1  0.87093800  0.89594200  0.08860800  1
  O  O72  1  0.45967400  0.16985300  0.54638100  1
  O  O73  1  0.29875500  0.59733200  0.26851800  1
  O  O74  1  0.53356500  0.40654000  0.66392700  1
  O  O75  1  0.02558400  0.25597200  0.48287500  1
  O  O76  1  0.86078800  0.64198400  0.98285600  1
  O  O77  1  0.94860800  0.44616400  0.05858400  1
  O  O78  1  0.58208200  0.54418600  0.92776500  1
  O  O79  1  0.22345700  0.90859400  0.75424000  1
  O  O80  1  0.75973300  0.82209900  0.37526000  1
  O  O81  1  0.67254800  0.63572500  0.15525900  1
  O  O82  1  0.88633800  0.83618100  0.81796300  1
  O  O83  1  0.61154600  0.30077000  0.39426400  1
  O  O84  1  0.16052000  0.30496800  0.97448700  1
  O  O85  1  0.49741500  0.02498400  0.76689400  1
  O  O86  1  0.34206800  0.28171100  0.31748900  1
  O  O87  1  0.60743100  0.03979400  0.40704300  1
  O  O88  1  0.82849800  0.09890000  0.20224600  1
  O  O89  1  0.74822500  0.53559800  0.39214900  1
  O  O90  1  0.50809800  0.71320100  0.33791400  1
  O  O91  1  0.93581100  0.67218800  0.23845500  1
  O  O92  1  0.41787300  0.69872500  0.04749200  1
  O  O93  1  0.67678500  0.16322000  0.68290200  1
  O  O94  1  0.35228600  0.98884200  0.99958100  1
  O  O95  1  0.49799700  0.86760600  0.52508700  1
  O  O96  1  0.23377400  0.80703500  0.50192400  1
  O  O97  1  0.76603000  0.41247600  0.86839400  1
  O  O98  1  0.55576800  0.17758200  0.17482300  1
  O  O99  1  0.42077100  0.74218500  0.75430300  1
