# generated using pymatgen
data_ZnO
_symmetry_space_group_name_H-M   'P 1'
_cell_length_a   10.64056170
_cell_length_b   10.93882119
_cell_length_c   9.47224208
_cell_angle_alpha   92.66893569
_cell_angle_beta   87.73295509
_cell_angle_gamma   80.62115146
_symmetry_Int_Tables_number   1
_chemical_formula_structural   ZnO
_chemical_formula_sum   'Zn40 O40'
_cell_volume   1085.36152207
_cell_formula_units_Z   40
loop_
 _symmetry_equiv_pos_site_id
 _symmetry_equiv_pos_as_xyz
  1  'x, y, z'
loop_
 _atom_site_type_symbol
 _atom_site_label
 _atom_site_symmetry_multiplicity
 _atom_site_fract_x
 _atom_site_fract_y
 _atom_site_fract_z
 _atom_site_occupancy
  Zn  Zn0  1  0.76890700  0.85470000  0.40753900  1
  Zn  Zn1  1  0.79409600  0.32217400  0.79862800  1
  Zn  Zn2  1  0.60870800  0.63716200  0.25786000  1
  Zn  Zn3  1  0.29360900  0.04793800  0.64468600  1
  Zn  Zn4  1  0.29918600  0.67254100  0.18885300  1
  Zn  Zn5  1  0.78737200  0.48638700  0.56665000  1
  Zn  Zn6  1  0.99133300  0.92598800  0.58044400  1
  Zn  Zn7  1  0.29034200  0.16503100  0.37518000  1
  Zn  Zn8  1  0.04404600  0.19940600  0.58634700  1
  Zn  Zn9  1  0.04406600  0.64928300  0.40578800  1
  Zn  Zn10  1  0.81757400  0.55926300  0.98170200  1
  Zn  Zn11  1  0.54519700  0.49995100  0.96999700  1
  Zn  Zn12  1  0.24941400  0.85499500  0.38513700  1
  Zn  Zn13  1  0.01650600  0.47585900  0.69436300  1
  Zn  Zn14  1  0.27574300  0.40442400  0.30536500  1
  Zn  Zn15  1  0.49489000  0.90313100  0.34617800  1
  Zn  Zn16  1  0.11116600  0.23418900  0.11018000  1
  Zn  Zn17  1  0.21989500  0.29907400  0.78586800  1
  Zn  Zn18  1  0.22600900  0.56702900  0.91041000  1
  Zn  Zn19  1  0.60302000  0.85087200  0.04332700  1
  Zn  Zn20  1  0.51940900  0.69644000  0.53613900  1
  Zn  Zn21  1  0.01136600  0.13607700  0.86743800  1
  Zn  Zn22  1  0.80630600  0.99942400  0.96007100  1
  Zn  Zn23  1  0.40468300  0.75042100  0.87027300  1
  Zn  Zn24  1  0.34125600  0.51363100  0.61599000  1
  Zn  Zn25  1  0.92678500  0.71581900  0.09038100  1
  Zn  Zn26  1  0.33253900  0.01555200  0.93107900  1
  Zn  Zn27  1  0.83080600  0.74739600  0.76565500  1
  Zn  Zn28  1  0.20615500  0.79454000  0.69547600  1
  Zn  Zn29  1  0.74868500  0.19583400  0.50302200  1
  Zn  Zn30  1  0.99890800  0.90162600  0.25115700  1
  Zn  Zn31  1  0.66292200  0.94884500  0.67013500  1
  Zn  Zn32  1  0.58118000  0.39774100  0.42629400  1
  Zn  Zn33  1  0.37261000  0.27567000  0.02479900  1
  Zn  Zn34  1  0.78429600  0.29666300  0.11981000  1
  Zn  Zn35  1  0.04622600  0.49456000  0.09791700  1
  Zn  Zn36  1  0.53897000  0.23727500  0.75955200  1
  Zn  Zn37  1  0.12858600  0.88903800  0.00264200  1
  Zn  Zn38  1  0.97966000  0.36766900  0.36095900  1
  Zn  Zn39  1  0.58051900  0.13694300  0.23597700  1
  O  O40  1  0.67331700  0.36742900  0.63946100  1
  O  O41  1  0.62815900  0.11977500  0.62908100  1
  O  O42  1  0.42259900  0.87497700  0.01626400  1
  O  O43  1  0.60409300  0.84290900  0.50984800  1
  O  O44  1  0.81434600  0.03238800  0.39389000  1
  O  O45  1  0.99128700  0.30953700  0.78025500  1
  O  O46  1  0.17961300  0.83545100  0.19734800  1
  O  O47  1  0.48169300  0.35503600  0.90468300  1
  O  O48  1  0.84523100  0.57330300  0.76711600  1
  O  O49  1  0.14625800  0.74166000  0.87550800  1
  O  O50  1  0.22809800  0.21464500  0.58589100  1
  O  O51  1  0.67608600  0.26723000  0.28955900  1
  O  O52  1  0.39940000  0.43070000  0.44142700  1
  O  O53  1  0.72340200  0.42109900  0.97670200  1
  O  O54  1  0.94596900  0.35875300  0.15746500  1
  O  O55  1  0.07126200  0.03920300  0.68990200  1
  O  O56  1  0.42367000  0.64501400  0.69182100  1
  O  O57  1  0.65095600  0.55816700  0.43094100  1
  O  O58  1  0.43028400  0.72848900  0.33109500  1
  O  O59  1  0.13554100  0.77742500  0.51101400  1
  O  O60  1  0.32969000  0.90177300  0.74497700  1
  O  O61  1  0.33441200  0.99499000  0.42840800  1
  O  O62  1  0.93533400  0.89143700  0.05310900  1
  O  O63  1  0.14105400  0.07293800  0.00477600  1
  O  O64  1  0.37983200  0.60614700  0.00355500  1
  O  O65  1  0.96775400  0.51703400  0.49664900  1
  O  O66  1  0.82829700  0.16789300  0.94588000  1
  O  O67  1  0.40582900  0.21728400  0.21500500  1
  O  O68  1  0.91106900  0.75489700  0.29995700  1
  O  O69  1  0.15561800  0.28271300  0.30307900  1
  O  O70  1  0.16952100  0.55949600  0.24623200  1
  O  O71  1  0.89645400  0.28205900  0.50125800  1
  O  O72  1  0.19064400  0.37119000  0.99841900  1
  O  O73  1  0.95710600  0.02368300  0.40293700  1
  O  O74  1  0.19752100  0.48037100  0.73100000  1
  O  O75  1  0.62144700  0.95867000  0.21861600  1
  O  O76  1  0.84442400  0.85078300  0.61213600  1
  O  O77  1  0.70678900  0.88705700  0.86937700  1
  O  O78  1  0.65662000  0.66838100  0.07179700  1
  O  O79  1  0.36243100  0.16402900  0.84099000  1
