# generated using pymatgen
data_V2O5
_symmetry_space_group_name_H-M   'P 1'
_cell_length_a   12.62790705
_cell_length_b   12.56877632
_cell_length_c   11.38471594
_cell_angle_alpha   92.12408759
_cell_angle_beta   86.09931812
_cell_angle_gamma   88.32395040
_symmetry_Int_Tables_number   1
_chemical_formula_structural   V2O5
_chemical_formula_sum   'V30 O75'
_cell_volume   1800.61240781
_cell_formula_units_Z   15
loop_
 _symmetry_equiv_pos_site_id
 _symmetry_equiv_pos_as_xyz
  1  'x, y, z'
loop_
 _atom_site_type_symbol
 _atom_site_label
 _atom_site_symmetry_multiplicity
 _atom_site_fract_x
 _atom_site_fract_y
 _atom_site_fract_z
 _atom_site_occupancy
  V  V0  1  0.96026814  0.36546190  0.01441558  1
  V  V1  1  0.86805592  0.90460785  0.95845562  1
  V  V2  1  0.13961408  0.89845454  0.62330992  1
  V  V3  1  0.57224065  0.52933398  0.79300138  1
  V  V4  1  0.79867830  0.21242330  0.35793335  1
  V  V5  1  0.35684103  0.98890404  0.70046664  1
  V  V6  1  0.35250863  0.25171343  0.82857482  1
  V  V7  1  0.59936833  0.66108553  0.48394304  1
  V  V8  1  0.63704796  0.91391515  0.01932792  1
  V  V9  1  0.40386828  0.83111920  0.91233656  1
  V  V10  1  0.52844576  0.97730569  0.27211331  1
  V  V11  1  0.23557817  0.66276963  0.48786772  1
  V  V12  1  0.99289043  0.73722744  0.56503281  1
  V  V13  1  0.79850724  0.88009612  0.72254165  1
  V  V14  1  0.16808531  0.33561525  0.36695344  1
  V  V15  1  0.02313286  0.15160046  0.52172657  1
  V  V16  1  0.88598099  0.26567767  0.74728497  1
  V  V17  1  0.87295318  0.74551919  0.32080382  1
  V  V18  1  0.03882819  0.76703693  0.09336898  1
  V  V19  1  0.59170123  0.20745671  0.14426292  1
  V  V20  1  0.96809954  0.10952355  0.13485817  1
  V  V21  1  0.61880667  0.93357321  0.55145173  1
  V  V22  1  0.56880404  0.47208796  0.21608304  1
  V  V23  1  0.21735786  0.40213637  0.06479776  1
  V  V24  1  0.71637118  0.34896523  0.60708157  1
  V  V25  1  0.45204405  0.71440495  0.27812113  1
  V  V26  1  0.40801187  0.45031495  0.47399875  1
  V  V27  1  0.24622374  0.68675522  0.08208743  1
  V  V28  1  0.62385715  0.29502552  0.86949186  1
  V  V29  1  0.78585855  0.55754385  0.10585081  1
  O  O30  1  0.50575555  0.56322928  0.51143477  1
  O  O31  1  0.65571499  0.21159915  0.97843259  1
  O  O32  1  0.19263877  0.34717976  0.20257414  1
  O  O33  1  0.23403928  0.80845751  0.55631167  1
  O  O34  1  0.87579085  0.15032960  0.80477320  1
  O  O35  1  0.46755642  0.59476302  0.20092949  1
  O  O36  1  0.09435367  0.42067725  0.00351333  1
  O  O37  1  0.44316917  0.52483673  0.81190273  1
  O  O38  1  0.70255403  0.26133985  0.48556991  1
  O  O39  1  0.28343611  0.36620954  0.42762796  1
  O  O40  1  0.35828684  0.99932584  0.55893584  1
  O  O41  1  0.19051928  0.63840898  0.35971224  1
  O  O42  1  0.91432379  0.35429827  0.86275248  1
  O  O43  1  0.59415343  0.79856760  0.56277601  1
  O  O44  1  0.40565318  0.86206959  0.75942933  1
  O  O45  1  0.09159111  0.64080975  0.09901944  1
  O  O46  1  0.84394368  0.37804100  0.61913772  1
  O  O47  1  0.27245178  0.52381562  0.07206916  1
  O  O48  1  0.30097438  0.55225485  0.53932527  1
  O  O49  1  0.74710264  0.95943610  0.60985205  1
  O  O50  1  0.67644984  0.20359060  0.25966458  1
  O  O51  1  0.29173290  0.30427703  0.96953287  1
  O  O52  1  0.36170010  0.11333352  0.79273000  1
  O  O53  1  0.49982359  0.84772601  0.22530178  1
  O  O54  1  0.56744696  0.35455492  0.12762314  1
  O  O55  1  0.72577749  0.91821463  0.87668849  1
  O  O56  1  0.07689563  0.42392669  0.40983474  1
  O  O57  1  0.53590854  0.99820700  0.65112302  1
  O  O58  1  0.46194093  0.43328275  0.32758717  1
  O  O59  1  0.54008872  0.82939582  0.96965325  1
  O  O60  1  0.98401124  0.23260283  0.05767968  1
  O  O61  1  0.04099829  0.84335962  0.49352724  1
  O  O62  1  0.31927143  0.73489212  0.18888485  1
  O  O63  1  0.93396045  0.00692734  0.02700352  1
  O  O64  1  0.62793231  0.45126411  0.65332703  1
  O  O65  1  0.92859869  0.67988773  0.44046007  1
  O  O66  1  0.58592640  0.69756552  0.33625190  1
  O  O67  1  0.83595724  0.59603401  0.98019936  1
  O  O68  1  0.09828098  0.64799928  0.57671558  1
  O  O69  1  0.07128376  0.03231955  0.57086656  1
  O  O70  1  0.86497704  0.76303587  0.66523299  1
  O  O71  1  0.72035849  0.26594202  0.74074915  1
  O  O72  1  0.97717200  0.81220124  0.23164083  1
  O  O73  1  0.64898306  0.55648161  0.09911434  1
  O  O74  1  0.21633409  0.96796513  0.73012766  1
  O  O75  1  0.34509869  0.93281839  0.98292933  1
  O  O76  1  0.49619463  0.28136666  0.82443139  1
  O  O77  1  0.85659610  0.31978778  0.32726243  1
  O  O78  1  0.43634497  0.20736759  0.19580046  1
  O  O79  1  0.45392735  0.35805741  0.55406165  1
  O  O80  1  0.71845807  0.61063093  0.49124278  1
  O  O81  1  0.00450680  0.24096445  0.64733507  1
  O  O82  1  0.37541957  0.71391526  0.40653487  1
  O  O83  1  0.76330797  0.87431063  0.07507328  1
  O  O84  1  0.89703468  0.14846021  0.46459195  1
  O  O85  1  0.33120070  0.71594193  0.94549575  1
  O  O86  1  0.81870175  0.65669698  0.21912916  1
  O  O87  1  0.15729291  0.82390137  0.06621211  1
  O  O88  1  0.90658041  0.45245244  0.15052204  1
  O  O89  1  0.07542496  0.07966098  0.19708944  1
  O  O90  1  0.78708726  0.83725982  0.37189783  1
  O  O91  1  0.59274431  0.02915805  0.12952376  1
  O  O92  1  0.60791428  0.65437264  0.79459457  1
  O  O93  1  0.86206395  0.11618277  0.24138390  1
  O  O94  1  0.11771690  0.20620401  0.42411949  1
  O  O95  1  0.66850700  0.46282195  0.29922844  1
  O  O96  1  0.44793375  0.17866794  0.08197884  1
  O  O97  1  0.60146905  0.97941719  0.40478455  1
  O  O98  1  0.94997353  0.79008331  0.97503789  1
  O  O99  1  0.81805950  0.40062836  0.09406688  1
  O  O100  1  0.41646727  0.03963474  0.30508556  1
  O  O101  1  0.90664304  0.93104222  0.80763127  1
  O  O102  1  0.63575030  0.42883539  0.89909613  1
  O  O103  1  0.06296254  0.82117009  0.70775237  1
  O  O104  1  0.29030030  0.30831945  0.72884543  1
