# generated using pymatgen
data_MoO3
_symmetry_space_group_name_H-M   'P 1'
_cell_length_a   13.27400949
_cell_length_b   11.22708308
_cell_length_c   12.81349163
_cell_angle_alpha   89.42623653
_cell_angle_beta   85.07950911
_cell_angle_gamma   91.48316881
_symmetry_Int_Tables_number   1
_chemical_formula_structural   MoO3
_chemical_formula_sum   'Mo25 O75'
_cell_volume   1901.75597675
_cell_formula_units_Z   25
loop_
 _symmetry_equiv_pos_site_id
 _symmetry_equiv_pos_as_xyz
  1  'x, y, z'
loop_
 _atom_site_type_symbol
 _atom_site_label
 _atom_site_symmetry_multiplicity
 _atom_site_fract_x
 _atom_site_fract_y
 _atom_site_fract_z
 _atom_site_occupancy
  Mo  Mo0  1  0.17918714  0.57995623  0.06818823  1
  Mo  Mo1  1  0.85848284  0.24880476  0.97206388  1
  Mo  Mo2  1  0.09603871  0.30903880  0.91896177  1
  Mo  Mo3  1  0.86101719  0.25180336  0.48086691  1
  Mo  Mo4  1  0.34145518  0.68903385  0.45893830  1
  Mo  Mo5  1  0.98196773  0.78742587  0.05233071  1
  Mo  Mo6  1  0.48020508  0.78977519  0.90428009  1
  Mo  Mo7  1  0.80580252  0.85658593  0.36215864  1
  Mo  Mo8  1  0.43869946  0.10885467  0.80034357  1
  Mo  Mo9  1  0.29857075  0.88889115  0.11478298  1
  Mo  Mo10  1  0.46337135  0.27299042  0.06026135  1
  Mo  Mo11  1  0.02797815  0.98677299  0.49710324  1
  Mo  Mo12  1  0.63264740  0.08787373  0.39804461  1
  Mo  Mo13  1  0.94018151  0.51189658  0.62508553  1
  Mo  Mo14  1  0.80730799  0.52126535  0.33659350  1
  Mo  Mo15  1  0.43435258  0.57190903  0.69937906  1
  Mo  Mo16  1  0.96633713  0.21271018  0.18732105  1
  Mo  Mo17  1  0.96292123  0.92999422  0.78938560  1
  Mo  Mo18  1  0.06337510  0.41690911  0.30592893  1
  Mo  Mo19  1  0.55474961  0.38915415  0.30454644  1
  Mo  Mo20  1  0.76748125  0.75330692  0.88160109  1
  Mo  Mo21  1  0.24769666  0.98870866  0.39984795  1
  Mo  Mo22  1  0.23560126  0.28374729  0.68320247  1
  Mo  Mo23  1  0.15284551  0.69152796  0.72664156  1
  Mo  Mo24  1  0.66286692  0.48065605  0.94798769  1
  O  O25  1  0.22914539  0.98157078  0.04480744  1
  O  O26  1  0.88163442  0.71084964  0.11976576  1
  O  O27  1  0.70244678  0.92949638  0.43532003  1
  O  O28  1  0.87804963  0.67563746  0.89580805  1
  O  O29  1  0.80883546  0.11687514  0.93337684  1
  O  O30  1  0.08185444  0.67513767  0.00696301  1
  O  O31  1  0.99765275  0.21956757  0.02638293  1
  O  O32  1  0.79636710  0.23896005  0.60173840  1
  O  O33  1  0.03945650  0.86527621  0.14676302  1
  O  O34  1  0.76406175  0.36812614  0.93491626  1
  O  O35  1  0.23052211  0.61351318  0.44113277  1
  O  O36  1  0.94542384  0.53310350  0.33502725  1
  O  O37  1  0.20081718  0.63309067  0.83655822  1
  O  O38  1  0.42504293  0.70583599  0.79118385  1
  O  O39  1  0.14401717  0.18356399  0.65121526  1
  O  O40  1  0.18091031  0.19688537  0.92315722  1
  O  O41  1  0.42039829  0.87182494  0.03151900  1
  O  O42  1  0.33868443  0.29622864  0.09739029  1
  O  O43  1  0.31951454  0.85710918  0.45072258  1
  O  O44  1  0.14387746  0.39156051  0.39872888  1
  O  O45  1  0.14201409  0.53782094  0.20178964  1
  O  O46  1  0.91960827  0.92375424  0.41243597  1
  O  O47  1  0.53158299  0.37182330  0.16260559  1
  O  O48  1  0.34852313  0.45610580  0.73887334  1
  O  O49  1  0.50367276  0.66418762  0.97541941  1
  O  O50  1  0.55169434  0.51399125  0.70622832  1
  O  O51  1  0.44353335  0.19536681  0.91920761  1
  O  O52  1  0.54696128  0.08444768  0.50589612  1
  O  O53  1  0.42603960  0.61388059  0.55858675  1
  O  O54  1  0.12012458  0.43800007  0.00269954  1
  O  O55  1  0.96891814  0.13921585  0.49220077  1
  O  O56  1  0.29920272  0.94238650  0.25073591  1
  O  O57  1  0.12001738  0.01417780  0.35632692  1
  O  O58  1  0.97095431  0.93817941  0.62307652  1
  O  O59  1  0.67360047  0.53853927  0.06848715  1
  O  O60  1  0.94552442  0.29810396  0.32632988  1
  O  O61  1  0.54574254  0.39425571  0.95223128  1
  O  O62  1  0.68308651  0.60883594  0.85380132  1
  O  O63  1  0.49191921  0.13850479  0.11412294  1
  O  O64  1  0.61397300  0.25293348  0.34749778  1
  O  O65  1  0.60218724  0.83676721  0.85720812  1
  O  O66  1  0.31525842  0.11811476  0.40979774  1
  O  O67  1  0.55683513  0.11800316  0.73644207  1
  O  O68  1  0.99075474  0.07743984  0.79546012  1
  O  O69  1  0.95553240  0.38561938  0.53331433  1
  O  O70  1  0.06838039  0.79863335  0.47106483  1
  O  O71  1  0.97455041  0.06834101  0.22330386  1
  O  O72  1  0.25917195  0.72299270  0.63774565  1
  O  O73  1  0.26421312  0.36374556  0.56989223  1
  O  O74  1  0.79939900  0.46505783  0.21393818  1
  O  O75  1  0.09047286  0.30979192  0.18925629  1
  O  O76  1  0.16454362  0.98777096  0.53628189  1
  O  O77  1  0.14926932  0.37070260  0.78675699  1
  O  O78  1  0.63425791  0.51159185  0.33936421  1
  O  O79  1  0.95654428  0.89359036  0.94274598  1
  O  O80  1  0.08344724  0.82650374  0.76379853  1
  O  O81  1  0.30192596  0.55046515  0.02605882  1
  O  O82  1  0.78245267  0.69083515  0.36383998  1
  O  O83  1  0.87344199  0.62232472  0.56825976  1
  O  O84  1  0.43945095  0.39942297  0.37359064  1
  O  O85  1  0.34449930  0.18130579  0.71793345  1
  O  O86  1  0.83408089  0.24550607  0.11747970  1
  O  O87  1  0.78594163  0.39956792  0.43428882  1
  O  O88  1  0.41396033  0.95348684  0.83276452  1
  O  O89  1  0.73591711  0.81013257  0.00283241  1
  O  O90  1  0.23661859  0.74432605  0.11600544  1
  O  O91  1  0.81985188  0.87392300  0.78609496  1
  O  O92  1  0.06606676  0.58060201  0.66875250  1
  O  O93  1  0.80006320  0.90567361  0.23696826  1
  O  O94  1  0.02107927  0.72857330  0.41372791  1
  O  O95  1  0.78011500  0.15263229  0.40591153  1
  O  O96  1  0.86417144  0.46484532  0.73345212  1
  O  O97  1  0.96129044  0.30360557  0.86543802  1
  O  O98  1  0.41414926  0.67195219  0.34284933  1
  O  O99  1  0.57757246  0.01823873  0.29770780  1
