# generated using pymatgen
data_Li2O
_symmetry_space_group_name_H-M   'P 1'
_cell_length_a   9.57315243
_cell_length_b   10.14605409
_cell_length_c   10.10366749
_cell_angle_alpha   86.13106221
_cell_angle_beta   89.99998293
_cell_angle_gamma   90.33051888
_symmetry_Int_Tables_number   1
_chemical_formula_structural   Li2O
_chemical_formula_sum   'Li68 O34'
_cell_volume   979.11352344
_cell_formula_units_Z   34
loop_
 _symmetry_equiv_pos_site_id
 _symmetry_equiv_pos_as_xyz
  1  'x, y, z'
loop_
 _atom_site_type_symbol
 _atom_site_label
 _atom_site_symmetry_multiplicity
 _atom_site_fract_x
 _atom_site_fract_y
 _atom_site_fract_z
 _atom_site_occupancy
  Li  Li0  1  0.73560900  0.29166000  0.43267100  1
  Li  Li1  1  0.20629000  0.34873400  0.63873300  1
  Li  Li2  1  0.94032400  0.84400400  0.96894700  1
  Li  Li3  1  0.15756800  0.96613100  0.14521200  1
  Li  Li4  1  0.73986100  0.82144300  0.19359300  1
  Li  Li5  1  0.85200200  0.49104700  0.54630000  1
  Li  Li6  1  0.19749000  0.77097800  0.85251600  1
  Li  Li7  1  0.88449100  0.33612900  0.24700900  1
  Li  Li8  1  0.19586100  0.39531900  0.20868600  1
  Li  Li9  1  0.10491800  0.61031600  0.53175000  1
  Li  Li10  1  0.49804200  0.55274800  0.95210900  1
  Li  Li11  1  0.28896300  0.57858300  0.06008400  1
  Li  Li12  1  0.61625000  0.70587500  0.52385200  1
  Li  Li13  1  0.94950100  0.31040800  0.47409300  1
  Li  Li14  1  0.42386400  0.45646900  0.76033900  1
  Li  Li15  1  0.41880000  0.23724800  0.64591800  1
  Li  Li16  1  0.82236100  0.54172000  0.17188900  1
  Li  Li17  1  0.26622300  0.28053400  0.96522100  1
  Li  Li18  1  0.16025700  0.97731700  0.92442600  1
  Li  Li19  1  0.25953600  0.39177300  0.42295600  1
  Li  Li20  1  0.64952800  0.30222800  0.12963400  1
  Li  Li21  1  0.23883800  0.82554900  0.62125900  1
  Li  Li22  1  0.42589400  0.56939300  0.42158700  1
  Li  Li23  1  0.82321400  0.66230500  0.39400600  1
  Li  Li24  1  0.04931700  0.15984900  0.87881400  1
  Li  Li25  1  0.51926200  0.89463200  0.10858000  1
  Li  Li26  1  0.44639400  0.81259400  0.35060500  1
  Li  Li27  1  0.86607900  0.12929700  0.68354600  1
  Li  Li28  1  0.68689100  0.64255300  0.74819200  1
  Li  Li29  1  0.73774300  0.94756500  0.79701400  1
  Li  Li30  1  0.45903900  0.81310600  0.85733400  1
  Li  Li31  1  0.44906500  0.23464300  0.39711800  1
  Li  Li32  1  0.71828900  0.29431400  0.81188300  1
  Li  Li33  1  0.26602500  0.05943000  0.62655000  1
  Li  Li34  1  0.18057000  0.84821500  0.39523800  1
  Li  Li35  1  0.64697300  0.51141800  0.30316000  1
  Li  Li36  1  0.95446700  0.62912700  0.73491800  1
  Li  Li37  1  0.15228900  0.52006400  0.83081200  1
  Li  Li38  1  0.06968000  0.99685000  0.70682600  1
  Li  Li39  1  0.61667500  0.40933200  0.64264800  1
  Li  Li40  1  0.53676000  0.09949200  0.19652800  1
  Li  Li41  1  0.96023000  0.35152400  0.00415600  1
  Li  Li42  1  0.33005000  0.04572200  0.38582600  1
  Li  Li43  1  0.66502100  0.67730700  0.02836600  1
  Li  Li44  1  0.11757200  0.14598100  0.42539800  1
  Li  Li45  1  0.01287800  0.73785300  0.17724100  1
  Li  Li46  1  0.62142200  0.06010600  0.44767900  1
  Li  Li47  1  0.30875500  0.13978100  0.15715200  1
  Li  Li48  1  0.07713200  0.20132000  0.20462800  1
  Li  Li49  1  0.74999900  0.45215000  0.94787700  1
  Li  Li50  1  0.49765200  0.62705000  0.18778800  1
  Li  Li51  1  0.00816000  0.51288600  0.33923400  1
  Li  Li52  1  0.31003200  0.81250300  0.09863100  1
  Li  Li53  1  0.36454800  0.09988100  0.83560900  1
  Li  Li54  1  0.96321200  0.37288700  0.71533200  1
  Li  Li55  1  0.31418100  0.60875900  0.62133100  1
  Li  Li56  1  0.22453600  0.64946000  0.32647200  1
  Li  Li57  1  0.98372000  0.58352500  0.01125700  1
  Li  Li58  1  0.98592000  0.79581900  0.52986600  1
  Li  Li59  1  0.77845700  0.11389300  0.24203400  1
  Li  Li60  1  0.83788200  0.07745800  0.00487100  1
  Li  Li61  1  0.60597800  0.13784300  0.97638700  1
  Li  Li62  1  0.50289400  0.33014900  0.91742600  1
  Li  Li63  1  0.75293600  0.84393800  0.62005300  1
  Li  Li64  1  0.91853900  0.03278600  0.46289600  1
  Li  Li65  1  0.63243700  0.14222400  0.64098300  1
  Li  Li66  1  0.44556400  0.38410600  0.16565000  1
  Li  Li67  1  0.47940200  0.94145300  0.66468300  1
  O  O68  1  0.13140900  0.81076200  0.03360200  1
  O  O69  1  0.08160100  0.43094300  0.51986900  1
  O  O70  1  0.14072900  0.13227200  0.04505300  1
  O  O71  1  0.45520000  0.22402000  0.06728600  1
  O  O72  1  0.79773600  0.30601100  0.62651700  1
  O  O73  1  0.62345600  0.20892600  0.31524600  1
  O  O74  1  0.33402400  0.52029700  0.25355500  1
  O  O75  1  0.78560600  0.25796600  0.99699300  1
  O  O76  1  0.03630100  0.71095700  0.36309000  1
  O  O77  1  0.01714300  0.44685300  0.15495300  1
  O  O78  1  0.81699200  0.46272900  0.36656000  1
  O  O79  1  0.62432300  0.49336800  0.11372800  1
  O  O80  1  0.61011300  0.69896500  0.33683700  1
  O  O81  1  0.11162700  0.96835200  0.52178800  1
  O  O82  1  0.76582100  0.01935300  0.57644800  1
  O  O83  1  0.95713800  0.48274800  0.85956400  1
  O  O84  1  0.54232700  0.18895900  0.79339800  1
  O  O85  1  0.46365800  0.73136300  0.02967800  1
  O  O86  1  0.81998400  0.67467700  0.59015300  1
  O  O87  1  0.68521800  0.99327700  0.11955300  1
  O  O88  1  0.92889600  0.00555400  0.84500500  1
  O  O89  1  0.30032900  0.92479800  0.78107100  1
  O  O90  1  0.60764000  0.81277300  0.73771800  1
  O  O91  1  0.25764400  0.22951500  0.31845000  1
  O  O92  1  0.34659500  0.94134300  0.23065000  1
  O  O93  1  0.60978200  0.48021900  0.81243000  1
  O  O94  1  0.44644700  0.08778300  0.53530600  1
  O  O95  1  0.94007100  0.17702900  0.34024600  1
  O  O96  1  0.40356900  0.42561500  0.57557000  1
  O  O97  1  0.84703400  0.71122500  0.08042900  1
  O  O98  1  0.31902300  0.46434700  0.91813700  1
  O  O99  1  0.32437800  0.72430000  0.47262200  1
  O  O100  1  0.18517300  0.19078300  0.73889900  1
  O  O101  1  0.14464400  0.67363700  0.70441600  1
