# generated using pymatgen
data_Al
_symmetry_space_group_name_H-M   'P 1'
_cell_length_a   12.16625753
_cell_length_b   12.17820768
_cell_length_c   11.98844119
_cell_angle_alpha   92.55640954
_cell_angle_beta   84.77638701
_cell_angle_gamma   89.09399117
_symmetry_Int_Tables_number   1
_chemical_formula_structural   Al
_chemical_formula_sum   Al100
_cell_volume   1766.75613267
_cell_formula_units_Z   100
loop_
 _symmetry_equiv_pos_site_id
 _symmetry_equiv_pos_as_xyz
  1  'x, y, z'
loop_
 _atom_site_type_symbol
 _atom_site_label
 _atom_site_symmetry_multiplicity
 _atom_site_fract_x
 _atom_site_fract_y
 _atom_site_fract_z
 _atom_site_occupancy
  Al  Al0  1  0.18825670  0.89271372  0.24933695  1
  Al  Al1  1  0.24521167  0.09910725  0.17353776  1
  Al  Al2  1  0.86023991  0.45864591  0.50782556  1
  Al  Al3  1  0.70484003  0.77707271  0.81243186  1
  Al  Al4  1  0.04033797  0.30076913  0.76616615  1
  Al  Al5  1  0.79777429  0.49067420  0.04427637  1
  Al  Al6  1  0.99066008  0.47192157  0.17409329  1
  Al  Al7  1  0.43554510  0.30428267  0.63252921  1
  Al  Al8  1  0.94221952  0.67784661  0.08950194  1
  Al  Al9  1  0.23466711  0.16515308  0.95166044  1
  Al  Al10  1  0.41750157  0.27173489  0.86973938  1
  Al  Al11  1  0.52007427  0.61909369  0.31510750  1
  Al  Al12  1  0.66022269  0.93537010  0.63812712  1
  Al  Al13  1  0.08138856  0.48343116  0.41626433  1
  Al  Al14  1  0.09111660  0.01652283  0.02418515  1
  Al  Al15  1  0.81670716  0.29586271  0.91099818  1
  Al  Al16  1  0.10577827  0.67251265  0.25632505  1
  Al  Al17  1  0.36885480  0.27930958  0.09540295  1
  Al  Al18  1  0.77088669  0.07528098  0.21768741  1
  Al  Al19  1  0.15196759  0.28209317  0.29872084  1
  Al  Al20  1  0.73423187  0.65537023  0.20216659  1
  Al  Al21  1  0.55650488  0.89375161  0.95825340  1
  Al  Al22  1  0.14856771  0.87870957  0.84237902  1
  Al  Al23  1  0.30709570  0.41079408  0.41359193  1
  Al  Al24  1  0.92625360  0.32378210  0.33204287  1
  Al  Al25  1  0.99945956  0.51289967  0.68362475  1
  Al  Al26  1  0.77441516  0.85773439  0.28167740  1
  Al  Al27  1  0.11219539  0.07008669  0.39634797  1
  Al  Al28  1  0.72160925  0.25629105  0.40886368  1
  Al  Al29  1  0.23191864  0.41976618  0.85149276  1
  Al  Al30  1  0.19161223  0.62513679  0.60284580  1
  Al  Al31  1  0.37741325  0.91162683  0.12089907  1
  Al  Al32  1  0.60373149  0.24053109  0.21866069  1
  Al  Al33  1  0.00616359  0.76621602  0.70378110  1
  Al  Al34  1  0.35015832  0.68182006  0.13885411  1
  Al  Al35  1  0.58003555  0.57223929  0.07959498  1
  Al  Al36  1  0.44579928  0.08529854  0.99879932  1
  Al  Al37  1  0.63105559  0.27750918  0.79608403  1
  Al  Al38  1  0.00368251  0.45840853  0.93440357  1
  Al  Al39  1  0.99556683  0.13357341  0.20905899  1
  Al  Al40  1  0.22018754  0.01767542  0.60520110  1
  Al  Al41  1  0.38869877  0.22142298  0.30165397  1
  Al  Al42  1  0.33494024  0.79988657  0.92539854  1
  Al  Al43  1  0.94060499  0.84604521  0.91877225  1
  Al  Al44  1  0.28507138  0.81906381  0.67312269  1
  Al  Al45  1  0.86641701  0.06389048  0.92471717  1
  Al  Al46  1  0.28838391  0.63149469  0.38116215  1
  Al  Al47  1  0.53358267  0.38443813  0.41908709  1
  Al  Al48  1  0.81694019  0.81636117  0.50574405  1
  Al  Al49  1  0.10564269  0.65065804  0.85239627  1
  Al  Al50  1  0.89196425  0.10305027  0.43597544  1
  Al  Al51  1  0.33157174  0.02402727  0.37835196  1
  Al  Al52  1  0.01505412  0.69255777  0.49251267  1
  Al  Al53  1  0.24140739  0.47921256  0.22068213  1
  Al  Al54  1  0.49274379  0.83026618  0.74230210  1
  Al  Al55  1  0.58791972  0.63161618  0.67290717  1
  Al  Al56  1  0.59858470  0.34617880  0.01721675  1
  Al  Al57  1  0.48608339  0.46171133  0.78814505  1
  Al  Al58  1  0.19738590  0.82939329  0.46888108  1
  Al  Al59  1  0.45047086  0.94377025  0.54271436  1
  Al  Al60  1  0.93612413  0.91468197  0.14089220  1
  Al  Al61  1  0.82413552  0.28040977  0.13668600  1
  Al  Al62  1  0.38644517  0.48300661  0.00557319  1
  Al  Al63  1  0.83460957  0.34711938  0.69486143  1
  Al  Al64  1  0.51361332  0.66252314  0.90235247  1
  Al  Al65  1  0.50546882  0.10621901  0.70850958  1
  Al  Al66  1  0.43757962  0.71504205  0.53285385  1
  Al  Al67  1  0.56295894  0.79488963  0.16857318  1
  Al  Al68  1  0.00962999  0.94645467  0.56655959  1
  Al  Al69  1  0.08023737  0.08110640  0.80089330  1
  Al  Al70  1  0.25763904  0.20534935  0.72910597  1
  Al  Al71  1  0.16091879  0.34904349  0.06602184  1
  Al  Al72  1  0.64857610  0.40854059  0.60443956  1
  Al  Al73  1  0.84951037  0.93369077  0.73617965  1
  Al  Al74  1  0.75073263  0.82812822  0.04245256  1
  Al  Al75  1  0.53662597  0.02359912  0.24189175  1
  Al  Al76  1  0.67770405  0.01912097  0.42411251  1
  Al  Al77  1  0.87361744  0.63527884  0.87059749  1
  Al  Al78  1  0.40711787  0.51230459  0.58392046  1
  Al  Al79  1  0.17415024  0.57433467  0.03857251  1
  Al  Al80  1  0.25471885  0.21205779  0.49930609  1
  Al  Al81  1  0.13483910  0.79503335  0.05481567  1
  Al  Al82  1  0.50283060  0.15428780  0.47198377  1
  Al  Al83  1  0.32494200  0.61947507  0.78438019  1
  Al  Al84  1  0.81627865  0.64175659  0.64622744  1
  Al  Al85  1  0.71164448  0.15803825  0.60983085  1
  Al  Al86  1  0.91724374  0.13584267  0.67186292  1
  Al  Al87  1  0.33971000  0.99936414  0.81356805  1
  Al  Al88  1  0.71668110  0.44204418  0.27056113  1
  Al  Al89  1  0.68200668  0.58926626  0.45887954  1
  Al  Al90  1  0.88851402  0.61673774  0.33886144  1
  Al  Al91  1  0.00712746  0.22451563  0.98834149  1
  Al  Al92  1  0.02829886  0.28186168  0.52660540  1
  Al  Al93  1  0.60998792  0.80339834  0.42483584  1
  Al  Al94  1  0.66398212  0.11261917  0.02114902  1
  Al  Al95  1  0.46895445  0.42925736  0.21542610  1
  Al  Al96  1  0.69622362  0.50622634  0.84182969  1
  Al  Al97  1  0.98489158  0.86804687  0.35379960  1
  Al  Al98  1  0.20055118  0.40112170  0.62455912  1
  Al  Al99  1  0.39848743  0.81883055  0.33126415  1
