# generated using pymatgen
data_ZnS
_symmetry_space_group_name_H-M   'P 1'
_cell_length_a   12.76791538
_cell_length_b   12.90834942
_cell_length_c   14.40824500
_cell_angle_alpha   94.27044922
_cell_angle_beta   87.82745546
_cell_angle_gamma   90.27096980
_symmetry_Int_Tables_number   1
_chemical_formula_structural   ZnS
_chemical_formula_sum   'Zn50 S50'
_cell_volume   2366.36260038
_cell_formula_units_Z   50
loop_
 _symmetry_equiv_pos_site_id
 _symmetry_equiv_pos_as_xyz
  1  'x, y, z'
loop_
 _atom_site_type_symbol
 _atom_site_label
 _atom_site_symmetry_multiplicity
 _atom_site_fract_x
 _atom_site_fract_y
 _atom_site_fract_z
 _atom_site_occupancy
  Zn  Zn0  1  0.35783160  0.76815218  0.92409738  1
  Zn  Zn1  1  0.34441893  0.30950997  0.22714373  1
  Zn  Zn2  1  0.51884912  0.40243397  0.07081667  1
  Zn  Zn3  1  0.61618040  0.30934690  0.72217488  1
  Zn  Zn4  1  0.16921815  0.11707133  0.19570216  1
  Zn  Zn5  1  0.89331046  0.36256370  0.64325235  1
  Zn  Zn6  1  0.38050172  0.93256401  0.76012479  1
  Zn  Zn7  1  0.69195298  0.16466724  0.18010408  1
  Zn  Zn8  1  0.19164194  0.12981746  0.89508721  1
  Zn  Zn9  1  0.61734484  0.87586239  0.78493988  1
  Zn  Zn10  1  0.84090801  0.44614263  0.42702762  1
  Zn  Zn11  1  0.59617907  0.84487593  0.21247535  1
  Zn  Zn12  1  0.85386640  0.74600473  0.99011902  1
  Zn  Zn13  1  0.86386754  0.98546471  0.08905188  1
  Zn  Zn14  1  0.20088581  0.63243177  0.09893963  1
  Zn  Zn15  1  0.69805659  0.53223410  0.93390862  1
  Zn  Zn16  1  0.16431065  0.15492299  0.60950776  1
  Zn  Zn17  1  0.99167612  0.77624597  0.23465457  1
  Zn  Zn18  1  0.02796215  0.98467425  0.41218519  1
  Zn  Zn19  1  0.95656381  0.01688887  0.72285831  1
  Zn  Zn20  1  0.00760387  0.35020473  0.01252403  1
  Zn  Zn21  1  0.72907525  0.09480928  0.53626466  1
  Zn  Zn22  1  0.94451836  0.32374404  0.16836418  1
  Zn  Zn23  1  0.47836670  0.19897529  0.51460116  1
  Zn  Zn24  1  0.43297760  0.03298731  0.03217227  1
  Zn  Zn25  1  0.18348345  0.76334938  0.59236141  1
  Zn  Zn26  1  0.82944495  0.95993300  0.83258973  1
  Zn  Zn27  1  0.53444087  0.68805460  0.12523054  1
  Zn  Zn28  1  0.62201320  0.02483465  0.03204431  1
  Zn  Zn29  1  0.71908437  0.91641590  0.48578045  1
  Zn  Zn30  1  0.32250939  0.84634562  0.16179162  1
  Zn  Zn31  1  0.05740863  0.47020066  0.60104603  1
  Zn  Zn32  1  0.39265931  0.77657581  0.32696680  1
  Zn  Zn33  1  0.21229335  0.28181622  0.40996545  1
  Zn  Zn34  1  0.32835204  0.05391288  0.37252021  1
  Zn  Zn35  1  0.75306018  0.66121399  0.27557821  1
  Zn  Zn36  1  0.65391450  0.37448359  0.25241110  1
  Zn  Zn37  1  0.67171927  0.52504830  0.63088490  1
  Zn  Zn38  1  0.03639627  0.33046683  0.75055970  1
  Zn  Zn39  1  0.51158770  0.53863680  0.37319575  1
  Zn  Zn40  1  0.21934467  0.53155699  0.36019377  1
  Zn  Zn41  1  0.30415423  0.47794534  0.60387464  1
  Zn  Zn42  1  0.45751914  0.22999154  0.88808764  1
  Zn  Zn43  1  0.88479733  0.61100820  0.15818270  1
  Zn  Zn44  1  0.63768701  0.06005320  0.83003329  1
  Zn  Zn45  1  0.01690202  0.67009260  0.72999251  1
  Zn  Zn46  1  0.94984726  0.54490273  0.84749716  1
  Zn  Zn47  1  0.82159917  0.65647192  0.75826098  1
  Zn  Zn48  1  0.35054943  0.48739829  0.90166784  1
  Zn  Zn49  1  0.96802411  0.72522515  0.49400378  1
  S  S50  1  0.67727713  0.82103490  0.62579024  1
  S  S51  1  0.01246957  0.12146213  0.12082563  1
  S  S52  1  0.31999995  0.90188645  0.60875890  1
  S  S53  1  0.04048864  0.15720380  0.98278261  1
  S  S54  1  0.18543801  0.32884206  0.56606153  1
  S  S55  1  0.32895864  0.15561036  0.13975944  1
  S  S56  1  0.17958405  0.37623306  0.28376657  1
  S  S57  1  0.96067791  0.83873894  0.08489162  1
  S  S58  1  0.68180266  0.30915345  0.09866411  1
  S  S59  1  0.77035913  0.48012332  0.78927797  1
  S  S60  1  0.58040054  0.16446955  0.62454920  1
  S  S61  1  0.54549976  0.47431741  0.74289034  1
  S  S62  1  0.39674822  0.22252446  0.38850538  1
  S  S63  1  0.24847849  0.62909223  0.94353286  1
  S  S64  1  0.35900893  0.52513666  0.46128219  1
  S  S65  1  0.88322482  0.29614395  0.32467046  1
  S  S66  1  0.45579860  0.78032085  0.78988948  1
  S  S67  1  0.35240723  0.66871636  0.19094537  1
  S  S68  1  0.01336633  0.81426789  0.63711413  1
  S  S69  1  0.75731829  0.68035050  0.60836265  1
  S  S70  1  0.85680669  0.56916124  0.00103194  1
  S  S71  1  0.88626200  0.18858666  0.55685079  1
  S  S72  1  0.78849948  0.06393232  0.96928867  1
  S  S73  1  0.14797437  0.10707598  0.35613590  1
  S  S74  1  0.53933977  0.56262016  0.99916562  1
  S  S75  1  0.09613104  0.15848967  0.76169318  1
  S  S76  1  0.69498331  0.51629793  0.35382637  1
  S  S77  1  0.15299878  0.70112807  0.42329525  1
  S  S78  1  0.36885540  0.34587158  0.98620104  1
  S  S79  1  0.74820614  0.38113122  0.55490475  1
  S  S80  1  0.07418879  0.42762474  0.88324404  1
  S  S81  1  0.76248141  0.78929573  0.86390707  1
  S  S82  1  0.51573045  0.72096924  0.42419207  1
  S  S83  1  0.98734955  0.54129133  0.47223795  1
  S  S84  1  0.15766686  0.86912800  0.24790404  1
  S  S85  1  0.17969753  0.60430718  0.66589273  1
  S  S86  1  0.70811486  0.98962542  0.18481243  1
  S  S87  1  0.63281327  0.23723592  0.86176595  1
  S  S88  1  0.38596493  0.42979683  0.73583333  1
  S  S89  1  0.65011535  0.79321568  0.36835984  1
  S  S90  1  0.47692990  0.42936187  0.23468420  1
  S  S91  1  0.35859452  0.07901270  0.86168677  1
  S  S92  1  0.21189965  0.83979614  0.37793971  1
  S  S93  1  0.43030890  0.93905856  0.27270567  1
  S  S94  1  0.73081789  0.23432824  0.33266480  1
  S  S95  1  0.30305106  0.90469489  0.02135368  1
  S  S96  1  0.99708109  0.06983751  0.56492789  1
  S  S97  1  0.91827646  0.84425250  0.38345795  1
  S  S98  1  0.30317205  0.04471103  0.54877878  1
  S  S99  1  0.06046569  0.60644937  0.19765099  1
