# generated using pymatgen
data_SnO
_symmetry_space_group_name_H-M   'P 1'
_cell_length_a   11.34094743
_cell_length_b   12.19680335
_cell_length_c   12.54310877
_cell_angle_alpha   93.16884710
_cell_angle_beta   88.27893530
_cell_angle_gamma   85.34718162
_symmetry_Int_Tables_number   1
_chemical_formula_structural   SnO
_chemical_formula_sum   'Sn40 O40'
_cell_volume   1725.60353759
_cell_formula_units_Z   40
loop_
 _symmetry_equiv_pos_site_id
 _symmetry_equiv_pos_as_xyz
  1  'x, y, z'
loop_
 _atom_site_type_symbol
 _atom_site_label
 _atom_site_symmetry_multiplicity
 _atom_site_fract_x
 _atom_site_fract_y
 _atom_site_fract_z
 _atom_site_occupancy
  Sn  Sn0  1  0.79553587  0.26193196  0.70936086  1
  Sn  Sn1  1  0.47225010  0.19451250  0.15364020  1
  Sn  Sn2  1  0.28869303  0.44041387  0.27307924  1
  Sn  Sn3  1  0.66000280  0.57484983  0.04783483  1
  Sn  Sn4  1  0.79171872  0.23994655  0.37595874  1
  Sn  Sn5  1  0.06673085  0.67705789  0.45053183  1
  Sn  Sn6  1  0.86476106  0.01105407  0.54924155  1
  Sn  Sn7  1  0.01592216  0.87435126  0.28544809  1
  Sn  Sn8  1  0.29651195  0.90905867  0.42141548  1
  Sn  Sn9  1  0.57794206  0.07755567  0.74614196  1
  Sn  Sn10  1  0.31688829  0.87202942  0.73436045  1
  Sn  Sn11  1  0.55180555  0.07891669  0.50195997  1
  Sn  Sn12  1  0.07764724  0.39620043  0.46135399  1
  Sn  Sn13  1  0.17331349  0.87148957  0.97434385  1
  Sn  Sn14  1  0.76901162  0.12864506  0.09261062  1
  Sn  Sn15  1  0.31286145  0.98586783  0.16933661  1
  Sn  Sn16  1  0.35622502  0.59424242  0.54682545  1
  Sn  Sn17  1  0.03733078  0.61134966  0.05808196  1
  Sn  Sn18  1  0.61805475  0.96929553  0.25793454  1
  Sn  Sn19  1  0.96715244  0.00691166  0.83425704  1
  Sn  Sn20  1  0.29685830  0.13568214  0.89211145  1
  Sn  Sn21  1  0.92943665  0.41759552  0.18215616  1
  Sn  Sn22  1  0.49046378  0.71834235  0.30669313  1
  Sn  Sn23  1  0.27119146  0.41485577  0.02828855  1
  Sn  Sn24  1  0.04195970  0.18809883  0.04007033  1
  Sn  Sn25  1  0.58795104  0.89281037  0.99355913  1
  Sn  Sn26  1  0.59222547  0.33367620  0.92613175  1
  Sn  Sn27  1  0.39784670  0.31652174  0.64836538  1
  Sn  Sn28  1  0.05601695  0.69661911  0.76160695  1
  Sn  Sn29  1  0.59234545  0.53878819  0.74431787  1
  Sn  Sn30  1  0.53918204  0.37646695  0.40568175  1
  Sn  Sn31  1  0.76558859  0.88440990  0.73442808  1
  Sn  Sn32  1  0.11116501  0.35236063  0.75134281  1
  Sn  Sn33  1  0.87981458  0.46805176  0.88115971  1
  Sn  Sn34  1  0.09907599  0.12323414  0.57583935  1
  Sn  Sn35  1  0.12001404  0.16511313  0.30559764  1
  Sn  Sn36  1  0.37307792  0.69204133  0.05120615  1
  Sn  Sn37  1  0.79398829  0.75075201  0.40247170  1
  Sn  Sn38  1  0.58155682  0.77672250  0.58246847  1
  Sn  Sn39  1  0.85642687  0.55531699  0.62593901  1
  O  O40  1  0.56096643  0.72634907  0.02400289  1
  O  O41  1  0.18492514  0.05549517  0.41507182  1
  O  O42  1  0.62001896  0.19892140  0.03036765  1
  O  O43  1  0.15069700  0.81332609  0.38827195  1
  O  O44  1  0.08290526  0.41764746  0.07181091  1
  O  O45  1  0.93936502  0.83737803  0.80099478  1
  O  O46  1  0.72768768  0.57327040  0.89137565  1
  O  O47  1  0.65534400  0.79319654  0.29477473  1
  O  O48  1  0.13715338  0.52482898  0.37434795  1
  O  O49  1  0.86807632  0.90761730  0.40670689  1
  O  O50  1  0.52654493  0.24245586  0.79294218  1
  O  O51  1  0.95759094  0.71436778  0.30779970  1
  O  O52  1  0.71539249  0.96866077  0.10881427  1
  O  O53  1  0.29565868  0.92859266  0.58123295  1
  O  O54  1  0.67845319  0.63089800  0.63039476  1
  O  O55  1  0.75393008  0.43306362  0.68537687  1
  O  O56  1  0.47836664  0.24673079  0.49954328  1
  O  O57  1  0.02652510  0.23437063  0.45056666  1
  O  O58  1  0.91129996  0.46828862  0.48446693  1
  O  O59  1  0.88113561  0.26513675  0.10548266  1
  O  O60  1  0.47211965  0.46354377  0.60526203  1
  O  O61  1  0.35150305  0.24922879  0.03180449  1
  O  O62  1  0.73156973  0.12040523  0.48023410  1
  O  O63  1  0.48750312  0.91791388  0.14430285  1
  O  O64  1  0.38578011  0.48420166  0.40415237  1
  O  O65  1  0.25401377  0.83031913  0.12454505  1
  O  O66  1  0.98058845  0.25821679  0.69568987  1
  O  O67  1  0.44739542  0.74733399  0.68865665  1
  O  O68  1  0.91684298  0.06756535  0.00410359  1
  O  O69  1  0.42428276  0.01719867  0.80786192  1
  O  O70  1  0.15866135  0.40866972  0.60092738  1
  O  O71  1  0.71523911  0.15515745  0.24681926  1
  O  O72  1  0.01554540  0.61531813  0.89691495  1
  O  O73  1  0.26761715  0.01676529  0.00674084  1
  O  O74  1  0.20078953  0.31330076  0.34249304  1
  O  O75  1  0.86953608  0.52871813  0.06204067  1
  O  O76  1  0.49744338  0.67621227  0.46637944  1
  O  O77  1  0.46122512  0.33502060  0.25399292  1
  O  O78  1  0.77196550  0.31465399  0.87583569  1
  O  O79  1  0.31563770  0.76607038  0.91640976  1
