# generated using pymatgen
data_BaO
_symmetry_space_group_name_H-M   'P 1'
_cell_length_a   13.95845330
_cell_length_b   13.95223703
_cell_length_c   13.63624913
_cell_angle_alpha   93.75773011
_cell_angle_beta   88.73315650
_cell_angle_gamma   93.28295511
_symmetry_Int_Tables_number   1
_chemical_formula_structural   BaO
_chemical_formula_sum   'Ba50 O50'
_cell_volume   2645.17452060
_cell_formula_units_Z   50
loop_
 _symmetry_equiv_pos_site_id
 _symmetry_equiv_pos_as_xyz
  1  'x, y, z'
loop_
 _atom_site_type_symbol
 _atom_site_label
 _atom_site_symmetry_multiplicity
 _atom_site_fract_x
 _atom_site_fract_y
 _atom_site_fract_z
 _atom_site_occupancy
  Ba  Ba0  1  0.50486878  0.26822500  0.77614147  1
  Ba  Ba1  1  0.96778128  0.82869611  0.60181749  1
  Ba  Ba2  1  0.88590931  0.18493344  0.07791150  1
  Ba  Ba3  1  0.12979368  0.83914622  0.02799377  1
  Ba  Ba4  1  0.13916603  0.08816496  0.09964126  1
  Ba  Ba5  1  0.75192702  0.95171543  0.51434960  1
  Ba  Ba6  1  0.74787605  0.60721117  0.45282464  1
  Ba  Ba7  1  0.89111720  0.88040859  0.14929772  1
  Ba  Ba8  1  0.93655462  0.51720649  0.63231205  1
  Ba  Ba9  1  0.93535212  0.99852345  0.84705591  1
  Ba  Ba10  1  0.71704933  0.66214330  0.14827333  1
  Ba  Ba11  1  0.24496481  0.14078144  0.55866305  1
  Ba  Ba12  1  0.43857188  0.89868328  0.74244646  1
  Ba  Ba13  1  0.17456679  0.53871787  0.99250894  1
  Ba  Ba14  1  0.77310383  0.26904137  0.57839132  1
  Ba  Ba15  1  0.44667777  0.17447997  0.24701310  1
  Ba  Ba16  1  0.32212758  0.28658421  0.01219483  1
  Ba  Ba17  1  0.20847082  0.86935542  0.30809130  1
  Ba  Ba18  1  0.08285972  0.35255481  0.16124699  1
  Ba  Ba19  1  0.69112435  0.10926768  0.31069198  1
  Ba  Ba20  1  0.70655513  0.53036432  0.82938683  1
  Ba  Ba21  1  0.68535616  0.00369835  0.03938202  1
  Ba  Ba22  1  0.54074788  0.88334769  0.22841882  1
  Ba  Ba23  1  0.22240276  0.56169659  0.39878071  1
  Ba  Ba24  1  0.92496065  0.69964954  0.89866005  1
  Ba  Ba25  1  0.46504864  0.02860943  0.49909904  1
  Ba  Ba26  1  0.19807160  0.05198943  0.79700682  1
  Ba  Ba27  1  0.98979708  0.38761907  0.40966715  1
  Ba  Ba28  1  0.99129668  0.14353289  0.60690768  1
  Ba  Ba29  1  0.41087274  0.00291254  0.00481630  1
  Ba  Ba30  1  0.34387451  0.70450941  0.14426003  1
  Ba  Ba31  1  0.01042753  0.68524384  0.33733416  1
  Ba  Ba32  1  0.98569223  0.08168166  0.33284573  1
  Ba  Ba33  1  0.45582706  0.51402044  0.95198422  1
  Ba  Ba34  1  0.54851037  0.76059432  0.97371281  1
  Ba  Ba35  1  0.58978986  0.29118291  0.04496946  1
  Ba  Ba36  1  0.72005235  0.76201635  0.68513207  1
  Ba  Ba37  1  0.24409205  0.84705825  0.56875358  1
  Ba  Ba38  1  0.24079853  0.27828823  0.34508330  1
  Ba  Ba39  1  0.26177159  0.73345920  0.83309872  1
  Ba  Ba40  1  0.74760011  0.38229466  0.28317028  1
  Ba  Ba41  1  0.49505568  0.50086434  0.24689272  1
  Ba  Ba42  1  0.77479602  0.27400129  0.85424240  1
  Ba  Ba43  1  0.48390158  0.34947770  0.47435973  1
  Ba  Ba44  1  0.88417503  0.47900580  0.07578392  1
  Ba  Ba45  1  0.47683248  0.59145968  0.67099105  1
  Ba  Ba46  1  0.05625547  0.28800493  0.84527305  1
  Ba  Ba47  1  0.26766807  0.40047587  0.71139405  1
  Ba  Ba48  1  0.52042064  0.78936279  0.48709431  1
  Ba  Ba49  1  0.67185217  0.02685285  0.76945403  1
  O  O50  1  0.54852969  0.92973566  0.89969726  1
  O  O51  1  0.32966012  0.00705680  0.64818224  1
  O  O52  1  0.36414761  0.87815451  0.43499411  1
  O  O53  1  0.60523935  0.65316279  0.56105990  1
  O  O54  1  0.03297528  0.41176313  0.99040912  1
  O  O55  1  0.57935012  0.90920013  0.62242247  1
  O  O56  1  0.06114348  0.99610364  0.68611561  1
  O  O57  1  0.18827986  0.68656096  0.26112595  1
  O  O58  1  0.60647472  0.96023868  0.39480387  1
  O  O59  1  0.38801147  0.18653002  0.43850519  1
  O  O60  1  0.78768189  0.59463438  0.97752968  1
  O  O61  1  0.81580229  0.78266174  0.50835278  1
  O  O62  1  0.07933952  0.94136919  0.19578568  1
  O  O63  1  0.26073968  0.91326199  0.89937239  1
  O  O64  1  0.33940431  0.65522413  0.96379722  1
  O  O65  1  0.28606379  0.42613558  0.89108822  1
  O  O66  1  0.57389884  0.63806721  0.82600838  1
  O  O67  1  0.86727919  0.66272928  0.72006817  1
  O  O68  1  0.36303304  0.73638170  0.66144153  1
  O  O69  1  0.09554027  0.82792398  0.45401041  1
  O  O70  1  0.45138984  0.18701786  0.94459064  1
  O  O71  1  0.79189902  0.10583263  0.91078903  1
  O  O72  1  0.55986911  0.05567177  0.16838302  1
  O  O73  1  0.45181894  0.39600211  0.09214650  1
  O  O74  1  0.04546627  0.55432990  0.49050942  1
  O  O75  1  0.93090527  0.41122608  0.24249557  1
  O  O76  1  0.77423305  0.32506767  0.06876573  1
  O  O77  1  0.02913511  0.18664638  0.19925803  1
  O  O78  1  0.51241205  0.64849149  0.13626697  1
  O  O79  1  0.60913772  0.38131417  0.88463323  1
  O  O80  1  0.09930238  0.18150455  0.45551095  1
  O  O81  1  0.66178191  0.20075068  0.71439382  1
  O  O82  1  0.90820256  0.29265835  0.71287764  1
  O  O83  1  0.06495442  0.13546706  0.93138896  1
  O  O84  1  0.81666864  0.43867239  0.50554746  1
  O  O85  1  0.81406235  0.93319968  0.70118733  1
  O  O86  1  0.37036675  0.44277440  0.39032642  1
  O  O87  1  0.19001476  0.23575359  0.71269629  1
  O  O88  1  0.81441335  0.05747096  0.18567475  1
  O  O89  1  0.38295909  0.87648331  0.13396708  1
  O  O90  1  0.88919895  0.71167906  0.20741212  1
  O  O91  1  0.14783603  0.41947781  0.32023328  1
  O  O92  1  0.43597862  0.39536946  0.65979747  1
  O  O93  1  0.96500375  0.87188075  0.97130724  1
  O  O94  1  0.67943497  0.83625646  0.09962779  1
  O  O95  1  0.84315218  0.12339888  0.47532808  1
  O  O96  1  0.67321208  0.53812391  0.28909801  1
  O  O97  1  0.10493344  0.67453630  0.91727720  1
  O  O98  1  0.59376152  0.27505562  0.30907968  1
  O  O99  1  0.27547174  0.20147666  0.17054531  1
