# generated using pymatgen
data_SnPb7N6
_symmetry_space_group_name_H-M   'P 1'
_cell_length_a   12.75414900
_cell_length_b   7.33597800
_cell_length_c   13.16315700
_cell_angle_alpha   90.00000000
_cell_angle_beta   90.00000000
_cell_angle_gamma   90.00000000
_symmetry_Int_Tables_number   1
_chemical_formula_structural   SnPb7N6
_chemical_formula_sum   'Sn4 Pb28 N24'
_cell_volume   1231.59968122
_cell_formula_units_Z   4
loop_
 _symmetry_equiv_pos_site_id
 _symmetry_equiv_pos_as_xyz
  1  'x, y, z'
loop_
 _atom_site_type_symbol
 _atom_site_label
 _atom_site_symmetry_multiplicity
 _atom_site_fract_x
 _atom_site_fract_y
 _atom_site_fract_z
 _atom_site_occupancy
  Sn  Sn0  1  0.00000000  0.85411800  0.75000000  1
  Sn  Sn1  1  0.50000000  0.64588200  0.25000000  1
  Sn  Sn2  1  0.00000000  0.14588200  0.25000000  1
  Sn  Sn3  1  0.50000000  0.35411800  0.75000000  1
  Pb  Pb4  1  0.00221700  0.76070500  0.02326700  1
  Pb  Pb5  1  0.49778300  0.73929500  0.52326700  1
  Pb  Pb6  1  0.50221700  0.73929500  0.97673300  1
  Pb  Pb7  1  0.99778300  0.76070500  0.47673300  1
  Pb  Pb8  1  0.99778300  0.23929500  0.97673300  1
  Pb  Pb9  1  0.50221700  0.26070500  0.47673300  1
  Pb  Pb10  1  0.49778300  0.26070500  0.02326700  1
  Pb  Pb11  1  0.00221700  0.23929500  0.52326700  1
  Pb  Pb12  1  0.22048800  0.80510200  0.62031200  1
  Pb  Pb13  1  0.27951200  0.69489800  0.12031200  1
  Pb  Pb14  1  0.72048800  0.69489800  0.37968800  1
  Pb  Pb15  1  0.77951200  0.80510200  0.87968800  1
  Pb  Pb16  1  0.77951200  0.19489800  0.37968800  1
  Pb  Pb17  1  0.72048800  0.30510200  0.87968800  1
  Pb  Pb18  1  0.27951200  0.30510200  0.62031200  1
  Pb  Pb19  1  0.22048800  0.19489800  0.12031200  1
  Pb  Pb20  1  0.26060000  0.53242400  0.86019000  1
  Pb  Pb21  1  0.23940000  0.96757600  0.36019000  1
  Pb  Pb22  1  0.76060000  0.96757600  0.13981000  1
  Pb  Pb23  1  0.73940000  0.53242400  0.63981000  1
  Pb  Pb24  1  0.73940000  0.46757600  0.13981000  1
  Pb  Pb25  1  0.76060000  0.03242400  0.63981000  1
  Pb  Pb26  1  0.23940000  0.03242400  0.86019000  1
  Pb  Pb27  1  0.26060000  0.46757600  0.36019000  1
  Pb  Pb28  1  0.00000000  0.42065400  0.75000000  1
  Pb  Pb29  1  0.50000000  0.07934600  0.25000000  1
  Pb  Pb30  1  0.00000000  0.57934600  0.25000000  1
  Pb  Pb31  1  0.50000000  0.92065400  0.75000000  1
  N  N32  1  0.11967600  0.64926900  0.75671900  1
  N  N33  1  0.38032400  0.85073100  0.25671900  1
  N  N34  1  0.61967600  0.85073100  0.24328100  1
  N  N35  1  0.88032400  0.64926900  0.74328100  1
  N  N36  1  0.88032400  0.35073100  0.24328100  1
  N  N37  1  0.61967600  0.14926900  0.74328100  1
  N  N38  1  0.38032400  0.14926900  0.75671900  1
  N  N39  1  0.11967600  0.35073100  0.25671900  1
  N  N40  1  0.17961400  0.70787600  0.45880100  1
  N  N41  1  0.32038600  0.79212400  0.95880100  1
  N  N42  1  0.67961400  0.79212400  0.54119900  1
  N  N43  1  0.82038600  0.70787600  0.04119900  1
  N  N44  1  0.82038600  0.29212400  0.54119900  1
  N  N45  1  0.67961400  0.20787600  0.04119900  1
  N  N46  1  0.32038600  0.20787600  0.45880100  1
  N  N47  1  0.17961400  0.29212400  0.95880100  1
  N  N48  1  0.45412800  0.45942700  0.60996700  1
  N  N49  1  0.04587200  0.04057300  0.10996700  1
  N  N50  1  0.95412800  0.04057300  0.39003300  1
  N  N51  1  0.54587200  0.45942700  0.89003300  1
  N  N52  1  0.54587200  0.54057300  0.39003300  1
  N  N53  1  0.95412800  0.95942700  0.89003300  1
  N  N54  1  0.04587200  0.95942700  0.60996700  1
  N  N55  1  0.45412800  0.54057300  0.10996700  1
