# generated using pymatgen
data_CrInN2
_symmetry_space_group_name_H-M   'P 1'
_cell_length_a   6.02801162
_cell_length_b   12.16779567
_cell_length_c   13.86482012
_cell_angle_alpha   90.00000000
_cell_angle_beta   90.00000000
_cell_angle_gamma   90.00000000
_symmetry_Int_Tables_number   1
_chemical_formula_structural   CrInN2
_chemical_formula_sum   'Cr16 In16 N32'
_cell_volume   1016.95147002
_cell_formula_units_Z   16
loop_
 _symmetry_equiv_pos_site_id
 _symmetry_equiv_pos_as_xyz
  1  'x, y, z'
loop_
 _atom_site_type_symbol
 _atom_site_label
 _atom_site_symmetry_multiplicity
 _atom_site_fract_x
 _atom_site_fract_y
 _atom_site_fract_z
 _atom_site_occupancy
  Cr  Cr0  1  0.12151877  0.93524631  0.45405616  1
  Cr  Cr1  1  0.62151877  0.56475369  0.54594384  1
  Cr  Cr2  1  0.87848123  0.43524631  0.04594384  1
  Cr  Cr3  1  0.37848123  0.06475369  0.95405616  1
  Cr  Cr4  1  0.87848123  0.06475369  0.54594384  1
  Cr  Cr5  1  0.37848123  0.43524631  0.45405616  1
  Cr  Cr6  1  0.12151877  0.56475369  0.95405616  1
  Cr  Cr7  1  0.62151877  0.93524631  0.04594384  1
  Cr  Cr8  1  0.40310599  0.28646363  0.25916439  1
  Cr  Cr9  1  0.90310599  0.21353637  0.74083561  1
  Cr  Cr10  1  0.59689401  0.78646363  0.24083561  1
  Cr  Cr11  1  0.09689401  0.71353637  0.75916439  1
  Cr  Cr12  1  0.59689401  0.71353637  0.74083561  1
  Cr  Cr13  1  0.09689401  0.78646363  0.25916439  1
  Cr  Cr14  1  0.40310599  0.21353637  0.75916439  1
  Cr  Cr15  1  0.90310599  0.28646363  0.24083561  1
  In  In16  1  0.51974508  0.05551218  0.34425982  1
  In  In17  1  0.01974508  0.44448782  0.65574018  1
  In  In18  1  0.48025492  0.55551218  0.15574018  1
  In  In19  1  0.98025492  0.94448782  0.84425982  1
  In  In20  1  0.48025492  0.94448782  0.65574018  1
  In  In21  1  0.98025492  0.55551218  0.34425982  1
  In  In22  1  0.51974508  0.44448782  0.84425982  1
  In  In23  1  0.01974508  0.05551218  0.15574018  1
  In  In24  1  0.87888157  0.30251063  0.43323944  1
  In  In25  1  0.37888157  0.19748937  0.56676056  1
  In  In26  1  0.12111843  0.80251063  0.06676056  1
  In  In27  1  0.62111843  0.69748937  0.93323944  1
  In  In28  1  0.12111843  0.69748937  0.56676056  1
  In  In29  1  0.62111843  0.80251063  0.43323944  1
  In  In30  1  0.87888157  0.19748937  0.93323944  1
  In  In31  1  0.37888157  0.30251063  0.06676056  1
  N  N32  1  0.19345737  0.34609746  0.51273960  1
  N  N33  1  0.69345737  0.15390254  0.48726040  1
  N  N34  1  0.80654263  0.84609746  0.98726040  1
  N  N35  1  0.30654263  0.65390254  0.01273960  1
  N  N36  1  0.80654263  0.65390254  0.48726040  1
  N  N37  1  0.30654263  0.84609746  0.51273960  1
  N  N38  1  0.19345737  0.15390254  0.01273960  1
  N  N39  1  0.69345737  0.34609746  0.98726040  1
  N  N40  1  0.65410037  0.42152950  0.50377383  1
  N  N41  1  0.15410037  0.07847050  0.49622617  1
  N  N42  1  0.34589963  0.92152950  0.99622617  1
  N  N43  1  0.84589963  0.57847050  0.00377383  1
  N  N44  1  0.34589963  0.57847050  0.49622617  1
  N  N45  1  0.84589963  0.92152950  0.50377383  1
  N  N46  1  0.65410037  0.07847050  0.00377383  1
  N  N47  1  0.15410037  0.42152950  0.99622617  1
  N  N48  1  0.15163717  0.21048541  0.26363298  1
  N  N49  1  0.65163717  0.28951459  0.73636702  1
  N  N50  1  0.84836283  0.71048541  0.23636702  1
  N  N51  1  0.34836283  0.78951459  0.76363298  1
  N  N52  1  0.84836283  0.78951459  0.73636702  1
  N  N53  1  0.34836283  0.71048541  0.26363298  1
  N  N54  1  0.15163717  0.28951459  0.76363298  1
  N  N55  1  0.65163717  0.21048541  0.23636702  1
  N  N56  1  0.90024698  0.40657680  0.17117649  1
  N  N57  1  0.40024698  0.09342320  0.82882351  1
  N  N58  1  0.09975302  0.90657680  0.32882351  1
  N  N59  1  0.59975302  0.59342320  0.67117649  1
  N  N60  1  0.09975302  0.59342320  0.82882351  1
  N  N61  1  0.59975302  0.90657680  0.17117649  1
  N  N62  1  0.90024698  0.09342320  0.67117649  1
  N  N63  1  0.40024698  0.40657680  0.32882351  1
