# generated using pymatgen
data_Fe7GeN6
_symmetry_space_group_name_H-M   'P 1'
_cell_length_a   8.08677700
_cell_length_b   6.33944500
_cell_length_c   10.70788200
_cell_angle_alpha   90.00000000
_cell_angle_beta   90.00000000
_cell_angle_gamma   90.00000000
_symmetry_Int_Tables_number   1
_chemical_formula_structural   Fe7GeN6
_chemical_formula_sum   'Fe28 Ge4 N24'
_cell_volume   548.94683087
_cell_formula_units_Z   4
loop_
 _symmetry_equiv_pos_site_id
 _symmetry_equiv_pos_as_xyz
  1  'x, y, z'
loop_
 _atom_site_type_symbol
 _atom_site_label
 _atom_site_symmetry_multiplicity
 _atom_site_fract_x
 _atom_site_fract_y
 _atom_site_fract_z
 _atom_site_occupancy
  Fe  Fe0  1  0.00806800  0.68308400  0.94680800  1
  Fe  Fe1  1  0.49193200  0.81691600  0.44680800  1
  Fe  Fe2  1  0.50806800  0.81691600  0.05319200  1
  Fe  Fe3  1  0.99193200  0.68308400  0.55319200  1
  Fe  Fe4  1  0.99193200  0.31691600  0.05319200  1
  Fe  Fe5  1  0.50806800  0.18308400  0.55319200  1
  Fe  Fe6  1  0.49193200  0.18308400  0.94680800  1
  Fe  Fe7  1  0.00806800  0.31691600  0.44680800  1
  Fe  Fe8  1  0.26577100  0.63673200  0.67365000  1
  Fe  Fe9  1  0.23422900  0.86326800  0.17365000  1
  Fe  Fe10  1  0.76577100  0.86326800  0.32635000  1
  Fe  Fe11  1  0.73422900  0.63673200  0.82635000  1
  Fe  Fe12  1  0.73422900  0.36326800  0.32635000  1
  Fe  Fe13  1  0.76577100  0.13673200  0.82635000  1
  Fe  Fe14  1  0.23422900  0.13673200  0.67365000  1
  Fe  Fe15  1  0.26577100  0.36326800  0.17365000  1
  Fe  Fe16  1  0.31590700  0.59394400  0.92268300  1
  Fe  Fe17  1  0.18409300  0.90605600  0.42268300  1
  Fe  Fe18  1  0.81590700  0.90605600  0.07731700  1
  Fe  Fe19  1  0.68409300  0.59394400  0.57731700  1
  Fe  Fe20  1  0.68409300  0.40605600  0.07731700  1
  Fe  Fe21  1  0.81590700  0.09394400  0.57731700  1
  Fe  Fe22  1  0.18409300  0.09394400  0.92268300  1
  Fe  Fe23  1  0.31590700  0.40605600  0.42268300  1
  Fe  Fe24  1  0.00000000  0.39633100  0.75000000  1
  Fe  Fe25  1  0.50000000  0.10366900  0.25000000  1
  Fe  Fe26  1  0.00000000  0.60366900  0.25000000  1
  Fe  Fe27  1  0.50000000  0.89633100  0.75000000  1
  Ge  Ge28  1  0.00000000  0.90023600  0.75000000  1
  Ge  Ge29  1  0.50000000  0.59976400  0.25000000  1
  Ge  Ge30  1  0.00000000  0.09976400  0.25000000  1
  Ge  Ge31  1  0.50000000  0.40023600  0.75000000  1
  N  N32  1  0.14440700  0.58730800  0.81669100  1
  N  N33  1  0.35559300  0.91269200  0.31669100  1
  N  N34  1  0.64440700  0.91269200  0.18330900  1
  N  N35  1  0.85559300  0.58730800  0.68330900  1
  N  N36  1  0.85559300  0.41269200  0.18330900  1
  N  N37  1  0.64440700  0.08730800  0.68330900  1
  N  N38  1  0.35559300  0.08730800  0.81669100  1
  N  N39  1  0.14440700  0.41269200  0.31669100  1
  N  N40  1  0.20739200  0.62538200  0.51045100  1
  N  N41  1  0.29260800  0.87461800  0.01045100  1
  N  N42  1  0.70739200  0.87461800  0.48954900  1
  N  N43  1  0.79260800  0.62538200  0.98954900  1
  N  N44  1  0.79260800  0.37461800  0.48954900  1
  N  N45  1  0.70739200  0.12538200  0.98954900  1
  N  N46  1  0.29260800  0.12538200  0.51045100  1
  N  N47  1  0.20739200  0.37461800  0.01045100  1
  N  N48  1  0.47494700  0.72334600  0.61208700  1
  N  N49  1  0.02505300  0.77665400  0.11208700  1
  N  N50  1  0.97494700  0.77665400  0.38791300  1
  N  N51  1  0.52505300  0.72334600  0.88791300  1
  N  N52  1  0.52505300  0.27665400  0.38791300  1
  N  N53  1  0.97494700  0.22334600  0.88791300  1
  N  N54  1  0.02505300  0.22334600  0.61208700  1
  N  N55  1  0.47494700  0.27665400  0.11208700  1
