# generated using pymatgen
data_CdHgS4
_symmetry_space_group_name_H-M   'P 1'
_cell_length_a   7.50322349
_cell_length_b   7.50322349
_cell_length_c   7.50322349
_cell_angle_alpha   92.30599053
_cell_angle_beta   92.30599053
_cell_angle_gamma   156.85709945
_symmetry_Int_Tables_number   1
_chemical_formula_structural   CdHgS4
_chemical_formula_sum   'Cd1 Hg1 S4'
_cell_volume   162.64727679
_cell_formula_units_Z   1
loop_
 _symmetry_equiv_pos_site_id
 _symmetry_equiv_pos_as_xyz
  1  'x, y, z'
loop_
 _atom_site_type_symbol
 _atom_site_label
 _atom_site_symmetry_multiplicity
 _atom_site_fract_x
 _atom_site_fract_y
 _atom_site_fract_z
 _atom_site_occupancy
  Cd  Cd0  1  0.75000000  0.25000000  0.50000000  1
  Hg  Hg1  1  0.00000000  0.00000000  0.00000000  1
  S  S2  1  0.69833800  0.72418400  0.39925600  1
  S  S3  1  0.32492800  0.29908200  0.60074400  1
  S  S4  1  0.70091800  0.30166200  0.02584700  1
  S  S5  1  0.27581600  0.67507200  0.97415300  1
