# generated using pymatgen
data_Ca7CN6
_symmetry_space_group_name_H-M   'P 1'
_cell_length_a   10.59999588
_cell_length_b   6.17271205
_cell_length_c   12.59382076
_cell_angle_alpha   90.00000000
_cell_angle_beta   90.00000000
_cell_angle_gamma   90.00000000
_symmetry_Int_Tables_number   1
_chemical_formula_structural   Ca7CN6
_chemical_formula_sum   'Ca28 C4 N24'
_cell_volume   824.02278882
_cell_formula_units_Z   4
loop_
 _symmetry_equiv_pos_site_id
 _symmetry_equiv_pos_as_xyz
  1  'x, y, z'
loop_
 _atom_site_type_symbol
 _atom_site_label
 _atom_site_symmetry_multiplicity
 _atom_site_fract_x
 _atom_site_fract_y
 _atom_site_fract_z
 _atom_site_occupancy
  Ca  Ca0  1  0.04339724  0.74221617  0.98558764  1
  Ca  Ca1  1  0.45660276  0.75778383  0.48558764  1
  Ca  Ca2  1  0.54339724  0.75778383  0.01441236  1
  Ca  Ca3  1  0.95660276  0.74221617  0.51441236  1
  Ca  Ca4  1  0.95660276  0.25778383  0.01441236  1
  Ca  Ca5  1  0.54339724  0.24221617  0.51441236  1
  Ca  Ca6  1  0.45660276  0.24221617  0.98558764  1
  Ca  Ca7  1  0.04339724  0.25778383  0.48558764  1
  Ca  Ca8  1  0.21407126  0.86191872  0.62376836  1
  Ca  Ca9  1  0.28592874  0.63808128  0.12376836  1
  Ca  Ca10  1  0.71407126  0.63808128  0.37623164  1
  Ca  Ca11  1  0.78592874  0.86191872  0.87623164  1
  Ca  Ca12  1  0.78592874  0.13808128  0.37623164  1
  Ca  Ca13  1  0.71407126  0.36191872  0.87623164  1
  Ca  Ca14  1  0.28592874  0.36191872  0.62376836  1
  Ca  Ca15  1  0.21407126  0.13808128  0.12376836  1
  Ca  Ca16  1  0.29563549  0.62583800  0.86713008  1
  Ca  Ca17  1  0.20436451  0.87416200  0.36713008  1
  Ca  Ca18  1  0.79563549  0.87416200  0.13286992  1
  Ca  Ca19  1  0.70436451  0.62583800  0.63286992  1
  Ca  Ca20  1  0.70436451  0.37416200  0.13286992  1
  Ca  Ca21  1  0.79563549  0.12583800  0.63286992  1
  Ca  Ca22  1  0.20436451  0.12583800  0.86713008  1
  Ca  Ca23  1  0.29563549  0.37416200  0.36713008  1
  Ca  Ca24  1  0.00000000  0.46145703  0.75000000  1
  Ca  Ca25  1  0.50000000  0.03854297  0.25000000  1
  Ca  Ca26  1  0.00000000  0.53854297  0.25000000  1
  Ca  Ca27  1  0.50000000  0.96145703  0.75000000  1
  C  C28  1  0.00000000  0.93958566  0.75000000  1
  C  C29  1  0.50000000  0.56041434  0.25000000  1
  C  C30  1  0.00000000  0.06041434  0.25000000  1
  C  C31  1  0.50000000  0.43958566  0.75000000  1
  N  N32  1  0.11228142  0.79011465  0.78921528  1
  N  N33  1  0.38771858  0.70988535  0.28921528  1
  N  N34  1  0.61228142  0.70988535  0.21078472  1
  N  N35  1  0.88771858  0.79011465  0.71078472  1
  N  N36  1  0.88771858  0.20988535  0.21078472  1
  N  N37  1  0.61228142  0.29011465  0.71078472  1
  N  N38  1  0.38771858  0.29011465  0.78921528  1
  N  N39  1  0.11228142  0.20988535  0.28921528  1
  N  N40  1  0.16695379  0.58844756  0.49919346  1
  N  N41  1  0.33304621  0.91155244  0.99919346  1
  N  N42  1  0.66695379  0.91155244  0.50080654  1
  N  N43  1  0.83304621  0.58844756  0.00080654  1
  N  N44  1  0.83304621  0.41155244  0.50080654  1
  N  N45  1  0.66695379  0.08844756  0.00080654  1
  N  N46  1  0.33304621  0.08844756  0.49919346  1
  N  N47  1  0.16695379  0.41155244  0.99919346  1
  N  N48  1  0.46407946  0.58322286  0.65572544  1
  N  N49  1  0.03592054  0.91677714  0.15572544  1
  N  N50  1  0.96407946  0.91677714  0.34427456  1
  N  N51  1  0.53592054  0.58322286  0.84427456  1
  N  N52  1  0.53592054  0.41677714  0.34427456  1
  N  N53  1  0.96407946  0.08322286  0.84427456  1
  N  N54  1  0.03592054  0.08322286  0.65572544  1
  N  N55  1  0.46407946  0.41677714  0.15572544  1
