# generated using pymatgen
data_Ba7SiN6
_symmetry_space_group_name_H-M   'P 1'
_cell_length_a   12.50741400
_cell_length_b   7.01253700
_cell_length_c   14.39372000
_cell_angle_alpha   90.00000000
_cell_angle_beta   90.00000000
_cell_angle_gamma   90.00000000
_symmetry_Int_Tables_number   1
_chemical_formula_structural   Ba7SiN6
_chemical_formula_sum   'Ba28 Si4 N24'
_cell_volume   1262.45451901
_cell_formula_units_Z   4
loop_
 _symmetry_equiv_pos_site_id
 _symmetry_equiv_pos_as_xyz
  1  'x, y, z'
loop_
 _atom_site_type_symbol
 _atom_site_label
 _atom_site_symmetry_multiplicity
 _atom_site_fract_x
 _atom_site_fract_y
 _atom_site_fract_z
 _atom_site_occupancy
  Ba  Ba0  1  0.03863800  0.74410800  0.98318800  1
  Ba  Ba1  1  0.46136200  0.75589200  0.48318800  1
  Ba  Ba2  1  0.53863800  0.75589200  0.01681200  1
  Ba  Ba3  1  0.96136200  0.74410800  0.51681200  1
  Ba  Ba4  1  0.96136200  0.25589200  0.01681200  1
  Ba  Ba5  1  0.53863800  0.24410800  0.51681200  1
  Ba  Ba6  1  0.46136200  0.24410800  0.98318800  1
  Ba  Ba7  1  0.03863800  0.25589200  0.48318800  1
  Ba  Ba8  1  0.21737100  0.85597700  0.62569600  1
  Ba  Ba9  1  0.28262900  0.64402300  0.12569600  1
  Ba  Ba10  1  0.71737100  0.64402300  0.37430400  1
  Ba  Ba11  1  0.78262900  0.85597700  0.87430400  1
  Ba  Ba12  1  0.78262900  0.14402300  0.37430400  1
  Ba  Ba13  1  0.71737100  0.35597700  0.87430400  1
  Ba  Ba14  1  0.28262900  0.35597700  0.62569600  1
  Ba  Ba15  1  0.21737100  0.14402300  0.12569600  1
  Ba  Ba16  1  0.28949200  0.60409400  0.86713000  1
  Ba  Ba17  1  0.21050800  0.89590600  0.36713000  1
  Ba  Ba18  1  0.78949200  0.89590600  0.13287000  1
  Ba  Ba19  1  0.71050800  0.60409400  0.63287000  1
  Ba  Ba20  1  0.71050800  0.39590600  0.13287000  1
  Ba  Ba21  1  0.78949200  0.10409400  0.63287000  1
  Ba  Ba22  1  0.21050800  0.10409400  0.86713000  1
  Ba  Ba23  1  0.28949200  0.39590600  0.36713000  1
  Ba  Ba24  1  0.00000000  0.43209300  0.75000000  1
  Ba  Ba25  1  0.50000000  0.06790700  0.25000000  1
  Ba  Ba26  1  0.00000000  0.56790700  0.25000000  1
  Ba  Ba27  1  0.50000000  0.93209300  0.75000000  1
  Si  Si28  1  0.00000000  0.91354500  0.75000000  1
  Si  Si29  1  0.50000000  0.58645500  0.25000000  1
  Si  Si30  1  0.00000000  0.08645500  0.25000000  1
  Si  Si31  1  0.50000000  0.41354500  0.75000000  1
  N  N32  1  0.11132700  0.76274200  0.78707800  1
  N  N33  1  0.38867300  0.73725800  0.28707800  1
  N  N34  1  0.61132700  0.73725800  0.21292200  1
  N  N35  1  0.88867300  0.76274200  0.71292200  1
  N  N36  1  0.88867300  0.23725800  0.21292200  1
  N  N37  1  0.61132700  0.26274200  0.71292200  1
  N  N38  1  0.38867300  0.26274200  0.78707800  1
  N  N39  1  0.11132700  0.23725800  0.28707800  1
  N  N40  1  0.16263100  0.60922600  0.49560000  1
  N  N41  1  0.33736900  0.89077400  0.99560000  1
  N  N42  1  0.66263100  0.89077400  0.50440000  1
  N  N43  1  0.83736900  0.60922600  0.00440000  1
  N  N44  1  0.83736900  0.39077400  0.50440000  1
  N  N45  1  0.66263100  0.10922600  0.00440000  1
  N  N46  1  0.33736900  0.10922600  0.49560000  1
  N  N47  1  0.16263100  0.39077400  0.99560000  1
  N  N48  1  0.46200700  0.56116000  0.65192300  1
  N  N49  1  0.03799300  0.93884000  0.15192300  1
  N  N50  1  0.96200700  0.93884000  0.34807700  1
  N  N51  1  0.53799300  0.56116000  0.84807700  1
  N  N52  1  0.53799300  0.43884000  0.34807700  1
  N  N53  1  0.96200700  0.06116000  0.84807700  1
  N  N54  1  0.03799300  0.06116000  0.65192300  1
  N  N55  1  0.46200700  0.43884000  0.15192300  1
