# generated using pymatgen
data_Sr7IrN6
_symmetry_space_group_name_H-M   'P 1'
_cell_length_a   11.92566166
_cell_length_b   6.70869366
_cell_length_c   14.15154002
_cell_angle_alpha   90.00000000
_cell_angle_beta   90.00000000
_cell_angle_gamma   90.00000000
_symmetry_Int_Tables_number   1
_chemical_formula_structural   Sr7IrN6
_chemical_formula_sum   'Sr28 Ir4 N24'
_cell_volume   1132.20260263
_cell_formula_units_Z   4
loop_
 _symmetry_equiv_pos_site_id
 _symmetry_equiv_pos_as_xyz
  1  'x, y, z'
loop_
 _atom_site_type_symbol
 _atom_site_label
 _atom_site_symmetry_multiplicity
 _atom_site_fract_x
 _atom_site_fract_y
 _atom_site_fract_z
 _atom_site_occupancy
  Sr  Sr0  1  0.03589223  0.73122568  0.98265326  1
  Sr  Sr1  1  0.46410777  0.76877432  0.48265326  1
  Sr  Sr2  1  0.53589223  0.76877432  0.01734674  1
  Sr  Sr3  1  0.96410777  0.73122568  0.51734674  1
  Sr  Sr4  1  0.96410777  0.26877432  0.01734674  1
  Sr  Sr5  1  0.53589223  0.23122568  0.51734674  1
  Sr  Sr6  1  0.46410777  0.23122568  0.98265326  1
  Sr  Sr7  1  0.03589223  0.26877432  0.48265326  1
  Sr  Sr8  1  0.21520828  0.87000466  0.62678928  1
  Sr  Sr9  1  0.28479172  0.62999534  0.12678928  1
  Sr  Sr10  1  0.71520828  0.62999534  0.37321072  1
  Sr  Sr11  1  0.78479172  0.87000466  0.87321072  1
  Sr  Sr12  1  0.78479172  0.12999534  0.37321072  1
  Sr  Sr13  1  0.71520828  0.37000466  0.87321072  1
  Sr  Sr14  1  0.28479172  0.37000466  0.62678928  1
  Sr  Sr15  1  0.21520828  0.12999534  0.12678928  1
  Sr  Sr16  1  0.28894767  0.60718484  0.88269052  1
  Sr  Sr17  1  0.21105233  0.89281516  0.38269052  1
  Sr  Sr18  1  0.78894767  0.89281516  0.11730948  1
  Sr  Sr19  1  0.71105233  0.60718484  0.61730948  1
  Sr  Sr20  1  0.71105233  0.39281516  0.11730948  1
  Sr  Sr21  1  0.78894767  0.10718484  0.61730948  1
  Sr  Sr22  1  0.21105233  0.10718484  0.88269052  1
  Sr  Sr23  1  0.28894767  0.39281516  0.38269052  1
  Sr  Sr24  1  0.00000000  0.42954118  0.75000000  1
  Sr  Sr25  1  0.50000000  0.07045882  0.25000000  1
  Sr  Sr26  1  -0.00000000  0.57045882  0.25000000  1
  Sr  Sr27  1  0.50000000  0.92954118  0.75000000  1
  Ir  Ir28  1  -0.00000000  0.92178155  0.75000000  1
  Ir  Ir29  1  0.50000000  0.57821845  0.25000000  1
  Ir  Ir30  1  0.00000000  0.07821845  0.25000000  1
  Ir  Ir31  1  0.50000000  0.42178155  0.75000000  1
  N  N32  1  0.12356619  0.75524009  0.79682695  1
  N  N33  1  0.37643381  0.74475991  0.29682695  1
  N  N34  1  0.62356619  0.74475991  0.20317305  1
  N  N35  1  0.87643381  0.75524009  0.70317305  1
  N  N36  1  0.87643381  0.24475991  0.20317305  1
  N  N37  1  0.62356619  0.25524009  0.70317305  1
  N  N38  1  0.37643381  0.25524009  0.79682695  1
  N  N39  1  0.12356619  0.24475991  0.29682695  1
  N  N40  1  0.16910944  0.59575808  0.50811908  1
  N  N41  1  0.33089056  0.90424192  0.00811908  1
  N  N42  1  0.66910944  0.90424192  0.49188092  1
  N  N43  1  0.83089056  0.59575808  0.99188092  1
  N  N44  1  0.83089056  0.40424192  0.49188092  1
  N  N45  1  0.66910944  0.09575808  0.99188092  1
  N  N46  1  0.33089056  0.09575808  0.50811908  1
  N  N47  1  0.16910944  0.40424192  0.00811908  1
  N  N48  1  0.47521173  0.58565640  0.63762605  1
  N  N49  1  0.02478827  0.91434360  0.13762605  1
  N  N50  1  0.97521173  0.91434360  0.36237395  1
  N  N51  1  0.52478827  0.58565640  0.86237395  1
  N  N52  1  0.52478827  0.41434360  0.36237395  1
  N  N53  1  0.97521173  0.08565640  0.86237395  1
  N  N54  1  0.02478827  0.08565640  0.63762605  1
  N  N55  1  0.47521173  0.41434360  0.13762605  1
